MODEL 1
REMARK minimizedAffinity -0.91736269
REMARK minimizedRMSD -1
REMARK  1 active torsions:
REMARK  status: ('A' for Active; 'I' for Inactive)
REMARK    1  A    between atoms: C1_2  and  C2_3 
ROOT
ATOM      1  C2  UNL d   1      -4.751   2.476  -5.826  0.00  0.00    -0.081 A 
ATOM      2  C3  UNL d   1      -4.837   3.862  -5.645  0.00  0.00     0.006 A 
ATOM      3  C4  UNL d   1      -3.679   4.638  -5.563  0.00  0.00     0.002 A 
ATOM      4  C5  UNL d   1      -2.417   4.044  -5.670  0.00  0.00    -0.080 A 
ATOM      5  C6  UNL d   1      -1.167   4.871  -5.614  0.00  0.00     0.076 C 
ATOM      6  C7  UNL d   1      -2.331   2.658  -5.833  0.00  0.00     0.002 A 
ATOM      7  C8  UNL d   1      -3.488   1.880  -5.914  0.00  0.00     0.006 A 
ENDROOT
BRANCH   1   8
ATOM      8  C1  UNL d   1      -5.999   1.644  -5.979  0.00  0.00     0.054 C 
ATOM      9  C   UNL d   1      -5.674   0.157  -5.997  0.00  0.00     0.018 C 
ENDBRANCH   1   8
TORSDOF 1
ENDMDL
