MODEL 1
REMARK minimizedAffinity 6.8592515
REMARK minimizedRMSD -1
REMARK  1 active torsions:
REMARK  status: ('A' for Active; 'I' for Inactive)
REMARK    1  A    between atoms: C1_2  and  C2_3 
ROOT
ATOM      1  C2  UNL d   1      -3.596   4.335  -5.723  0.00  0.00    -0.081 A 
ATOM      2  C3  UNL d   1      -4.953   4.066  -5.941  0.00  0.00     0.006 A 
ATOM      3  C4  UNL d   1      -5.486   2.814  -5.628  0.00  0.00     0.002 A 
ATOM      4  C5  UNL d   1      -4.675   1.813  -5.083  0.00  0.00    -0.080 A 
ATOM      5  C6  UNL d   1      -5.242   0.474  -4.714  0.00  0.00     0.076 C 
ATOM      6  C7  UNL d   1      -3.316   2.075  -4.881  0.00  0.00     0.002 A 
ATOM      7  C8  UNL d   1      -2.781   3.327  -5.195  0.00  0.00     0.006 A 
ENDROOT
BRANCH   1   8
ATOM      8  C1  UNL d   1      -3.031   5.705  -6.000  0.00  0.00     0.054 C 
ATOM      9  C   UNL d   1      -1.509   5.689  -5.988  0.00  0.00     0.018 C 
ENDBRANCH   1   8
TORSDOF 1
ENDMDL
