MODEL 1
REMARK minimizedAffinity -3.28750443
REMARK minimizedRMSD -1
REMARK  1 active torsions:
REMARK  status: ('A' for Active; 'I' for Inactive)
REMARK    1  A    between atoms: C1_2  and  C2_3 
ROOT
ATOM      1  C2  UNL d   1      -2.360  -4.160  -5.373  0.00  0.00    -0.081 A 
ATOM      2  C3  UNL d   1      -1.083  -4.245  -4.804  0.00  0.00     0.006 A 
ATOM      3  C4  UNL d   1      -0.511  -3.135  -4.179  0.00  0.00     0.002 A 
ATOM      4  C5  UNL d   1      -1.208  -1.924  -4.104  0.00  0.00    -0.080 A 
ATOM      5  C6  UNL d   1      -0.618  -0.734  -3.409  0.00  0.00     0.076 C 
ATOM      6  C7  UNL d   1      -2.477  -1.834  -4.687  0.00  0.00     0.002 A 
ATOM      7  C8  UNL d   1      -3.049  -2.943  -5.313  0.00  0.00     0.006 A 
ENDROOT
BRANCH   1   8
ATOM      8  C1  UNL d   1      -3.006  -5.373  -5.991  0.00  0.00     0.054 C 
ATOM      9  C   UNL d   1      -4.523  -5.251  -5.995  0.00  0.00     0.018 C 
ENDBRANCH   1   8
TORSDOF 1
ENDMDL
