MODEL 1
REMARK minimizedAffinity -5.71061134
REMARK minimizedRMSD -1
REMARK  1 active torsions:
REMARK  status: ('A' for Active; 'I' for Inactive)
REMARK    1  A    between atoms: C1_2  and  C2_3 
ROOT
ATOM      1  C2  UNL d   1       4.192  -2.309  -4.302  0.00  0.00    -0.081 A 
ATOM      2  C3  UNL d   1       3.878  -2.968  -3.107  0.00  0.00     0.006 A 
ATOM      3  C4  UNL d   1       3.009  -2.382  -2.183  0.00  0.00     0.002 A 
ATOM      4  C5  UNL d   1       2.434  -1.134  -2.442  0.00  0.00    -0.080 A 
ATOM      5  C6  UNL d   1       1.476  -0.508  -1.472  0.00  0.00     0.076 C 
ATOM      6  C7  UNL d   1       2.761  -0.468  -3.628  0.00  0.00     0.002 A 
ATOM      7  C8  UNL d   1       3.631  -1.052  -4.552  0.00  0.00     0.006 A 
ENDROOT
BRANCH   1   8
ATOM      8  C1  UNL d   1       5.078  -2.967  -5.329  0.00  0.00     0.054 C 
ATOM      9  C   UNL d   1       5.996  -1.954  -5.998  0.00  0.00     0.018 C 
ENDBRANCH   1   8
TORSDOF 1
ENDMDL
