MODEL 1
REMARK minimizedAffinity -0.939112723
REMARK minimizedRMSD -1
REMARK  1 active torsions:
REMARK  status: ('A' for Active; 'I' for Inactive)
REMARK    1  A    between atoms: C1_2  and  C2_3 
ROOT
ATOM      1  C2  UNL d   1      -4.306   0.024  -5.884  0.00  0.00    -0.081 A 
ATOM      2  C3  UNL d   1      -5.012  -1.180  -6.000  0.00  0.00     0.006 A 
ATOM      3  C4  UNL d   1      -4.359  -2.403  -5.833  0.00  0.00     0.002 A 
ATOM      4  C5  UNL d   1      -2.991  -2.443  -5.540  0.00  0.00    -0.080 A 
ATOM      5  C6  UNL d   1      -2.284  -3.749  -5.328  0.00  0.00     0.076 C 
ATOM      6  C7  UNL d   1      -2.282  -1.241  -5.441  0.00  0.00     0.002 A 
ATOM      7  C8  UNL d   1      -2.935  -0.018  -5.609  0.00  0.00     0.006 A 
ENDROOT
BRANCH   1   8
ATOM      8  C1  UNL d   1      -5.021   1.346  -6.000  0.00  0.00     0.054 C 
ATOM      9  C   UNL d   1      -4.107   2.503  -5.625  0.00  0.00     0.018 C 
ENDBRANCH   1   8
TORSDOF 1
ENDMDL
