MODEL 1
REMARK minimizedAffinity 8.09055328
REMARK minimizedRMSD -1
REMARK  1 active torsions:
REMARK  status: ('A' for Active; 'I' for Inactive)
REMARK    1  A    between atoms: C1_2  and  C2_3 
ROOT
ATOM      1  C2  UNL d   1      -4.345   3.512  -5.745  0.00  0.00    -0.081 A 
ATOM      2  C3  UNL d   1      -5.652   3.058  -5.957  0.00  0.00     0.006 A 
ATOM      3  C4  UNL d   1      -6.000   1.737  -5.663  0.00  0.00     0.002 A 
ATOM      4  C5  UNL d   1      -5.049   0.851  -5.146  0.00  0.00    -0.080 A 
ATOM      5  C6  UNL d   1      -5.416  -0.561  -4.799  0.00  0.00     0.076 C 
ATOM      6  C7  UNL d   1      -3.738   1.299  -4.951  0.00  0.00     0.002 A 
ATOM      7  C8  UNL d   1      -3.390   2.620  -5.245  0.00  0.00     0.006 A 
ENDROOT
BRANCH   1   8
ATOM      8  C1  UNL d   1      -3.983   4.953  -6.000  0.00  0.00     0.054 C 
ATOM      9  C   UNL d   1      -2.509   5.210  -5.723  0.00  0.00     0.018 C 
ENDBRANCH   1   8
TORSDOF 1
ENDMDL
