MODEL 1
REMARK minimizedAffinity -3.77316308
REMARK minimizedRMSD -1
REMARK  0 active torsions:
REMARK  status: ('A' for Active; 'I' for Inactive)
ROOT
ATOM      1  C1  BNZ d   1      -0.353  -0.275   0.218  0.00  0.00     0.000 A 
ATOM      2  C2  BNZ d   1       0.538  -0.927  -0.592  0.00  0.00     0.000 A 
ATOM      3  C3  BNZ d   1       0.728  -2.276  -0.481  0.00  0.00     0.000 A 
ATOM      4  C4  BNZ d   1       0.057  -2.964   0.465  0.00  0.00     0.000 A 
ATOM      5  C5  BNZ d   1      -0.839  -2.320   1.295  0.00  0.00     0.000 A 
ATOM      6  C6  BNZ d   1      -1.056  -0.969   1.155  0.00  0.00     0.000 A 
ENDROOT
TORSDOF 0
ENDMDL
