MODEL 1
REMARK minimizedAffinity -2.17832232
REMARK minimizedRMSD -1
REMARK  0 active torsions:
REMARK  status: ('A' for Active; 'I' for Inactive)
ROOT
ATOM      1  C1  BNZ d   1      -0.819   0.149   0.986  0.00  0.00     0.000 A 
ATOM      2  C2  BNZ d   1      -0.853  -1.217   0.897  0.00  0.00     0.000 A 
ATOM      3  C3  BNZ d   1      -0.004  -1.886   0.060  0.00  0.00     0.000 A 
ATOM      4  C4  BNZ d   1       0.851  -1.186  -0.714  0.00  0.00     0.000 A 
ATOM      5  C5  BNZ d   1       0.891   0.192  -0.643  0.00  0.00     0.000 A 
ATOM      6  C6  BNZ d   1       0.061   0.859   0.229  0.00  0.00     0.000 A 
ENDROOT
TORSDOF 0
ENDMDL
