MODEL 1
REMARK minimizedAffinity -4.17120504
REMARK minimizedRMSD -1
REMARK  0 active torsions:
REMARK  status: ('A' for Active; 'I' for Inactive)
ROOT
ATOM      1  C1  BNZ d   1      -0.243  -0.269   1.145  0.00  0.00     0.000 A 
ATOM      2  C2  BNZ d   1       0.115  -1.582   0.999  0.00  0.00     0.000 A 
ATOM      3  C3  BNZ d   1       0.505  -2.071  -0.216  0.00  0.00     0.000 A 
ATOM      4  C4  BNZ d   1       0.496  -1.258  -1.292  0.00  0.00     0.000 A 
ATOM      5  C5  BNZ d   1       0.128   0.067  -1.163  0.00  0.00     0.000 A 
ATOM      6  C6  BNZ d   1      -0.226   0.565   0.069  0.00  0.00     0.000 A 
ENDROOT
TORSDOF 0
ENDMDL
