MODEL 1
REMARK minimizedAffinity -4.01871824
REMARK minimizedRMSD -1
REMARK  0 active torsions:
REMARK  status: ('A' for Active; 'I' for Inactive)
ROOT
ATOM      1  C1  BNZ d   1       0.785  -1.060  -0.196  0.00  0.00     0.000 A 
ATOM      2  C2  BNZ d   1       1.035  -2.394  -0.010  0.00  0.00     0.000 A 
ATOM      3  C3  BNZ d   1       0.161  -3.179   0.688  0.00  0.00     0.000 A 
ATOM      4  C4  BNZ d   1      -0.941  -2.623   1.232  0.00  0.00     0.000 A 
ATOM      5  C5  BNZ d   1      -1.202  -1.279   1.061  0.00  0.00     0.000 A 
ATOM      6  C6  BNZ d   1      -0.340  -0.499   0.325  0.00  0.00     0.000 A 
ENDROOT
TORSDOF 0
ENDMDL
