MODEL 1
REMARK minimizedAffinity -4.51846504
REMARK minimizedRMSD -1
REMARK  0 active torsions:
REMARK  status: ('A' for Active; 'I' for Inactive)
ROOT
ATOM      1  C1  BNZ d   1       0.685  -0.945  -0.912  0.00  0.00     0.000 A 
ATOM      2  C2  BNZ d   1       0.721  -2.313  -0.950  0.00  0.00     0.000 A 
ATOM      3  C3  BNZ d   1       0.016  -3.057  -0.047  0.00  0.00     0.000 A 
ATOM      4  C4  BNZ d   1      -0.692  -2.434   0.917  0.00  0.00     0.000 A 
ATOM      5  C5  BNZ d   1      -0.731  -1.055   0.974  0.00  0.00     0.000 A 
ATOM      6  C6  BNZ d   1      -0.051  -0.309   0.039  0.00  0.00     0.000 A 
ENDROOT
TORSDOF 0
ENDMDL
