MODEL 1
REMARK minimizedAffinity -4.5147562
REMARK minimizedRMSD -1
REMARK  0 active torsions:
REMARK  status: ('A' for Active; 'I' for Inactive)
ROOT
ATOM      1  C1  BNZ d   1      -0.608  -2.608   0.311  0.00  0.00     0.000 A 
ATOM      2  C2  BNZ d   1       0.131  -1.835  -0.545  0.00  0.00     0.000 A 
ATOM      3  C3  BNZ d   1       0.078  -0.471  -0.479  0.00  0.00     0.000 A 
ATOM      4  C4  BNZ d   1      -0.743   0.118   0.414  0.00  0.00     0.000 A 
ATOM      5  C5  BNZ d   1      -1.501  -0.647   1.278  0.00  0.00     0.000 A 
ATOM      6  C6  BNZ d   1      -1.416  -2.020   1.235  0.00  0.00     0.000 A 
ENDROOT
TORSDOF 0
ENDMDL
