MODEL 1
REMARK minimizedAffinity -1.66239011
REMARK minimizedRMSD -1
REMARK  0 active torsions:
REMARK  status: ('A' for Active; 'I' for Inactive)
ROOT
ATOM      1  C1  BNZ d   1       0.333   0.707  -2.029  0.00  0.00     0.000 A 
ATOM      2  C2  BNZ d   1       0.482  -0.616  -1.706  0.00  0.00     0.000 A 
ATOM      3  C3  BNZ d   1       0.273  -1.052  -0.427  0.00  0.00     0.000 A 
ATOM      4  C4  BNZ d   1      -0.045  -0.160   0.534  0.00  0.00     0.000 A 
ATOM      5  C5  BNZ d   1      -0.189   1.178   0.226  0.00  0.00     0.000 A 
ATOM      6  C6  BNZ d   1      -0.017   1.607  -1.070  0.00  0.00     0.000 A 
ENDROOT
TORSDOF 0
ENDMDL
