MODEL 1
REMARK minimizedAffinity -4.60065222
REMARK minimizedRMSD -1
REMARK  0 active torsions:
REMARK  status: ('A' for Active; 'I' for Inactive)
ROOT
ATOM      1  C1  BNZ d   1       0.740  -1.496  -0.799  0.00  0.00     0.000 A 
ATOM      2  C2  BNZ d   1       0.428  -0.163  -0.751  0.00  0.00     0.000 A 
ATOM      3  C3  BNZ d   1      -0.474   0.312   0.160  0.00  0.00     0.000 A 
ATOM      4  C4  BNZ d   1      -1.092  -0.549   0.993  0.00  0.00     0.000 A 
ATOM      5  C5  BNZ d   1      -0.796  -1.897   0.950  0.00  0.00     0.000 A 
ATOM      6  C6  BNZ d   1       0.142  -2.367   0.059  0.00  0.00     0.000 A 
ENDROOT
TORSDOF 0
ENDMDL
