MODEL 1
REMARK minimizedAffinity -4.35711336
REMARK minimizedRMSD -1
REMARK  0 active torsions:
REMARK  status: ('A' for Active; 'I' for Inactive)
ROOT
ATOM      1  C1  BNZ d   1      -0.459  -1.661   1.180  0.00  0.00     0.000 A 
ATOM      2  C2  BNZ d   1      -0.589  -0.346   1.539  0.00  0.00     0.000 A 
ATOM      3  C3  BNZ d   1      -0.370   0.653   0.632  0.00  0.00     0.000 A 
ATOM      4  C4  BNZ d   1       0.019   0.337  -0.620  0.00  0.00     0.000 A 
ATOM      5  C5  BNZ d   1       0.164  -0.984  -0.995  0.00  0.00     0.000 A 
ATOM      6  C6  BNZ d   1      -0.096  -1.987  -0.090  0.00  0.00     0.000 A 
ENDROOT
TORSDOF 0
ENDMDL
