MODEL 1
REMARK minimizedAffinity -4.94721746
REMARK minimizedRMSD -1
REMARK  0 active torsions:
REMARK  status: ('A' for Active; 'I' for Inactive)
ROOT
ATOM      1  C1  BNZ d   1       0.433  -1.489  -0.852  0.00  0.00     0.000 A 
ATOM      2  C2  BNZ d   1      -0.004  -2.370   0.101  0.00  0.00     0.000 A 
ATOM      3  C3  BNZ d   1      -0.837  -1.959   1.105  0.00  0.00     0.000 A 
ATOM      4  C4  BNZ d   1      -1.199  -0.662   1.177  0.00  0.00     0.000 A 
ATOM      5  C5  BNZ d   1      -0.759   0.240   0.229  0.00  0.00     0.000 A 
ATOM      6  C6  BNZ d   1       0.048  -0.185  -0.802  0.00  0.00     0.000 A 
ENDROOT
TORSDOF 0
ENDMDL
