MODEL 1
REMARK minimizedAffinity -4.15158033
REMARK minimizedRMSD -1
REMARK  0 active torsions:
REMARK  status: ('A' for Active; 'I' for Inactive)
ROOT
ATOM      1  C1  BNZ d   1      -1.429  -0.132   1.208  0.00  0.00     0.000 A 
ATOM      2  C2  BNZ d   1      -1.059  -1.447   1.111  0.00  0.00     0.000 A 
ATOM      3  C3  BNZ d   1      -0.102  -1.840   0.218  0.00  0.00     0.000 A 
ATOM      4  C4  BNZ d   1       0.452  -0.927  -0.605  0.00  0.00     0.000 A 
ATOM      5  C5  BNZ d   1       0.082   0.401  -0.527  0.00  0.00     0.000 A 
ATOM      6  C6  BNZ d   1      -0.852   0.800   0.401  0.00  0.00     0.000 A 
ENDROOT
TORSDOF 0
ENDMDL
