MODEL 1
REMARK minimizedAffinity -5.35335207
REMARK minimizedRMSD -1
REMARK  0 active torsions:
REMARK  status: ('A' for Active; 'I' for Inactive)
ROOT
ATOM      1  C1  BNZ d   1       0.142  -0.749  -0.648  0.00  0.00     0.000 A 
ATOM      2  C2  BNZ d   1       0.323  -1.386  -1.847  0.00  0.00     0.000 A 
ATOM      3  C3  BNZ d   1       0.215  -2.745  -1.941  0.00  0.00     0.000 A 
ATOM      4  C4  BNZ d   1      -0.035  -3.468  -0.830  0.00  0.00     0.000 A 
ATOM      5  C5  BNZ d   1      -0.211  -2.842   0.387  0.00  0.00     0.000 A 
ATOM      6  C6  BNZ d   1      -0.140  -1.470   0.471  0.00  0.00     0.000 A 
ENDROOT
TORSDOF 0
ENDMDL
