MODEL 1
REMARK minimizedAffinity -4.72684574
REMARK minimizedRMSD -1
REMARK  0 active torsions:
REMARK  status: ('A' for Active; 'I' for Inactive)
ROOT
ATOM      1  C1  BNZ d   1       0.725  -1.956  -1.432  0.00  0.00     0.000 A 
ATOM      2  C2  BNZ d   1       0.376  -0.660  -1.163  0.00  0.00     0.000 A 
ATOM      3  C3  BNZ d   1      -0.184  -0.320   0.036  0.00  0.00     0.000 A 
ATOM      4  C4  BNZ d   1      -0.430  -1.281   0.950  0.00  0.00     0.000 A 
ATOM      5  C5  BNZ d   1      -0.092  -2.594   0.691  0.00  0.00     0.000 A 
ATOM      6  C6  BNZ d   1       0.507  -2.927  -0.503  0.00  0.00     0.000 A 
ENDROOT
TORSDOF 0
ENDMDL
