MODEL 1
REMARK minimizedAffinity -4.14928341
REMARK minimizedRMSD -1
REMARK  0 active torsions:
REMARK  status: ('A' for Active; 'I' for Inactive)
ROOT
ATOM      1  C1  BNZ d   1      -1.110  -0.740   0.976  0.00  0.00     0.000 A 
ATOM      2  C2  BNZ d   1      -0.499  -1.954   1.142  0.00  0.00     0.000 A 
ATOM      3  C3  BNZ d   1       0.674  -2.239   0.501  0.00  0.00     0.000 A 
ATOM      4  C4  BNZ d   1       1.213  -1.328  -0.334  0.00  0.00     0.000 A 
ATOM      5  C5  BNZ d   1       0.603  -0.103  -0.519  0.00  0.00     0.000 A 
ATOM      6  C6  BNZ d   1      -0.557   0.196   0.158  0.00  0.00     0.000 A 
ENDROOT
TORSDOF 0
ENDMDL
