MODEL 1
REMARK minimizedAffinity -4.30395508
REMARK minimizedRMSD -1
REMARK  0 active torsions:
REMARK  status: ('A' for Active; 'I' for Inactive)
ROOT
ATOM      1  C1  BNZ d   1       0.590  -1.826  -1.013  0.00  0.00     0.000 A 
ATOM      2  C2  BNZ d   1      -0.061  -2.564  -0.061  0.00  0.00     0.000 A 
ATOM      3  C3  BNZ d   1      -0.692  -1.954   0.987  0.00  0.00     0.000 A 
ATOM      4  C4  BNZ d   1      -0.637  -0.611   1.103  0.00  0.00     0.000 A 
ATOM      5  C5  BNZ d   1       0.024   0.146   0.157  0.00  0.00     0.000 A 
ATOM      6  C6  BNZ d   1       0.625  -0.468  -0.918  0.00  0.00     0.000 A 
ENDROOT
TORSDOF 0
ENDMDL
