MODEL 1
REMARK minimizedAffinity -5.02143192
REMARK minimizedRMSD -1
REMARK  0 active torsions:
REMARK  status: ('A' for Active; 'I' for Inactive)
ROOT
ATOM      1  C1  BNZ d   1      -0.948  -1.858   1.147  0.00  0.00     0.000 A 
ATOM      2  C2  BNZ d   1      -1.139  -0.506   1.036  0.00  0.00     0.000 A 
ATOM      3  C3  BNZ d   1      -0.347   0.248   0.217  0.00  0.00     0.000 A 
ATOM      4  C4  BNZ d   1       0.660  -0.343  -0.459  0.00  0.00     0.000 A 
ATOM      5  C5  BNZ d   1       0.871  -1.703  -0.351  0.00  0.00     0.000 A 
ATOM      6  C6  BNZ d   1       0.047  -2.465   0.445  0.00  0.00     0.000 A 
ENDROOT
TORSDOF 0
ENDMDL
