MODEL 1
REMARK minimizedAffinity -4.50128412
REMARK minimizedRMSD -1
REMARK  0 active torsions:
REMARK  status: ('A' for Active; 'I' for Inactive)
ROOT
ATOM      1  C1  BNZ d   1      -1.121  -0.626   1.312  0.00  0.00     0.000 A 
ATOM      2  C2  BNZ d   1      -1.073  -1.994   1.362  0.00  0.00     0.000 A 
ATOM      3  C3  BNZ d   1      -0.104  -2.685   0.691  0.00  0.00     0.000 A 
ATOM      4  C4  BNZ d   1       0.790  -2.012  -0.061  0.00  0.00     0.000 A 
ATOM      5  C5  BNZ d   1       0.750  -0.634  -0.129  0.00  0.00     0.000 A 
ATOM      6  C6  BNZ d   1      -0.204   0.061   0.579  0.00  0.00     0.000 A 
ENDROOT
TORSDOF 0
ENDMDL
