MODEL 1
REMARK minimizedAffinity 8.26410198
REMARK minimizedRMSD -1
REMARK  1 active torsions:
REMARK  status: ('A' for Active; 'I' for Inactive)
REMARK    1  A    between atoms: C1_2  and  C2_3 
ROOT
ATOM      1  C2  UNL d   1       4.960   1.562  -1.517  0.00  0.00    -0.077 A 
ATOM      2  C3  UNL d   1       4.999   1.623  -0.117  0.00  0.00     0.002 A 
ATOM      3  C4  UNL d   1       4.064   0.922   0.647  0.00  0.00     0.002 A 
ATOM      4  C5  UNL d   1       3.087   0.152   0.021  0.00  0.00    -0.004 A 
ATOM      5  C6  UNL d   1       3.038   0.087  -1.371  0.00  0.00     0.002 A 
ATOM      6  C7  UNL d   1       3.971   0.787  -2.137  0.00  0.00     0.002 A 
ENDROOT
BRANCH   1   7
ATOM      7  C1  UNL d   1       5.997   2.277  -2.342  0.00  0.00     0.055 C 
ATOM      8  C   UNL d   1       5.536   3.678  -2.719  0.00  0.00     0.019 C 
ENDBRANCH   1   7
TORSDOF 1
ENDMDL
