MODEL 1
REMARK minimizedAffinity 9.55191708
REMARK minimizedRMSD -1
REMARK  1 active torsions:
REMARK  status: ('A' for Active; 'I' for Inactive)
REMARK    1  A    between atoms: C1_2  and  C2_3 
ROOT
ATOM      1  C2  UNL d   1      -2.752  -2.947  -4.094  0.00  0.00    -0.077 A 
ATOM      2  C3  UNL d   1      -2.264  -4.104  -3.470  0.00  0.00     0.002 A 
ATOM      3  C4  UNL d   1      -1.298  -4.011  -2.466  0.00  0.00     0.002 A 
ATOM      4  C5  UNL d   1      -0.815  -2.764  -2.075  0.00  0.00    -0.004 A 
ATOM      5  C6  UNL d   1      -1.293  -1.607  -2.691  0.00  0.00     0.002 A 
ATOM      6  C7  UNL d   1      -2.258  -1.699  -3.695  0.00  0.00     0.002 A 
ENDROOT
BRANCH   1   7
ATOM      7  C1  UNL d   1      -3.829  -3.042  -5.143  0.00  0.00     0.055 C 
ATOM      8  C   UNL d   1      -4.830  -4.140  -4.810  0.00  0.00     0.019 C 
ENDBRANCH   1   7
TORSDOF 1
ENDMDL
