MODEL 1
REMARK minimizedAffinity 15.5128298
REMARK minimizedRMSD -1
REMARK  1 active torsions:
REMARK  status: ('A' for Active; 'I' for Inactive)
REMARK    1  A    between atoms: C1_2  and  C2_3 
ROOT
ATOM      1  C2  UNL d   1       0.765   3.604   2.622  0.00  0.00    -0.077 A 
ATOM      2  C3  UNL d   1       2.067   3.212   2.280  0.00  0.00     0.002 A 
ATOM      3  C4  UNL d   1       2.772   2.320   3.091  0.00  0.00     0.002 A 
ATOM      4  C5  UNL d   1       2.182   1.810   4.245  0.00  0.00    -0.004 A 
ATOM      5  C6  UNL d   1       0.888   2.195   4.595  0.00  0.00     0.002 A 
ATOM      6  C7  UNL d   1       0.182   3.087   3.786  0.00  0.00     0.002 A 
ENDROOT
BRANCH   1   7
ATOM      7  C1  UNL d   1      -0.015   4.527   1.723  0.00  0.00     0.055 C 
ATOM      8  C   UNL d   1      -1.100   3.776   0.965  0.00  0.00     0.019 C 
ENDBRANCH   1   7
TORSDOF 1
ENDMDL
