MODEL 1
REMARK minimizedAffinity 3.68642855
REMARK minimizedRMSD -1
REMARK  1 active torsions:
REMARK  status: ('A' for Active; 'I' for Inactive)
REMARK    1  A    between atoms: C1_2  and  C2_3 
ROOT
ATOM      1  C2  UNL d   1       4.922   1.899  -1.329  0.00  0.00    -0.077 A 
ATOM      2  C3  UNL d   1       5.064   2.301   0.007  0.00  0.00     0.002 A 
ATOM      3  C4  UNL d   1       4.120   1.920   0.963  0.00  0.00     0.002 A 
ATOM      4  C5  UNL d   1       3.030   1.134   0.594  0.00  0.00    -0.004 A 
ATOM      5  C6  UNL d   1       2.880   0.731  -0.733  0.00  0.00     0.002 A 
ATOM      6  C7  UNL d   1       3.821   1.111  -1.689  0.00  0.00     0.002 A 
ENDROOT
BRANCH   1   7
ATOM      7  C1  UNL d   1       5.965   2.267  -2.351  0.00  0.00     0.055 C 
ATOM      8  C   UNL d   1       6.000   3.770  -2.591  0.00  0.00     0.019 C 
ENDBRANCH   1   7
TORSDOF 1
ENDMDL
