MODEL 1
REMARK minimizedAffinity 12.4262533
REMARK minimizedRMSD -1
REMARK  1 active torsions:
REMARK  status: ('A' for Active; 'I' for Inactive)
REMARK    1  A    between atoms: C1_2  and  C2_3 
ROOT
ATOM      1  C2  UNL d   1      -3.761   0.252  -0.057  0.00  0.00    -0.077 A 
ATOM      2  C3  UNL d   1      -3.015   1.390  -0.395  0.00  0.00     0.002 A 
ATOM      3  C4  UNL d   1      -1.680   1.268  -0.788  0.00  0.00     0.002 A 
ATOM      4  C5  UNL d   1      -1.082   0.012  -0.850  0.00  0.00    -0.004 A 
ATOM      5  C6  UNL d   1      -1.815  -1.126  -0.514  0.00  0.00     0.002 A 
ATOM      6  C7  UNL d   1      -3.149  -1.007  -0.121  0.00  0.00     0.002 A 
ENDROOT
BRANCH   1   7
ATOM      7  C1  UNL d   1      -5.214   0.376   0.319  0.00  0.00     0.055 C 
ATOM      8  C   UNL d   1      -5.998  -0.865  -0.083  0.00  0.00     0.019 C 
ENDBRANCH   1   7
TORSDOF 1
ENDMDL
