MODEL 1
REMARK minimizedAffinity -2.23088574
REMARK minimizedRMSD -1
REMARK  0 active torsions:
REMARK  status: ('A' for Active; 'I' for Inactive)
ROOT
ATOM      1  C2' OXE d   1       0.577  -0.375   1.589  0.00  0.00     0.078 C 
ATOM      2  C1' OXE d   1      -1.467   1.513   1.213  0.00  0.00     0.078 C 
ATOM      3  C1  OXE d   1      -0.628   1.136   0.017  0.00  0.00    -0.078 A 
ATOM      4  C2  OXE d   1       0.399   0.247   0.221  0.00  0.00    -0.078 A 
ATOM      5  C3  OXE d   1       1.169  -0.176  -0.860  0.00  0.00     0.003 A 
ATOM      6  C4  OXE d   1       1.005   0.411  -2.120  0.00  0.00    -0.002 A 
ATOM      7  C5  OXE d   1      -0.011   1.348  -2.340  0.00  0.00    -0.002 A 
ATOM      8  C6  OXE d   1      -0.861   1.689  -1.294  0.00  0.00     0.003 A 
ENDROOT
TORSDOF 0
ENDMDL
