MODEL 1
REMARK minimizedAffinity -3.17249274
REMARK minimizedRMSD -1
REMARK  0 active torsions:
REMARK  status: ('A' for Active; 'I' for Inactive)
ROOT
ATOM      1  C2' OXE d   1       0.391  -0.044   2.613  0.00  0.00     0.078 C 
ATOM      2  C1' OXE d   1      -1.475   1.826   1.664  0.00  0.00     0.078 C 
ATOM      3  C1  OXE d   1      -0.643   1.084   0.648  0.00  0.00    -0.078 A 
ATOM      4  C2  OXE d   1       0.300   0.205   1.123  0.00  0.00    -0.078 A 
ATOM      5  C3  OXE d   1       1.056  -0.546   0.228  0.00  0.00     0.003 A 
ATOM      6  C4  OXE d   1       0.973  -0.302  -1.149  0.00  0.00    -0.002 A 
ATOM      7  C5  OXE d   1       0.047   0.618  -1.652  0.00  0.00    -0.002 A 
ATOM      8  C6  OXE d   1      -0.797   1.286  -0.772  0.00  0.00     0.003 A 
ENDROOT
TORSDOF 0
ENDMDL
