MODEL 1
REMARK minimizedAffinity 1.68229985
REMARK minimizedRMSD -1
REMARK  0 active torsions:
REMARK  status: ('A' for Active; 'I' for Inactive)
ROOT
ATOM      1  C2' OXE d   1       1.036  -0.620  -0.533  0.00  0.00     0.078 C 
ATOM      2  C1' OXE d   1      -0.112   1.922  -0.856  0.00  0.00     0.078 C 
ATOM      3  C1  OXE d   1       0.061   1.402   0.549  0.00  0.00    -0.078 A 
ATOM      4  C2  OXE d   1       0.580   0.138   0.696  0.00  0.00    -0.078 A 
ATOM      5  C3  OXE d   1       0.811  -0.369   1.971  0.00  0.00     0.003 A 
ATOM      6  C4  OXE d   1       0.378   0.334   3.102  0.00  0.00    -0.002 A 
ATOM      7  C5  OXE d   1      -0.190   1.606   2.973  0.00  0.00    -0.002 A 
ATOM      8  C6  OXE d   1      -0.316   2.171   1.709  0.00  0.00     0.003 A 
ENDROOT
TORSDOF 0
ENDMDL
