MODEL 1
REMARK minimizedAffinity 1.60920203
REMARK minimizedRMSD -1
REMARK  0 active torsions:
REMARK  status: ('A' for Active; 'I' for Inactive)
ROOT
ATOM      1  C2' OXE d   1      -1.653  -0.048   2.998  0.00  0.00     0.078 C 
ATOM      2  C1' OXE d   1       0.559  -1.025   4.425  0.00  0.00     0.078 C 
ATOM      3  C1  OXE d   1       0.782  -0.577   3.002  0.00  0.00    -0.078 A 
ATOM      4  C2  OXE d   1      -0.315  -0.144   2.296  0.00  0.00    -0.078 A 
ATOM      5  C3  OXE d   1      -0.156   0.332   0.998  0.00  0.00     0.003 A 
ATOM      6  C4  OXE d   1       1.083   0.230   0.353  0.00  0.00    -0.002 A 
ATOM      7  C5  OXE d   1       2.205  -0.244   1.041  0.00  0.00    -0.002 A 
ATOM      8  C6  OXE d   1       2.080  -0.611   2.376  0.00  0.00     0.003 A 
ENDROOT
TORSDOF 0
ENDMDL
