MODEL 1
REMARK minimizedAffinity -4.392138
REMARK minimizedRMSD -1
REMARK  0 active torsions:
REMARK  status: ('A' for Active; 'I' for Inactive)
ROOT
ATOM      1  C2' OXE d   1       0.439  -0.686  -0.800  0.00  0.00     0.078 C 
ATOM      2  C1' OXE d   1       0.459  -0.483   2.000  0.00  0.00     0.078 C 
ATOM      3  C1  OXE d   1       0.138   0.759   1.207  0.00  0.00    -0.078 A 
ATOM      4  C2  OXE d   1       0.176   0.662  -0.163  0.00  0.00    -0.078 A 
ATOM      5  C3  OXE d   1      -0.165   1.764  -0.942  0.00  0.00     0.003 A 
ATOM      6  C4  OXE d   1      -0.397   3.009  -0.346  0.00  0.00    -0.002 A 
ATOM      7  C5  OXE d   1      -0.402   3.139   1.047  0.00  0.00    -0.002 A 
ATOM      8  C6  OXE d   1      -0.179   2.016   1.837  0.00  0.00     0.003 A 
ENDROOT
TORSDOF 0
ENDMDL
