MODEL 1
REMARK minimizedAffinity -4.90090418
REMARK minimizedRMSD -1
REMARK  0 active torsions:
REMARK  status: ('A' for Active; 'I' for Inactive)
ROOT
ATOM      1  C2' OXE d   1       0.398  -0.522   2.068  0.00  0.00     0.078 C 
ATOM      2  C1' OXE d   1       0.174  -0.616  -0.728  0.00  0.00     0.078 C 
ATOM      3  C1  OXE d   1      -0.246   0.654  -0.031  0.00  0.00    -0.078 A 
ATOM      4  C2  OXE d   1      -0.177   0.674   1.341  0.00  0.00    -0.078 A 
ATOM      5  C3  OXE d   1      -0.501   1.839   2.030  0.00  0.00     0.003 A 
ATOM      6  C4  OXE d   1      -1.042   2.937   1.351  0.00  0.00    -0.002 A 
ATOM      7  C5  OXE d   1      -1.158   2.923  -0.043  0.00  0.00    -0.002 A 
ATOM      8  C6  OXE d   1      -0.726   1.807  -0.751  0.00  0.00     0.003 A 
ENDROOT
TORSDOF 0
ENDMDL
