MODEL 1
REMARK minimizedAffinity -1.97735512
REMARK minimizedRMSD -1
REMARK  0 active torsions:
REMARK  status: ('A' for Active; 'I' for Inactive)
ROOT
ATOM      1  C2' OXE d   1      -1.814   2.116  -1.146  0.00  0.00     0.078 C 
ATOM      2  C1' OXE d   1      -1.656   2.524   1.627  0.00  0.00     0.078 C 
ATOM      3  C1  OXE d   1      -0.862   1.385   1.037  0.00  0.00    -0.078 A 
ATOM      4  C2  OXE d   1      -0.982   1.164  -0.314  0.00  0.00    -0.078 A 
ATOM      5  C3  OXE d   1      -0.229   0.161  -0.917  0.00  0.00     0.003 A 
ATOM      6  C4  OXE d   1       0.530  -0.721  -0.139  0.00  0.00    -0.002 A 
ATOM      7  C5  OXE d   1       0.634  -0.538   1.244  0.00  0.00    -0.002 A 
ATOM      8  C6  OXE d   1      -0.020   0.534   1.841  0.00  0.00     0.003 A 
ENDROOT
TORSDOF 0
ENDMDL
