MODEL 1
REMARK minimizedAffinity -0.346074462
REMARK minimizedRMSD -1
REMARK  0 active torsions:
REMARK  status: ('A' for Active; 'I' for Inactive)
ROOT
ATOM      1  C2' OXE d   1       1.239  -0.630   1.710  0.00  0.00     0.078 C 
ATOM      2  C1' OXE d   1       0.630  -1.075  -0.994  0.00  0.00     0.078 C 
ATOM      3  C1  OXE d   1      -0.100   0.037  -0.282  0.00  0.00    -0.078 A 
ATOM      4  C2  OXE d   1       0.171   0.218   1.053  0.00  0.00    -0.078 A 
ATOM      5  C3  OXE d   1      -0.434   1.264   1.743  0.00  0.00     0.003 A 
ATOM      6  C4  OXE d   1      -1.428   2.036   1.131  0.00  0.00    -0.002 A 
ATOM      7  C5  OXE d   1      -1.747   1.843  -0.218  0.00  0.00    -0.002 A 
ATOM      8  C6  OXE d   1      -1.063   0.878  -0.948  0.00  0.00     0.003 A 
ENDROOT
TORSDOF 0
ENDMDL
