MODEL 1
REMARK minimizedAffinity -4.10464239
REMARK minimizedRMSD -1
REMARK  0 active torsions:
REMARK  status: ('A' for Active; 'I' for Inactive)
ROOT
ATOM      1  N1  IND d   1      -0.756  -1.018   2.786  0.00  0.00    -0.196 N 
ATOM      2  C2  IND d   1      -1.647  -1.857   2.177  0.00  0.00     0.054 A 
ATOM      3  C3  IND d   1      -1.788  -1.529   0.873  0.00  0.00    -0.031 A 
ATOM      4  C4  IND d   1      -0.577   0.285  -0.496  0.00  0.00     0.051 A 
ATOM      5  C5  IND d   1       0.299   1.325  -0.368  0.00  0.00    -0.031 A 
ATOM      6  C6  IND d   1       0.883   1.643   0.841  0.00  0.00     0.015 A 
ATOM      7  C7  IND d   1       0.619   0.921   1.971  0.00  0.00    -0.016 A 
ATOM      8  C8  IND d   1      -0.276  -0.132   1.846  0.00  0.00    -0.047 A 
ATOM      9  C9  IND d   1      -0.904  -0.433   0.631  0.00  0.00    -0.096 A 
ATOM     10  HN1 IND d   1      -0.533  -1.040   3.616  0.00  0.00     0.298 HD
ENDROOT
TORSDOF 0
ENDMDL
