MODEL 1
REMARK minimizedAffinity -4.52297878
REMARK minimizedRMSD -1
REMARK  0 active torsions:
REMARK  status: ('A' for Active; 'I' for Inactive)
ROOT
ATOM      1  N1  IND d   1       0.780   0.924  -0.031  0.00  0.00    -0.196 N 
ATOM      2  C2  IND d   1       0.119   0.976  -1.226  0.00  0.00     0.054 A 
ATOM      3  C3  IND d   1      -1.142   0.509  -1.087  0.00  0.00    -0.031 A 
ATOM      4  C4  IND d   1      -2.363  -0.297   1.031  0.00  0.00     0.051 A 
ATOM      5  C5  IND d   1      -2.161  -0.561   2.357  0.00  0.00    -0.031 A 
ATOM      6  C6  IND d   1      -0.944  -0.337   2.967  0.00  0.00     0.015 A 
ATOM      7  C7  IND d   1       0.118   0.173   2.274  0.00  0.00    -0.016 A 
ATOM      8  C8  IND d   1      -0.082   0.436   0.926  0.00  0.00    -0.047 A 
ATOM      9  C9  IND d   1      -1.303   0.171   0.291  0.00  0.00    -0.096 A 
ATOM     10  HN1 IND d   1       1.597   1.156   0.101  0.00  0.00     0.298 HD
ENDROOT
TORSDOF 0
ENDMDL
