MODEL 1
REMARK minimizedAffinity -0.929389834
REMARK minimizedRMSD -1
REMARK  0 active torsions:
REMARK  status: ('A' for Active; 'I' for Inactive)
ROOT
ATOM      1  N1  IND d   1       0.743   1.570   0.452  0.00  0.00    -0.196 N 
ATOM      2  C2  IND d   1       0.391   1.256  -0.831  0.00  0.00     0.054 A 
ATOM      3  C3  IND d   1      -0.374   0.141  -0.849  0.00  0.00    -0.031 A 
ATOM      4  C4  IND d   1      -1.253  -1.271   1.116  0.00  0.00     0.051 A 
ATOM      5  C5  IND d   1      -1.168  -1.398   2.474  0.00  0.00    -0.031 A 
ATOM      6  C6  IND d   1      -0.428  -0.523   3.243  0.00  0.00     0.015 A 
ATOM      7  C7  IND d   1       0.247   0.523   2.681  0.00  0.00    -0.016 A 
ATOM      8  C8  IND d   1       0.168   0.652   1.302  0.00  0.00    -0.047 A 
ATOM      9  C9  IND d   1      -0.546  -0.258   0.512  0.00  0.00    -0.096 A 
ATOM     10  HN1 IND d   1       1.240   2.231   0.688  0.00  0.00     0.298 HD
ENDROOT
TORSDOF 0
ENDMDL
