MODEL 1
REMARK minimizedAffinity -5.0483427
REMARK minimizedRMSD -1
REMARK  0 active torsions:
REMARK  status: ('A' for Active; 'I' for Inactive)
ROOT
ATOM      1  N1  IND d   1      -2.681   1.078   0.180  0.00  0.00    -0.196 N 
ATOM      2  C2  IND d   1      -2.419   0.909  -1.151  0.00  0.00     0.054 A 
ATOM      3  C3  IND d   1      -1.135   0.526  -1.333  0.00  0.00    -0.031 A 
ATOM      4  C4  IND d   1       0.684   0.017   0.416  0.00  0.00     0.051 A 
ATOM      5  C5  IND d   1       0.929   0.064   1.760  0.00  0.00    -0.031 A 
ATOM      6  C6  IND d   1      -0.036   0.457   2.664  0.00  0.00     0.015 A 
ATOM      7  C7  IND d   1      -1.293   0.808   2.257  0.00  0.00    -0.016 A 
ATOM      8  C8  IND d   1      -1.543   0.768   0.893  0.00  0.00    -0.047 A 
ATOM      9  C9  IND d   1      -0.555   0.411  -0.033  0.00  0.00    -0.096 A 
ATOM     10  HN1 IND d   1      -3.429   1.335   0.515  0.00  0.00     0.298 HD
ENDROOT
TORSDOF 0
ENDMDL
