MODEL 1
REMARK minimizedAffinity -6.05702734
REMARK minimizedRMSD -1
REMARK  0 active torsions:
REMARK  status: ('A' for Active; 'I' for Inactive)
ROOT
ATOM      1  N1  IND d   1      -1.169   0.682  -0.813  0.00  0.00    -0.196 N 
ATOM      2  C2  IND d   1       0.175   0.461  -0.931  0.00  0.00     0.054 A 
ATOM      3  C3  IND d   1       0.697   0.088   0.259  0.00  0.00    -0.031 A 
ATOM      4  C4  IND d   1      -0.489  -0.325   2.507  0.00  0.00     0.051 A 
ATOM      5  C5  IND d   1      -1.707  -0.220   3.118  0.00  0.00    -0.031 A 
ATOM      6  C6  IND d   1      -2.831   0.197   2.435  0.00  0.00     0.015 A 
ATOM      7  C7  IND d   1      -2.781   0.515   1.107  0.00  0.00    -0.016 A 
ATOM      8  C8  IND d   1      -1.544   0.416   0.485  0.00  0.00    -0.047 A 
ATOM      9  C9  IND d   1      -0.391   0.034   1.183  0.00  0.00    -0.096 A 
ATOM     10  HN1 IND d   1      -1.691   0.943  -1.444  0.00  0.00     0.298 HD
ENDROOT
TORSDOF 0
ENDMDL
