MODEL 1
REMARK minimizedAffinity -2.18934345
REMARK minimizedRMSD -1
REMARK  0 active torsions:
REMARK  status: ('A' for Active; 'I' for Inactive)
ROOT
ATOM      1  N1  IND d   1      -3.041   1.062   0.830  0.00  0.00    -0.196 N 
ATOM      2  C2  IND d   1      -3.443   1.195   2.129  0.00  0.00     0.054 A 
ATOM      3  C3  IND d   1      -2.394   1.029   2.966  0.00  0.00    -0.031 A 
ATOM      4  C4  IND d   1       0.089   0.631   2.415  0.00  0.00     0.051 A 
ATOM      5  C5  IND d   1       0.937   0.401   1.368  0.00  0.00    -0.031 A 
ATOM      6  C6  IND d   1       0.493   0.381   0.062  0.00  0.00     0.015 A 
ATOM      7  C7  IND d   1      -0.818   0.604  -0.249  0.00  0.00    -0.016 A 
ATOM      8  C8  IND d   1      -1.683   0.831   0.812  0.00  0.00    -0.047 A 
ATOM      9  C9  IND d   1      -1.247   0.810   2.143  0.00  0.00    -0.096 A 
ATOM     10  HN1 IND d   1      -3.551   1.114   0.139  0.00  0.00     0.298 HD
ENDROOT
TORSDOF 0
ENDMDL
