MODEL 1
REMARK minimizedAffinity -1.95798898
REMARK minimizedRMSD -1
REMARK  0 active torsions:
REMARK  status: ('A' for Active; 'I' for Inactive)
ROOT
ATOM      1  N1  IND d   1       0.835   0.771  -0.504  0.00  0.00    -0.196 N 
ATOM      2  C2  IND d   1      -0.103   0.557  -1.475  0.00  0.00     0.054 A 
ATOM      3  C3  IND d   1      -1.193  -0.047  -0.952  0.00  0.00    -0.031 A 
ATOM      4  C4  IND d   1      -1.695  -0.684   1.492  0.00  0.00     0.051 A 
ATOM      5  C5  IND d   1      -1.126  -0.720   2.734  0.00  0.00    -0.031 A 
ATOM      6  C6  IND d   1       0.150  -0.248   2.966  0.00  0.00     0.015 A 
ATOM      7  C7  IND d   1       0.904   0.289   1.961  0.00  0.00    -0.016 A 
ATOM      8  C8  IND d   1       0.333   0.320   0.697  0.00  0.00    -0.047 A 
ATOM      9  C9  IND d   1      -0.945  -0.196   0.447  0.00  0.00    -0.096 A 
ATOM     10  HN1 IND d   1       1.609   1.127  -0.623  0.00  0.00     0.298 HD
ENDROOT
TORSDOF 0
ENDMDL
