MODEL 1
REMARK minimizedAffinity -5.52229595
REMARK minimizedRMSD -1
REMARK  0 active torsions:
REMARK  status: ('A' for Active; 'I' for Inactive)
ROOT
ATOM      1  N1  IND d   1      -0.675   0.281  -0.454  0.00  0.00    -0.196 N 
ATOM      2  C2  IND d   1       0.650   0.596  -0.567  0.00  0.00     0.054 A 
ATOM      3  C3  IND d   1       1.243   0.582   0.648  0.00  0.00    -0.031 A 
ATOM      4  C4  IND d   1       0.252  -0.030   2.944  0.00  0.00     0.051 A 
ATOM      5  C5  IND d   1      -0.926  -0.350   3.557  0.00  0.00    -0.031 A 
ATOM      6  C6  IND d   1      -2.104  -0.482   2.851  0.00  0.00     0.015 A 
ATOM      7  C7  IND d   1      -2.146  -0.309   1.496  0.00  0.00    -0.016 A 
ATOM      8  C8  IND d   1      -0.952   0.024   0.871  0.00  0.00    -0.047 A 
ATOM      9  C9  IND d   1       0.238   0.201   1.588  0.00  0.00    -0.096 A 
ATOM     10  HN1 IND d   1      -1.240   0.248  -1.101  0.00  0.00     0.298 HD
ENDROOT
TORSDOF 0
ENDMDL
