MODEL 1
REMARK minimizedAffinity -3.46647906
REMARK minimizedRMSD -1
REMARK  0 active torsions:
REMARK  status: ('A' for Active; 'I' for Inactive)
ROOT
ATOM      1  N1  IND d   1      -0.921   0.209  -0.556  0.00  0.00    -0.196 N 
ATOM      2  C2  IND d   1       0.309   0.771  -0.760  0.00  0.00     0.054 A 
ATOM      3  C3  IND d   1       0.911   1.028   0.422  0.00  0.00    -0.031 A 
ATOM      4  C4  IND d   1       0.107   0.515   2.813  0.00  0.00     0.051 A 
ATOM      5  C5  IND d   1      -0.970   0.040   3.509  0.00  0.00    -0.031 A 
ATOM      6  C6  IND d   1      -2.107  -0.414   2.873  0.00  0.00     0.015 A 
ATOM      7  C7  IND d   1      -2.205  -0.421   1.510  0.00  0.00    -0.016 A 
ATOM      8  C8  IND d   1      -1.117   0.066   0.800  0.00  0.00    -0.047 A 
ATOM      9  C9  IND d   1       0.022   0.569   1.442  0.00  0.00    -0.096 A 
ATOM     10  HN1 IND d   1      -1.478  -0.017  -1.170  0.00  0.00     0.298 HD
ENDROOT
TORSDOF 0
ENDMDL
