MODEL 1
REMARK minimizedAffinity -3.32477736
REMARK minimizedRMSD -1
REMARK  0 active torsions:
REMARK  status: ('A' for Active; 'I' for Inactive)
ROOT
ATOM      1  N1  IND d   1      -0.325  -0.395  -0.824  0.00  0.00    -0.196 N 
ATOM      2  C2  IND d   1       0.671   0.530  -0.971  0.00  0.00     0.054 A 
ATOM      3  C3  IND d   1       1.038   1.022   0.233  0.00  0.00    -0.031 A 
ATOM      4  C4  IND d   1       0.209   0.380   2.584  0.00  0.00     0.051 A 
ATOM      5  C5  IND d   1      -0.720  -0.391   3.226  0.00  0.00    -0.031 A 
ATOM      6  C6  IND d   1      -1.580  -1.221   2.536  0.00  0.00     0.015 A 
ATOM      7  C7  IND d   1      -1.535  -1.320   1.174  0.00  0.00    -0.016 A 
ATOM      8  C8  IND d   1      -0.598  -0.534   0.519  0.00  0.00    -0.047 A 
ATOM      9  C9  IND d   1       0.249   0.342   1.210  0.00  0.00    -0.096 A 
ATOM     10  HN1 IND d   1      -0.715  -0.818  -1.462  0.00  0.00     0.298 HD
ENDROOT
TORSDOF 0
ENDMDL
