MODEL 1
REMARK minimizedAffinity -5.02887726
REMARK minimizedRMSD -1
REMARK  0 active torsions:
REMARK  status: ('A' for Active; 'I' for Inactive)
ROOT
ATOM      1  N1  IND d   1      -2.198   0.593  -0.386  0.00  0.00    -0.196 N 
ATOM      2  C2  IND d   1      -1.130   0.887  -1.188  0.00  0.00     0.054 A 
ATOM      3  C3  IND d   1       0.029   0.649  -0.535  0.00  0.00    -0.031 A 
ATOM      4  C4  IND d   1       0.410  -0.320   1.820  0.00  0.00     0.051 A 
ATOM      5  C5  IND d   1      -0.260  -0.707   2.947  0.00  0.00    -0.031 A 
ATOM      6  C6  IND d   1      -1.638  -0.684   3.020  0.00  0.00     0.015 A 
ATOM      7  C7  IND d   1      -2.401  -0.280   1.961  0.00  0.00    -0.016 A 
ATOM      8  C8  IND d   1      -1.724   0.121   0.818  0.00  0.00    -0.047 A 
ATOM      9  C9  IND d   1      -0.325   0.140   0.752  0.00  0.00    -0.096 A 
ATOM     10  HN1 IND d   1      -3.025   0.688  -0.598  0.00  0.00     0.298 HD
ENDROOT
TORSDOF 0
ENDMDL
