MODEL 1
REMARK minimizedAffinity -1.68045878
REMARK minimizedRMSD -1
REMARK  0 active torsions:
REMARK  status: ('A' for Active; 'I' for Inactive)
ROOT
ATOM      1  N1  IND d   1      -0.261  -0.270  -0.984  0.00  0.00    -0.196 N 
ATOM      2  C2  IND d   1       0.925   0.345  -1.274  0.00  0.00     0.054 A 
ATOM      3  C3  IND d   1       1.510   0.795  -0.141  0.00  0.00    -0.031 A 
ATOM      4  C4  IND d   1       0.748   0.543   2.305  0.00  0.00     0.051 A 
ATOM      5  C5  IND d   1      -0.291   0.088   3.068  0.00  0.00    -0.031 A 
ATOM      6  C6  IND d   1      -1.394  -0.524   2.508  0.00  0.00     0.015 A 
ATOM      7  C7  IND d   1      -1.494  -0.716   1.159  0.00  0.00    -0.016 A 
ATOM      8  C8  IND d   1      -0.444  -0.249   0.381  0.00  0.00    -0.047 A 
ATOM      9  C9  IND d   1       0.658   0.411   0.939  0.00  0.00    -0.096 A 
ATOM     10  HN1 IND d   1      -0.801  -0.613  -1.559  0.00  0.00     0.298 HD
ENDROOT
TORSDOF 0
ENDMDL
