MODEL 1
REMARK minimizedAffinity -2.92844462
REMARK minimizedRMSD -1
REMARK  0 active torsions:
REMARK  status: ('A' for Active; 'I' for Inactive)
ROOT
ATOM      1  N1  IND d   1       4.273  -0.973  -4.155  0.00  0.00    -0.196 N 
ATOM      2  C2  IND d   1       4.825   0.157  -3.618  0.00  0.00     0.054 A 
ATOM      3  C3  IND d   1       3.919   0.804  -2.851  0.00  0.00    -0.031 A 
ATOM      4  C4  IND d   1       1.506   0.135  -2.255  0.00  0.00     0.051 A 
ATOM      5  C5  IND d   1       0.545  -0.796  -2.535  0.00  0.00    -0.031 A 
ATOM      6  C6  IND d   1       0.784  -1.857  -3.385  0.00  0.00     0.015 A 
ATOM      7  C7  IND d   1       2.002  -2.033  -3.979  0.00  0.00    -0.016 A 
ATOM      8  C8  IND d   1       2.977  -1.085  -3.703  0.00  0.00    -0.047 A 
ATOM      9  C9  IND d   1       2.727   0.017  -2.875  0.00  0.00    -0.096 A 
ATOM     10  HN1 IND d   1       4.670  -1.521  -4.686  0.00  0.00     0.298 HD
ENDROOT
TORSDOF 0
ENDMDL
