MODEL 1
REMARK minimizedAffinity -2.41284609
REMARK minimizedRMSD -1
REMARK  0 active torsions:
REMARK  status: ('A' for Active; 'I' for Inactive)
ROOT
ATOM      1  N1  IND d   1      -1.999   0.529  -0.445  0.00  0.00    -0.196 N 
ATOM      2  C2  IND d   1      -1.043   0.749  -1.397  0.00  0.00     0.054 A 
ATOM      3  C3  IND d   1       0.191   0.609  -0.865  0.00  0.00    -0.031 A 
ATOM      4  C4  IND d   1       0.876  -0.078   1.520  0.00  0.00     0.051 A 
ATOM      5  C5  IND d   1       0.356  -0.347   2.755  0.00  0.00    -0.031 A 
ATOM      6  C6  IND d   1      -1.004  -0.340   2.990  0.00  0.00     0.015 A 
ATOM      7  C7  IND d   1      -1.898  -0.074   1.992  0.00  0.00    -0.016 A 
ATOM      8  C8  IND d   1      -1.373   0.207   0.739  0.00  0.00    -0.047 A 
ATOM      9  C9  IND d   1       0.007   0.243   0.504  0.00  0.00    -0.096 A 
ATOM     10  HN1 IND d   1      -2.849   0.584  -0.565  0.00  0.00     0.298 HD
ENDROOT
TORSDOF 0
ENDMDL
