MODEL 1
REMARK minimizedAffinity -3.75203395
REMARK minimizedRMSD -1
REMARK  0 active torsions:
REMARK  status: ('A' for Active; 'I' for Inactive)
ROOT
ATOM      1  N1  IND d   1      -2.067   0.776  -0.583  0.00  0.00    -0.196 N 
ATOM      2  C2  IND d   1      -1.031   0.858  -1.471  0.00  0.00     0.054 A 
ATOM      3  C3  IND d   1       0.116   0.432  -0.897  0.00  0.00    -0.031 A 
ATOM      4  C4  IND d   1       0.504  -0.538   1.456  0.00  0.00     0.051 A 
ATOM      5  C5  IND d   1      -0.133  -0.776   2.642  0.00  0.00    -0.031 A 
ATOM      6  C6  IND d   1      -1.475  -0.507   2.815  0.00  0.00     0.015 A 
ATOM      7  C7  IND d   1      -2.236   0.004   1.802  0.00  0.00    -0.016 A 
ATOM      8  C8  IND d   1      -1.591   0.254   0.599  0.00  0.00    -0.047 A 
ATOM      9  C9  IND d   1      -0.220   0.021   0.430  0.00  0.00    -0.096 A 
ATOM     10  HN1 IND d   1      -2.879   1.012  -0.737  0.00  0.00     0.298 HD
ENDROOT
TORSDOF 0
ENDMDL
