MODEL 1
REMARK minimizedAffinity 1.3014698
REMARK minimizedRMSD -1
REMARK  0 active torsions:
REMARK  status: ('A' for Active; 'I' for Inactive)
ROOT
ATOM      1  C4' PXY d   1      -3.522  -1.192   3.324  0.00  0.00     0.077 C 
ATOM      2  C1' PXY d   1       1.009   0.751   0.307  0.00  0.00     0.077 C 
ATOM      3  C1  PXY d   1      -0.171   0.235   1.107  0.00  0.00    -0.082 A 
ATOM      4  C2  PXY d   1      -1.344   0.080   0.515  0.00  0.00     0.003 A 
ATOM      5  C3  PXY d   1      -2.430  -0.355   1.231  0.00  0.00     0.003 A 
ATOM      6  C4  PXY d   1      -2.301  -0.684   2.554  0.00  0.00    -0.082 A 
ATOM      7  C5  PXY d   1      -1.105  -0.538   3.162  0.00  0.00     0.003 A 
ATOM      8  C6  PXY d   1      -0.025  -0.056   2.428  0.00  0.00     0.003 A 
ENDROOT
TORSDOF 0
ENDMDL
