MODEL 1
REMARK minimizedAffinity 8.08534431
REMARK minimizedRMSD -1
REMARK  0 active torsions:
REMARK  status: ('A' for Active; 'I' for Inactive)
ROOT
ATOM      1  C4' PXY d   1      -3.509  -0.771  -0.956  0.00  0.00     0.077 C 
ATOM      2  C1' PXY d   1       2.023  -0.037   0.553  0.00  0.00     0.077 C 
ATOM      3  C1  PXY d   1       0.569  -0.227   0.170  0.00  0.00    -0.082 A 
ATOM      4  C2  PXY d   1       0.262  -0.951  -0.895  0.00  0.00     0.003 A 
ATOM      5  C3  PXY d   1      -1.046  -1.107  -1.274  0.00  0.00     0.003 A 
ATOM      6  C4  PXY d   1      -2.054  -0.560  -0.526  0.00  0.00    -0.082 A 
ATOM      7  C5  PXY d   1      -1.750   0.171   0.567  0.00  0.00     0.003 A 
ATOM      8  C6  PXY d   1      -0.414   0.352   0.912  0.00  0.00     0.003 A 
ENDROOT
TORSDOF 0
ENDMDL
