MODEL 1
REMARK minimizedAffinity 4.91458225
REMARK minimizedRMSD -1
REMARK  0 active torsions:
REMARK  status: ('A' for Active; 'I' for Inactive)
ROOT
ATOM      1  C4' PXY d   1      -2.261   0.115  -0.493  0.00  0.00     0.077 C 
ATOM      2  C1' PXY d   1      -0.066  -1.131   4.707  0.00  0.00     0.077 C 
ATOM      3  C1  PXY d   1      -0.630  -0.800   3.340  0.00  0.00    -0.082 A 
ATOM      4  C2  PXY d   1      -1.923  -0.556   3.207  0.00  0.00     0.003 A 
ATOM      5  C3  PXY d   1      -2.455  -0.287   1.972  0.00  0.00     0.003 A 
ATOM      6  C4  PXY d   1      -1.646  -0.214   0.870  0.00  0.00    -0.082 A 
ATOM      7  C5  PXY d   1      -0.324  -0.452   0.999  0.00  0.00     0.003 A 
ATOM      8  C6  PXY d   1       0.190  -0.764   2.254  0.00  0.00     0.003 A 
ENDROOT
TORSDOF 0
ENDMDL
