MODEL 1
REMARK minimizedAffinity -0.542809725
REMARK minimizedRMSD -1
REMARK  0 active torsions:
REMARK  status: ('A' for Active; 'I' for Inactive)
ROOT
ATOM      1  C4' PXY d   1       1.094  -1.103   4.257  0.00  0.00     0.077 C 
ATOM      2  C1' PXY d   1      -2.269   0.813  -0.036  0.00  0.00     0.077 C 
ATOM      3  C1  PXY d   1      -1.380   0.304   1.081  0.00  0.00    -0.082 A 
ATOM      4  C2  PXY d   1      -1.843   0.267   2.320  0.00  0.00     0.003 A 
ATOM      5  C3  PXY d   1      -1.042  -0.161   3.347  0.00  0.00     0.003 A 
ATOM      6  C4  PXY d   1       0.229  -0.605   3.096  0.00  0.00    -0.082 A 
ATOM      7  C5  PXY d   1       0.705  -0.581   1.833  0.00  0.00     0.003 A 
ATOM      8  C6  PXY d   1      -0.110  -0.104   0.811  0.00  0.00     0.003 A 
ENDROOT
TORSDOF 0
ENDMDL
