MODEL 1
REMARK minimizedAffinity 8.29523087
REMARK minimizedRMSD -1
REMARK  0 active torsions:
REMARK  status: ('A' for Active; 'I' for Inactive)
ROOT
ATOM      1  C4' PXY d   1       1.594   0.393   1.475  0.00  0.00     0.077 C 
ATOM      2  C1' PXY d   1      -3.543  -0.794  -0.894  0.00  0.00     0.077 C 
ATOM      3  C1  PXY d   1      -2.191  -0.494  -0.278  0.00  0.00    -0.082 A 
ATOM      4  C2  PXY d   1      -2.118   0.275   0.796  0.00  0.00     0.003 A 
ATOM      5  C3  PXY d   1      -0.901   0.583   1.347  0.00  0.00     0.003 A 
ATOM      6  C4  PXY d   1       0.250   0.055   0.825  0.00  0.00    -0.082 A 
ATOM      7  C5  PXY d   1       0.183  -0.739  -0.264  0.00  0.00     0.003 A 
ATOM      8  C6  PXY d   1      -1.059  -1.006  -0.833  0.00  0.00     0.003 A 
ENDROOT
TORSDOF 0
ENDMDL
