MODEL 1
REMARK minimizedAffinity -3.0379405
REMARK minimizedRMSD -1
REMARK  1 active torsions:
REMARK  status: ('A' for Active; 'I' for Inactive)
REMARK    1  A    between atoms: C1_2  and  C2_3 
ROOT
ATOM      1  C2  UNL d   1       0.391  -0.301  -1.620  0.00  0.00    -0.081 A 
ATOM      2  C3  UNL d   1      -0.987  -0.138  -1.431  0.00  0.00     0.006 A 
ATOM      3  C4  UNL d   1      -1.503   0.092  -0.153  0.00  0.00     0.002 A 
ATOM      4  C5  UNL d   1      -0.651   0.171   0.953  0.00  0.00    -0.080 A 
ATOM      5  C6  UNL d   1      -1.190   0.447   2.326  0.00  0.00     0.076 C 
ATOM      6  C7  UNL d   1       0.723  -0.009   0.766  0.00  0.00     0.002 A 
ATOM      7  C8  UNL d   1       1.240  -0.240  -0.510  0.00  0.00     0.006 A 
ENDROOT
BRANCH   1   8
ATOM      8  C1  UNL d   1       0.958  -0.484  -3.005  0.00  0.00     0.054 C 
ATOM      9  C   UNL d   1      -0.015   0.002  -4.070  0.00  0.00     0.018 C 
ENDBRANCH   1   8
TORSDOF 1
ENDMDL
