MODEL 1
REMARK minimizedAffinity -5.50739002
REMARK minimizedRMSD -1
REMARK  1 active torsions:
REMARK  status: ('A' for Active; 'I' for Inactive)
REMARK    1  A    between atoms: C1_2  and  C2_3 
ROOT
ATOM      1  C2  UNL d   1       0.065  -0.485  -1.302  0.00  0.00    -0.081 A 
ATOM      2  C3  UNL d   1      -1.272  -0.383  -0.899  0.00  0.00     0.006 A 
ATOM      3  C4  UNL d   1      -1.593   0.084   0.378  0.00  0.00     0.002 A 
ATOM      4  C5  UNL d   1      -0.584   0.465   1.269  0.00  0.00    -0.080 A 
ATOM      5  C6  UNL d   1      -0.916   0.997   2.631  0.00  0.00     0.076 C 
ATOM      6  C7  UNL d   1       0.753   0.347   0.872  0.00  0.00     0.002 A 
ATOM      7  C8  UNL d   1       1.074  -0.121  -0.404  0.00  0.00     0.006 A 
ENDROOT
BRANCH   1   8
ATOM      8  C1  UNL d   1       0.412  -0.927  -2.701  0.00  0.00     0.054 C 
ATOM      9  C   UNL d   1       1.157   0.164  -3.457  0.00  0.00     0.018 C 
ENDBRANCH   1   8
TORSDOF 1
ENDMDL
