MODEL 1
REMARK minimizedAffinity -4.44048882
REMARK minimizedRMSD -1
REMARK  1 active torsions:
REMARK  status: ('A' for Active; 'I' for Inactive)
REMARK    1  A    between atoms: C1_2  and  C2_3 
ROOT
ATOM      1  C2  UNL d   1       0.351   0.402   1.803  0.00  0.00    -0.081 A 
ATOM      2  C3  UNL d   1      -1.012   0.540   2.090  0.00  0.00     0.006 A 
ATOM      3  C4  UNL d   1      -1.976   0.116   1.173  0.00  0.00     0.002 A 
ATOM      4  C5  UNL d   1      -1.593  -0.460  -0.043  0.00  0.00    -0.080 A 
ATOM      5  C6  UNL d   1      -2.618  -0.947  -1.024  0.00  0.00     0.076 C 
ATOM      6  C7  UNL d   1      -0.231  -0.582  -0.338  0.00  0.00     0.002 A 
ATOM      7  C8  UNL d   1       0.733  -0.158   0.579  0.00  0.00     0.006 A 
ENDROOT
BRANCH   1   8
ATOM      8  C1  UNL d   1       1.393   0.799   2.818  0.00  0.00     0.054 C 
ATOM      9  C   UNL d   1       2.489  -0.251   2.926  0.00  0.00     0.018 C 
ENDBRANCH   1   8
TORSDOF 1
ENDMDL
