MODEL 1
REMARK minimizedAffinity -4.66532993
REMARK minimizedRMSD -1
REMARK  1 active torsions:
REMARK  status: ('A' for Active; 'I' for Inactive)
REMARK    1  A    between atoms: C1_2  and  C2_3 
ROOT
ATOM      1  C2  UNL d   1       0.186  -0.409  -0.795  0.00  0.00    -0.081 A 
ATOM      2  C3  UNL d   1      -1.146  -0.194  -0.422  0.00  0.00     0.006 A 
ATOM      3  C4  UNL d   1      -1.454   0.305   0.846  0.00  0.00     0.002 A 
ATOM      4  C5  UNL d   1      -0.437   0.604   1.758  0.00  0.00    -0.080 A 
ATOM      5  C6  UNL d   1      -0.752   1.168   3.111  0.00  0.00     0.076 C 
ATOM      6  C7  UNL d   1       0.894   0.373   1.391  0.00  0.00     0.002 A 
ATOM      7  C8  UNL d   1       1.202  -0.127   0.124  0.00  0.00     0.006 A 
ENDROOT
BRANCH   1   8
ATOM      8  C1  UNL d   1       0.525  -0.885  -2.185  0.00  0.00     0.054 C 
ATOM      9  C   UNL d   1       1.185   0.216  -3.001  0.00  0.00     0.018 C 
ENDBRANCH   1   8
TORSDOF 1
ENDMDL
