MODEL 1
REMARK minimizedAffinity -4.68603134
REMARK minimizedRMSD -1
REMARK  1 active torsions:
REMARK  status: ('A' for Active; 'I' for Inactive)
REMARK    1  A    between atoms: C1_2  and  C2_3 
ROOT
ATOM      1  C2  UNL d   1       0.313  -0.894  -0.563  0.00  0.00    -0.081 A 
ATOM      2  C3  UNL d   1      -1.036  -0.598  -0.335  0.00  0.00     0.006 A 
ATOM      3  C4  UNL d   1      -1.430   0.051   0.837  0.00  0.00     0.002 A 
ATOM      4  C5  UNL d   1      -0.482   0.423   1.796  0.00  0.00    -0.080 A 
ATOM      5  C6  UNL d   1      -0.888   1.149   3.044  0.00  0.00     0.076 C 
ATOM      6  C7  UNL d   1       0.864   0.113   1.576  0.00  0.00     0.002 A 
ATOM      7  C8  UNL d   1       1.259  -0.538   0.405  0.00  0.00     0.006 A 
ENDROOT
BRANCH   1   8
ATOM      8  C1  UNL d   1       0.749  -1.537  -1.855  0.00  0.00     0.054 C 
ATOM      9  C   UNL d   1       0.454  -0.638  -3.047  0.00  0.00     0.018 C 
ENDBRANCH   1   8
TORSDOF 1
ENDMDL
