MODEL 1
REMARK minimizedAffinity -2.4016521
REMARK minimizedRMSD -1
REMARK  1 active torsions:
REMARK  status: ('A' for Active; 'I' for Inactive)
REMARK    1  A    between atoms: C1_2  and  C2_3 
ROOT
ATOM      1  C2  UNL d   1       0.542   0.079  -1.320  0.00  0.00    -0.081 A 
ATOM      2  C3  UNL d   1      -0.323  -0.961  -0.960  0.00  0.00     0.006 A 
ATOM      3  C4  UNL d   1      -1.011  -0.921   0.255  0.00  0.00     0.002 A 
ATOM      4  C5  UNL d   1      -0.852   0.162   1.125  0.00  0.00    -0.080 A 
ATOM      5  C6  UNL d   1      -1.608   0.232   2.419  0.00  0.00     0.076 C 
ATOM      6  C7  UNL d   1       0.025   1.193   0.774  0.00  0.00     0.002 A 
ATOM      7  C8  UNL d   1       0.714   1.154  -0.441  0.00  0.00     0.006 A 
ENDROOT
BRANCH   1   8
ATOM      8  C1  UNL d   1       1.236   0.070  -2.658  0.00  0.00     0.054 C 
ATOM      9  C   UNL d   1       0.270  -0.279  -3.781  0.00  0.00     0.018 C 
ENDBRANCH   1   8
TORSDOF 1
ENDMDL
