MODEL 1
REMARK minimizedAffinity -5.56724834
REMARK minimizedRMSD -1
REMARK  1 active torsions:
REMARK  status: ('A' for Active; 'I' for Inactive)
REMARK    1  A    between atoms: C1_2  and  C2_3 
ROOT
ATOM      1  C2  UNL d   1      -0.352   0.080   0.739  0.00  0.00    -0.081 A 
ATOM      2  C3  UNL d   1       0.058   1.263   0.112  0.00  0.00     0.006 A 
ATOM      3  C4  UNL d   1       0.687   1.223  -1.134  0.00  0.00     0.002 A 
ATOM      4  C5  UNL d   1       0.911   0.001  -1.777  0.00  0.00    -0.080 A 
ATOM      5  C6  UNL d   1       1.559  -0.054  -3.129  0.00  0.00     0.076 C 
ATOM      6  C7  UNL d   1       0.518  -1.182  -1.143  0.00  0.00     0.002 A 
ATOM      7  C8  UNL d   1      -0.111  -1.143   0.103  0.00  0.00     0.006 A 
ENDROOT
BRANCH   1   8
ATOM      8  C1  UNL d   1      -1.089   0.125   2.053  0.00  0.00     0.054 C 
ATOM      9  C   UNL d   1      -0.847   1.440   2.779  0.00  0.00     0.018 C 
ENDBRANCH   1   8
TORSDOF 1
ENDMDL
