MODEL 1
REMARK minimizedAffinity -1.29600453
REMARK minimizedRMSD -1
REMARK  1 active torsions:
REMARK  status: ('A' for Active; 'I' for Inactive)
REMARK    1  A    between atoms: C1_2  and  C2_3 
ROOT
ATOM      1  C2  UNL d   1      -0.947  -1.142   0.696  0.00  0.00    -0.081 A 
ATOM      2  C3  UNL d   1       0.332  -1.624   0.390  0.00  0.00     0.006 A 
ATOM      3  C4  UNL d   1       1.468  -0.895   0.749  0.00  0.00     0.002 A 
ATOM      4  C5  UNL d   1       1.345   0.323   1.427  0.00  0.00    -0.080 A 
ATOM      5  C6  UNL d   1       2.557   1.100   1.845  0.00  0.00     0.076 C 
ATOM      6  C7  UNL d   1       0.067   0.813   1.717  0.00  0.00     0.002 A 
ATOM      7  C8  UNL d   1      -1.069   0.085   1.357  0.00  0.00     0.006 A 
ENDROOT
BRANCH   1   8
ATOM      8  C1  UNL d   1      -2.172  -1.957   0.367  0.00  0.00     0.054 C 
ATOM      9  C   UNL d   1      -3.141  -1.172  -0.505  0.00  0.00     0.018 C 
ENDBRANCH   1   8
TORSDOF 1
ENDMDL
