MODEL 1
REMARK minimizedAffinity 2.74248528
REMARK minimizedRMSD -1
REMARK  0 active torsions:
REMARK  status: ('A' for Active; 'I' for Inactive)
ROOT
ATOM      1  C4' PXY d   1      -4.080  -4.110  -0.760  0.00  0.00     0.077 C 
ATOM      2  C1' PXY d   1      -5.961  -5.735  -5.979  0.00  0.00     0.077 C 
ATOM      3  C1  PXY d   1      -5.471  -5.296  -4.613  0.00  0.00    -0.082 A 
ATOM      4  C2  PXY d   1      -4.535  -5.999  -3.997  0.00  0.00     0.003 A 
ATOM      5  C3  PXY d   1      -4.104  -5.636  -2.747  0.00  0.00     0.003 A 
ATOM      6  C4  PXY d   1      -4.598  -4.510  -2.144  0.00  0.00    -0.082 A 
ATOM      7  C5  PXY d   1      -5.546  -3.781  -2.771  0.00  0.00     0.003 A 
ATOM      8  C6  PXY d   1      -6.000  -4.191  -4.021  0.00  0.00     0.003 A 
ENDROOT
TORSDOF 0
ENDMDL
