MODEL 1
REMARK minimizedAffinity 0.856035471
REMARK minimizedRMSD -1
REMARK  0 active torsions:
REMARK  status: ('A' for Active; 'I' for Inactive)
ROOT
ATOM      1  C4' PXY d   1       1.090  -1.021   4.497  0.00  0.00     0.077 C 
ATOM      2  C1' PXY d   1       0.577  -4.679   0.051  0.00  0.00     0.077 C 
ATOM      3  C1  PXY d   1       0.722  -3.714   1.211  0.00  0.00    -0.082 A 
ATOM      4  C2  PXY d   1       0.261  -4.052   2.404  0.00  0.00     0.003 A 
ATOM      5  C3  PXY d   1       0.355  -3.178   3.457  0.00  0.00     0.003 A 
ATOM      6  C4  PXY d   1       0.974  -1.968   3.299  0.00  0.00    -0.082 A 
ATOM      7  C5  PXY d   1       1.456  -1.620   2.087  0.00  0.00     0.003 A 
ATOM      8  C6  PXY d   1       1.315  -2.504   1.022  0.00  0.00     0.003 A 
ENDROOT
TORSDOF 0
ENDMDL
