MODEL 1
REMARK minimizedAffinity 5.89050341
REMARK minimizedRMSD -1
REMARK  0 active torsions:
REMARK  status: ('A' for Active; 'I' for Inactive)
ROOT
ATOM      1  C4' PXY d   1      -4.636  -6.000  -5.999  0.00  0.00     0.077 C 
ATOM      2  C1' PXY d   1      -5.998  -2.780  -1.395  0.00  0.00     0.077 C 
ATOM      3  C1  PXY d   1      -5.640  -3.614  -2.610  0.00  0.00    -0.082 A 
ATOM      4  C2  PXY d   1      -5.975  -4.893  -2.647  0.00  0.00     0.003 A 
ATOM      5  C3  PXY d   1      -5.631  -5.669  -3.724  0.00  0.00     0.003 A 
ATOM      6  C4  PXY d   1      -4.985  -5.118  -4.797  0.00  0.00    -0.082 A 
ATOM      7  C5  PXY d   1      -4.650  -3.810  -4.772  0.00  0.00     0.003 A 
ATOM      8  C6  PXY d   1      -4.972  -3.049  -3.652  0.00  0.00     0.003 A 
ENDROOT
TORSDOF 0
ENDMDL
