MODEL 1
REMARK minimizedAffinity 0.923528552
REMARK minimizedRMSD -1
REMARK  0 active torsions:
REMARK  status: ('A' for Active; 'I' for Inactive)
ROOT
ATOM      1  C4' PXY d   1      -6.000  -2.901  -1.126  0.00  0.00     0.077 C 
ATOM      2  C1' PXY d   1      -5.649  -5.995  -5.996  0.00  0.00     0.077 C 
ATOM      3  C1  PXY d   1      -5.745  -5.194  -4.712  0.00  0.00    -0.082 A 
ATOM      4  C2  PXY d   1      -5.906  -3.882  -4.770  0.00  0.00     0.003 A 
ATOM      5  C3  PXY d   1      -5.962  -3.139  -3.620  0.00  0.00     0.003 A 
ATOM      6  C4  PXY d   1      -5.907  -3.751  -2.396  0.00  0.00    -0.082 A 
ATOM      7  C5  PXY d   1      -5.754  -5.090  -2.328  0.00  0.00     0.003 A 
ATOM      8  C6  PXY d   1      -5.657  -5.822  -3.508  0.00  0.00     0.003 A 
ENDROOT
TORSDOF 0
ENDMDL
