MODEL 1
REMARK minimizedAffinity 0.968091905
REMARK minimizedRMSD -1
REMARK  0 active torsions:
REMARK  status: ('A' for Active; 'I' for Inactive)
ROOT
ATOM      1  C4' PXY d   1       1.440  -1.236   0.962  0.00  0.00     0.077 C 
ATOM      2  C1' PXY d   1       3.850  -2.749   5.994  0.00  0.00     0.077 C 
ATOM      3  C1  PXY d   1       3.227  -2.343   4.673  0.00  0.00    -0.082 A 
ATOM      4  C2  PXY d   1       1.935  -2.542   4.470  0.00  0.00     0.003 A 
ATOM      5  C3  PXY d   1       1.362  -2.211   3.269  0.00  0.00     0.003 A 
ATOM      6  C4  PXY d   1       2.109  -1.621   2.284  0.00  0.00    -0.082 A 
ATOM      7  C5  PXY d   1       3.426  -1.405   2.488  0.00  0.00     0.003 A 
ATOM      8  C6  PXY d   1       3.997  -1.786   3.698  0.00  0.00     0.003 A 
ENDROOT
TORSDOF 0
ENDMDL
