MODEL 1
REMARK minimizedAffinity 2.55598521
REMARK minimizedRMSD -1
REMARK  0 active torsions:
REMARK  status: ('A' for Active; 'I' for Inactive)
ROOT
ATOM      1  C4' PXY d   1       6.000   6.000  -5.965  0.00  0.00     0.077 C 
ATOM      2  C1' PXY d   1       2.955   5.750  -1.058  0.00  0.00     0.077 C 
ATOM      3  C1  PXY d   1       3.763   5.822  -2.339  0.00  0.00    -0.082 A 
ATOM      4  C2  PXY d   1       3.144   5.775  -3.507  0.00  0.00     0.003 A 
ATOM      5  C3  PXY d   1       3.861   5.806  -4.675  0.00  0.00     0.003 A 
ATOM      6  C4  PXY d   1       5.224   5.940  -4.647  0.00  0.00    -0.082 A 
ATOM      7  C5  PXY d   1       5.862   6.000  -3.459  0.00  0.00     0.003 A 
ATOM      8  C6  PXY d   1       5.119   5.925  -2.285  0.00  0.00     0.003 A 
ENDROOT
TORSDOF 0
ENDMDL
