MODEL 1
REMARK minimizedAffinity 3.50752163
REMARK minimizedRMSD -1
REMARK  0 active torsions:
REMARK  status: ('A' for Active; 'I' for Inactive)
ROOT
ATOM      1  C4' PXY d   1      -4.682  -5.969  -5.999  0.00  0.00     0.077 C 
ATOM      2  C1' PXY d   1      -5.993  -2.427  -1.622  0.00  0.00     0.077 C 
ATOM      3  C1  PXY d   1      -5.639  -3.361  -2.763  0.00  0.00    -0.082 A 
ATOM      4  C2  PXY d   1      -5.999  -3.051  -3.998  0.00  0.00     0.003 A 
ATOM      5  C3  PXY d   1      -5.716  -3.899  -5.037  0.00  0.00     0.003 A 
ATOM      6  C4  PXY d   1      -5.009  -5.051  -4.818  0.00  0.00    -0.082 A 
ATOM      7  C5  PXY d   1      -4.629  -5.370  -3.562  0.00  0.00     0.003 A 
ATOM      8  C6  PXY d   1      -4.963  -4.515  -2.515  0.00  0.00     0.003 A 
ENDROOT
TORSDOF 0
ENDMDL
