MODEL 1
REMARK minimizedAffinity 1.48131061
REMARK minimizedRMSD -1
REMARK  0 active torsions:
REMARK  status: ('A' for Active; 'I' for Inactive)
ROOT
ATOM      1  C4' PXY d   1      -4.681  -6.000  -6.000  0.00  0.00     0.077 C 
ATOM      2  C1' PXY d   1      -5.917  -2.519  -1.553  0.00  0.00     0.077 C 
ATOM      3  C1  PXY d   1      -5.591  -3.422  -2.727  0.00  0.00    -0.082 A 
ATOM      4  C2  PXY d   1      -6.000  -4.680  -2.717  0.00  0.00     0.003 A 
ATOM      5  C3  PXY d   1      -5.687  -5.519  -3.756  0.00  0.00     0.003 A 
ATOM      6  C4  PXY d   1      -4.994  -5.050  -4.840  0.00  0.00    -0.082 A 
ATOM      7  C5  PXY d   1      -4.583  -3.764  -4.862  0.00  0.00     0.003 A 
ATOM      8  C6  PXY d   1      -4.876  -2.941  -3.779  0.00  0.00     0.003 A 
ENDROOT
TORSDOF 0
ENDMDL
