MODEL 1
REMARK minimizedAffinity -0.675451338
REMARK minimizedRMSD -1
REMARK  0 active torsions:
REMARK  status: ('A' for Active; 'I' for Inactive)
ROOT
ATOM      1  C4' PXY d   1      -5.999  -3.429  -6.000  0.00  0.00     0.077 C 
ATOM      2  C1' PXY d   1      -4.296  -5.999  -1.110  0.00  0.00     0.077 C 
ATOM      3  C1  PXY d   1      -4.753  -5.320  -2.386  0.00  0.00    -0.082 A 
ATOM      4  C2  PXY d   1      -4.370  -5.803  -3.557  0.00  0.00     0.003 A 
ATOM      5  C3  PXY d   1      -4.748  -5.183  -4.720  0.00  0.00     0.003 A 
ATOM      6  C4  PXY d   1      -5.569  -4.087  -4.686  0.00  0.00    -0.082 A 
ATOM      7  C5  PXY d   1      -5.972  -3.595  -3.496  0.00  0.00     0.003 A 
ATOM      8  C6  PXY d   1      -5.544  -4.215  -2.325  0.00  0.00     0.003 A 
ENDROOT
TORSDOF 0
ENDMDL
