MODEL 1
REMARK minimizedAffinity 3.70239925
REMARK minimizedRMSD -1
REMARK  0 active torsions:
REMARK  status: ('A' for Active; 'I' for Inactive)
ROOT
ATOM      1  C4' PXY d   1       0.360  -4.946   3.656  0.00  0.00     0.077 C 
ATOM      2  C1' PXY d   1       2.554  -0.201   1.190  0.00  0.00     0.077 C 
ATOM      3  C1  PXY d   1       1.991  -1.451   1.837  0.00  0.00    -0.082 A 
ATOM      4  C2  PXY d   1       0.712  -1.751   1.677  0.00  0.00     0.003 A 
ATOM      5  C3  PXY d   1       0.178  -2.860   2.281  0.00  0.00     0.003 A 
ATOM      6  C4  PXY d   1       0.974  -3.700   3.014  0.00  0.00    -0.082 A 
ATOM      7  C5  PXY d   1       2.282  -3.406   3.173  0.00  0.00     0.003 A 
ATOM      8  C6  PXY d   1       2.795  -2.254   2.585  0.00  0.00     0.003 A 
ENDROOT
TORSDOF 0
ENDMDL
