MODEL 1
REMARK minimizedAffinity 3.03990722
REMARK minimizedRMSD -1
REMARK  0 active torsions:
REMARK  status: ('A' for Active; 'I' for Inactive)
ROOT
ATOM      1  C4' PXY d   1       0.223  -5.999   0.131  0.00  0.00     0.077 C 
ATOM      2  C1' PXY d   1       3.453  -3.217   4.036  0.00  0.00     0.077 C 
ATOM      3  C1  PXY d   1       2.616  -3.948   3.004  0.00  0.00    -0.082 A 
ATOM      4  C2  PXY d   1       1.308  -3.752   2.965  0.00  0.00     0.003 A 
ATOM      5  C3  PXY d   1       0.533  -4.430   2.060  0.00  0.00     0.003 A 
ATOM      6  C4  PXY d   1       1.108  -5.275   1.150  0.00  0.00    -0.082 A 
ATOM      7  C5  PXY d   1       2.444  -5.471   1.176  0.00  0.00     0.003 A 
ATOM      8  C6  PXY d   1       3.208  -4.806   2.130  0.00  0.00     0.003 A 
ENDROOT
TORSDOF 0
ENDMDL
