MODEL 1
REMARK minimizedAffinity -0.59878999
REMARK minimizedRMSD -1
REMARK  0 active torsions:
REMARK  status: ('A' for Active; 'I' for Inactive)
ROOT
ATOM      1  C4' PXY d   1      -4.972  -3.138  -5.893  0.00  0.00     0.077 C 
ATOM      2  C1' PXY d   1      -5.999  -5.998  -0.976  0.00  0.00     0.077 C 
ATOM      3  C1  PXY d   1      -5.735  -5.237  -2.260  0.00  0.00    -0.082 A 
ATOM      4  C2  PXY d   1      -5.620  -5.899  -3.400  0.00  0.00     0.003 A 
ATOM      5  C3  PXY d   1      -5.349  -5.230  -4.566  0.00  0.00     0.003 A 
ATOM      6  C4  PXY d   1      -5.248  -3.864  -4.574  0.00  0.00    -0.082 A 
ATOM      7  C5  PXY d   1      -5.374  -3.181  -3.416  0.00  0.00     0.003 A 
ATOM      8  C6  PXY d   1      -5.608  -3.883  -2.237  0.00  0.00     0.003 A 
ENDROOT
TORSDOF 0
ENDMDL
