MODEL 1
REMARK minimizedAffinity -1.87587392
REMARK minimizedRMSD -1
REMARK  0 active torsions:
REMARK  status: ('A' for Active; 'I' for Inactive)
ROOT
ATOM      1  C   UNL d   1      -0.480   1.039   0.556  0.00  0.00     0.020 A 
ATOM      2  C1  UNL d   1       0.859   0.802   0.244  0.00  0.00     0.020 A 
ATOM      3  C2  UNL d   1       1.312  -0.505   0.057  0.00  0.00     0.034 A 
ATOM      4  C3  UNL d   1       0.426  -1.582   0.183  0.00  0.00     0.017 A 
ATOM      5  C4  UNL d   1      -0.917  -1.344   0.496  0.00  0.00     0.017 A 
ATOM      6  C5  UNL d   1      -1.366  -0.032   0.682  0.00  0.00     0.034 A 
ATOM      7 Cl   UNL d   1      -2.070  -2.620   0.667  0.00  0.00    -0.070 Cl
ATOM      8 Cl1  UNL d   1       1.055  -3.172  -0.062  0.00  0.00    -0.070 Cl
ENDROOT
TORSDOF 0
ENDMDL
