MODEL 1
REMARK minimizedAffinity -4.41883945
REMARK minimizedRMSD -1
REMARK  0 active torsions:
REMARK  status: ('A' for Active; 'I' for Inactive)
ROOT
ATOM      1  C   UNL d   1       0.950  -2.619  -1.042  0.00  0.00     0.020 A 
ATOM      2  C1  UNL d   1       0.332  -3.187   0.071  0.00  0.00     0.020 A 
ATOM      3  C2  UNL d   1      -0.305  -2.371   1.009  0.00  0.00     0.034 A 
ATOM      4  C3  UNL d   1      -0.326  -0.983   0.834  0.00  0.00     0.017 A 
ATOM      5  C4  UNL d   1       0.294  -0.413  -0.284  0.00  0.00     0.017 A 
ATOM      6  C5  UNL d   1       0.931  -1.235  -1.219  0.00  0.00     0.034 A 
ATOM      7 Cl   UNL d   1       0.310   1.292  -0.567  0.00  0.00    -0.070 Cl
ATOM      8 Cl1  UNL d   1      -1.133  -0.034   2.032  0.00  0.00    -0.070 Cl
ENDROOT
TORSDOF 0
ENDMDL
