MODEL 1
REMARK minimizedAffinity -2.93414879
REMARK minimizedRMSD -1
REMARK  0 active torsions:
REMARK  status: ('A' for Active; 'I' for Inactive)
ROOT
ATOM      1  C   UNL d   1      -0.461  -2.984  -0.126  0.00  0.00     0.020 A 
ATOM      2  C1  UNL d   1       0.764  -2.620  -0.684  0.00  0.00     0.020 A 
ATOM      3  C2  UNL d   1       1.186  -1.290  -0.634  0.00  0.00     0.034 A 
ATOM      4  C3  UNL d   1       0.382  -0.319  -0.026  0.00  0.00     0.017 A 
ATOM      5  C4  UNL d   1      -0.847  -0.686   0.534  0.00  0.00     0.017 A 
ATOM      6  C5  UNL d   1      -1.264  -2.019   0.482  0.00  0.00     0.034 A 
ATOM      7 Cl   UNL d   1      -1.893   0.456   1.302  0.00  0.00    -0.070 Cl
ATOM      8 Cl1  UNL d   1       0.967   1.307   0.000  0.00  0.00    -0.070 Cl
ENDROOT
TORSDOF 0
ENDMDL
