MODEL 1
REMARK minimizedAffinity -1.82768714
REMARK minimizedRMSD -1
REMARK  0 active torsions:
REMARK  status: ('A' for Active; 'I' for Inactive)
ROOT
ATOM      1  C   UNL d   1       0.678  -0.978   1.657  0.00  0.00     0.020 A 
ATOM      2  C1  UNL d   1       0.160  -1.759   0.624  0.00  0.00     0.020 A 
ATOM      3  C2  UNL d   1      -0.111  -1.182  -0.618  0.00  0.00     0.034 A 
ATOM      4  C3  UNL d   1       0.135   0.179  -0.831  0.00  0.00     0.017 A 
ATOM      5  C4  UNL d   1       0.655   0.962   0.206  0.00  0.00     0.017 A 
ATOM      6  C5  UNL d   1       0.924   0.379   1.448  0.00  0.00     0.034 A 
ATOM      7 Cl   UNL d   1       0.985   2.648   0.019  0.00  0.00    -0.070 Cl
ATOM      8 Cl1  UNL d   1      -0.224   0.826  -2.393  0.00  0.00    -0.070 Cl
ENDROOT
TORSDOF 0
ENDMDL
