MODEL 1
REMARK minimizedAffinity -3.77531505
REMARK minimizedRMSD -1
REMARK  0 active torsions:
REMARK  status: ('A' for Active; 'I' for Inactive)
ROOT
ATOM      1  C   UNL d   1       0.655  -1.711   0.038  0.00  0.00     0.020 A 
ATOM      2  C1  UNL d   1       0.822  -1.057   1.258  0.00  0.00     0.020 A 
ATOM      3  C2  UNL d   1       0.666   0.328   1.336  0.00  0.00     0.034 A 
ATOM      4  C3  UNL d   1       0.341   1.065   0.191  0.00  0.00     0.017 A 
ATOM      5  C4  UNL d   1       0.174   0.408  -1.034  0.00  0.00     0.017 A 
ATOM      6  C5  UNL d   1       0.332  -0.979  -1.106  0.00  0.00     0.034 A 
ATOM      7 Cl   UNL d   1      -0.227   1.250  -2.489  0.00  0.00    -0.070 Cl
ATOM      8 Cl1  UNL d   1       0.162   2.775   0.360  0.00  0.00    -0.070 Cl
ENDROOT
TORSDOF 0
ENDMDL
