MODEL 1
REMARK minimizedAffinity -2.02072263
REMARK minimizedRMSD -1
REMARK  0 active torsions:
REMARK  status: ('A' for Active; 'I' for Inactive)
ROOT
ATOM      1  C   UNL d   1       0.242   1.460  -0.195  0.00  0.00     0.020 A 
ATOM      2  C1  UNL d   1      -0.205   0.955   1.025  0.00  0.00     0.020 A 
ATOM      3  C2  UNL d   1      -0.246  -0.425   1.236  0.00  0.00     0.034 A 
ATOM      4  C3  UNL d   1       0.160  -1.304   0.226  0.00  0.00     0.017 A 
ATOM      5  C4  UNL d   1       0.608  -0.795  -0.999  0.00  0.00     0.017 A 
ATOM      6  C5  UNL d   1       0.647   0.587  -1.205  0.00  0.00     0.034 A 
ATOM      7 Cl   UNL d   1       1.125  -1.817  -2.294  0.00  0.00    -0.070 Cl
ATOM      8 Cl1  UNL d   1       0.083  -2.998   0.556  0.00  0.00    -0.070 Cl
ENDROOT
TORSDOF 0
ENDMDL
