MODEL 1
REMARK minimizedAffinity -3.09124327
REMARK minimizedRMSD -1
REMARK  0 active torsions:
REMARK  status: ('A' for Active; 'I' for Inactive)
ROOT
ATOM      1  C   UNL d   1      -0.054  -3.207   0.406  0.00  0.00     0.020 A 
ATOM      2  C1  UNL d   1       1.185  -2.738  -0.029  0.00  0.00     0.020 A 
ATOM      3  C2  UNL d   1       1.407  -1.365  -0.154  0.00  0.00     0.034 A 
ATOM      4  C3  UNL d   1       0.388  -0.456   0.155  0.00  0.00     0.017 A 
ATOM      5  C4  UNL d   1      -0.855  -0.928   0.591  0.00  0.00     0.017 A 
ATOM      6  C5  UNL d   1      -1.072  -2.304   0.715  0.00  0.00     0.034 A 
ATOM      7 Cl   UNL d   1      -2.160   0.132   0.991  0.00  0.00    -0.070 Cl
ATOM      8 Cl1  UNL d   1       0.733   1.228  -0.023  0.00  0.00    -0.070 Cl
ENDROOT
TORSDOF 0
ENDMDL
