MODEL 1
REMARK minimizedAffinity -4.33972406
REMARK minimizedRMSD -1
REMARK  0 active torsions:
REMARK  status: ('A' for Active; 'I' for Inactive)
ROOT
ATOM      1  C   UNL d   1       0.172  -3.295  -1.245  0.00  0.00     0.020 A 
ATOM      2  C1  UNL d   1       0.649  -2.551  -2.323  0.00  0.00     0.020 A 
ATOM      3  C2  UNL d   1       0.632  -1.155  -2.270  0.00  0.00     0.034 A 
ATOM      4  C3  UNL d   1       0.137  -0.500  -1.137  0.00  0.00     0.017 A 
ATOM      5  C4  UNL d   1      -0.342  -1.248  -0.055  0.00  0.00     0.017 A 
ATOM      6  C5  UNL d   1      -0.322  -2.645  -0.114  0.00  0.00     0.034 A 
ATOM      7 Cl   UNL d   1      -0.968  -0.510   1.377  0.00  0.00    -0.070 Cl
ATOM      8 Cl1  UNL d   1       0.146   1.228  -1.140  0.00  0.00    -0.070 Cl
ENDROOT
TORSDOF 0
ENDMDL
