MODEL 1
REMARK minimizedAffinity -4.57281017
REMARK minimizedRMSD -1
REMARK  0 active torsions:
REMARK  status: ('A' for Active; 'I' for Inactive)
ROOT
ATOM      1  C   UNL d   1      -0.522   0.914  -1.397  0.00  0.00     0.020 A 
ATOM      2  C1  UNL d   1       0.027  -0.148  -2.115  0.00  0.00     0.020 A 
ATOM      3  C2  UNL d   1       0.280  -1.364  -1.477  0.00  0.00     0.034 A 
ATOM      4  C3  UNL d   1      -0.016  -1.522  -0.119  0.00  0.00     0.017 A 
ATOM      5  C4  UNL d   1      -0.568  -0.456   0.601  0.00  0.00     0.017 A 
ATOM      6  C5  UNL d   1      -0.819   0.760  -0.043  0.00  0.00     0.034 A 
ATOM      7 Cl   UNL d   1      -0.961  -0.575   2.280  0.00  0.00    -0.070 Cl
ATOM      8 Cl1  UNL d   1       0.323  -3.054   0.605  0.00  0.00    -0.070 Cl
ENDROOT
TORSDOF 0
ENDMDL
