MODEL 1
REMARK minimizedAffinity -1.23664355
REMARK minimizedRMSD -1
REMARK  0 active torsions:
REMARK  status: ('A' for Active; 'I' for Inactive)
ROOT
ATOM      1  C   UNL d   1       1.223   4.408   1.036  0.00  0.00     0.020 A 
ATOM      2  C1  UNL d   1       0.011   3.721   0.995  0.00  0.00     0.020 A 
ATOM      3  C2  UNL d   1      -0.174   2.685   0.076  0.00  0.00     0.034 A 
ATOM      4  C3  UNL d   1       0.854   2.335  -0.806  0.00  0.00     0.017 A 
ATOM      5  C4  UNL d   1       2.071   3.026  -0.764  0.00  0.00     0.017 A 
ATOM      6  C5  UNL d   1       2.251   4.061   0.158  0.00  0.00     0.034 A 
ATOM      7 Cl   UNL d   1       3.386   2.650  -1.821  0.00  0.00    -0.070 Cl
ATOM      8 Cl1  UNL d   1       0.556   1.045  -1.916  0.00  0.00    -0.070 Cl
ENDROOT
TORSDOF 0
ENDMDL
