MODEL 1
REMARK minimizedAffinity -2.86707735
REMARK minimizedRMSD -1
REMARK  0 active torsions:
REMARK  status: ('A' for Active; 'I' for Inactive)
ROOT
ATOM      1  C   UNL d   1       0.681  -2.202  -0.531  0.00  0.00     0.020 A 
ATOM      2  C1  UNL d   1      -0.042  -2.847   0.472  0.00  0.00     0.020 A 
ATOM      3  C2  UNL d   1      -0.921  -2.120   1.276  0.00  0.00     0.034 A 
ATOM      4  C3  UNL d   1      -1.080  -0.743   1.080  0.00  0.00     0.017 A 
ATOM      5  C4  UNL d   1      -0.355  -0.097   0.072  0.00  0.00     0.017 A 
ATOM      6  C5  UNL d   1       0.524  -0.830  -0.731  0.00  0.00     0.034 A 
ATOM      7 Cl   UNL d   1      -0.498   1.599  -0.231  0.00  0.00    -0.070 Cl
ATOM      8 Cl1  UNL d   1      -2.185   0.094   2.111  0.00  0.00    -0.070 Cl
ENDROOT
TORSDOF 0
ENDMDL
