MODEL 1
REMARK minimizedAffinity -5.48621321
REMARK minimizedRMSD -1
REMARK  0 active torsions:
REMARK  status: ('A' for Active; 'I' for Inactive)
ROOT
ATOM      1  C   UNL d   1       0.371  -3.759  -0.702  0.00  0.00     0.020 A 
ATOM      2  C1  UNL d   1       0.441  -3.472  -2.064  0.00  0.00     0.020 A 
ATOM      3  C2  UNL d   1       0.242  -2.165  -2.513  0.00  0.00     0.034 A 
ATOM      4  C3  UNL d   1      -0.027  -1.140  -1.599  0.00  0.00     0.017 A 
ATOM      5  C4  UNL d   1      -0.097  -1.429  -0.232  0.00  0.00     0.017 A 
ATOM      6  C5  UNL d   1       0.103  -2.740   0.213  0.00  0.00     0.034 A 
ATOM      7 Cl   UNL d   1      -0.424  -0.217   0.957  0.00  0.00    -0.070 Cl
ATOM      8 Cl1  UNL d   1      -0.262   0.454  -2.225  0.00  0.00    -0.070 Cl
ENDROOT
TORSDOF 0
ENDMDL
