MODEL 1
REMARK minimizedAffinity -4.20930815
REMARK minimizedRMSD -1
REMARK  0 active torsions:
REMARK  status: ('A' for Active; 'I' for Inactive)
ROOT
ATOM      1  C   UNL d   1      -0.827  -1.451   1.475  0.00  0.00     0.020 A 
ATOM      2  C1  UNL d   1      -0.356  -2.626   0.891  0.00  0.00     0.020 A 
ATOM      3  C2  UNL d   1       0.202  -2.596  -0.389  0.00  0.00     0.034 A 
ATOM      4  C3  UNL d   1       0.289  -1.388  -1.090  0.00  0.00     0.017 A 
ATOM      5  C4  UNL d   1      -0.183  -0.208  -0.503  0.00  0.00     0.017 A 
ATOM      6  C5  UNL d   1      -0.740  -0.244   0.779  0.00  0.00     0.034 A 
ATOM      7 Cl   UNL d   1      -0.109   1.320  -1.306  0.00  0.00    -0.070 Cl
ATOM      8 Cl1  UNL d   1       0.991  -1.424  -2.668  0.00  0.00    -0.070 Cl
ENDROOT
TORSDOF 0
ENDMDL
