MODEL 1
REMARK minimizedAffinity -0.784567356
REMARK minimizedRMSD -1
REMARK  0 active torsions:
REMARK  status: ('A' for Active; 'I' for Inactive)
ROOT
ATOM      1  C   UNL d   1       1.708  -1.987  -0.058  0.00  0.00     0.020 A 
ATOM      2  C1  UNL d   1       1.642  -0.598   0.054  0.00  0.00     0.020 A 
ATOM      3  C2  UNL d   1       0.428   0.021   0.360  0.00  0.00     0.034 A 
ATOM      4  C3  UNL d   1      -0.725  -0.749   0.555  0.00  0.00     0.017 A 
ATOM      5  C4  UNL d   1      -0.657  -2.142   0.442  0.00  0.00     0.017 A 
ATOM      6  C5  UNL d   1       0.561  -2.757   0.136  0.00  0.00     0.034 A 
ATOM      7 Cl   UNL d   1      -2.037  -3.158   0.669  0.00  0.00    -0.070 Cl
ATOM      8 Cl1  UNL d   1      -2.192   0.083   0.930  0.00  0.00    -0.070 Cl
ENDROOT
TORSDOF 0
ENDMDL
