MODEL 1
REMARK minimizedAffinity -4.97482681
REMARK minimizedRMSD -1
REMARK  0 active torsions:
REMARK  status: ('A' for Active; 'I' for Inactive)
ROOT
ATOM      1  C   UNL d   1      -0.516  -1.790   1.119  0.00  0.00     0.020 A 
ATOM      2  C1  UNL d   1      -0.216  -2.996   0.487  0.00  0.00     0.020 A 
ATOM      3  C2  UNL d   1       0.110  -3.011  -0.871  0.00  0.00     0.034 A 
ATOM      4  C3  UNL d   1       0.137  -1.818  -1.601  0.00  0.00     0.017 A 
ATOM      5  C4  UNL d   1      -0.165  -0.607  -0.967  0.00  0.00     0.017 A 
ATOM      6  C5  UNL d   1      -0.490  -0.598   0.393  0.00  0.00     0.034 A 
ATOM      7 Cl   UNL d   1      -0.153   0.906  -1.802  0.00  0.00    -0.070 Cl
ATOM      8 Cl1  UNL d   1       0.548  -1.911  -3.277  0.00  0.00    -0.070 Cl
ENDROOT
TORSDOF 0
ENDMDL
