MODEL 1
REMARK minimizedAffinity -2.23051906
REMARK minimizedRMSD -1
REMARK  0 active torsions:
REMARK  status: ('A' for Active; 'I' for Inactive)
ROOT
ATOM      1  C   UNL d   1      -0.342  -3.008   0.523  0.00  0.00     0.020 A 
ATOM      2  C1  UNL d   1       0.930  -2.702   0.042  0.00  0.00     0.020 A 
ATOM      3  C2  UNL d   1       1.293  -1.370  -0.171  0.00  0.00     0.034 A 
ATOM      4  C3  UNL d   1       0.384  -0.341   0.098  0.00  0.00     0.017 A 
ATOM      5  C4  UNL d   1      -0.893  -0.650   0.581  0.00  0.00     0.017 A 
ATOM      6  C5  UNL d   1      -1.252  -1.985   0.792  0.00  0.00     0.034 A 
ATOM      7 Cl   UNL d   1      -2.069   0.566   0.935  0.00  0.00    -0.070 Cl
ATOM      8 Cl1  UNL d   1       0.901   1.283  -0.188  0.00  0.00    -0.070 Cl
ENDROOT
TORSDOF 0
ENDMDL
