MODEL 1
REMARK minimizedAffinity -4.47916079
REMARK minimizedRMSD -1
REMARK  0 active torsions:
REMARK  status: ('A' for Active; 'I' for Inactive)
ROOT
ATOM      1  C   UNL d   1       0.458  -1.854  -0.461  0.00  0.00     0.020 A 
ATOM      2  C1  UNL d   1      -0.265  -2.480   0.554  0.00  0.00     0.020 A 
ATOM      3  C2  UNL d   1      -1.021  -1.716   1.446  0.00  0.00     0.034 A 
ATOM      4  C3  UNL d   1      -1.055  -0.322   1.326  0.00  0.00     0.017 A 
ATOM      5  C4  UNL d   1      -0.329   0.305   0.307  0.00  0.00     0.017 A 
ATOM      6  C5  UNL d   1       0.426  -0.464  -0.584  0.00  0.00     0.034 A 
ATOM      7 Cl   UNL d   1      -0.322   2.021   0.095  0.00  0.00    -0.070 Cl
ATOM      8 Cl1  UNL d   1      -2.011   0.559   2.464  0.00  0.00    -0.070 Cl
ENDROOT
TORSDOF 0
ENDMDL
