MODEL 1
REMARK minimizedAffinity -4.96592855
REMARK minimizedRMSD -1
REMARK  0 active torsions:
REMARK  status: ('A' for Active; 'I' for Inactive)
ROOT
ATOM      1  C   UNL d   1       0.532  -2.210  -0.382  0.00  0.00     0.020 A 
ATOM      2  C1  UNL d   1      -0.336  -2.778   0.550  0.00  0.00     0.020 A 
ATOM      3  C2  UNL d   1      -1.135  -1.959   1.350  0.00  0.00     0.034 A 
ATOM      4  C3  UNL d   1      -1.068  -0.567   1.220  0.00  0.00     0.017 A 
ATOM      5  C4  UNL d   1      -0.196   0.002   0.284  0.00  0.00     0.017 A 
ATOM      6  C5  UNL d   1       0.601  -0.823  -0.515  0.00  0.00     0.034 A 
ATOM      7 Cl   UNL d   1      -0.058   1.711   0.066  0.00  0.00    -0.070 Cl
ATOM      8 Cl1  UNL d   1      -2.084   0.386   2.242  0.00  0.00    -0.070 Cl
ENDROOT
TORSDOF 0
ENDMDL
