MODEL 1
REMARK minimizedAffinity 12.5676022
REMARK minimizedRMSD -1
REMARK  0 active torsions:
REMARK  status: ('A' for Active; 'I' for Inactive)
ROOT
ATOM      1  O1  BZF d   1       3.719  -2.670  -0.093  0.00  0.00    -0.204 OA
ATOM      2  C2  BZF d   1       4.578  -1.589  -0.037  0.00  0.00     0.174 A 
ATOM      3  C3  BZF d   1       4.077  -0.543  -0.724  0.00  0.00    -0.012 A 
ATOM      4  C3A BZF d   1       2.783  -0.968  -1.164  0.00  0.00    -0.107 A 
ATOM      5  C4  BZF d   1       1.790  -0.363  -1.881  0.00  0.00     0.055 A 
ATOM      6  C5  BZF d   1       0.680  -1.077  -2.204  0.00  0.00    -0.016 A 
ATOM      7  C6  BZF d   1       0.532  -2.397  -1.832  0.00  0.00     0.022 A 
ATOM      8  C7  BZF d   1       1.488  -3.038  -1.116  0.00  0.00     0.029 A 
ATOM      9  C7A BZF d   1       2.596  -2.309  -0.759  0.00  0.00     0.058 A 
ENDROOT
TORSDOF 0
ENDMDL
