MODEL 1
REMARK minimizedAffinity 27.5048962
REMARK minimizedRMSD -1
REMARK  0 active torsions:
REMARK  status: ('A' for Active; 'I' for Inactive)
ROOT
ATOM      1  O1  BZF d   1       0.001  -6.000  -3.009  0.00  0.00    -0.204 OA
ATOM      2  C2  BZF d   1      -1.033  -5.117  -3.253  0.00  0.00     0.174 A 
ATOM      3  C3  BZF d   1      -0.967  -4.060  -2.418  0.00  0.00    -0.012 A 
ATOM      4  C3A BZF d   1       0.233  -4.251  -1.663  0.00  0.00    -0.107 A 
ATOM      5  C4  BZF d   1       0.852  -3.527  -0.685  0.00  0.00     0.055 A 
ATOM      6  C5  BZF d   1       1.974  -4.027  -0.103  0.00  0.00    -0.016 A 
ATOM      7  C6  BZF d   1       2.500  -5.248  -0.470  0.00  0.00     0.022 A 
ATOM      8  C7  BZF d   1       1.924  -6.000  -1.440  0.00  0.00     0.029 A 
ATOM      9  C7A BZF d   1       0.810  -5.482  -2.053  0.00  0.00     0.058 A 
ENDROOT
TORSDOF 0
ENDMDL
