MODEL 1
REMARK minimizedAffinity 23.2981091
REMARK minimizedRMSD -1
REMARK  0 active torsions:
REMARK  status: ('A' for Active; 'I' for Inactive)
ROOT
ATOM      1  O1  BZF d   1       2.654   2.660  -1.668  0.00  0.00    -0.204 OA
ATOM      2  C2  BZF d   1       2.558   1.661  -0.718  0.00  0.00     0.174 A 
ATOM      3  C3  BZF d   1       2.005   2.132   0.418  0.00  0.00    -0.012 A 
ATOM      4  C3A BZF d   1       1.654   3.489   0.131  0.00  0.00    -0.107 A 
ATOM      5  C4  BZF d   1       1.055   4.478   0.858  0.00  0.00     0.055 A 
ATOM      6  C5  BZF d   1       0.924   5.714   0.309  0.00  0.00    -0.016 A 
ATOM      7  C6  BZF d   1       1.384   5.998  -0.960  0.00  0.00     0.022 A 
ATOM      8  C7  BZF d   1       1.980   5.048  -1.722  0.00  0.00     0.029 A 
ATOM      9  C7A BZF d   1       2.085   3.789  -1.182  0.00  0.00     0.058 A 
ENDROOT
TORSDOF 0
ENDMDL
