MODEL 1
REMARK minimizedAffinity 12.6148014
REMARK minimizedRMSD -1
REMARK  0 active torsions:
REMARK  status: ('A' for Active; 'I' for Inactive)
ROOT
ATOM      1  O1  BZF d   1       0.937  -0.173  -2.127  0.00  0.00    -0.204 OA
ATOM      2  C2  BZF d   1       1.757   0.579  -1.309  0.00  0.00     0.174 A 
ATOM      3  C3  BZF d   1       2.330  -0.194  -0.364  0.00  0.00    -0.012 A 
ATOM      4  C3A BZF d   1       1.909  -1.528  -0.663  0.00  0.00    -0.107 A 
ATOM      5  C4  BZF d   1       2.160  -2.743  -0.092  0.00  0.00     0.055 A 
ATOM      6  C5  BZF d   1       1.535  -3.845  -0.582  0.00  0.00    -0.016 A 
ATOM      7  C6  BZF d   1       0.650  -3.769  -1.637  0.00  0.00     0.022 A 
ATOM      8  C7  BZF d   1       0.373  -2.588  -2.240  0.00  0.00     0.029 A 
ATOM      9  C7A BZF d   1       1.028  -1.476  -1.768  0.00  0.00     0.058 A 
ENDROOT
TORSDOF 0
ENDMDL
