MODEL 1
REMARK minimizedAffinity 23.0540504
REMARK minimizedRMSD -1
REMARK  0 active torsions:
REMARK  status: ('A' for Active; 'I' for Inactive)
ROOT
ATOM      1  O1  BZF d   1       1.087  -4.144  -0.227  0.00  0.00    -0.204 OA
ATOM      2  C2  BZF d   1       2.089  -5.096  -0.248  0.00  0.00     0.174 A 
ATOM      3  C3  BZF d   1       1.868  -6.000  -1.224  0.00  0.00    -0.012 A 
ATOM      4  C3A BZF d   1       0.702  -5.535  -1.911  0.00  0.00    -0.107 A 
ATOM      5  C4  BZF d   1      -0.003  -6.000  -2.985  0.00  0.00     0.055 A 
ATOM      6  C5  BZF d   1      -1.138  -5.353  -3.360  0.00  0.00    -0.016 A 
ATOM      7  C6  BZF d   1      -1.600  -4.244  -2.681  0.00  0.00     0.022 A 
ATOM      8  C7  BZF d   1      -0.932  -3.744  -1.613  0.00  0.00     0.029 A 
ATOM      9  C7A BZF d   1       0.233  -4.375  -1.252  0.00  0.00     0.058 A 
ENDROOT
TORSDOF 0
ENDMDL
