MODEL 1
REMARK minimizedAffinity 15.0314541
REMARK minimizedRMSD -1
REMARK  0 active torsions:
REMARK  status: ('A' for Active; 'I' for Inactive)
ROOT
ATOM      1  O1  BZF d   1      -4.132   1.411   2.278  0.00  0.00    -0.204 OA
ATOM      2  C2  BZF d   1      -3.046   1.846   3.013  0.00  0.00     0.174 A 
ATOM      3  C3  BZF d   1      -2.867   1.074   4.105  0.00  0.00    -0.012 A 
ATOM      4  C3A BZF d   1      -3.850   0.039   3.999  0.00  0.00    -0.107 A 
ATOM      5  C4  BZF d   1      -4.163  -1.041   4.774  0.00  0.00     0.055 A 
ATOM      6  C5  BZF d   1      -5.226  -1.815   4.430  0.00  0.00    -0.016 A 
ATOM      7  C6  BZF d   1      -6.000  -1.535   3.322  0.00  0.00     0.022 A 
ATOM      8  C7  BZF d   1      -5.725  -0.477   2.521  0.00  0.00     0.029 A 
ATOM      9  C7A BZF d   1      -4.632   0.287   2.847  0.00  0.00     0.058 A 
ENDROOT
TORSDOF 0
ENDMDL
