MODEL 1
REMARK minimizedAffinity 10.9340487
REMARK minimizedRMSD -1
REMARK  0 active torsions:
REMARK  status: ('A' for Active; 'I' for Inactive)
ROOT
ATOM      1  O1  BZF d   1       2.127  -2.647  -0.112  0.00  0.00    -0.204 OA
ATOM      2  C2  BZF d   1       0.974  -2.513  -0.862  0.00  0.00     0.174 A 
ATOM      3  C3  BZF d   1       0.914  -1.293  -1.433  0.00  0.00    -0.012 A 
ATOM      4  C3A BZF d   1       2.148  -0.655  -1.089  0.00  0.00    -0.107 A 
ATOM      5  C4  BZF d   1       2.685   0.568  -1.376  0.00  0.00     0.055 A 
ATOM      6  C5  BZF d   1       3.879   0.910  -0.825  0.00  0.00    -0.016 A 
ATOM      7  C6  BZF d   1       4.560   0.058   0.020  0.00  0.00     0.022 A 
ATOM      8  C7  BZF d   1       4.070  -1.167   0.330  0.00  0.00     0.029 A 
ATOM      9  C7A BZF d   1       2.879  -1.529  -0.252  0.00  0.00     0.058 A 
ENDROOT
TORSDOF 0
ENDMDL
