MODEL 1
REMARK minimizedAffinity 25.5540161
REMARK minimizedRMSD -1
REMARK  0 active torsions:
REMARK  status: ('A' for Active; 'I' for Inactive)
ROOT
ATOM      1  O1  BZF d   1      -0.913  -5.999  -5.115  0.00  0.00    -0.204 OA
ATOM      2  C2  BZF d   1      -1.874  -5.550  -6.000  0.00  0.00     0.174 A 
ATOM      3  C3  BZF d   1      -2.704  -4.673  -5.399  0.00  0.00    -0.012 A 
ATOM      4  C3A BZF d   1      -2.177  -4.498  -4.081  0.00  0.00    -0.107 A 
ATOM      5  C4  BZF d   1      -2.554  -3.736  -3.012  0.00  0.00     0.055 A 
ATOM      6  C5  BZF d   1      -1.868  -3.849  -1.845  0.00  0.00    -0.016 A 
ATOM      7  C6  BZF d   1      -0.803  -4.716  -1.710  0.00  0.00     0.022 A 
ATOM      8  C7  BZF d   1      -0.388  -5.488  -2.744  0.00  0.00     0.029 A 
ATOM      9  C7A BZF d   1      -1.059  -5.352  -3.934  0.00  0.00     0.058 A 
ENDROOT
TORSDOF 0
ENDMDL
