MODEL 1
REMARK minimizedAffinity 24.1801796
REMARK minimizedRMSD -1
REMARK  0 active torsions:
REMARK  status: ('A' for Active; 'I' for Inactive)
ROOT
ATOM      1  O1  BZF d   1       3.706   1.396  -1.442  0.00  0.00    -0.204 OA
ATOM      2  C2  BZF d   1       4.228   1.382  -0.162  0.00  0.00     0.174 A 
ATOM      3  C3  BZF d   1       3.514   0.562   0.636  0.00  0.00    -0.012 A 
ATOM      4  C3A BZF d   1       2.538  -0.040  -0.219  0.00  0.00    -0.107 A 
ATOM      5  C4  BZF d   1       1.548  -0.958  -0.013  0.00  0.00     0.055 A 
ATOM      6  C5  BZF d   1       0.721  -1.280  -1.043  0.00  0.00    -0.016 A 
ATOM      7  C6  BZF d   1       0.853  -0.701  -2.288  0.00  0.00     0.022 A 
ATOM      8  C7  BZF d   1       1.824   0.210  -2.542  0.00  0.00     0.029 A 
ATOM      9  C7A BZF d   1       2.681   0.513  -1.512  0.00  0.00     0.058 A 
ENDROOT
TORSDOF 0
ENDMDL
