MODEL 1
REMARK minimizedAffinity 14.2574396
REMARK minimizedRMSD -1
REMARK  0 active torsions:
REMARK  status: ('A' for Active; 'I' for Inactive)
ROOT
ATOM      1  O1  BZF d   1       1.771   1.887   2.728  0.00  0.00    -0.204 OA
ATOM      2  C2  BZF d   1       0.485   1.489   3.039  0.00  0.00     0.174 A 
ATOM      3  C3  BZF d   1      -0.023   0.709   2.063  0.00  0.00    -0.012 A 
ATOM      4  C3A BZF d   1       1.044   0.537   1.125  0.00  0.00    -0.107 A 
ATOM      5  C4  BZF d   1       1.159  -0.151  -0.049  0.00  0.00     0.055 A 
ATOM      6  C5  BZF d   1       2.314  -0.055  -0.760  0.00  0.00    -0.016 A 
ATOM      7  C6  BZF d   1       3.369   0.722  -0.329  0.00  0.00     0.022 A 
ATOM      8  C7  BZF d   1       3.303   1.418   0.832  0.00  0.00     0.029 A 
ATOM      9  C7A BZF d   1       2.150   1.297   1.569  0.00  0.00     0.058 A 
ENDROOT
TORSDOF 0
ENDMDL
