MODEL 1
REMARK minimizedAffinity 12.1877499
REMARK minimizedRMSD -1
REMARK  0 active torsions:
REMARK  status: ('A' for Active; 'I' for Inactive)
ROOT
ATOM      1  O1  BZF d   1      -3.826  -1.338   6.000  0.00  0.00    -0.204 OA
ATOM      2  C2  BZF d   1      -4.122  -2.273   5.027  0.00  0.00     0.174 A 
ATOM      3  C3  BZF d   1      -4.309  -1.677   3.832  0.00  0.00    -0.012 A 
ATOM      4  C3A BZF d   1      -4.027  -0.292   4.054  0.00  0.00    -0.107 A 
ATOM      5  C4  BZF d   1      -4.024   0.807   3.244  0.00  0.00     0.055 A 
ATOM      6  C5  BZF d   1      -3.776   2.028   3.787  0.00  0.00    -0.016 A 
ATOM      7  C6  BZF d   1      -3.533   2.186   5.136  0.00  0.00     0.022 A 
ATOM      8  C7  BZF d   1      -3.520   1.125   5.978  0.00  0.00     0.029 A 
ATOM      9  C7A BZF d   1      -3.738  -0.114   5.427  0.00  0.00     0.058 A 
ENDROOT
TORSDOF 0
ENDMDL
