MODEL 1
REMARK minimizedAffinity 18.4808617
REMARK minimizedRMSD -1
REMARK  0 active torsions:
REMARK  status: ('A' for Active; 'I' for Inactive)
ROOT
ATOM      1  O1  BZF d   1       5.349  -3.822  -0.840  0.00  0.00    -0.204 OA
ATOM      2  C2  BZF d   1       6.000  -4.980  -1.218  0.00  0.00     0.174 A 
ATOM      3  C3  BZF d   1       5.127  -6.000  -1.345  0.00  0.00    -0.012 A 
ATOM      4  C3A BZF d   1       3.838  -5.423  -1.116  0.00  0.00    -0.107 A 
ATOM      5  C4  BZF d   1       2.569  -5.927  -1.120  0.00  0.00     0.055 A 
ATOM      6  C5  BZF d   1       1.534  -5.114  -0.784  0.00  0.00    -0.016 A 
ATOM      7  C6  BZF d   1       1.731  -3.794  -0.435  0.00  0.00     0.022 A 
ATOM      8  C7  BZF d   1       2.971  -3.247  -0.421  0.00  0.00     0.029 A 
ATOM      9  C7A BZF d   1       4.016  -4.058  -0.792  0.00  0.00     0.058 A 
ENDROOT
TORSDOF 0
ENDMDL
