MODEL 1
REMARK minimizedAffinity 17.9928398
REMARK minimizedRMSD -1
REMARK  0 active torsions:
REMARK  status: ('A' for Active; 'I' for Inactive)
ROOT
ATOM      1  O1  BZF d   1       1.866   1.780  -2.643  0.00  0.00    -0.204 OA
ATOM      2  C2  BZF d   1       1.298   0.718  -3.320  0.00  0.00     0.174 A 
ATOM      3  C3  BZF d   1       1.843  -0.450  -2.921  0.00  0.00    -0.012 A 
ATOM      4  C3A BZF d   1       2.747  -0.103  -1.868  0.00  0.00    -0.107 A 
ATOM      5  C4  BZF d   1       3.574  -0.832  -1.063  0.00  0.00     0.055 A 
ATOM      6  C5  BZF d   1       4.381  -0.183  -0.183  0.00  0.00    -0.016 A 
ATOM      7  C6  BZF d   1       4.391   1.193  -0.087  0.00  0.00     0.022 A 
ATOM      8  C7  BZF d   1       3.584   1.959  -0.861  0.00  0.00     0.029 A 
ATOM      9  C7A BZF d   1       2.744   1.304  -1.728  0.00  0.00     0.058 A 
ENDROOT
TORSDOF 0
ENDMDL
