MODEL 1
REMARK minimizedAffinity 11.2204342
REMARK minimizedRMSD -1
REMARK  0 active torsions:
REMARK  status: ('A' for Active; 'I' for Inactive)
ROOT
ATOM      1  O1  BZF d   1       2.790   0.776  -1.357  0.00  0.00    -0.204 OA
ATOM      2  C2  BZF d   1       4.048   0.754  -0.788  0.00  0.00     0.174 A 
ATOM      3  C3  BZF d   1       4.350  -0.482  -0.341  0.00  0.00    -0.012 A 
ATOM      4  C3A BZF d   1       3.247  -1.304  -0.734  0.00  0.00    -0.107 A 
ATOM      5  C4  BZF d   1       2.968  -2.633  -0.589  0.00  0.00     0.055 A 
ATOM      6  C5  BZF d   1       1.770  -3.107  -1.021  0.00  0.00    -0.016 A 
ATOM      7  C6  BZF d   1       0.826  -2.281  -1.596  0.00  0.00     0.022 A 
ATOM      8  C7  BZF d   1       1.059  -0.957  -1.765  0.00  0.00     0.029 A 
ATOM      9  C7A BZF d   1       2.282  -0.481  -1.360  0.00  0.00     0.058 A 
ENDROOT
TORSDOF 0
ENDMDL
