MODEL 1
REMARK minimizedAffinity 18.9784012
REMARK minimizedRMSD -1
REMARK  0 active torsions:
REMARK  status: ('A' for Active; 'I' for Inactive)
ROOT
ATOM      1  O1  BZF d   1       0.446  -1.126  -0.405  0.00  0.00    -0.204 OA
ATOM      2  C2  BZF d   1       1.276  -0.044  -0.621  0.00  0.00     0.174 A 
ATOM      3  C3  BZF d   1       1.874  -0.133  -1.826  0.00  0.00    -0.012 A 
ATOM      4  C3A BZF d   1       1.317  -1.300  -2.438  0.00  0.00    -0.107 A 
ATOM      5  C4  BZF d   1       1.501  -1.905  -3.648  0.00  0.00     0.055 A 
ATOM      6  C5  BZF d   1       0.857  -3.073  -3.907  0.00  0.00    -0.016 A 
ATOM      7  C6  BZF d   1       0.027  -3.666  -2.979  0.00  0.00     0.022 A 
ATOM      8  C7  BZF d   1      -0.191  -3.101  -1.767  0.00  0.00     0.029 A 
ATOM      9  C7A BZF d   1       0.432  -1.903  -1.514  0.00  0.00     0.058 A 
ENDROOT
TORSDOF 0
ENDMDL
