MODEL 1
REMARK minimizedAffinity 15.4194098
REMARK minimizedRMSD -1
REMARK  0 active torsions:
REMARK  status: ('A' for Active; 'I' for Inactive)
ROOT
ATOM      1  O1  BZF d   1      -3.345   1.453   1.848  0.00  0.00    -0.204 OA
ATOM      2  C2  BZF d   1      -4.078   1.325   3.012  0.00  0.00     0.174 A 
ATOM      3  C3  BZF d   1      -3.269   1.074   4.061  0.00  0.00    -0.012 A 
ATOM      4  C3A BZF d   1      -1.940   1.134   3.534  0.00  0.00    -0.107 A 
ATOM      5  C4  BZF d   1      -0.702   0.985   4.091  0.00  0.00     0.055 A 
ATOM      6  C5  BZF d   1       0.394   1.032   3.288  0.00  0.00    -0.016 A 
ATOM      7  C6  BZF d   1       0.287   1.220   1.925  0.00  0.00     0.022 A 
ATOM      8  C7  BZF d   1      -0.919   1.377   1.328  0.00  0.00     0.029 A 
ATOM      9  C7A BZF d   1      -2.026   1.364   2.142  0.00  0.00     0.058 A 
ENDROOT
TORSDOF 0
ENDMDL
