MODEL 1
REMARK minimizedAffinity 7.60194254
REMARK minimizedRMSD -1
REMARK  0 active torsions:
REMARK  status: ('A' for Active; 'I' for Inactive)
ROOT
ATOM      1  O1  BZF d   1      -2.454   1.885   4.411  0.00  0.00    -0.204 OA
ATOM      2  C2  BZF d   1      -2.603   1.715   3.048  0.00  0.00     0.174 A 
ATOM      3  C3  BZF d   1      -1.434   1.359   2.479  0.00  0.00    -0.012 A 
ATOM      4  C3A BZF d   1      -0.515   1.213   3.566  0.00  0.00    -0.107 A 
ATOM      5  C4  BZF d   1       0.801   0.859   3.642  0.00  0.00     0.055 A 
ATOM      6  C5  BZF d   1       1.424   0.883   4.850  0.00  0.00    -0.016 A 
ATOM      7  C6  BZF d   1       0.762   1.261   6.000  0.00  0.00     0.022 A 
ATOM      8  C7  BZF d   1      -0.546   1.616   5.976  0.00  0.00     0.029 A 
ATOM      9  C7A BZF d   1      -1.186   1.560   4.762  0.00  0.00     0.058 A 
ENDROOT
TORSDOF 0
ENDMDL
