MODEL 1
REMARK minimizedAffinity 10.796216
REMARK minimizedRMSD -1
REMARK  0 active torsions:
REMARK  status: ('A' for Active; 'I' for Inactive)
ROOT
ATOM      1  C   UNL d   1      -1.568  -4.591  -5.999  0.00  0.00     0.020 A 
ATOM      2  C1  UNL d   1      -2.071  -5.301  -4.910  0.00  0.00     0.020 A 
ATOM      3  C2  UNL d   1      -2.049  -4.732  -3.635  0.00  0.00     0.034 A 
ATOM      4  C3  UNL d   1      -1.521  -3.449  -3.446  0.00  0.00     0.017 A 
ATOM      5  C4  UNL d   1      -1.016  -2.737  -4.540  0.00  0.00     0.017 A 
ATOM      6  C5  UNL d   1      -1.041  -3.312  -5.814  0.00  0.00     0.034 A 
ATOM      7 Cl   UNL d   1      -0.350  -1.150  -4.385  0.00  0.00    -0.070 Cl
ATOM      8 Cl1  UNL d   1      -1.525  -2.807  -1.842  0.00  0.00    -0.070 Cl
ENDROOT
TORSDOF 0
ENDMDL
