MODEL 1
REMARK minimizedAffinity 1.96306527
REMARK minimizedRMSD -1
REMARK  0 active torsions:
REMARK  status: ('A' for Active; 'I' for Inactive)
ROOT
ATOM      1  C   UNL d   1       1.070  -3.079   4.063  0.00  0.00     0.020 A 
ATOM      2  C1  UNL d   1       0.829  -1.959   3.267  0.00  0.00     0.020 A 
ATOM      3  C2  UNL d   1       1.719  -0.883   3.289  0.00  0.00     0.034 A 
ATOM      4  C3  UNL d   1       2.853  -0.924   4.109  0.00  0.00     0.017 A 
ATOM      5  C4  UNL d   1       3.094  -2.048   4.907  0.00  0.00     0.017 A 
ATOM      6  C5  UNL d   1       2.200  -3.123   4.881  0.00  0.00     0.034 A 
ATOM      7 Cl   UNL d   1       4.471  -2.172   5.943  0.00  0.00    -0.070 Cl
ATOM      8 Cl1  UNL d   1       3.911   0.442   4.086  0.00  0.00    -0.070 Cl
ENDROOT
TORSDOF 0
ENDMDL
