MODEL 1
REMARK minimizedAffinity 11.58251
REMARK minimizedRMSD -1
REMARK  0 active torsions:
REMARK  status: ('A' for Active; 'I' for Inactive)
ROOT
ATOM      1  C   UNL d   1      -1.263  -3.328  -5.999  0.00  0.00     0.020 A 
ATOM      2  C1  UNL d   1      -1.844  -4.156  -5.039  0.00  0.00     0.020 A 
ATOM      3  C2  UNL d   1      -1.728  -3.842  -3.684  0.00  0.00     0.034 A 
ATOM      4  C3  UNL d   1      -1.029  -2.697  -3.284  0.00  0.00     0.017 A 
ATOM      5  C4  UNL d   1      -0.447  -1.866  -4.248  0.00  0.00     0.017 A 
ATOM      6  C5  UNL d   1      -0.566  -2.185  -5.604  0.00  0.00     0.034 A 
ATOM      7 Cl   UNL d   1       0.431  -0.436  -3.832  0.00  0.00    -0.070 Cl
ATOM      8 Cl1  UNL d   1      -0.925  -2.369  -1.591  0.00  0.00    -0.070 Cl
ENDROOT
TORSDOF 0
ENDMDL
