MODEL 1
REMARK minimizedAffinity 17.0413685
REMARK minimizedRMSD -1
REMARK  0 active torsions:
REMARK  status: ('A' for Active; 'I' for Inactive)
ROOT
ATOM      1  C   UNL d   1       2.254  -2.053   3.352  0.00  0.00     0.020 A 
ATOM      2  C1  UNL d   1       2.800  -2.620   4.503  0.00  0.00     0.020 A 
ATOM      3  C2  UNL d   1       2.022  -3.456   5.306  0.00  0.00     0.034 A 
ATOM      4  C3  UNL d   1       0.693  -3.728   4.960  0.00  0.00     0.017 A 
ATOM      5  C4  UNL d   1       0.146  -3.159   3.804  0.00  0.00     0.017 A 
ATOM      6  C5  UNL d   1       0.930  -2.322   3.003  0.00  0.00     0.034 A 
ATOM      7 Cl   UNL d   1      -1.485  -3.447   3.312  0.00  0.00    -0.070 Cl
ATOM      8 Cl1  UNL d   1      -0.211  -4.771   5.999  0.00  0.00    -0.070 Cl
ENDROOT
TORSDOF 0
ENDMDL
