MODEL 1
REMARK minimizedAffinity 18.1427402
REMARK minimizedRMSD -1
REMARK  0 active torsions:
REMARK  status: ('A' for Active; 'I' for Inactive)
ROOT
ATOM      1  C   UNL d   1       1.074   0.150   3.045  0.00  0.00     0.020 A 
ATOM      2  C1  UNL d   1       1.270  -1.134   2.538  0.00  0.00     0.020 A 
ATOM      3  C2  UNL d   1       0.275  -1.739   1.766  0.00  0.00     0.034 A 
ATOM      4  C3  UNL d   1      -0.920  -1.060   1.500  0.00  0.00     0.017 A 
ATOM      5  C4  UNL d   1      -1.115   0.229   2.010  0.00  0.00     0.017 A 
ATOM      6  C5  UNL d   1      -0.116   0.830   2.781  0.00  0.00     0.034 A 
ATOM      7 Cl   UNL d   1      -2.562   1.129   1.723  0.00  0.00    -0.070 Cl
ATOM      8 Cl1  UNL d   1      -2.106  -1.868   0.538  0.00  0.00    -0.070 Cl
ENDROOT
TORSDOF 0
ENDMDL
