MODEL 1
REMARK minimizedAffinity 5.73580074
REMARK minimizedRMSD -1
REMARK  0 active torsions:
REMARK  status: ('A' for Active; 'I' for Inactive)
ROOT
ATOM      1  C   UNL d   1      -0.066  -1.485  -5.996  0.00  0.00     0.020 A 
ATOM      2  C1  UNL d   1       0.045  -0.753  -4.814  0.00  0.00     0.020 A 
ATOM      3  C2  UNL d   1      -0.527  -1.238  -3.636  0.00  0.00     0.034 A 
ATOM      4  C3  UNL d   1      -1.211  -2.459  -3.637  0.00  0.00     0.017 A 
ATOM      5  C4  UNL d   1      -1.321  -3.193  -4.823  0.00  0.00     0.017 A 
ATOM      6  C5  UNL d   1      -0.747  -2.703  -6.000  0.00  0.00     0.034 A 
ATOM      7 Cl   UNL d   1      -2.150  -4.708  -4.902  0.00  0.00    -0.070 Cl
ATOM      8 Cl1  UNL d   1      -1.893  -2.999  -2.143  0.00  0.00    -0.070 Cl
ENDROOT
TORSDOF 0
ENDMDL
