MODEL 1
REMARK minimizedAffinity 10.9913254
REMARK minimizedRMSD -1
REMARK  0 active torsions:
REMARK  status: ('A' for Active; 'I' for Inactive)
ROOT
ATOM      1  C   UNL d   1      -1.486  -3.825  -6.000  0.00  0.00     0.020 A 
ATOM      2  C1  UNL d   1      -2.159  -4.533  -5.005  0.00  0.00     0.020 A 
ATOM      3  C2  UNL d   1      -2.090  -4.107  -3.677  0.00  0.00     0.034 A 
ATOM      4  C3  UNL d   1      -1.346  -2.971  -3.340  0.00  0.00     0.017 A 
ATOM      5  C4  UNL d   1      -0.670  -2.261  -4.339  0.00  0.00     0.017 A 
ATOM      6  C5  UNL d   1      -0.743  -2.692  -5.667  0.00  0.00     0.034 A 
ATOM      7 Cl   UNL d   1       0.268  -0.849  -4.000  0.00  0.00    -0.070 Cl
ATOM      8 Cl1  UNL d   1      -1.304  -2.502  -1.677  0.00  0.00    -0.070 Cl
ENDROOT
TORSDOF 0
ENDMDL
