MODEL 1
REMARK minimizedAffinity -0.419164807
REMARK minimizedRMSD -1
REMARK  0 active torsions:
REMARK  status: ('A' for Active; 'I' for Inactive)
ROOT
ATOM      1  C   UNL d   1       0.130   1.996   2.423  0.00  0.00    -0.002 A 
ATOM      2  C1  UNL d   1      -1.041   2.321   1.753  0.00  0.00     0.010 A 
ATOM      3  C2  UNL d   1      -1.496   1.534   0.694  0.00  0.00     0.041 A 
ATOM      4  C3  UNL d   1      -0.748   0.401   0.316  0.00  0.00    -0.075 A 
ATOM      5  S   UNL d   1      -1.112  -0.710  -0.950  0.00  0.00     0.015 SA
ATOM      6  C4  UNL d   1       0.278  -1.644  -0.631  0.00  0.00     0.022 A 
ATOM      7  C5  UNL d   1       1.013  -1.135   0.412  0.00  0.00     0.026 A 
ATOM      8  C6  UNL d   1       0.434   0.052   0.976  0.00  0.00    -0.082 A 
ATOM      9  C7  UNL d   1       0.869   0.871   2.046  0.00  0.00     0.045 A 
ENDROOT
TORSDOF 0
ENDMDL
