MODEL 1
REMARK minimizedAffinity -4.14685202
REMARK minimizedRMSD -1
REMARK  0 active torsions:
REMARK  status: ('A' for Active; 'I' for Inactive)
ROOT
ATOM      1  C   UNL d   1      -0.736   3.430   1.567  0.00  0.00    -0.002 A 
ATOM      2  C1  UNL d   1      -0.389   2.292   2.281  0.00  0.00     0.010 A 
ATOM      3  C2  UNL d   1      -0.011   1.124   1.616  0.00  0.00     0.041 A 
ATOM      4  C3  UNL d   1       0.015   1.119   0.208  0.00  0.00    -0.075 A 
ATOM      5  S   UNL d   1       0.447  -0.197  -0.819  0.00  0.00     0.015 SA
ATOM      6  C4  UNL d   1       0.182   0.721  -2.231  0.00  0.00     0.022 A 
ATOM      7  C5  UNL d   1      -0.226   2.002  -1.944  0.00  0.00     0.026 A 
ATOM      8  C6  UNL d   1      -0.329   2.253  -0.534  0.00  0.00    -0.082 A 
ATOM      9  C7  UNL d   1      -0.709   3.421   0.169  0.00  0.00     0.045 A 
ENDROOT
TORSDOF 0
ENDMDL
