MODEL 1
REMARK minimizedAffinity -4.42331743
REMARK minimizedRMSD -1
REMARK  0 active torsions:
REMARK  status: ('A' for Active; 'I' for Inactive)
ROOT
ATOM      1  C   UNL d   1      -0.976   2.525   1.911  0.00  0.00    -0.002 A 
ATOM      2  C1  UNL d   1      -0.864   1.313   2.578  0.00  0.00     0.010 A 
ATOM      3  C2  UNL d   1      -0.518   0.151   1.887  0.00  0.00     0.041 A 
ATOM      4  C3  UNL d   1      -0.281   0.227   0.500  0.00  0.00    -0.075 A 
ATOM      5  S   UNL d   1       0.156  -1.066  -0.552  0.00  0.00     0.015 SA
ATOM      6  C4  UNL d   1       0.207  -0.041  -1.913  0.00  0.00     0.022 A 
ATOM      7  C5  UNL d   1      -0.101   1.260  -1.590  0.00  0.00     0.026 A 
ATOM      8  C6  UNL d   1      -0.386   1.436  -0.194  0.00  0.00    -0.082 A 
ATOM      9  C7  UNL d   1      -0.740   2.597   0.535  0.00  0.00     0.045 A 
ENDROOT
TORSDOF 0
ENDMDL
