MODEL 1
REMARK minimizedAffinity -2.72075653
REMARK minimizedRMSD -1
REMARK  0 active torsions:
REMARK  status: ('A' for Active; 'I' for Inactive)
ROOT
ATOM      1  C   UNL d   1      -0.561   2.066   2.755  0.00  0.00    -0.002 A 
ATOM      2  C1  UNL d   1      -1.031   2.875   1.731  0.00  0.00     0.010 A 
ATOM      3  C2  UNL d   1      -1.016   2.428   0.408  0.00  0.00     0.041 A 
ATOM      4  C3  UNL d   1      -0.517   1.140   0.130  0.00  0.00    -0.075 A 
ATOM      5  S   UNL d   1      -0.402   0.381  -1.414  0.00  0.00     0.015 SA
ATOM      6  C4  UNL d   1       0.274  -1.036  -0.750  0.00  0.00     0.022 A 
ATOM      7  C5  UNL d   1       0.415  -0.949   0.615  0.00  0.00     0.026 A 
ATOM      8  C6  UNL d   1      -0.039   0.306   1.145  0.00  0.00    -0.082 A 
ATOM      9  C7  UNL d   1      -0.067   0.789   2.475  0.00  0.00     0.045 A 
ENDROOT
TORSDOF 0
ENDMDL
