MODEL 1
REMARK minimizedAffinity -1.21906614
REMARK minimizedRMSD -1
REMARK  0 active torsions:
REMARK  status: ('A' for Active; 'I' for Inactive)
ROOT
ATOM      1  C   UNL d   1       0.135   3.553   0.218  0.00  0.00    -0.002 A 
ATOM      2  C1  UNL d   1       0.033   3.140  -1.103  0.00  0.00     0.010 A 
ATOM      3  C2  UNL d   1      -0.075   1.784  -1.417  0.00  0.00     0.041 A 
ATOM      4  C3  UNL d   1      -0.081   0.840  -0.371  0.00  0.00    -0.075 A 
ATOM      5  S   UNL d   1      -0.205  -0.873  -0.518  0.00  0.00     0.015 SA
ATOM      6  C4  UNL d   1      -0.127  -1.098   1.170  0.00  0.00     0.022 A 
ATOM      7  C5  UNL d   1      -0.008   0.095   1.844  0.00  0.00     0.026 A 
ATOM      8  C6  UNL d   1       0.019   1.231   0.967  0.00  0.00    -0.082 A 
ATOM      9  C7  UNL d   1       0.129   2.614   1.253  0.00  0.00     0.045 A 
ENDROOT
TORSDOF 0
ENDMDL
