MODEL 1
REMARK minimizedAffinity -1.99650538
REMARK minimizedRMSD -1
REMARK  0 active torsions:
REMARK  status: ('A' for Active; 'I' for Inactive)
ROOT
ATOM      1  C   UNL d   1       0.141   1.508   2.745  0.00  0.00    -0.002 A 
ATOM      2  C1  UNL d   1      -0.637   2.302   1.915  0.00  0.00     0.010 A 
ATOM      3  C2  UNL d   1      -0.863   1.934   0.587  0.00  0.00     0.041 A 
ATOM      4  C3  UNL d   1      -0.290   0.741   0.104  0.00  0.00    -0.075 A 
ATOM      5  S   UNL d   1      -0.431   0.090  -1.486  0.00  0.00     0.015 SA
ATOM      6  C4  UNL d   1       0.537  -1.258  -1.101  0.00  0.00     0.022 A 
ATOM      7  C5  UNL d   1       0.967  -1.228   0.205  0.00  0.00     0.026 A 
ATOM      8  C6  UNL d   1       0.497  -0.076   0.921  0.00  0.00    -0.082 A 
ATOM      9  C7  UNL d   1       0.708   0.325   2.262  0.00  0.00     0.045 A 
ENDROOT
TORSDOF 0
ENDMDL
