MODEL 1
REMARK minimizedAffinity -1.58444321
REMARK minimizedRMSD -1
REMARK  0 active torsions:
REMARK  status: ('A' for Active; 'I' for Inactive)
ROOT
ATOM      1  C   UNL d   1      -0.763   3.093   1.815  0.00  0.00    -0.002 A 
ATOM      2  C1  UNL d   1      -0.875   3.367   0.459  0.00  0.00     0.010 A 
ATOM      3  C2  UNL d   1      -0.669   2.363  -0.488  0.00  0.00     0.041 A 
ATOM      4  C3  UNL d   1      -0.348   1.065  -0.046  0.00  0.00    -0.075 A 
ATOM      5  S   UNL d   1      -0.053  -0.324  -1.025  0.00  0.00     0.015 SA
ATOM      6  C4  UNL d   1       0.228  -1.314   0.333  0.00  0.00     0.022 A 
ATOM      7  C5  UNL d   1       0.104  -0.619   1.512  0.00  0.00     0.026 A 
ATOM      8  C6  UNL d   1      -0.230   0.763   1.313  0.00  0.00    -0.082 A 
ATOM      9  C7  UNL d   1      -0.444   1.804   2.249  0.00  0.00     0.045 A 
ENDROOT
TORSDOF 0
ENDMDL
