MODEL 1
REMARK minimizedAffinity -4.00099325
REMARK minimizedRMSD -1
REMARK  0 active torsions:
REMARK  status: ('A' for Active; 'I' for Inactive)
ROOT
ATOM      1  C   UNL d   1      -0.670   2.161   2.143  0.00  0.00    -0.002 A 
ATOM      2  C1  UNL d   1      -1.448   2.717   1.137  0.00  0.00     0.010 A 
ATOM      3  C2  UNL d   1      -1.223   2.385  -0.200  0.00  0.00     0.041 A 
ATOM      4  C3  UNL d   1      -0.194   1.474  -0.512  0.00  0.00    -0.075 A 
ATOM      5  S   UNL d   1       0.262   0.918  -2.079  0.00  0.00     0.015 SA
ATOM      6  C4  UNL d   1       1.499  -0.071  -1.450  0.00  0.00     0.022 A 
ATOM      7  C5  UNL d   1       1.576   0.009  -0.080  0.00  0.00     0.026 A 
ATOM      8  C6  UNL d   1       0.601   0.900   0.483  0.00  0.00    -0.082 A 
ATOM      9  C7  UNL d   1       0.349   1.258   1.830  0.00  0.00     0.045 A 
ENDROOT
TORSDOF 0
ENDMDL
