MODEL 1
REMARK minimizedAffinity 4.31924486
REMARK minimizedRMSD -1
REMARK  0 active torsions:
REMARK  status: ('A' for Active; 'I' for Inactive)
ROOT
ATOM      1  O1  BZF d   1       0.481  -0.555   1.821  0.00  0.00    -0.204 OA
ATOM      2  C2  BZF d   1       1.019   0.155   0.765  0.00  0.00     0.174 A 
ATOM      3  C3  BZF d   1       2.267   0.576   1.057  0.00  0.00    -0.012 A 
ATOM      4  C3A BZF d   1       2.559   0.021   2.343  0.00  0.00    -0.107 A 
ATOM      5  C4  BZF d   1       3.652   0.070   3.161  0.00  0.00     0.055 A 
ATOM      6  C5  BZF d   1       3.589  -0.518   4.384  0.00  0.00    -0.016 A 
ATOM      7  C6  BZF d   1       2.450  -1.159   4.823  0.00  0.00     0.022 A 
ATOM      8  C7  BZF d   1       1.342  -1.239   4.046  0.00  0.00     0.029 A 
ATOM      9  C7A BZF d   1       1.414  -0.673   2.796  0.00  0.00     0.058 A 
ENDROOT
TORSDOF 0
ENDMDL
