MODEL 1
REMARK minimizedAffinity -3.06819677
REMARK minimizedRMSD -1
REMARK  0 active torsions:
REMARK  status: ('A' for Active; 'I' for Inactive)
ROOT
ATOM      1  O1  BZF d   1       3.480  -0.729   3.291  0.00  0.00    -0.204 OA
ATOM      2  C2  BZF d   1       2.964  -1.276   4.451  0.00  0.00     0.174 A 
ATOM      3  C3  BZF d   1       1.629  -1.095   4.512  0.00  0.00    -0.012 A 
ATOM      4  C3A BZF d   1       1.276  -0.473   3.273  0.00  0.00    -0.107 A 
ATOM      5  C4  BZF d   1       0.092  -0.057   2.735  0.00  0.00     0.055 A 
ATOM      6  C5  BZF d   1       0.098   0.579   1.535  0.00  0.00    -0.016 A 
ATOM      7  C6  BZF d   1       1.270   0.821   0.848  0.00  0.00     0.022 A 
ATOM      8  C7  BZF d   1       2.469   0.424   1.339  0.00  0.00     0.029 A 
ATOM      9  C7A BZF d   1       2.462  -0.249   2.537  0.00  0.00     0.058 A 
ENDROOT
TORSDOF 0
ENDMDL
