MODEL 1
REMARK minimizedAffinity 10.6058016
REMARK minimizedRMSD -1
REMARK  0 active torsions:
REMARK  status: ('A' for Active; 'I' for Inactive)
ROOT
ATOM      1  O1  BZF d   1       1.036  -0.500   1.568  0.00  0.00    -0.204 OA
ATOM      2  C2  BZF d   1       1.884   0.182   0.717  0.00  0.00     0.174 A 
ATOM      3  C3  BZF d   1       3.081   0.391   1.301  0.00  0.00    -0.012 A 
ATOM      4  C3A BZF d   1       3.006  -0.278   2.564  0.00  0.00    -0.107 A 
ATOM      5  C4  BZF d   1       3.889  -0.443   3.593  0.00  0.00     0.055 A 
ATOM      6  C5  BZF d   1       3.480  -1.088   4.717  0.00  0.00    -0.016 A 
ATOM      7  C6  BZF d   1       2.195  -1.574   4.848  0.00  0.00     0.022 A 
ATOM      8  C7  BZF d   1       1.286  -1.439   3.852  0.00  0.00     0.029 A 
ATOM      9  C7A BZF d   1       1.706  -0.817   2.702  0.00  0.00     0.058 A 
ENDROOT
TORSDOF 0
ENDMDL
