MODEL 1
REMARK minimizedAffinity 3.60721827
REMARK minimizedRMSD -1
REMARK  0 active torsions:
REMARK  status: ('A' for Active; 'I' for Inactive)
ROOT
ATOM      1  O1  BZF d   1      -0.014  -0.214   2.228  0.00  0.00    -0.204 OA
ATOM      2  C2  BZF d   1       1.119  -0.594   1.533  0.00  0.00     0.174 A 
ATOM      3  C3  BZF d   1       0.839  -0.783   0.228  0.00  0.00    -0.012 A 
ATOM      4  C3A BZF d   1      -0.536  -0.416   0.081  0.00  0.00    -0.107 A 
ATOM      5  C4  BZF d   1      -1.388  -0.375  -0.985  0.00  0.00     0.055 A 
ATOM      6  C5  BZF d   1      -2.689  -0.040  -0.779  0.00  0.00    -0.016 A 
ATOM      7  C6  BZF d   1      -3.172   0.254   0.479  0.00  0.00     0.022 A 
ATOM      8  C7  BZF d   1      -2.364   0.232   1.567  0.00  0.00     0.029 A 
ATOM      9  C7A BZF d   1      -1.042  -0.074   1.357  0.00  0.00     0.058 A 
ENDROOT
TORSDOF 0
ENDMDL
