MODEL 1
REMARK minimizedAffinity 10.4319458
REMARK minimizedRMSD -1
REMARK  0 active torsions:
REMARK  status: ('A' for Active; 'I' for Inactive)
ROOT
ATOM      1  O1  BZF d   1       3.893   0.126   3.330  0.00  0.00    -0.204 OA
ATOM      2  C2  BZF d   1       4.878   1.016   3.712  0.00  0.00     0.174 A 
ATOM      3  C3  BZF d   1       5.143   1.891   2.721  0.00  0.00    -0.012 A 
ATOM      4  C3A BZF d   1       4.205   1.583   1.686  0.00  0.00    -0.107 A 
ATOM      5  C4  BZF d   1       3.959   2.115   0.452  0.00  0.00     0.055 A 
ATOM      6  C5  BZF d   1       3.020   1.536  -0.341  0.00  0.00    -0.016 A 
ATOM      7  C6  BZF d   1       2.313   0.422   0.063  0.00  0.00     0.022 A 
ATOM      8  C7  BZF d   1       2.519  -0.138   1.280  0.00  0.00     0.029 A 
ATOM      9  C7A BZF d   1       3.443   0.465   2.098  0.00  0.00     0.058 A 
ENDROOT
TORSDOF 0
ENDMDL
