MODEL 1
REMARK minimizedAffinity 8.88637161
REMARK minimizedRMSD -1
REMARK  0 active torsions:
REMARK  status: ('A' for Active; 'I' for Inactive)
ROOT
ATOM      1  O1  BZF d   1      -0.648   0.054   1.192  0.00  0.00    -0.204 OA
ATOM      2  C2  BZF d   1      -1.919   0.157   1.723  0.00  0.00     0.174 A 
ATOM      3  C3  BZF d   1      -1.940  -0.275   3.001  0.00  0.00    -0.012 A 
ATOM      4  C3A BZF d   1      -0.579  -0.586   3.315  0.00  0.00    -0.107 A 
ATOM      5  C4  BZF d   1       0.043  -1.047   4.440  0.00  0.00     0.055 A 
ATOM      6  C5  BZF d   1       1.374  -1.316   4.395  0.00  0.00    -0.016 A 
ATOM      7  C6  BZF d   1       2.112  -1.141   3.242  0.00  0.00     0.022 A 
ATOM      8  C7  BZF d   1       1.540  -0.682   2.103  0.00  0.00     0.029 A 
ATOM      9  C7A BZF d   1       0.202  -0.377   2.154  0.00  0.00     0.058 A 
ENDROOT
TORSDOF 0
ENDMDL
