MODEL 1
REMARK minimizedAffinity 5.86737442
REMARK minimizedRMSD -1
REMARK  0 active torsions:
REMARK  status: ('A' for Active; 'I' for Inactive)
ROOT
ATOM      1  C   UNL d   1       0.763   3.742   0.340  0.00  0.00     0.078 C 
ATOM      2  C1  UNL d   1       0.735   2.585   1.292  0.00  0.00    -0.077 A 
ATOM      3  C2  UNL d   1       1.411   2.642   2.517  0.00  0.00    -0.001 A 
ATOM      4  C3  UNL d   1       1.384   1.553   3.390  0.00  0.00     0.003 A 
ATOM      5  C4  UNL d   1       0.683   0.398   3.046  0.00  0.00    -0.005 A 
ATOM      6  C5  UNL d   1       0.010   0.331   1.829  0.00  0.00     0.003 A 
ATOM      7  C6  UNL d   1       0.035   1.419   0.955  0.00  0.00    -0.001 A 
ENDROOT
TORSDOF 0
ENDMDL
