MODEL 1
REMARK minimizedAffinity -0.276305616
REMARK minimizedRMSD -1
REMARK  0 active torsions:
REMARK  status: ('A' for Active; 'I' for Inactive)
ROOT
ATOM      1  C   UNL d   1       4.371  -1.273  -4.324  0.00  0.00     0.078 C 
ATOM      2  C1  UNL d   1       4.471  -1.944  -2.987  0.00  0.00    -0.077 A 
ATOM      3  C2  UNL d   1       3.321  -2.333  -2.288  0.00  0.00    -0.001 A 
ATOM      4  C3  UNL d   1       3.428  -2.948  -1.040  0.00  0.00     0.003 A 
ATOM      5  C4  UNL d   1       4.683  -3.177  -0.478  0.00  0.00    -0.005 A 
ATOM      6  C5  UNL d   1       5.832  -2.791  -1.165  0.00  0.00     0.003 A 
ATOM      7  C6  UNL d   1       5.727  -2.176  -2.414  0.00  0.00    -0.001 A 
ENDROOT
TORSDOF 0
ENDMDL
