MODEL 1
REMARK minimizedAffinity -1.13094735
REMARK minimizedRMSD -1
REMARK  0 active torsions:
REMARK  status: ('A' for Active; 'I' for Inactive)
ROOT
ATOM      1  C   UNL d   1       3.365  -1.551  -2.140  0.00  0.00     0.078 C 
ATOM      2  C1  UNL d   1       3.704  -3.007  -2.258  0.00  0.00    -0.077 A 
ATOM      3  C2  UNL d   1       2.734  -3.945  -2.633  0.00  0.00    -0.001 A 
ATOM      4  C3  UNL d   1       3.061  -5.299  -2.730  0.00  0.00     0.003 A 
ATOM      5  C4  UNL d   1       4.358  -5.727  -2.452  0.00  0.00    -0.005 A 
ATOM      6  C5  UNL d   1       5.329  -4.801  -2.076  0.00  0.00     0.003 A 
ATOM      7  C6  UNL d   1       5.004  -3.447  -1.979  0.00  0.00    -0.001 A 
ENDROOT
TORSDOF 0
ENDMDL
