MODEL 1
REMARK minimizedAffinity -3.43903208
REMARK minimizedRMSD -1
REMARK  0 active torsions:
REMARK  status: ('A' for Active; 'I' for Inactive)
ROOT
ATOM      1  C   UNL d   1       2.961  -4.149  -4.093  0.00  0.00     0.078 C 
ATOM      2  C1  UNL d   1       3.751  -3.815  -2.864  0.00  0.00    -0.077 A 
ATOM      3  C2  UNL d   1       4.628  -4.746  -2.295  0.00  0.00    -0.001 A 
ATOM      4  C3  UNL d   1       5.351  -4.426  -1.145  0.00  0.00     0.003 A 
ATOM      5  C4  UNL d   1       5.202  -3.173  -0.552  0.00  0.00    -0.005 A 
ATOM      6  C5  UNL d   1       4.330  -2.240  -1.109  0.00  0.00     0.003 A 
ATOM      7  C6  UNL d   1       3.607  -2.559  -2.260  0.00  0.00    -0.001 A 
ENDROOT
TORSDOF 0
ENDMDL
