MODEL 1
REMARK minimizedAffinity -3.66507554
REMARK minimizedRMSD -1
REMARK  0 active torsions:
REMARK  status: ('A' for Active; 'I' for Inactive)
ROOT
ATOM      1  C   UNL d   1       4.332  -1.926  -0.220  0.00  0.00     0.078 C 
ATOM      2  C1  UNL d   1       4.450  -2.975  -1.285  0.00  0.00    -0.077 A 
ATOM      3  C2  UNL d   1       4.193  -2.672  -2.627  0.00  0.00    -0.001 A 
ATOM      4  C3  UNL d   1       4.296  -3.662  -3.606  0.00  0.00     0.003 A 
ATOM      5  C4  UNL d   1       4.656  -4.961  -3.253  0.00  0.00    -0.005 A 
ATOM      6  C5  UNL d   1       4.911  -5.272  -1.919  0.00  0.00     0.003 A 
ATOM      7  C6  UNL d   1       4.808  -4.284  -0.939  0.00  0.00    -0.001 A 
ENDROOT
TORSDOF 0
ENDMDL
