MODEL 1
REMARK minimizedAffinity 1.21379995
REMARK minimizedRMSD -1
REMARK  0 active torsions:
REMARK  status: ('A' for Active; 'I' for Inactive)
ROOT
ATOM      1  C   UNL d   1       6.000  -5.266  -4.098  0.00  0.00     0.078 C 
ATOM      2  C1  UNL d   1       4.920  -4.461  -3.438  0.00  0.00    -0.077 A 
ATOM      3  C2  UNL d   1       3.919  -5.082  -2.682  0.00  0.00    -0.001 A 
ATOM      4  C3  UNL d   1       2.914  -4.322  -2.081  0.00  0.00     0.003 A 
ATOM      5  C4  UNL d   1       2.900  -2.937  -2.232  0.00  0.00    -0.005 A 
ATOM      6  C5  UNL d   1       3.891  -2.310  -2.985  0.00  0.00     0.003 A 
ATOM      7  C6  UNL d   1       4.897  -3.069  -3.586  0.00  0.00    -0.001 A 
ENDROOT
TORSDOF 0
ENDMDL
