MODEL 1
REMARK minimizedAffinity -4.43881702
REMARK minimizedRMSD -1
REMARK  0 active torsions:
REMARK  status: ('A' for Active; 'I' for Inactive)
ROOT
ATOM      1  C   UNL d   1       5.999  -5.304  -0.241  0.00  0.00     0.078 C 
ATOM      2  C1  UNL d   1       5.197  -4.485  -1.208  0.00  0.00    -0.077 A 
ATOM      3  C2  UNL d   1       4.666  -5.056  -2.371  0.00  0.00    -0.001 A 
ATOM      4  C3  UNL d   1       3.929  -4.279  -3.266  0.00  0.00     0.003 A 
ATOM      5  C4  UNL d   1       3.718  -2.926  -3.009  0.00  0.00    -0.005 A 
ATOM      6  C5  UNL d   1       4.244  -2.348  -1.856  0.00  0.00     0.003 A 
ATOM      7  C6  UNL d   1       4.981  -3.123  -0.959  0.00  0.00    -0.001 A 
ENDROOT
TORSDOF 0
ENDMDL
