MODEL 1
REMARK minimizedAffinity -4.60942364
REMARK minimizedRMSD -1
REMARK  1 active torsions:
REMARK  status: ('A' for Active; 'I' for Inactive)
REMARK    1  A    between atoms: N_2  and  C1_3 
ROOT
ATOM      1  C1  UNL d   1       0.504   0.096   0.661  0.00  0.00     0.143 A 
ATOM      2  C2  UNL d   1       0.812   0.805   1.827  0.00  0.00    -0.057 A 
ATOM      3  C3  UNL d   1      -0.054   0.804   2.927  0.00  0.00     0.033 A 
ATOM      4  C4  UNL d   1      -1.261   0.116   2.869  0.00  0.00    -0.042 A 
ATOM      5  C5  UNL d   1      -1.600  -0.574   1.711  0.00  0.00     0.033 A 
ATOM      6  C6  UNL d   1      -0.728  -0.575   0.618  0.00  0.00    -0.057 A 
ENDROOT
BRANCH   1   7
ATOM      7  N   UNL d   1       1.277   0.138  -0.502  0.00  0.00    -0.732 N 
ATOM      8  C   UNL d   1       0.648   0.220  -1.803  0.00  0.00     0.284 C 
ATOM      9  H3  UNL d   1       2.099   0.729  -0.401  0.00  0.00     0.395 HD
ENDBRANCH   1   7
TORSDOF 1
ENDMDL
