MODEL 1
REMARK minimizedAffinity -2.95166588
REMARK minimizedRMSD -1
REMARK  1 active torsions:
REMARK  status: ('A' for Active; 'I' for Inactive)
REMARK    1  A    between atoms: N_2  and  C1_3 
ROOT
ATOM      1  C1  UNL d   1       0.259   0.001  -0.458  0.00  0.00     0.143 A 
ATOM      2  C2  UNL d   1       1.446   0.380   0.178  0.00  0.00    -0.057 A 
ATOM      3  C3  UNL d   1       1.585   0.295   1.568  0.00  0.00     0.033 A 
ATOM      4  C4  UNL d   1       0.524  -0.145   2.353  0.00  0.00    -0.042 A 
ATOM      5  C5  UNL d   1      -0.674  -0.504   1.745  0.00  0.00     0.033 A 
ATOM      6  C6  UNL d   1      -0.803  -0.423   0.355  0.00  0.00    -0.057 A 
ENDROOT
BRANCH   1   7
ATOM      7  N   UNL d   1       0.026   0.155  -1.827  0.00  0.00    -0.732 N 
ATOM      8  C   UNL d   1       0.462  -0.855  -2.767  0.00  0.00     0.284 C 
ATOM      9  H3  UNL d   1      -0.897   0.535  -2.023  0.00  0.00     0.395 HD
ENDBRANCH   1   7
TORSDOF 1
ENDMDL
