MODEL 1
REMARK minimizedAffinity -3.56902122
REMARK minimizedRMSD -1
REMARK  1 active torsions:
REMARK  status: ('A' for Active; 'I' for Inactive)
REMARK    1  A    between atoms: N_2  and  C1_3 
ROOT
ATOM      1  C1  UNL d   1      -0.880  -0.001   0.536  0.00  0.00     0.143 A 
ATOM      2  C2  UNL d   1       0.133  -0.149   1.489  0.00  0.00    -0.057 A 
ATOM      3  C3  UNL d   1      -0.163  -0.257   2.853  0.00  0.00     0.033 A 
ATOM      4  C4  UNL d   1      -1.481  -0.189   3.292  0.00  0.00    -0.042 A 
ATOM      5  C5  UNL d   1      -2.503  -0.017   2.365  0.00  0.00     0.033 A 
ATOM      6  C6  UNL d   1      -2.201   0.083   1.004  0.00  0.00    -0.057 A 
ENDROOT
BRANCH   1   7
ATOM      7  N   UNL d   1      -0.643   0.210  -0.825  0.00  0.00    -0.732 N 
ATOM      8  C   UNL d   1       0.683   0.039  -1.377  0.00  0.00     0.284 C 
ATOM      9  H3  UNL d   1      -1.389  -0.160  -1.410  0.00  0.00     0.395 HD
ENDBRANCH   1   7
TORSDOF 1
ENDMDL
