MODEL 1
REMARK minimizedAffinity -5.1040597
REMARK minimizedRMSD -1
REMARK  1 active torsions:
REMARK  status: ('A' for Active; 'I' for Inactive)
REMARK    1  A    between atoms: N_2  and  C1_3 
ROOT
ATOM      1  C1  UNL d   1      -0.105  -0.045   0.368  0.00  0.00     0.143 A 
ATOM      2  C2  UNL d   1       0.434  -0.317   1.631  0.00  0.00    -0.057 A 
ATOM      3  C3  UNL d   1      -0.385  -0.426   2.761  0.00  0.00     0.033 A 
ATOM      4  C4  UNL d   1      -1.759  -0.236   2.653  0.00  0.00    -0.042 A 
ATOM      5  C5  UNL d   1      -2.313   0.059   1.413  0.00  0.00     0.033 A 
ATOM      6  C6  UNL d   1      -1.491   0.160   0.286  0.00  0.00    -0.057 A 
ENDROOT
BRANCH   1   7
ATOM      7  N   UNL d   1       0.667   0.173  -0.776  0.00  0.00    -0.732 N 
ATOM      8  C   UNL d   1       0.693  -0.802  -1.845  0.00  0.00     0.284 C 
ATOM      9  H3  UNL d   1       0.624   1.138  -1.095  0.00  0.00     0.395 HD
ENDBRANCH   1   7
TORSDOF 1
ENDMDL
