MODEL 1
REMARK minimizedAffinity -5.21186066
REMARK minimizedRMSD -1
REMARK  1 active torsions:
REMARK  status: ('A' for Active; 'I' for Inactive)
REMARK    1  A    between atoms: N_2  and  C1_3 
ROOT
ATOM      1  C1  UNL d   1      -0.156  -0.023   0.109  0.00  0.00     0.143 A 
ATOM      2  C2  UNL d   1       0.886   0.075   1.036  0.00  0.00    -0.057 A 
ATOM      3  C3  UNL d   1       0.696  -0.265   2.381  0.00  0.00     0.033 A 
ATOM      4  C4  UNL d   1      -0.552  -0.683   2.829  0.00  0.00    -0.042 A 
ATOM      5  C5  UNL d   1      -1.610  -0.764   1.930  0.00  0.00     0.033 A 
ATOM      6  C6  UNL d   1      -1.412  -0.430   0.587  0.00  0.00    -0.057 A 
ENDROOT
BRANCH   1   7
ATOM      7  N   UNL d   1      -0.057   0.394  -1.221  0.00  0.00    -0.732 N 
ATOM      8  C   UNL d   1       0.316  -0.541  -2.260  0.00  0.00     0.284 C 
ATOM      9  H3  UNL d   1      -0.803   1.033  -1.485  0.00  0.00     0.395 HD
ENDBRANCH   1   7
TORSDOF 1
ENDMDL
