MODEL 1
REMARK minimizedAffinity -5.480968
REMARK minimizedRMSD -1
REMARK  1 active torsions:
REMARK  status: ('A' for Active; 'I' for Inactive)
REMARK    1  A    between atoms: N_2  and  C1_3 
ROOT
ATOM      1  C1  UNL d   1      -0.865  -0.082   0.627  0.00  0.00     0.143 A 
ATOM      2  C2  UNL d   1      -0.121  -0.397   1.770  0.00  0.00    -0.057 A 
ATOM      3  C3  UNL d   1      -0.745  -0.622   3.003  0.00  0.00     0.033 A 
ATOM      4  C4  UNL d   1      -2.126  -0.506   3.122  0.00  0.00    -0.042 A 
ATOM      5  C5  UNL d   1      -2.883  -0.170   2.006  0.00  0.00     0.033 A 
ATOM      6  C6  UNL d   1      -2.255   0.047   0.775  0.00  0.00    -0.057 A 
ENDROOT
BRANCH   1   7
ATOM      7  N   UNL d   1      -0.296   0.249  -0.605  0.00  0.00    -0.732 N 
ATOM      8  C   UNL d   1      -1.037   1.025  -1.575  0.00  0.00     0.284 C 
ATOM      9  H3  UNL d   1       0.683   0.513  -0.521  0.00  0.00     0.395 HD
ENDBRANCH   1   7
TORSDOF 1
ENDMDL
