MODEL 1
REMARK minimizedAffinity -0.523556709
REMARK minimizedRMSD -1
REMARK  1 active torsions:
REMARK  status: ('A' for Active; 'I' for Inactive)
REMARK    1  A    between atoms: N_2  and  C1_3 
ROOT
ATOM      1  C1  UNL d   1       0.535  -0.196  -1.799  0.00  0.00     0.143 A 
ATOM      2  C2  UNL d   1       1.897  -0.262  -2.113  0.00  0.00    -0.057 A 
ATOM      3  C3  UNL d   1       2.361  -1.058  -3.168  0.00  0.00     0.033 A 
ATOM      4  C4  UNL d   1       1.471  -1.826  -3.911  0.00  0.00    -0.042 A 
ATOM      5  C5  UNL d   1       0.116  -1.795  -3.601  0.00  0.00     0.033 A 
ATOM      6  C6  UNL d   1      -0.342  -0.994  -2.551  0.00  0.00    -0.057 A 
ENDROOT
BRANCH   1   7
ATOM      7  N   UNL d   1       0.023   0.499  -0.701  0.00  0.00    -0.732 N 
ATOM      8  C   UNL d   1       0.472   0.191   0.640  0.00  0.00     0.284 C 
ATOM      9  H3  UNL d   1      -0.084   1.493  -0.886  0.00  0.00     0.395 HD
ENDBRANCH   1   7
TORSDOF 1
ENDMDL
