MODEL 1
REMARK minimizedAffinity -5.35152626
REMARK minimizedRMSD -1
REMARK  1 active torsions:
REMARK  status: ('A' for Active; 'I' for Inactive)
REMARK    1  A    between atoms: N_2  and  C1_3 
ROOT
ATOM      1  C1  UNL d   1       0.018  -0.137   0.185  0.00  0.00     0.143 A 
ATOM      2  C2  UNL d   1       0.953   0.221   1.162  0.00  0.00    -0.057 A 
ATOM      3  C3  UNL d   1       0.652   0.121   2.526  0.00  0.00     0.033 A 
ATOM      4  C4  UNL d   1      -0.604  -0.313   2.937  0.00  0.00    -0.042 A 
ATOM      5  C5  UNL d   1      -1.557  -0.650   1.983  0.00  0.00     0.033 A 
ATOM      6  C6  UNL d   1      -1.248  -0.554   0.623  0.00  0.00    -0.057 A 
ENDROOT
BRANCH   1   7
ATOM      7  N   UNL d   1       0.223   0.033  -1.187  0.00  0.00    -0.732 N 
ATOM      8  C   UNL d   1       0.171  -1.099  -2.086  0.00  0.00     0.284 C 
ATOM      9  H3  UNL d   1      -0.230   0.870  -1.546  0.00  0.00     0.395 HD
ENDBRANCH   1   7
TORSDOF 1
ENDMDL
