MODEL 1
REMARK minimizedAffinity -1.27703965
REMARK minimizedRMSD -1
REMARK  1 active torsions:
REMARK  status: ('A' for Active; 'I' for Inactive)
REMARK    1  A    between atoms: N_2  and  C1_3 
ROOT
ATOM      1  C1  UNL d   1       0.425  -0.527  -1.187  0.00  0.00     0.143 A 
ATOM      2  C2  UNL d   1       0.923   0.213  -2.264  0.00  0.00    -0.057 A 
ATOM      3  C3  UNL d   1       1.269  -0.405  -3.472  0.00  0.00     0.033 A 
ATOM      4  C4  UNL d   1       1.149  -1.783  -3.614  0.00  0.00    -0.042 A 
ATOM      5  C5  UNL d   1       0.679  -2.542  -2.548  0.00  0.00     0.033 A 
ATOM      6  C6  UNL d   1       0.330  -1.918  -1.347  0.00  0.00    -0.057 A 
ENDROOT
BRANCH   1   7
ATOM      7  N   UNL d   1       0.157   0.016   0.072  0.00  0.00    -0.732 N 
ATOM      8  C   UNL d   1       1.155  -0.022   1.119  0.00  0.00     0.284 C 
ATOM      9  H3  UNL d   1      -0.353   0.895   0.016  0.00  0.00     0.395 HD
ENDBRANCH   1   7
TORSDOF 1
ENDMDL
