MODEL 1
REMARK minimizedAffinity -3.96317077
REMARK minimizedRMSD -1
REMARK  1 active torsions:
REMARK  status: ('A' for Active; 'I' for Inactive)
REMARK    1  A    between atoms: N_2  and  C1_3 
ROOT
ATOM      1  C1  UNL d   1      -1.773  -0.005   1.675  0.00  0.00     0.143 A 
ATOM      2  C2  UNL d   1      -0.855  -0.623   2.530  0.00  0.00    -0.057 A 
ATOM      3  C3  UNL d   1       0.520  -0.592   2.266  0.00  0.00     0.033 A 
ATOM      4  C4  UNL d   1       1.000   0.037   1.121  0.00  0.00    -0.042 A 
ATOM      5  C5  UNL d   1       0.103   0.637   0.244  0.00  0.00     0.033 A 
ATOM      6  C6  UNL d   1      -1.268   0.607   0.517  0.00  0.00    -0.057 A 
ENDROOT
BRANCH   1   7
ATOM      7  N   UNL d   1      -3.159  -0.086   1.831  0.00  0.00    -0.732 N 
ATOM      8  C   UNL d   1      -4.047   0.492   0.846  0.00  0.00     0.284 C 
ATOM      9  H3  UNL d   1      -3.458  -0.995   2.178  0.00  0.00     0.395 HD
ENDBRANCH   1   7
TORSDOF 1
ENDMDL
