MODEL 1
REMARK minimizedAffinity 0.896951258
REMARK minimizedRMSD -1
REMARK  1 active torsions:
REMARK  status: ('A' for Active; 'I' for Inactive)
REMARK    1  A    between atoms: C1_2  and  C2_3 
ROOT
ATOM      1  C2  UNL d   1      -0.664   2.343   0.450  0.00  0.00    -0.077 A 
ATOM      2  C3  UNL d   1       0.111   1.535   1.293  0.00  0.00     0.002 A 
ATOM      3  C4  UNL d   1      -0.500   0.724   2.252  0.00  0.00     0.002 A 
ATOM      4  C5  UNL d   1      -1.887   0.710   2.373  0.00  0.00    -0.004 A 
ATOM      5  C6  UNL d   1      -2.667   1.512   1.541  0.00  0.00     0.002 A 
ATOM      6  C7  UNL d   1      -2.058   2.324   0.583  0.00  0.00     0.002 A 
ENDROOT
BRANCH   1   7
ATOM      7  C1  UNL d   1      -0.010   3.181  -0.617  0.00  0.00     0.055 C 
ATOM      8  C   UNL d   1      -0.259   4.664  -0.386  0.00  0.00     0.019 C 
ENDBRANCH   1   7
TORSDOF 1
ENDMDL
