MODEL 1
REMARK minimizedAffinity 3.18417978
REMARK minimizedRMSD -1
REMARK  1 active torsions:
REMARK  status: ('A' for Active; 'I' for Inactive)
REMARK    1  A    between atoms: C1_2  and  C2_3 
ROOT
ATOM      1  C2  UNL d   1      -1.515   2.534   1.625  0.00  0.00    -0.077 A 
ATOM      2  C3  UNL d   1      -0.583   1.981   0.736  0.00  0.00     0.002 A 
ATOM      3  C4  UNL d   1      -0.147   2.709  -0.373  0.00  0.00     0.002 A 
ATOM      4  C5  UNL d   1      -0.633   3.994  -0.600  0.00  0.00    -0.004 A 
ATOM      5  C6  UNL d   1      -1.562   4.552   0.278  0.00  0.00     0.002 A 
ATOM      6  C7  UNL d   1      -2.000   3.826   1.386  0.00  0.00     0.002 A 
ENDROOT
BRANCH   1   7
ATOM      7  C1  UNL d   1      -1.949   1.770   2.848  0.00  0.00     0.055 C 
ATOM      8  C   UNL d   1      -3.262   1.038   2.607  0.00  0.00     0.019 C 
ENDBRANCH   1   7
TORSDOF 1
ENDMDL
