MODEL 1
REMARK minimizedAffinity 6.29811049
REMARK minimizedRMSD -1
REMARK  1 active torsions:
REMARK  status: ('A' for Active; 'I' for Inactive)
REMARK    1  A    between atoms: C1_2  and  C2_3 
ROOT
ATOM      1  C2  UNL d   1      -0.795   2.835   0.120  0.00  0.00    -0.077 A 
ATOM      2  C3  UNL d   1      -0.270   3.967  -0.519  0.00  0.00     0.002 A 
ATOM      3  C4  UNL d   1       0.748   3.836  -1.466  0.00  0.00     0.002 A 
ATOM      4  C5  UNL d   1       1.247   2.574  -1.784  0.00  0.00    -0.004 A 
ATOM      5  C6  UNL d   1       0.733   1.442  -1.153  0.00  0.00     0.002 A 
ATOM      6  C7  UNL d   1      -0.284   1.572  -0.205  0.00  0.00     0.002 A 
ENDROOT
BRANCH   1   7
ATOM      7  C1  UNL d   1      -1.926   2.970   1.105  0.00  0.00     0.055 C 
ATOM      8  C   UNL d   1      -2.147   1.677   1.875  0.00  0.00     0.019 C 
ENDBRANCH   1   7
TORSDOF 1
ENDMDL
