MODEL 1
REMARK minimizedAffinity 1.50775123
REMARK minimizedRMSD -1
REMARK  1 active torsions:
REMARK  status: ('A' for Active; 'I' for Inactive)
REMARK    1  A    between atoms: C1_2  and  C2_3 
ROOT
ATOM      1  C2  UNL d   1      -1.628   2.239   0.778  0.00  0.00    -0.077 A 
ATOM      2  C3  UNL d   1      -1.668   3.638   0.703  0.00  0.00     0.002 A 
ATOM      3  C4  UNL d   1      -0.846   4.322  -0.195  0.00  0.00     0.002 A 
ATOM      4  C5  UNL d   1       0.018   3.614  -1.028  0.00  0.00    -0.004 A 
ATOM      5  C6  UNL d   1       0.067   2.222  -0.960  0.00  0.00     0.002 A 
ATOM      6  C7  UNL d   1      -0.753   1.538  -0.062  0.00  0.00     0.002 A 
ENDROOT
BRANCH   1   7
ATOM      7  C1  UNL d   1      -2.549   1.497   1.711  0.00  0.00     0.055 C 
ATOM      8  C   UNL d   1      -1.771   0.576   2.640  0.00  0.00     0.019 C 
ENDBRANCH   1   7
TORSDOF 1
ENDMDL
