MODEL 1
REMARK minimizedAffinity 0.363110304
REMARK minimizedRMSD -1
REMARK  1 active torsions:
REMARK  status: ('A' for Active; 'I' for Inactive)
REMARK    1  A    between atoms: C1_2  and  C2_3 
ROOT
ATOM      1  C2  UNL d   1      -3.503  -3.039   4.146  0.00  0.00    -0.077 A 
ATOM      2  C3  UNL d   1      -4.440  -3.752   3.385  0.00  0.00     0.002 A 
ATOM      3  C4  UNL d   1      -5.680  -4.092   3.929  0.00  0.00     0.002 A 
ATOM      4  C5  UNL d   1      -5.996  -3.720   5.234  0.00  0.00    -0.004 A 
ATOM      5  C6  UNL d   1      -5.070  -3.013   6.000  0.00  0.00     0.002 A 
ATOM      6  C7  UNL d   1      -3.830  -2.673   5.458  0.00  0.00     0.002 A 
ENDROOT
BRANCH   1   7
ATOM      7  C1  UNL d   1      -2.185  -2.628   3.545  0.00  0.00     0.055 C 
ATOM      8  C   UNL d   1      -1.123  -3.697   3.756  0.00  0.00     0.019 C 
ENDBRANCH   1   7
TORSDOF 1
ENDMDL
