MODEL 1
REMARK minimizedAffinity 4.06171942
REMARK minimizedRMSD -1
REMARK  1 active torsions:
REMARK  status: ('A' for Active; 'I' for Inactive)
REMARK    1  A    between atoms: C1_2  and  C2_3 
ROOT
ATOM      1  C2  UNL d   1      -0.761   2.041   1.009  0.00  0.00    -0.077 A 
ATOM      2  C3  UNL d   1      -2.088   1.895   1.439  0.00  0.00     0.002 A 
ATOM      3  C4  UNL d   1      -2.453   0.817   2.248  0.00  0.00     0.002 A 
ATOM      4  C5  UNL d   1      -1.498  -0.120   2.637  0.00  0.00    -0.004 A 
ATOM      5  C6  UNL d   1      -0.177   0.015   2.212  0.00  0.00     0.002 A 
ATOM      6  C7  UNL d   1       0.190   1.091   1.403  0.00  0.00     0.002 A 
ENDROOT
BRANCH   1   7
ATOM      7  C1  UNL d   1      -0.355   3.230   0.178  0.00  0.00     0.055 C 
ATOM      8  C   UNL d   1       0.053   2.809  -1.227  0.00  0.00     0.019 C 
ENDBRANCH   1   7
TORSDOF 1
ENDMDL
