MODEL 1
REMARK minimizedAffinity 3.06959176
REMARK minimizedRMSD -1
REMARK  1 active torsions:
REMARK  status: ('A' for Active; 'I' for Inactive)
REMARK    1  A    between atoms: C1_2  and  C2_3 
ROOT
ATOM      1  C2  UNL d   1      -0.106   1.035  -0.527  0.00  0.00    -0.077 A 
ATOM      2  C3  UNL d   1      -0.892   1.100   0.632  0.00  0.00     0.002 A 
ATOM      3  C4  UNL d   1      -1.333   2.332   1.119  0.00  0.00     0.002 A 
ATOM      4  C5  UNL d   1      -0.996   3.507   0.452  0.00  0.00    -0.004 A 
ATOM      5  C6  UNL d   1      -0.213   3.454  -0.701  0.00  0.00     0.002 A 
ATOM      6  C7  UNL d   1       0.230   2.224  -1.188  0.00  0.00     0.002 A 
ENDROOT
BRANCH   1   7
ATOM      7  C1  UNL d   1       0.329  -0.296  -1.081  0.00  0.00     0.055 C 
ATOM      8  C   UNL d   1      -0.701  -0.854  -2.053  0.00  0.00     0.019 C 
ENDBRANCH   1   7
TORSDOF 1
ENDMDL
