MODEL 1
REMARK minimizedAffinity 9.64925385
REMARK minimizedRMSD -1
REMARK  1 active torsions:
REMARK  status: ('A' for Active; 'I' for Inactive)
REMARK    1  A    between atoms: C1_2  and  C2_3 
ROOT
ATOM      1  C2  UNL d   1      -0.498   1.077  -2.123  0.00  0.00    -0.077 A 
ATOM      2  C3  UNL d   1      -1.727   1.229  -2.779  0.00  0.00     0.002 A 
ATOM      3  C4  UNL d   1      -2.400   0.114  -3.285  0.00  0.00     0.002 A 
ATOM      4  C5  UNL d   1      -1.853  -1.158  -3.136  0.00  0.00    -0.004 A 
ATOM      5  C6  UNL d   1      -0.629  -1.319  -2.487  0.00  0.00     0.002 A 
ATOM      6  C7  UNL d   1       0.045  -0.206  -1.982  0.00  0.00     0.002 A 
ENDROOT
BRANCH   1   7
ATOM      7  C1  UNL d   1       0.205   2.272  -1.534  0.00  0.00     0.055 C 
ATOM      8  C   UNL d   1       0.214   3.444  -2.505  0.00  0.00     0.019 C 
ENDBRANCH   1   7
TORSDOF 1
ENDMDL
