MODEL 1
REMARK minimizedAffinity 4.57915115
REMARK minimizedRMSD -1
REMARK  1 active torsions:
REMARK  status: ('A' for Active; 'I' for Inactive)
REMARK    1  A    between atoms: C1_2  and  C2_3 
ROOT
ATOM      1  C2  UNL d   1      -0.935   1.723  -0.548  0.00  0.00    -0.077 A 
ATOM      2  C3  UNL d   1      -1.893   0.837  -1.061  0.00  0.00     0.002 A 
ATOM      3  C4  UNL d   1      -1.635   0.116  -2.228  0.00  0.00     0.002 A 
ATOM      4  C5  UNL d   1      -0.418   0.268  -2.889  0.00  0.00    -0.004 A 
ATOM      5  C6  UNL d   1       0.541   1.147  -2.388  0.00  0.00     0.002 A 
ATOM      6  C7  UNL d   1       0.284   1.871  -1.222  0.00  0.00     0.002 A 
ENDROOT
BRANCH   1   7
ATOM      7  C1  UNL d   1      -1.192   2.465   0.737  0.00  0.00     0.055 C 
ATOM      8  C   UNL d   1      -1.554   1.510   1.865  0.00  0.00     0.019 C 
ENDBRANCH   1   7
TORSDOF 1
ENDMDL
