MODEL 1
REMARK minimizedAffinity 4.92882681
REMARK minimizedRMSD -1
REMARK  1 active torsions:
REMARK  status: ('A' for Active; 'I' for Inactive)
REMARK    1  A    between atoms: C1_2  and  C2_3 
ROOT
ATOM      1  C2  UNL d   1      -0.866   2.682   0.813  0.00  0.00    -0.077 A 
ATOM      2  C3  UNL d   1      -0.801   4.034   0.449  0.00  0.00     0.002 A 
ATOM      3  C4  UNL d   1      -0.291   4.407  -0.796  0.00  0.00     0.002 A 
ATOM      4  C5  UNL d   1       0.153   3.434  -1.688  0.00  0.00    -0.004 A 
ATOM      5  C6  UNL d   1       0.095   2.086  -1.335  0.00  0.00     0.002 A 
ATOM      6  C7  UNL d   1      -0.413   1.712  -0.090  0.00  0.00     0.002 A 
ENDROOT
BRANCH   1   7
ATOM      7  C1  UNL d   1      -1.461   2.275   2.136  0.00  0.00     0.055 C 
ATOM      8  C   UNL d   1      -1.786   0.789   2.163  0.00  0.00     0.019 C 
ENDBRANCH   1   7
TORSDOF 1
ENDMDL
