MODEL 1
REMARK minimizedAffinity 2.46440434
REMARK minimizedRMSD -1
REMARK  1 active torsions:
REMARK  status: ('A' for Active; 'I' for Inactive)
REMARK    1  A    between atoms: C1_2  and  C2_3 
ROOT
ATOM      1  C2  UNL d   1      -0.521   1.951   1.433  0.00  0.00    -0.077 A 
ATOM      2  C3  UNL d   1       0.461   1.047   1.861  0.00  0.00     0.002 A 
ATOM      3  C4  UNL d   1       1.124   0.234   0.939  0.00  0.00     0.002 A 
ATOM      4  C5  UNL d   1       0.814   0.320  -0.416  0.00  0.00    -0.004 A 
ATOM      5  C6  UNL d   1      -0.163   1.215  -0.852  0.00  0.00     0.002 A 
ATOM      6  C7  UNL d   1      -0.827   2.027   0.068  0.00  0.00     0.002 A 
ENDROOT
BRANCH   1   7
ATOM      7  C1  UNL d   1      -1.202   2.863   2.420  0.00  0.00     0.055 C 
ATOM      8  C   UNL d   1      -0.487   2.857   3.763  0.00  0.00     0.019 C 
ENDBRANCH   1   7
TORSDOF 1
ENDMDL
