MODEL 1
REMARK minimizedAffinity 6.38989115
REMARK minimizedRMSD -1
REMARK  1 active torsions:
REMARK  status: ('A' for Active; 'I' for Inactive)
REMARK    1  A    between atoms: C1_2  and  C2_3 
ROOT
ATOM      1  C2  UNL d   1       0.828   0.812   2.579  0.00  0.00    -0.077 A 
ATOM      2  C3  UNL d   1       0.781   1.599   3.738  0.00  0.00     0.002 A 
ATOM      3  C4  UNL d   1      -0.358   2.348   4.038  0.00  0.00     0.002 A 
ATOM      4  C5  UNL d   1      -1.460   2.315   3.187  0.00  0.00    -0.004 A 
ATOM      5  C6  UNL d   1      -1.423   1.537   2.030  0.00  0.00     0.002 A 
ATOM      6  C7  UNL d   1      -0.285   0.788   1.728  0.00  0.00     0.002 A 
ENDROOT
BRANCH   1   7
ATOM      7  C1  UNL d   1       2.037  -0.035   2.279  0.00  0.00     0.055 C 
ATOM      8  C   UNL d   1       1.938  -0.671   0.900  0.00  0.00     0.019 C 
ENDBRANCH   1   7
TORSDOF 1
ENDMDL
