MODEL 1
REMARK minimizedAffinity 3.55172229
REMARK minimizedRMSD -1
REMARK  1 active torsions:
REMARK  status: ('A' for Active; 'I' for Inactive)
REMARK    1  A    between atoms: C1_2  and  C2_3 
ROOT
ATOM      1  C2  UNL d   1       0.059   2.703  -0.468  0.00  0.00    -0.077 A 
ATOM      2  C3  UNL d   1       0.178   1.383  -0.009  0.00  0.00     0.002 A 
ATOM      3  C4  UNL d   1       0.585   0.368  -0.878  0.00  0.00     0.002 A 
ATOM      4  C5  UNL d   1       0.879   0.662  -2.207  0.00  0.00    -0.004 A 
ATOM      5  C6  UNL d   1       0.761   1.971  -2.673  0.00  0.00     0.002 A 
ATOM      6  C7  UNL d   1       0.354   2.987  -1.807  0.00  0.00     0.002 A 
ENDROOT
BRANCH   1   7
ATOM      7  C1  UNL d   1      -0.332   3.807   0.479  0.00  0.00     0.055 C 
ATOM      8  C   UNL d   1       0.523   5.048   0.265  0.00  0.00     0.019 C 
ENDBRANCH   1   7
TORSDOF 1
ENDMDL
