MODEL 1
REMARK minimizedAffinity 10.3964806
REMARK minimizedRMSD -1
REMARK  1 active torsions:
REMARK  status: ('A' for Active; 'I' for Inactive)
REMARK    1  A    between atoms: C1_2  and  C2_3 
ROOT
ATOM      1  C2  UNL d   1      -1.382  -0.446  -2.362  0.00  0.00    -0.081 A 
ATOM      2  C3  UNL d   1      -2.438  -1.279  -1.972  0.00  0.00     0.006 A 
ATOM      3  C4  UNL d   1      -2.667  -2.489  -2.632  0.00  0.00     0.002 A 
ATOM      4  C5  UNL d   1      -1.840  -2.889  -3.688  0.00  0.00    -0.080 A 
ATOM      5  C6  UNL d   1      -2.057  -4.199  -4.385  0.00  0.00     0.076 C 
ATOM      6  C7  UNL d   1      -0.797  -2.048  -4.089  0.00  0.00     0.002 A 
ATOM      7  C8  UNL d   1      -0.568  -0.838  -3.430  0.00  0.00     0.006 A 
ENDROOT
BRANCH   1   8
ATOM      8  C1  UNL d   1      -1.093   0.828  -1.610  0.00  0.00     0.054 C 
ATOM      9  C   UNL d   1      -0.012   0.617  -0.560  0.00  0.00     0.018 C 
ENDBRANCH   1   8
TORSDOF 1
ENDMDL
