MODEL 1
REMARK minimizedAffinity 4.79891872
REMARK minimizedRMSD -1
REMARK  1 active torsions:
REMARK  status: ('A' for Active; 'I' for Inactive)
REMARK    1  A    between atoms: C1_2  and  C2_3 
ROOT
ATOM      1  C2  UNL d   1       3.811  -0.022  -3.989  0.00  0.00    -0.081 A 
ATOM      2  C3  UNL d   1       4.983   0.490  -3.419  0.00  0.00     0.006 A 
ATOM      3  C4  UNL d   1       5.701   1.501  -4.062  0.00  0.00     0.002 A 
ATOM      4  C5  UNL d   1       5.255   2.023  -5.281  0.00  0.00    -0.080 A 
ATOM      5  C6  UNL d   1       6.000   3.129  -5.966  0.00  0.00     0.076 C 
ATOM      6  C7  UNL d   1       4.094   1.500  -5.859  0.00  0.00     0.002 A 
ATOM      7  C8  UNL d   1       3.376   0.488  -5.217  0.00  0.00     0.006 A 
ENDROOT
BRANCH   1   8
ATOM      8  C1  UNL d   1       3.000  -1.067  -3.266  0.00  0.00     0.054 C 
ATOM      9  C   UNL d   1       1.843  -1.560  -4.124  0.00  0.00     0.018 C 
ENDBRANCH   1   8
TORSDOF 1
ENDMDL
