MODEL 1
REMARK minimizedAffinity 0.387135506
REMARK minimizedRMSD -1
REMARK  1 active torsions:
REMARK  status: ('A' for Active; 'I' for Inactive)
REMARK    1  A    between atoms: C1_2  and  C2_3 
ROOT
ATOM      1  C2  UNL d   1      -2.940  -5.977   2.474  0.00  0.00    -0.081 A 
ATOM      2  C3  UNL d   1      -2.255  -5.967   3.695  0.00  0.00     0.006 A 
ATOM      3  C4  UNL d   1      -0.858  -5.969   3.724  0.00  0.00     0.002 A 
ATOM      4  C5  UNL d   1      -0.124  -5.972   2.533  0.00  0.00    -0.080 A 
ATOM      5  C6  UNL d   1       1.375  -5.943   2.549  0.00  0.00     0.076 C 
ATOM      6  C7  UNL d   1      -0.809  -5.999   1.313  0.00  0.00     0.002 A 
ATOM      7  C8  UNL d   1      -2.205  -5.999   1.284  0.00  0.00     0.006 A 
ENDROOT
BRANCH   1   8
ATOM      8  C1  UNL d   1      -4.446  -5.910   2.440  0.00  0.00     0.054 C 
ATOM      9  C   UNL d   1      -5.031  -5.897   3.845  0.00  0.00     0.018 C 
ENDBRANCH   1   8
TORSDOF 1
ENDMDL
