MODEL 1
REMARK minimizedAffinity 2.59557319
REMARK minimizedRMSD -1
REMARK  1 active torsions:
REMARK  status: ('A' for Active; 'I' for Inactive)
REMARK    1  A    between atoms: C1_2  and  C2_3 
ROOT
ATOM      1  C2  UNL d   1      -3.599  -5.941   1.875  0.00  0.00    -0.081 A 
ATOM      2  C3  UNL d   1      -2.911  -5.885   0.657  0.00  0.00     0.006 A 
ATOM      3  C4  UNL d   1      -1.515  -5.891   0.631  0.00  0.00     0.002 A 
ATOM      4  C5  UNL d   1      -0.783  -5.961   1.821  0.00  0.00    -0.080 A 
ATOM      5  C6  UNL d   1       0.716  -5.999   1.806  0.00  0.00     0.076 C 
ATOM      6  C7  UNL d   1      -1.470  -6.000   3.039  0.00  0.00     0.002 A 
ATOM      7  C8  UNL d   1      -2.866  -5.993   3.066  0.00  0.00     0.006 A 
ENDROOT
BRANCH   1   8
ATOM      8  C1  UNL d   1      -5.105  -5.999   1.904  0.00  0.00     0.054 C 
ATOM      9  C   UNL d   1      -5.632  -5.997   3.332  0.00  0.00     0.018 C 
ENDBRANCH   1   8
TORSDOF 1
ENDMDL
