MODEL 1
REMARK minimizedAffinity 14.6594782
REMARK minimizedRMSD -1
REMARK  1 active torsions:
REMARK  status: ('A' for Active; 'I' for Inactive)
REMARK    1  A    between atoms: C1_2  and  C2_3 
ROOT
ATOM      1  C2  UNL d   1       0.246  -0.972  -1.076  0.00  0.00    -0.081 A 
ATOM      2  C3  UNL d   1      -1.029  -1.536  -0.950  0.00  0.00     0.006 A 
ATOM      3  C4  UNL d   1      -1.480  -2.483  -1.873  0.00  0.00     0.002 A 
ATOM      4  C5  UNL d   1      -0.661  -2.886  -2.933  0.00  0.00    -0.080 A 
ATOM      5  C6  UNL d   1      -1.121  -3.924  -3.914  0.00  0.00     0.076 C 
ATOM      6  C7  UNL d   1       0.607  -2.310  -3.070  0.00  0.00     0.002 A 
ATOM      7  C8  UNL d   1       1.057  -1.363  -2.147  0.00  0.00     0.006 A 
ENDROOT
BRANCH   1   8
ATOM      8  C1  UNL d   1       0.760   0.000  -0.046  0.00  0.00     0.054 C 
ATOM      9  C   UNL d   1      -0.115   1.244   0.026  0.00  0.00     0.018 C 
ENDBRANCH   1   8
TORSDOF 1
ENDMDL
