MODEL 1
REMARK minimizedAffinity 10.3382225
REMARK minimizedRMSD -1
REMARK  1 active torsions:
REMARK  status: ('A' for Active; 'I' for Inactive)
REMARK    1  A    between atoms: C1_2  and  C2_3 
ROOT
ATOM      1  C2  UNL d   1       1.543  -1.643  -3.183  0.00  0.00    -0.081 A 
ATOM      2  C3  UNL d   1       0.275  -1.056  -3.276  0.00  0.00     0.006 A 
ATOM      3  C4  UNL d   1      -0.752  -1.695  -3.974  0.00  0.00     0.002 A 
ATOM      4  C5  UNL d   1      -0.531  -2.935  -4.584  0.00  0.00    -0.080 A 
ATOM      5  C6  UNL d   1      -1.633  -3.646  -5.311  0.00  0.00     0.076 C 
ATOM      6  C7  UNL d   1       0.741  -3.513  -4.507  0.00  0.00     0.002 A 
ATOM      7  C8  UNL d   1       1.768  -2.874  -3.809  0.00  0.00     0.006 A 
ENDROOT
BRANCH   1   8
ATOM      8  C1  UNL d   1       2.634  -0.987  -2.376  0.00  0.00     0.054 C 
ATOM      9  C   UNL d   1       3.848  -0.673  -3.238  0.00  0.00     0.018 C 
ENDBRANCH   1   8
TORSDOF 1
ENDMDL
