MODEL 1
REMARK minimizedAffinity 5.03672314
REMARK minimizedRMSD -1
REMARK  1 active torsions:
REMARK  status: ('A' for Active; 'I' for Inactive)
REMARK    1  A    between atoms: C1_2  and  C2_3 
ROOT
ATOM      1  C2  UNL d   1      -0.904  -5.984   1.967  0.00  0.00    -0.081 A 
ATOM      2  C3  UNL d   1      -1.488  -5.992   3.240  0.00  0.00     0.006 A 
ATOM      3  C4  UNL d   1      -0.689  -5.999   4.385  0.00  0.00     0.002 A 
ATOM      4  C5  UNL d   1       0.705  -5.990   4.279  0.00  0.00    -0.080 A 
ATOM      5  C6  UNL d   1       1.574  -5.966   5.501  0.00  0.00     0.076 C 
ATOM      6  C7  UNL d   1       1.289  -6.000   3.007  0.00  0.00     0.002 A 
ATOM      7  C8  UNL d   1       0.491  -5.994   1.861  0.00  0.00     0.006 A 
ENDROOT
BRANCH   1   8
ATOM      8  C1  UNL d   1      -1.762  -5.912   0.730  0.00  0.00     0.054 C 
ATOM      9  C   UNL d   1      -3.242  -5.993   1.078  0.00  0.00     0.018 C 
ENDBRANCH   1   8
TORSDOF 1
ENDMDL
