MODEL 1
REMARK minimizedAffinity 14.3399544
REMARK minimizedRMSD -1
REMARK  1 active torsions:
REMARK  status: ('A' for Active; 'I' for Inactive)
REMARK    1  A    between atoms: C1_2  and  C2_3 
ROOT
ATOM      1  C2  UNL d   1      -1.338  -0.116   2.472  0.00  0.00    -0.081 A 
ATOM      2  C3  UNL d   1      -1.112  -0.762   1.251  0.00  0.00     0.006 A 
ATOM      3  C4  UNL d   1      -0.372  -0.135   0.245  0.00  0.00     0.002 A 
ATOM      4  C5  UNL d   1       0.159   1.144   0.446  0.00  0.00    -0.080 A 
ATOM      5  C6  UNL d   1       0.980   1.815  -0.614  0.00  0.00     0.076 C 
ATOM      6  C7  UNL d   1      -0.082   1.796   1.660  0.00  0.00     0.002 A 
ATOM      7  C8  UNL d   1      -0.822   1.170   2.666  0.00  0.00     0.006 A 
ENDROOT
BRANCH   1   8
ATOM      8  C1  UNL d   1      -2.080  -0.815   3.583  0.00  0.00     0.054 C 
ATOM      9  C   UNL d   1      -3.513  -0.314   3.692  0.00  0.00     0.018 C 
ENDBRANCH   1   8
TORSDOF 1
ENDMDL
