MODEL 1
REMARK minimizedAffinity 12.4861546
REMARK minimizedRMSD -1
REMARK  1 active torsions:
REMARK  status: ('A' for Active; 'I' for Inactive)
REMARK    1  A    between atoms: C1_2  and  C2_3 
ROOT
ATOM      1  C2  UNL d   1       0.758  -1.702  -2.969  0.00  0.00    -0.081 A 
ATOM      2  C3  UNL d   1      -0.486  -1.851  -2.344  0.00  0.00     0.006 A 
ATOM      3  C4  UNL d   1      -1.506  -2.578  -2.962  0.00  0.00     0.002 A 
ATOM      4  C5  UNL d   1      -1.298  -3.174  -4.210  0.00  0.00    -0.080 A 
ATOM      5  C6  UNL d   1      -2.375  -3.983  -4.870  0.00  0.00     0.076 C 
ATOM      6  C7  UNL d   1      -0.061  -3.011  -4.843  0.00  0.00     0.002 A 
ATOM      7  C8  UNL d   1       0.960  -2.284  -4.226  0.00  0.00     0.006 A 
ENDROOT
BRANCH   1   8
ATOM      8  C1  UNL d   1       1.882  -0.974  -2.277  0.00  0.00     0.054 C 
ATOM      9  C   UNL d   1       3.031  -0.691  -3.234  0.00  0.00     0.018 C 
ENDBRANCH   1   8
TORSDOF 1
ENDMDL
