MODEL 1
REMARK minimizedAffinity 8.06928253
REMARK minimizedRMSD -1
REMARK  1 active torsions:
REMARK  status: ('A' for Active; 'I' for Inactive)
REMARK    1  A    between atoms: C1_2  and  C2_3 
ROOT
ATOM      1  C2  UNL d   1      -5.867   3.264   5.125  0.00  0.00    -0.081 A 
ATOM      2  C3  UNL d   1      -5.764   1.984   5.683  0.00  0.00     0.006 A 
ATOM      3  C4  UNL d   1      -5.774   0.852   4.864  0.00  0.00     0.002 A 
ATOM      4  C5  UNL d   1      -5.879   0.982   3.475  0.00  0.00    -0.080 A 
ATOM      5  C6  UNL d   1      -5.861  -0.224   2.583  0.00  0.00     0.076 C 
ATOM      6  C7  UNL d   1      -5.999   2.260   2.919  0.00  0.00     0.002 A 
ATOM      7  C8  UNL d   1      -5.990   3.392   3.737  0.00  0.00     0.006 A 
ENDROOT
BRANCH   1   8
ATOM      8  C1  UNL d   1      -5.791   4.489   6.000  0.00  0.00     0.054 C 
ATOM      9  C   UNL d   1      -5.998   5.761   5.190  0.00  0.00     0.018 C 
ENDBRANCH   1   8
TORSDOF 1
ENDMDL
