MODEL 1
REMARK minimizedAffinity 6.20412207
REMARK minimizedRMSD -1
REMARK  1 active torsions:
REMARK  status: ('A' for Active; 'I' for Inactive)
REMARK    1  A    between atoms: C1_2  and  C2_3 
ROOT
ATOM      1  C2  UNL d   1       1.602  -1.512  -4.133  0.00  0.00    -0.081 A 
ATOM      2  C3  UNL d   1       0.571  -0.778  -3.535  0.00  0.00     0.006 A 
ATOM      3  C4  UNL d   1      -0.746  -1.240  -3.581  0.00  0.00     0.002 A 
ATOM      4  C5  UNL d   1      -1.053  -2.448  -4.218  0.00  0.00    -0.080 A 
ATOM      5  C6  UNL d   1      -2.458  -2.970  -4.248  0.00  0.00     0.076 C 
ATOM      6  C7  UNL d   1      -0.025  -3.173  -4.830  0.00  0.00     0.002 A 
ATOM      7  C8  UNL d   1       1.292  -2.711  -4.785  0.00  0.00     0.006 A 
ENDROOT
BRANCH   1   8
ATOM      8  C1  UNL d   1       3.033  -1.049  -4.029  0.00  0.00     0.054 C 
ATOM      9  C   UNL d   1       3.118   0.365  -3.472  0.00  0.00     0.018 C 
ENDBRANCH   1   8
TORSDOF 1
ENDMDL
