MODEL 1
REMARK minimizedAffinity 7.29013586
REMARK minimizedRMSD -1
REMARK  1 active torsions:
REMARK  status: ('A' for Active; 'I' for Inactive)
REMARK    1  A    between atoms: C1_2  and  C2_3 
ROOT
ATOM      1  C2  UNL d   1      -4.661  -0.825   3.543  0.00  0.00    -0.081 A 
ATOM      2  C3  UNL d   1      -5.128  -1.487   2.401  0.00  0.00     0.006 A 
ATOM      3  C4  UNL d   1      -4.239  -2.156   1.557  0.00  0.00     0.002 A 
ATOM      4  C5  UNL d   1      -2.870  -2.182   1.845  0.00  0.00    -0.080 A 
ATOM      5  C6  UNL d   1      -1.909  -2.923   0.964  0.00  0.00     0.076 C 
ATOM      6  C7  UNL d   1      -2.401  -1.507   2.977  0.00  0.00     0.002 A 
ATOM      7  C8  UNL d   1      -3.290  -0.836   3.821  0.00  0.00     0.006 A 
ENDROOT
BRANCH   1   8
ATOM      8  C1  UNL d   1      -5.625  -0.157   4.490  0.00  0.00     0.054 C 
ATOM      9  C   UNL d   1      -6.000   1.237   4.006  0.00  0.00     0.018 C 
ENDBRANCH   1   8
TORSDOF 1
ENDMDL
