MODEL 1
REMARK minimizedAffinity 12.6495056
REMARK minimizedRMSD -1
REMARK  1 active torsions:
REMARK  status: ('A' for Active; 'I' for Inactive)
REMARK    1  A    between atoms: C1_2  and  C2_3 
ROOT
ATOM      1  C2  UNL d   1      -1.006  -0.178  -2.271  0.00  0.00    -0.081 A 
ATOM      2  C3  UNL d   1      -2.283  -0.751  -2.240  0.00  0.00     0.006 A 
ATOM      3  C4  UNL d   1      -2.608  -1.804  -3.098  0.00  0.00     0.002 A 
ATOM      4  C5  UNL d   1      -1.660  -2.308  -3.994  0.00  0.00    -0.080 A 
ATOM      5  C6  UNL d   1      -1.986  -3.459  -4.899  0.00  0.00     0.076 C 
ATOM      6  C7  UNL d   1      -0.389  -1.725  -4.037  0.00  0.00     0.002 A 
ATOM      7  C8  UNL d   1      -0.064  -0.671  -3.181  0.00  0.00     0.006 A 
ENDROOT
BRANCH   1   8
ATOM      8  C1  UNL d   1      -0.632   0.915  -1.303  0.00  0.00     0.054 C 
ATOM      9  C   UNL d   1       0.311   0.401  -0.225  0.00  0.00     0.018 C 
ENDBRANCH   1   8
TORSDOF 1
ENDMDL
