MODEL 1
REMARK minimizedAffinity 19.050066
REMARK minimizedRMSD -1
REMARK  0 active torsions:
REMARK  status: ('A' for Active; 'I' for Inactive)
ROOT
ATOM      1  C   UNL d   1      -2.336   0.394  -2.070  0.00  0.00     0.124 A 
ATOM      2  C1  UNL d   1      -1.932   1.574  -2.681  0.00  0.00     0.062 A 
ATOM      3  C2  UNL d   1      -1.109   1.534  -3.803  0.00  0.00     0.162 A 
ATOM      4  C3  UNL d   1      -0.685   0.311  -4.322  0.00  0.00    -0.034 A 
ATOM      5  C4  UNL d   1      -1.094  -0.870  -3.701  0.00  0.00     0.162 A 
ATOM      6  C5  UNL d   1      -1.916  -0.826  -2.580  0.00  0.00     0.062 A 
ATOM      7  F   UNL d   1      -2.305  -1.966  -1.991  0.00  0.00    -0.097 F 
ATOM      8  F1  UNL d   1      -0.704  -2.063  -4.174  0.00  0.00    -0.096 F 
ATOM      9  I   UNL d   1       0.546   0.249  -5.999  0.00  0.00    -0.060 I 
ATOM     10  F2  UNL d   1      -0.735   2.689  -4.373  0.00  0.00    -0.096 F 
ATOM     11  F3  UNL d   1      -2.335   2.754  -2.189  0.00  0.00    -0.097 F 
ATOM     12  F4  UNL d   1      -3.127   0.435  -0.990  0.00  0.00    -0.092 F 
ENDROOT
TORSDOF 0
ENDMDL
