MODEL 1
REMARK minimizedAffinity 2.073627
REMARK minimizedRMSD -1
REMARK  0 active torsions:
REMARK  status: ('A' for Active; 'I' for Inactive)
ROOT
ATOM      1  C   UNL d   1       0.155  -0.894  -3.453  0.00  0.00     0.124 A 
ATOM      2  C1  UNL d   1      -0.725  -1.502  -4.338  0.00  0.00     0.062 A 
ATOM      3  C2  UNL d   1      -0.781  -2.890  -4.426  0.00  0.00     0.162 A 
ATOM      4  C3  UNL d   1       0.045  -3.680  -3.626  0.00  0.00    -0.034 A 
ATOM      5  C4  UNL d   1       0.927  -3.061  -2.739  0.00  0.00     0.162 A 
ATOM      6  C5  UNL d   1       0.979  -1.673  -2.654  0.00  0.00     0.062 A 
ATOM      7  F   UNL d   1       1.830  -1.088  -1.798  0.00  0.00    -0.097 F 
ATOM      8  F1  UNL d   1       1.735  -3.790  -1.955  0.00  0.00    -0.096 F 
ATOM      9  I   UNL d   1      -0.036  -5.756  -3.755  0.00  0.00    -0.060 I 
ATOM     10  F2  UNL d   1      -1.640  -3.451  -5.290  0.00  0.00    -0.096 F 
ATOM     11  F3  UNL d   1      -1.522  -0.751  -5.111  0.00  0.00    -0.097 F 
ATOM     12  F4  UNL d   1       0.207   0.442  -3.370  0.00  0.00    -0.092 F 
ENDROOT
TORSDOF 0
ENDMDL
