MODEL 1
REMARK minimizedAffinity 2.64473367
REMARK minimizedRMSD -1
REMARK  0 active torsions:
REMARK  status: ('A' for Active; 'I' for Inactive)
ROOT
ATOM      1  C   UNL d   1      -1.601  -1.001  -2.702  0.00  0.00     0.124 A 
ATOM      2  C1  UNL d   1      -1.044  -1.550  -1.555  0.00  0.00     0.062 A 
ATOM      3  C2  UNL d   1       0.337  -1.682  -1.442  0.00  0.00     0.162 A 
ATOM      4  C3  UNL d   1       1.171  -1.265  -2.480  0.00  0.00    -0.034 A 
ATOM      5  C4  UNL d   1       0.603  -0.715  -3.630  0.00  0.00     0.162 A 
ATOM      6  C5  UNL d   1      -0.778  -0.585  -3.738  0.00  0.00     0.062 A 
ATOM      7  F   UNL d   1      -1.315  -0.055  -4.847  0.00  0.00    -0.097 F 
ATOM      8  F1  UNL d   1       1.375  -0.304  -4.647  0.00  0.00    -0.096 F 
ATOM      9  I   UNL d   1       3.236  -1.462  -2.316  0.00  0.00    -0.060 I 
ATOM     10  F2  UNL d   1       0.848  -2.216  -0.323  0.00  0.00    -0.096 F 
ATOM     11  F3  UNL d   1      -1.838  -1.954  -0.552  0.00  0.00    -0.097 F 
ATOM     12  F4  UNL d   1      -2.931  -0.875  -2.807  0.00  0.00    -0.092 F 
ENDROOT
TORSDOF 0
ENDMDL
