MODEL 1
REMARK minimizedAffinity 18.6507607
REMARK minimizedRMSD -1
REMARK  0 active torsions:
REMARK  status: ('A' for Active; 'I' for Inactive)
ROOT
ATOM      1  C   UNL d   1      -2.580  -0.228   1.607  0.00  0.00     0.124 A 
ATOM      2  C1  UNL d   1      -2.464  -1.523   2.091  0.00  0.00     0.062 A 
ATOM      3  C2  UNL d   1      -1.290  -1.935   2.714  0.00  0.00     0.162 A 
ATOM      4  C3  UNL d   1      -0.221  -1.050   2.858  0.00  0.00    -0.034 A 
ATOM      5  C4  UNL d   1      -0.345   0.251   2.367  0.00  0.00     0.162 A 
ATOM      6  C5  UNL d   1      -1.521   0.658   1.746  0.00  0.00     0.062 A 
ATOM      7  F   UNL d   1      -1.632   1.910   1.279  0.00  0.00    -0.097 F 
ATOM      8  F1  UNL d   1       0.662   1.128   2.489  0.00  0.00    -0.096 F 
ATOM      9  I   UNL d   1       1.537  -1.662   3.788  0.00  0.00    -0.060 I 
ATOM     10  F2  UNL d   1      -1.205  -3.193   3.173  0.00  0.00    -0.096 F 
ATOM     11  F3  UNL d   1      -3.486  -2.382   1.958  0.00  0.00    -0.097 F 
ATOM     12  F4  UNL d   1      -3.711   0.166   1.008  0.00  0.00    -0.092 F 
ENDROOT
TORSDOF 0
ENDMDL
