MODEL 1
REMARK minimizedAffinity 17.829237
REMARK minimizedRMSD -1
REMARK  0 active torsions:
REMARK  status: ('A' for Active; 'I' for Inactive)
ROOT
ATOM      1  C   UNL d   1      -0.990  -1.489  -3.672  0.00  0.00     0.124 A 
ATOM      2  C1  UNL d   1      -0.381  -2.277  -2.705  0.00  0.00     0.062 A 
ATOM      3  C2  UNL d   1       1.007  -2.323  -2.612  0.00  0.00     0.162 A 
ATOM      4  C3  UNL d   1       1.797  -1.577  -3.487  0.00  0.00    -0.034 A 
ATOM      5  C4  UNL d   1       1.177  -0.788  -4.458  0.00  0.00     0.162 A 
ATOM      6  C5  UNL d   1      -0.211  -0.745  -4.547  0.00  0.00     0.062 A 
ATOM      7  F   UNL d   1      -0.797   0.017  -5.482  0.00  0.00    -0.097 F 
ATOM      8  F1  UNL d   1       1.906  -0.058  -5.315  0.00  0.00    -0.096 F 
ATOM      9  I   UNL d   1       3.872  -1.643  -3.351  0.00  0.00    -0.060 I 
ATOM     10  F2  UNL d   1       1.568  -3.094  -1.668  0.00  0.00    -0.096 F 
ATOM     11  F3  UNL d   1      -1.131  -2.998  -1.859  0.00  0.00    -0.097 F 
ATOM     12  F4  UNL d   1      -2.325  -1.447  -3.760  0.00  0.00    -0.092 F 
ENDROOT
TORSDOF 0
ENDMDL
