MODEL 1
REMARK minimizedAffinity 14.467514
REMARK minimizedRMSD -1
REMARK  0 active torsions:
REMARK  status: ('A' for Active; 'I' for Inactive)
ROOT
ATOM      1  C   UNL d   1       1.275  -1.882   3.380  0.00  0.00     0.124 A 
ATOM      2  C1  UNL d   1       1.947  -1.841   4.594  0.00  0.00     0.062 A 
ATOM      3  C2  UNL d   1       3.034  -0.989   4.765  0.00  0.00     0.162 A 
ATOM      4  C3  UNL d   1       3.456  -0.169   3.718  0.00  0.00    -0.034 A 
ATOM      5  C4  UNL d   1       2.776  -0.216   2.500  0.00  0.00     0.162 A 
ATOM      6  C5  UNL d   1       1.690  -1.070   2.334  0.00  0.00     0.062 A 
ATOM      7  F   UNL d   1       1.043  -1.107   1.161  0.00  0.00    -0.097 F 
ATOM      8  F1  UNL d   1       3.156   0.558   1.473  0.00  0.00    -0.096 F 
ATOM      9  I   UNL d   1       5.082   1.106   3.969  0.00  0.00    -0.060 I 
ATOM     10  F2  UNL d   1       3.664  -0.971   5.948  0.00  0.00    -0.096 F 
ATOM     11  F3  UNL d   1       1.548  -2.626   5.606  0.00  0.00    -0.097 F 
ATOM     12  F4  UNL d   1       0.230  -2.703   3.219  0.00  0.00    -0.092 F 
ENDROOT
TORSDOF 0
ENDMDL
