MODEL 1
REMARK minimizedAffinity 15.7460852
REMARK minimizedRMSD -1
REMARK  0 active torsions:
REMARK  status: ('A' for Active; 'I' for Inactive)
ROOT
ATOM      1  C   UNL d   1       5.030  -2.603  -4.846  0.00  0.00     0.124 A 
ATOM      2  C1  UNL d   1       5.516  -1.303  -4.809  0.00  0.00     0.062 A 
ATOM      3  C2  UNL d   1       5.523  -0.592  -3.613  0.00  0.00     0.162 A 
ATOM      4  C3  UNL d   1       5.043  -1.180  -2.442  0.00  0.00    -0.034 A 
ATOM      5  C4  UNL d   1       4.555  -2.487  -2.487  0.00  0.00     0.162 A 
ATOM      6  C5  UNL d   1       4.550  -3.193  -3.686  0.00  0.00     0.062 A 
ATOM      7  F   UNL d   1       4.080  -4.449  -3.719  0.00  0.00    -0.097 F 
ATOM      8  F1  UNL d   1       4.086  -3.082  -1.380  0.00  0.00    -0.096 F 
ATOM      9  I   UNL d   1       5.052  -0.120  -0.651  0.00  0.00    -0.060 I 
ATOM     10  F2  UNL d   1       5.998   0.662  -3.607  0.00  0.00    -0.096 F 
ATOM     11  F3  UNL d   1       5.979  -0.730  -5.930  0.00  0.00    -0.097 F 
ATOM     12  F4  UNL d   1       5.023  -3.285  -5.999  0.00  0.00    -0.092 F 
ENDROOT
TORSDOF 0
ENDMDL
