MODEL 1
REMARK minimizedAffinity 14.6752148
REMARK minimizedRMSD -1
REMARK  0 active torsions:
REMARK  status: ('A' for Active; 'I' for Inactive)
ROOT
ATOM      1  C   UNL d   1      -0.446  -5.070  -2.639  0.00  0.00     0.124 A 
ATOM      2  C1  UNL d   1       0.820  -5.075  -3.209  0.00  0.00     0.062 A 
ATOM      3  C2  UNL d   1       1.761  -4.121  -2.831  0.00  0.00     0.162 A 
ATOM      4  C3  UNL d   1       1.439  -3.155  -1.878  0.00  0.00    -0.034 A 
ATOM      5  C4  UNL d   1       0.164  -3.156  -1.311  0.00  0.00     0.162 A 
ATOM      6  C5  UNL d   1      -0.773  -4.111  -1.691  0.00  0.00     0.062 A 
ATOM      7  F   UNL d   1      -1.995  -4.106  -1.140  0.00  0.00    -0.097 F 
ATOM      8  F1  UNL d   1      -0.178  -2.241  -0.391  0.00  0.00    -0.096 F 
ATOM      9  I   UNL d   1       2.843  -1.726  -1.311  0.00  0.00    -0.060 I 
ATOM     10  F2  UNL d   1       2.976  -4.149  -3.398  0.00  0.00    -0.096 F 
ATOM     11  F3  UNL d   1       1.138  -6.000  -4.126  0.00  0.00    -0.097 F 
ATOM     12  F4  UNL d   1      -1.349  -5.989  -3.005  0.00  0.00    -0.092 F 
ENDROOT
TORSDOF 0
ENDMDL
