MODEL 1
REMARK minimizedAffinity 15.9976368
REMARK minimizedRMSD -1
REMARK  0 active torsions:
REMARK  status: ('A' for Active; 'I' for Inactive)
ROOT
ATOM      1  C   UNL d   1       1.899   0.203   1.795  0.00  0.00     0.124 A 
ATOM      2  C1  UNL d   1       2.729   1.217   1.338  0.00  0.00     0.062 A 
ATOM      3  C2  UNL d   1       2.238   2.512   1.196  0.00  0.00     0.162 A 
ATOM      4  C3  UNL d   1       0.910   2.800   1.512  0.00  0.00    -0.034 A 
ATOM      5  C4  UNL d   1       0.082   1.774   1.970  0.00  0.00     0.162 A 
ATOM      6  C5  UNL d   1       0.577   0.482   2.110  0.00  0.00     0.062 A 
ATOM      7  F   UNL d   1      -0.226  -0.497   2.551  0.00  0.00    -0.097 F 
ATOM      8  F1  UNL d   1      -1.200   2.017   2.282  0.00  0.00    -0.096 F 
ATOM      9  I   UNL d   1       0.173   4.735   1.300  0.00  0.00    -0.060 I 
ATOM     10  F2  UNL d   1       3.062   3.473   0.752  0.00  0.00    -0.096 F 
ATOM     11  F3  UNL d   1       4.006   0.950   1.032  0.00  0.00    -0.097 F 
ATOM     12  F4  UNL d   1       2.373  -1.042   1.930  0.00  0.00    -0.092 F 
ENDROOT
TORSDOF 0
ENDMDL
