MODEL 1
REMARK minimizedAffinity -0.13067086
REMARK minimizedRMSD -1
REMARK  0 active torsions:
REMARK  status: ('A' for Active; 'I' for Inactive)
ROOT
ATOM      1  C   UNL d   1       0.356  -4.936  -2.622  0.00  0.00     0.124 A 
ATOM      2  C1  UNL d   1      -0.333  -3.834  -2.136  0.00  0.00     0.062 A 
ATOM      3  C2  UNL d   1      -0.547  -2.727  -2.952  0.00  0.00     0.162 A 
ATOM      4  C3  UNL d   1      -0.070  -2.716  -4.263  0.00  0.00    -0.034 A 
ATOM      5  C4  UNL d   1       0.624  -3.828  -4.744  0.00  0.00     0.162 A 
ATOM      6  C5  UNL d   1       0.834  -4.932  -3.925  0.00  0.00     0.062 A 
ATOM      7  F   UNL d   1       1.501  -5.996  -4.395  0.00  0.00    -0.097 F 
ATOM      8  F1  UNL d   1       1.095  -3.851  -5.999  0.00  0.00    -0.096 F 
ATOM      9  I   UNL d   1      -0.387  -1.062  -5.486  0.00  0.00    -0.060 I 
ATOM     10  F2  UNL d   1      -1.216  -1.675  -2.456  0.00  0.00    -0.096 F 
ATOM     11  F3  UNL d   1      -0.795  -3.835  -0.877  0.00  0.00    -0.097 F 
ATOM     12  F4  UNL d   1       0.561  -6.000  -1.834  0.00  0.00    -0.092 F 
ENDROOT
TORSDOF 0
ENDMDL
