MODEL 1
REMARK minimizedAffinity 5.72553301
REMARK minimizedRMSD -1
REMARK  0 active torsions:
REMARK  status: ('A' for Active; 'I' for Inactive)
ROOT
ATOM      1  C   UNL d   1      -0.010  -5.147  -2.998  0.00  0.00    -0.002 A 
ATOM      2  C1  UNL d   1      -1.148  -5.401  -2.246  0.00  0.00     0.010 A 
ATOM      3  C2  UNL d   1      -2.403  -4.980  -2.691  0.00  0.00     0.041 A 
ATOM      4  C3  UNL d   1      -2.495  -4.294  -3.918  0.00  0.00    -0.075 A 
ATOM      5  S   UNL d   1      -3.926  -3.684  -4.662  0.00  0.00     0.015 SA
ATOM      6  C4  UNL d   1      -3.061  -3.074  -5.997  0.00  0.00     0.022 A 
ATOM      7  C5  UNL d   1      -1.712  -3.319  -5.894  0.00  0.00     0.026 A 
ATOM      8  C6  UNL d   1      -1.364  -4.027  -4.694  0.00  0.00    -0.082 A 
ATOM      9  C7  UNL d   1      -0.106  -4.467  -4.215  0.00  0.00     0.045 A 
ENDROOT
TORSDOF 0
ENDMDL
