MODEL 1
REMARK minimizedAffinity 16.2433872
REMARK minimizedRMSD -1
REMARK  0 active torsions:
REMARK  status: ('A' for Active; 'I' for Inactive)
ROOT
ATOM      1  C   UNL d   1       1.261   1.201   2.419  0.00  0.00    -0.002 A 
ATOM      2  C1  UNL d   1       1.302   1.567   3.757  0.00  0.00     0.010 A 
ATOM      3  C2  UNL d   1       0.121   1.758   4.478  0.00  0.00     0.041 A 
ATOM      4  C3  UNL d   1      -1.113   1.572   3.825  0.00  0.00    -0.075 A 
ATOM      5  S   UNL d   1      -2.687   1.750   4.507  0.00  0.00     0.015 SA
ATOM      6  C4  UNL d   1      -3.450   1.343   3.038  0.00  0.00     0.022 A 
ATOM      7  C5  UNL d   1      -2.542   1.075   2.041  0.00  0.00     0.026 A 
ATOM      8  C6  UNL d   1      -1.180   1.202   2.478  0.00  0.00    -0.082 A 
ATOM      9  C7  UNL d   1       0.035   1.017   1.775  0.00  0.00     0.045 A 
ENDROOT
TORSDOF 0
ENDMDL
