MODEL 1
REMARK minimizedAffinity 21.4396782
REMARK minimizedRMSD -1
REMARK  0 active torsions:
REMARK  status: ('A' for Active; 'I' for Inactive)
ROOT
ATOM      1  C   UNL d   1       1.342  -3.530  -1.525  0.00  0.00    -0.002 A 
ATOM      2  C1  UNL d   1       2.446  -3.628  -0.690  0.00  0.00     0.010 A 
ATOM      3  C2  UNL d   1       3.123  -2.481  -0.270  0.00  0.00     0.041 A 
ATOM      4  C3  UNL d   1       2.666  -1.222  -0.707  0.00  0.00    -0.075 A 
ATOM      5  S   UNL d   1       3.337   0.319  -0.320  0.00  0.00     0.015 SA
ATOM      6  C4  UNL d   1       2.173   1.143  -1.254  0.00  0.00     0.022 A 
ATOM      7  C5  UNL d   1       1.287   0.279  -1.853  0.00  0.00     0.026 A 
ATOM      8  C6  UNL d   1       1.556  -1.098  -1.547  0.00  0.00    -0.082 A 
ATOM      9  C7  UNL d   1       0.892  -2.279  -1.956  0.00  0.00     0.045 A 
ENDROOT
TORSDOF 0
ENDMDL
