MODEL 1
REMARK minimizedAffinity 14.5754929
REMARK minimizedRMSD -1
REMARK  0 active torsions:
REMARK  status: ('A' for Active; 'I' for Inactive)
ROOT
ATOM      1  C   UNL d   1      -1.138  -4.689  -1.834  0.00  0.00    -0.002 A 
ATOM      2  C1  UNL d   1      -0.072  -4.417  -2.681  0.00  0.00     0.010 A 
ATOM      3  C2  UNL d   1      -0.297  -3.985  -3.989  0.00  0.00     0.041 A 
ATOM      4  C3  UNL d   1      -1.623  -3.826  -4.436  0.00  0.00    -0.075 A 
ATOM      5  S   UNL d   1      -2.139  -3.307  -5.997  0.00  0.00     0.015 SA
ATOM      6  C4  UNL d   1      -3.786  -3.433  -5.577  0.00  0.00     0.022 A 
ATOM      7  C5  UNL d   1      -3.956  -3.860  -4.282  0.00  0.00     0.026 A 
ATOM      8  C6  UNL d   1      -2.713  -4.093  -3.602  0.00  0.00    -0.082 A 
ATOM      9  C7  UNL d   1      -2.452  -4.530  -2.281  0.00  0.00     0.045 A 
ENDROOT
TORSDOF 0
ENDMDL
