MODEL 1
REMARK minimizedAffinity 17.7323055
REMARK minimizedRMSD -1
REMARK  0 active torsions:
REMARK  status: ('A' for Active; 'I' for Inactive)
ROOT
ATOM      1  C   UNL d   1      -5.658  -4.314  -6.000  0.00  0.00    -0.002 A 
ATOM      2  C1  UNL d   1      -5.232  -2.993  -5.999  0.00  0.00     0.010 A 
ATOM      3  C2  UNL d   1      -4.116  -2.608  -5.254  0.00  0.00     0.041 A 
ATOM      4  C3  UNL d   1      -3.428  -3.581  -4.503  0.00  0.00    -0.075 A 
ATOM      5  S   UNL d   1      -2.035  -3.341  -3.516  0.00  0.00     0.015 SA
ATOM      6  C4  UNL d   1      -1.973  -4.985  -3.073  0.00  0.00     0.022 A 
ATOM      7  C5  UNL d   1      -2.983  -5.714  -3.654  0.00  0.00     0.026 A 
ATOM      8  C6  UNL d   1      -3.838  -4.918  -4.489  0.00  0.00    -0.082 A 
ATOM      9  C7  UNL d   1      -4.973  -5.277  -5.254  0.00  0.00     0.045 A 
ENDROOT
TORSDOF 0
ENDMDL
