MODEL 1
REMARK minimizedAffinity 10.9180698
REMARK minimizedRMSD -1
REMARK  0 active torsions:
REMARK  status: ('A' for Active; 'I' for Inactive)
ROOT
ATOM      1  C   UNL d   1       1.601  -0.245  -2.066  0.00  0.00    -0.002 A 
ATOM      2  C1  UNL d   1       2.829   0.388  -1.933  0.00  0.00     0.010 A 
ATOM      3  C2  UNL d   1       3.138   1.101  -0.773  0.00  0.00     0.041 A 
ATOM      4  C3  UNL d   1       2.184   1.166   0.262  0.00  0.00    -0.075 A 
ATOM      5  S   UNL d   1       2.343   1.980   1.773  0.00  0.00     0.015 SA
ATOM      6  C4  UNL d   1       0.785   1.506   2.277  0.00  0.00     0.022 A 
ATOM      7  C5  UNL d   1       0.146   0.745   1.328  0.00  0.00     0.026 A 
ATOM      8  C6  UNL d   1       0.941   0.536   0.151  0.00  0.00    -0.082 A 
ATOM      9  C7  UNL d   1       0.657  -0.179  -1.038  0.00  0.00     0.045 A 
ENDROOT
TORSDOF 0
ENDMDL
