MODEL 1
REMARK minimizedAffinity 21.3506222
REMARK minimizedRMSD -1
REMARK  0 active torsions:
REMARK  status: ('A' for Active; 'I' for Inactive)
ROOT
ATOM      1  C   UNL d   1      -5.999  -2.579   2.286  0.00  0.00    -0.002 A 
ATOM      2  C1  UNL d   1      -5.663  -2.919   3.589  0.00  0.00     0.010 A 
ATOM      3  C2  UNL d   1      -4.705  -2.184   4.290  0.00  0.00     0.041 A 
ATOM      4  C3  UNL d   1      -4.085  -1.091   3.654  0.00  0.00    -0.075 A 
ATOM      5  S   UNL d   1      -2.884  -0.047   4.317  0.00  0.00     0.015 SA
ATOM      6  C4  UNL d   1      -2.789   0.875   2.887  0.00  0.00     0.022 A 
ATOM      7  C5  UNL d   1      -3.646   0.412   1.917  0.00  0.00     0.026 A 
ATOM      8  C6  UNL d   1      -4.407  -0.729   2.343  0.00  0.00    -0.082 A 
ATOM      9  C7  UNL d   1      -5.382  -1.494   1.658  0.00  0.00     0.045 A 
ENDROOT
TORSDOF 0
ENDMDL
