MODEL 1
REMARK minimizedAffinity 12.7171402
REMARK minimizedRMSD -1
REMARK  0 active torsions:
REMARK  status: ('A' for Active; 'I' for Inactive)
ROOT
ATOM      1  C   UNL d   1       1.559  -3.414  -1.900  0.00  0.00    -0.002 A 
ATOM      2  C1  UNL d   1       2.520  -3.458  -0.900  0.00  0.00     0.010 A 
ATOM      3  C2  UNL d   1       3.138  -2.286  -0.458  0.00  0.00     0.041 A 
ATOM      4  C3  UNL d   1       2.767  -1.058  -1.040  0.00  0.00    -0.075 A 
ATOM      5  S   UNL d   1       3.388   0.504  -0.657  0.00  0.00     0.015 SA
ATOM      6  C4  UNL d   1       2.391   1.265  -1.810  0.00  0.00     0.022 A 
ATOM      7  C5  UNL d   1       1.597   0.365  -2.481  0.00  0.00     0.026 A 
ATOM      8  C6  UNL d   1       1.801  -0.989  -2.048  0.00  0.00    -0.082 A 
ATOM      9  C7  UNL d   1       1.194  -2.194  -2.476  0.00  0.00     0.045 A 
ENDROOT
TORSDOF 0
ENDMDL
