MODEL 1
REMARK minimizedAffinity 10.0184031
REMARK minimizedRMSD -1
REMARK  0 active torsions:
REMARK  status: ('A' for Active; 'I' for Inactive)
ROOT
ATOM      1  C   UNL d   1       2.552  -2.995  -1.351  0.00  0.00    -0.002 A 
ATOM      2  C1  UNL d   1       2.028  -1.719  -1.502  0.00  0.00     0.010 A 
ATOM      3  C2  UNL d   1       0.742  -1.535  -2.014  0.00  0.00     0.041 A 
ATOM      4  C3  UNL d   1      -0.017  -2.667  -2.372  0.00  0.00    -0.075 A 
ATOM      5  S   UNL d   1      -1.615  -2.684  -3.018  0.00  0.00     0.015 SA
ATOM      6  C4  UNL d   1      -1.641  -4.386  -3.107  0.00  0.00     0.022 A 
ATOM      7  C5  UNL d   1      -0.467  -4.944  -2.659  0.00  0.00     0.026 A 
ATOM      8  C6  UNL d   1       0.488  -3.962  -2.228  0.00  0.00    -0.082 A 
ATOM      9  C7  UNL d   1       1.796  -4.115  -1.707  0.00  0.00     0.045 A 
ENDROOT
TORSDOF 0
ENDMDL
