MODEL 1
REMARK minimizedAffinity 20.7820091
REMARK minimizedRMSD -1
REMARK  0 active torsions:
REMARK  status: ('A' for Active; 'I' for Inactive)
ROOT
ATOM      1  C   UNL d   1      -1.571   0.892   3.200  0.00  0.00    -0.002 A 
ATOM      2  C1  UNL d   1      -2.628   0.712   2.318  0.00  0.00     0.010 A 
ATOM      3  C2  UNL d   1      -3.913   1.143   2.653  0.00  0.00     0.041 A 
ATOM      4  C3  UNL d   1      -4.120   1.765   3.900  0.00  0.00    -0.075 A 
ATOM      5  S   UNL d   1      -5.608   2.373   4.524  0.00  0.00     0.015 SA
ATOM      6  C4  UNL d   1      -4.875   2.887   5.975  0.00  0.00     0.022 A 
ATOM      7  C5  UNL d   1      -3.529   2.608   6.000  0.00  0.00     0.026 A 
ATOM      8  C6  UNL d   1      -3.072   1.957   4.804  0.00  0.00    -0.082 A 
ATOM      9  C7  UNL d   1      -1.781   1.509   4.436  0.00  0.00     0.045 A 
ENDROOT
TORSDOF 0
ENDMDL
