MODEL 1
REMARK minimizedAffinity 22.7735233
REMARK minimizedRMSD -1
REMARK  0 active torsions:
REMARK  status: ('A' for Active; 'I' for Inactive)
ROOT
ATOM      1  C   UNL d   1      -0.013  -1.739  -1.943  0.00  0.00    -0.002 A 
ATOM      2  C1  UNL d   1      -0.398  -2.681  -2.886  0.00  0.00     0.010 A 
ATOM      3  C2  UNL d   1       0.197  -2.705  -4.149  0.00  0.00     0.041 A 
ATOM      4  C3  UNL d   1       1.196  -1.759  -4.451  0.00  0.00    -0.075 A 
ATOM      5  S   UNL d   1       2.064  -1.599  -5.932  0.00  0.00     0.015 SA
ATOM      6  C4  UNL d   1       2.966  -0.277  -5.346  0.00  0.00     0.022 A 
ATOM      7  C5  UNL d   1       2.626   0.048  -4.054  0.00  0.00     0.026 A 
ATOM      8  C6  UNL d   1       1.601  -0.801  -3.517  0.00  0.00    -0.082 A 
ATOM      9  C7  UNL d   1       0.978  -0.802  -2.245  0.00  0.00     0.045 A 
ENDROOT
TORSDOF 0
ENDMDL
