MODEL 1
REMARK minimizedAffinity 15.8191385
REMARK minimizedRMSD -1
REMARK  0 active torsions:
REMARK  status: ('A' for Active; 'I' for Inactive)
ROOT
ATOM      1  C   UNL d   1      -1.017  -1.389  -2.698  0.00  0.00    -0.002 A 
ATOM      2  C1  UNL d   1      -0.178  -2.246  -1.999  0.00  0.00     0.010 A 
ATOM      3  C2  UNL d   1      -0.522  -3.588  -1.822  0.00  0.00     0.041 A 
ATOM      4  C3  UNL d   1      -1.733  -4.059  -2.366  0.00  0.00    -0.075 A 
ATOM      5  S   UNL d   1      -2.359  -5.663  -2.274  0.00  0.00     0.015 SA
ATOM      6  C4  UNL d   1      -3.754  -5.248  -3.162  0.00  0.00     0.022 A 
ATOM      7  C5  UNL d   1      -3.759  -3.923  -3.526  0.00  0.00     0.026 A 
ATOM      8  C6  UNL d   1      -2.594  -3.215  -3.074  0.00  0.00    -0.082 A 
ATOM      9  C7  UNL d   1      -2.218  -1.860  -3.236  0.00  0.00     0.045 A 
ENDROOT
TORSDOF 0
ENDMDL
