MODEL 1
REMARK minimizedAffinity 22.4787617
REMARK minimizedRMSD -1
REMARK  0 active torsions:
REMARK  status: ('A' for Active; 'I' for Inactive)
ROOT
ATOM      1  C   UNL d   1       0.484   0.889   3.539  0.00  0.00    -0.002 A 
ATOM      2  C1  UNL d   1       0.617   1.340   4.844  0.00  0.00     0.010 A 
ATOM      3  C2  UNL d   1      -0.504   1.729   5.580  0.00  0.00     0.041 A 
ATOM      4  C3  UNL d   1      -1.774   1.655   4.976  0.00  0.00    -0.075 A 
ATOM      5  S   UNL d   1      -3.288   2.078   5.684  0.00  0.00     0.015 SA
ATOM      6  C4  UNL d   1      -4.148   1.670   4.270  0.00  0.00     0.022 A 
ATOM      7  C5  UNL d   1      -3.316   1.220   3.272  0.00  0.00     0.026 A 
ATOM      8  C6  UNL d   1      -1.935   1.204   3.662  0.00  0.00    -0.082 A 
ATOM      9  C7  UNL d   1      -0.778   0.818   2.943  0.00  0.00     0.045 A 
ENDROOT
TORSDOF 0
ENDMDL
