MODEL 1
REMARK minimizedAffinity 18.5822773
REMARK minimizedRMSD -1
REMARK  0 active torsions:
REMARK  status: ('A' for Active; 'I' for Inactive)
ROOT
ATOM      1  C   UNL d   1       1.558   1.248   5.152  0.00  0.00    -0.002 A 
ATOM      2  C1  UNL d   1       0.689   1.923   5.999  0.00  0.00     0.010 A 
ATOM      3  C2  UNL d   1      -0.659   2.067   5.665  0.00  0.00     0.041 A 
ATOM      4  C3  UNL d   1      -1.124   1.514   4.455  0.00  0.00    -0.075 A 
ATOM      5  S   UNL d   1      -2.734   1.566   3.840  0.00  0.00     0.015 SA
ATOM      6  C4  UNL d   1      -2.307   0.694   2.440  0.00  0.00     0.022 A 
ATOM      7  C5  UNL d   1      -0.972   0.363   2.425  0.00  0.00     0.026 A 
ATOM      8  C6  UNL d   1      -0.269   0.830   3.587  0.00  0.00    -0.082 A 
ATOM      9  C7  UNL d   1       1.093   0.702   3.953  0.00  0.00     0.045 A 
ENDROOT
TORSDOF 0
ENDMDL
