MODEL 1
REMARK minimizedAffinity 5.53623247
REMARK minimizedRMSD -1
REMARK  0 active torsions:
REMARK  status: ('A' for Active; 'I' for Inactive)
ROOT
ATOM      1  C   UNL d   1       0.807   2.289   3.688  0.00  0.00     0.023 A 
ATOM      2  C1  UNL d   1      -0.346   2.069   2.934  0.00  0.00     0.003 A 
ATOM      3  C2  UNL d   1      -0.578   2.815   1.776  0.00  0.00     0.048 A 
ATOM      4  C3  UNL d   1       0.348   3.778   1.377  0.00  0.00     0.023 A 
ATOM      5  C4  UNL d   1       1.503   4.002   2.128  0.00  0.00     0.048 A 
ATOM      6  C5  UNL d   1       1.730   3.254   3.285  0.00  0.00     0.003 A 
ATOM      7  I   UNL d   1       0.005   4.889  -0.345  0.00  0.00    -0.146 I 
ENDROOT
TORSDOF 0
ENDMDL
