MODEL 1
REMARK minimizedAffinity 9.86919498
REMARK minimizedRMSD -1
REMARK  0 active torsions:
REMARK  status: ('A' for Active; 'I' for Inactive)
ROOT
ATOM      1  C   UNL d   1      -0.750   3.024   1.509  0.00  0.00     0.023 A 
ATOM      2  C1  UNL d   1      -1.106   1.734   1.903  0.00  0.00     0.003 A 
ATOM      3  C2  UNL d   1      -1.291   0.737   0.943  0.00  0.00     0.048 A 
ATOM      4  C3  UNL d   1      -1.117   1.036  -0.408  0.00  0.00     0.023 A 
ATOM      5  C4  UNL d   1      -0.760   2.325  -0.806  0.00  0.00     0.048 A 
ATOM      6  C5  UNL d   1      -0.577   3.320   0.157  0.00  0.00     0.003 A 
ATOM      7  I   UNL d   1      -1.391  -0.448  -1.838  0.00  0.00    -0.146 I 
ENDROOT
TORSDOF 0
ENDMDL
