MODEL 1
REMARK minimizedAffinity 6.81018019
REMARK minimizedRMSD -1
REMARK  0 active torsions:
REMARK  status: ('A' for Active; 'I' for Inactive)
ROOT
ATOM      1  C   UNL d   1       0.033   3.876   0.803  0.00  0.00     0.023 A 
ATOM      2  C1  UNL d   1      -0.428   3.016   1.801  0.00  0.00     0.003 A 
ATOM      3  C2  UNL d   1      -1.227   1.921   1.466  0.00  0.00     0.048 A 
ATOM      4  C3  UNL d   1      -1.561   1.692   0.132  0.00  0.00     0.023 A 
ATOM      5  C4  UNL d   1      -1.102   2.549  -0.870  0.00  0.00     0.048 A 
ATOM      6  C5  UNL d   1      -0.304   3.643  -0.530  0.00  0.00     0.003 A 
ATOM      7  I   UNL d   1      -2.751   0.063  -0.369  0.00  0.00    -0.146 I 
ENDROOT
TORSDOF 0
ENDMDL
