MODEL 1
REMARK minimizedAffinity 4.3716259
REMARK minimizedRMSD -1
REMARK  0 active torsions:
REMARK  status: ('A' for Active; 'I' for Inactive)
ROOT
ATOM      1  C   UNL d   1       0.400   3.938  -0.802  0.00  0.00     0.023 A 
ATOM      2  C1  UNL d   1       1.077   4.344   0.348  0.00  0.00     0.003 A 
ATOM      3  C2  UNL d   1       0.931   3.626   1.536  0.00  0.00     0.048 A 
ATOM      4  C3  UNL d   1       0.107   2.501   1.568  0.00  0.00     0.023 A 
ATOM      5  C4  UNL d   1      -0.571   2.090   0.419  0.00  0.00     0.048 A 
ATOM      6  C5  UNL d   1      -0.423   2.812  -0.766  0.00  0.00     0.003 A 
ATOM      7  I   UNL d   1      -0.111   1.430   3.335  0.00  0.00    -0.146 I 
ENDROOT
TORSDOF 0
ENDMDL
