MODEL 1
REMARK minimizedAffinity 8.76926041
REMARK minimizedRMSD -1
REMARK  0 active torsions:
REMARK  status: ('A' for Active; 'I' for Inactive)
ROOT
ATOM      1  C   UNL d   1      -2.155  -1.509  -1.726  0.00  0.00     0.023 A 
ATOM      2  C1  UNL d   1      -2.989  -0.529  -1.190  0.00  0.00     0.003 A 
ATOM      3  C2  UNL d   1      -2.463   0.709  -0.814  0.00  0.00     0.048 A 
ATOM      4  C3  UNL d   1      -1.101   0.959  -0.978  0.00  0.00     0.023 A 
ATOM      5  C4  UNL d   1      -0.262  -0.019  -1.515  0.00  0.00     0.048 A 
ATOM      6  C5  UNL d   1      -0.793  -1.255  -1.888  0.00  0.00     0.003 A 
ATOM      7  I   UNL d   1      -0.315   2.801  -0.419  0.00  0.00    -0.146 I 
ENDROOT
TORSDOF 0
ENDMDL
