MODEL 1
REMARK minimizedAffinity 2.89344096
REMARK minimizedRMSD -1
REMARK  0 active torsions:
REMARK  status: ('A' for Active; 'I' for Inactive)
ROOT
ATOM      1  C   UNL d   1      -4.845   0.295   0.455  0.00  0.00     0.023 A 
ATOM      2  C1  UNL d   1      -4.447  -1.028   0.646  0.00  0.00     0.003 A 
ATOM      3  C2  UNL d   1      -3.510  -1.608  -0.211  0.00  0.00     0.048 A 
ATOM      4  C3  UNL d   1      -2.973  -0.858  -1.257  0.00  0.00     0.023 A 
ATOM      5  C4  UNL d   1      -3.367   0.467  -1.452  0.00  0.00     0.048 A 
ATOM      6  C5  UNL d   1      -4.305   1.042  -0.593  0.00  0.00     0.003 A 
ATOM      7  I   UNL d   1      -1.577  -1.719  -2.535  0.00  0.00    -0.146 I 
ENDROOT
TORSDOF 0
ENDMDL
