MODEL 1
REMARK minimizedAffinity 10.093811
REMARK minimizedRMSD -1
REMARK  0 active torsions:
REMARK  status: ('A' for Active; 'I' for Inactive)
ROOT
ATOM      1  C   UNL d   1      -2.123  -1.370  -1.734  0.00  0.00     0.023 A 
ATOM      2  C1  UNL d   1      -0.766  -1.076  -1.860  0.00  0.00     0.003 A 
ATOM      3  C2  UNL d   1      -0.260   0.124  -1.356  0.00  0.00     0.048 A 
ATOM      4  C3  UNL d   1      -1.117   1.025  -0.727  0.00  0.00     0.023 A 
ATOM      5  C4  UNL d   1      -2.477   0.735  -0.597  0.00  0.00     0.048 A 
ATOM      6  C5  UNL d   1      -2.978  -0.465  -1.104  0.00  0.00     0.003 A 
ATOM      7  I   UNL d   1      -0.367   2.812   0.024  0.00  0.00    -0.146 I 
ENDROOT
TORSDOF 0
ENDMDL
