MODEL 1
REMARK minimizedAffinity 1.41574061
REMARK minimizedRMSD -1
REMARK  0 active torsions:
REMARK  status: ('A' for Active; 'I' for Inactive)
ROOT
ATOM      1  C   UNL d   1      -0.361   1.194  -0.340  0.00  0.00     0.023 A 
ATOM      2  C1  UNL d   1       0.010   2.056   0.693  0.00  0.00     0.003 A 
ATOM      3  C2  UNL d   1      -0.143   3.436   0.541  0.00  0.00     0.048 A 
ATOM      4  C3  UNL d   1      -0.667   3.947  -0.646  0.00  0.00     0.023 A 
ATOM      5  C4  UNL d   1      -1.040   3.088  -1.681  0.00  0.00     0.048 A 
ATOM      6  C5  UNL d   1      -0.885   1.709  -1.525  0.00  0.00     0.003 A 
ATOM      7  I   UNL d   1      -0.895   6.000  -0.875  0.00  0.00    -0.146 I 
ENDROOT
TORSDOF 0
ENDMDL
