MODEL 1
REMARK minimizedAffinity 1.28365958
REMARK minimizedRMSD -1
REMARK  0 active torsions:
REMARK  status: ('A' for Active; 'I' for Inactive)
ROOT
ATOM      1  C   UNL d   1      -2.469  -1.338  -1.195  0.00  0.00     0.023 A 
ATOM      2  C1  UNL d   1      -3.309  -0.298  -0.794  0.00  0.00     0.003 A 
ATOM      3  C2  UNL d   1      -2.783   0.974  -0.559  0.00  0.00     0.048 A 
ATOM      4  C3  UNL d   1      -1.418   1.200  -0.727  0.00  0.00     0.023 A 
ATOM      5  C4  UNL d   1      -0.574   0.163  -1.129  0.00  0.00     0.048 A 
ATOM      6  C5  UNL d   1      -1.104  -1.107  -1.362  0.00  0.00     0.003 A 
ATOM      7  I   UNL d   1      -0.634   3.093  -0.379  0.00  0.00    -0.146 I 
ENDROOT
TORSDOF 0
ENDMDL
