MODEL 1
REMARK minimizedAffinity 6.38294077
REMARK minimizedRMSD -1
REMARK  0 active torsions:
REMARK  status: ('A' for Active; 'I' for Inactive)
ROOT
ATOM      1  C1  BNZ d   1      -3.717  -3.987  -5.410  0.00  0.00     0.000 A 
ATOM      2  C2  BNZ d   1      -4.953  -4.006  -6.000  0.00  0.00     0.000 A 
ATOM      3  C3  BNZ d   1      -5.846  -5.002  -5.723  0.00  0.00     0.000 A 
ATOM      4  C4  BNZ d   1      -5.489  -6.000  -4.888  0.00  0.00     0.000 A 
ATOM      5  C5  BNZ d   1      -4.243  -6.000  -4.292  0.00  0.00     0.000 A 
ATOM      6  C6  BNZ d   1      -3.361  -4.974  -4.543  0.00  0.00     0.000 A 
ENDROOT
TORSDOF 0
ENDMDL
