MODEL 1
REMARK minimizedAffinity 6.82144785
REMARK minimizedRMSD -1
REMARK  0 active torsions:
REMARK  status: ('A' for Active; 'I' for Inactive)
ROOT
ATOM      1  C1  BNZ d   1      -3.890  -5.943  -4.132  0.00  0.00     0.000 A 
ATOM      2  C2  BNZ d   1      -5.258  -5.997  -4.143  0.00  0.00     0.000 A 
ATOM      3  C3  BNZ d   1      -5.977  -5.322  -5.090  0.00  0.00     0.000 A 
ATOM      4  C4  BNZ d   1      -5.330  -4.564  -5.998  0.00  0.00     0.000 A 
ATOM      5  C5  BNZ d   1      -3.951  -4.492  -5.994  0.00  0.00     0.000 A 
ATOM      6  C6  BNZ d   1      -3.229  -5.204  -5.064  0.00  0.00     0.000 A 
ENDROOT
TORSDOF 0
ENDMDL
