MODEL 1
REMARK minimizedAffinity 8.18284607
REMARK minimizedRMSD -1
REMARK  0 active torsions:
REMARK  status: ('A' for Active; 'I' for Inactive)
ROOT
ATOM      1  C1  BNZ d   1      -0.644   3.746  -1.565  0.00  0.00     0.000 A 
ATOM      2  C2  BNZ d   1      -1.248   2.722  -0.886  0.00  0.00     0.000 A 
ATOM      3  C3  BNZ d   1      -0.641   2.142   0.192  0.00  0.00     0.000 A 
ATOM      4  C4  BNZ d   1       0.587   2.559   0.565  0.00  0.00     0.000 A 
ATOM      5  C5  BNZ d   1       1.214   3.584  -0.115  0.00  0.00     0.000 A 
ATOM      6  C6  BNZ d   1       0.582   4.191  -1.176  0.00  0.00     0.000 A 
ENDROOT
TORSDOF 0
ENDMDL
