MODEL 1
REMARK minimizedAffinity 8.28400803
REMARK minimizedRMSD -1
REMARK  0 active torsions:
REMARK  status: ('A' for Active; 'I' for Inactive)
ROOT
ATOM      1  C1  BNZ d   1      -0.422   1.936   2.657  0.00  0.00     0.000 A 
ATOM      2  C2  BNZ d   1      -1.009   2.278   1.469  0.00  0.00     0.000 A 
ATOM      3  C3  BNZ d   1      -0.249   2.620   0.385  0.00  0.00     0.000 A 
ATOM      4  C4  BNZ d   1       1.094   2.657   0.503  0.00  0.00     0.000 A 
ATOM      5  C5  BNZ d   1       1.701   2.323   1.697  0.00  0.00     0.000 A 
ATOM      6  C6  BNZ d   1       0.934   1.942   2.775  0.00  0.00     0.000 A 
ENDROOT
TORSDOF 0
ENDMDL
