MODEL 1
REMARK minimizedAffinity 7.53275394
REMARK minimizedRMSD -1
REMARK  0 active torsions:
REMARK  status: ('A' for Active; 'I' for Inactive)
ROOT
ATOM      1  C1  BNZ d   1       1.807   3.617  -1.292  0.00  0.00     0.000 A 
ATOM      2  C2  BNZ d   1       2.741   3.697  -0.293  0.00  0.00     0.000 A 
ATOM      3  C3  BNZ d   1       2.608   2.960   0.850  0.00  0.00     0.000 A 
ATOM      4  C4  BNZ d   1       1.523   2.175   1.010  0.00  0.00     0.000 A 
ATOM      5  C5  BNZ d   1       0.568   2.091   0.017  0.00  0.00     0.000 A 
ATOM      6  C6  BNZ d   1       0.725   2.804  -1.149  0.00  0.00     0.000 A 
ENDROOT
TORSDOF 0
ENDMDL
