MODEL 1
REMARK minimizedAffinity 5.25155926
REMARK minimizedRMSD -1
REMARK  0 active torsions:
REMARK  status: ('A' for Active; 'I' for Inactive)
ROOT
ATOM      1  C1  BNZ d   1       2.191  -1.130  -0.756  0.00  0.00     0.000 A 
ATOM      2  C2  BNZ d   1       3.463  -0.759  -0.411  0.00  0.00     0.000 A 
ATOM      3  C3  BNZ d   1       4.326  -1.659   0.150  0.00  0.00     0.000 A 
ATOM      4  C4  BNZ d   1       3.904  -2.915   0.402  0.00  0.00     0.000 A 
ATOM      5  C5  BNZ d   1       2.621  -3.301   0.069  0.00  0.00     0.000 A 
ATOM      6  C6  BNZ d   1       1.768  -2.403  -0.531  0.00  0.00     0.000 A 
ENDROOT
TORSDOF 0
ENDMDL
