MODEL 1
REMARK minimizedAffinity 5.71658802
REMARK minimizedRMSD -1
REMARK  0 active torsions:
REMARK  status: ('A' for Active; 'I' for Inactive)
ROOT
ATOM      1  C1  BNZ d   1       0.027  -4.192  -3.409  0.00  0.00     0.000 A 
ATOM      2  C2  BNZ d   1      -0.157  -4.457  -2.078  0.00  0.00     0.000 A 
ATOM      3  C3  BNZ d   1       0.866  -4.948  -1.314  0.00  0.00     0.000 A 
ATOM      4  C4  BNZ d   1       2.056  -5.211  -1.891  0.00  0.00     0.000 A 
ATOM      5  C5  BNZ d   1       2.254  -4.958  -3.234  0.00  0.00     0.000 A 
ATOM      6  C6  BNZ d   1       1.234  -4.428  -3.990  0.00  0.00     0.000 A 
ENDROOT
TORSDOF 0
ENDMDL
