MODEL 1
REMARK minimizedAffinity -0.471381545
REMARK minimizedRMSD -1
REMARK  0 active torsions:
REMARK  status: ('A' for Active; 'I' for Inactive)
ROOT
ATOM      1  C   UNL d   1       4.511  -2.996   5.994  0.00  0.00     0.020 A 
ATOM      2  C1  UNL d   1       5.766  -3.486   5.637  0.00  0.00     0.020 A 
ATOM      3  C2  UNL d   1       6.000  -3.926   4.333  0.00  0.00     0.034 A 
ATOM      4  C3  UNL d   1       4.976  -3.876   3.379  0.00  0.00     0.017 A 
ATOM      5  C4  UNL d   1       3.716  -3.384   3.738  0.00  0.00     0.017 A 
ATOM      6  C5  UNL d   1       3.488  -2.945   5.046  0.00  0.00     0.034 A 
ATOM      7 Cl   UNL d   1       2.404  -3.292   2.617  0.00  0.00    -0.070 Cl
ATOM      8 Cl1  UNL d   1       5.336  -4.436   1.785  0.00  0.00    -0.070 Cl
ENDROOT
TORSDOF 0
ENDMDL
