MODEL 1
REMARK minimizedAffinity -3.19643974
REMARK minimizedRMSD -1
REMARK  0 active torsions:
REMARK  status: ('A' for Active; 'I' for Inactive)
ROOT
ATOM      1  C   UNL d   1       4.909  -4.397   5.911  0.00  0.00     0.020 A 
ATOM      2  C1  UNL d   1       4.909  -3.003   5.968  0.00  0.00     0.020 A 
ATOM      3  C2  UNL d   1       5.249  -2.259   4.836  0.00  0.00     0.034 A 
ATOM      4  C3  UNL d   1       5.591  -2.907   3.643  0.00  0.00     0.017 A 
ATOM      5  C4  UNL d   1       5.590  -4.305   3.588  0.00  0.00     0.017 A 
ATOM      6  C5  UNL d   1       5.249  -5.046   4.723  0.00  0.00     0.034 A 
ATOM      7 Cl   UNL d   1       6.000  -5.175   2.152  0.00  0.00    -0.070 Cl
ATOM      8 Cl1  UNL d   1       6.000  -1.923   2.283  0.00  0.00    -0.070 Cl
ENDROOT
TORSDOF 0
ENDMDL
