MODEL 1
REMARK minimizedAffinity -0.143686801
REMARK minimizedRMSD -1
REMARK  0 active torsions:
REMARK  status: ('A' for Active; 'I' for Inactive)
ROOT
ATOM      1  C   UNL d   1       5.997  -5.996  -4.023  0.00  0.00     0.020 A 
ATOM      2  C1  UNL d   1       6.000  -5.865  -5.411  0.00  0.00     0.020 A 
ATOM      3  C2  UNL d   1       5.592  -4.666  -5.999  0.00  0.00     0.034 A 
ATOM      4  C3  UNL d   1       5.180  -3.594  -5.200  0.00  0.00     0.017 A 
ATOM      5  C4  UNL d   1       5.177  -3.727  -3.806  0.00  0.00     0.017 A 
ATOM      6  C5  UNL d   1       5.587  -4.929  -3.222  0.00  0.00     0.034 A 
ATOM      7 Cl   UNL d   1       4.682  -2.448  -2.754  0.00  0.00    -0.070 Cl
ATOM      8 Cl1  UNL d   1       4.689  -2.141  -5.995  0.00  0.00    -0.070 Cl
ENDROOT
TORSDOF 0
ENDMDL
