MODEL 1
REMARK minimizedAffinity -3.23360181
REMARK minimizedRMSD -1
REMARK  0 active torsions:
REMARK  status: ('A' for Active; 'I' for Inactive)
ROOT
ATOM      1  C   UNL d   1       5.768  -5.362   0.931  0.00  0.00     0.020 A 
ATOM      2  C1  UNL d   1       5.932  -4.059   0.462  0.00  0.00     0.020 A 
ATOM      3  C2  UNL d   1       5.999  -2.995   1.365  0.00  0.00     0.034 A 
ATOM      4  C3  UNL d   1       5.902  -3.233   2.741  0.00  0.00     0.017 A 
ATOM      5  C4  UNL d   1       5.738  -4.541   3.210  0.00  0.00     0.017 A 
ATOM      6  C5  UNL d   1       5.672  -5.602   2.302  0.00  0.00     0.034 A 
ATOM      7 Cl   UNL d   1       5.611  -4.913   4.893  0.00  0.00    -0.070 Cl
ATOM      8 Cl1  UNL d   1       5.994  -1.871   3.799  0.00  0.00    -0.070 Cl
ENDROOT
TORSDOF 0
ENDMDL
