MODEL 1
REMARK minimizedAffinity -0.472672462
REMARK minimizedRMSD -1
REMARK  0 active torsions:
REMARK  status: ('A' for Active; 'I' for Inactive)
ROOT
ATOM      1  C   UNL d   1       5.997  -4.810   1.689  0.00  0.00     0.020 A 
ATOM      2  C1  UNL d   1       5.996  -3.665   2.485  0.00  0.00     0.020 A 
ATOM      3  C2  UNL d   1       5.996  -2.402   1.891  0.00  0.00     0.034 A 
ATOM      4  C3  UNL d   1       5.997  -2.280   0.496  0.00  0.00     0.017 A 
ATOM      5  C4  UNL d   1       5.998  -3.430  -0.302  0.00  0.00     0.017 A 
ATOM      6  C5  UNL d   1       5.998  -4.692   0.299  0.00  0.00     0.034 A 
ATOM      7 Cl   UNL d   1       6.000  -3.359  -2.029  0.00  0.00    -0.070 Cl
ATOM      8 Cl1  UNL d   1       5.997  -0.686  -0.171  0.00  0.00    -0.070 Cl
ENDROOT
TORSDOF 0
ENDMDL
