MODEL 1
REMARK minimizedAffinity 0.180390894
REMARK minimizedRMSD -1
REMARK  0 active torsions:
REMARK  status: ('A' for Active; 'I' for Inactive)
ROOT
ATOM      1  C   UNL d   1       5.982  -1.710   4.905  0.00  0.00     0.020 A 
ATOM      2  C1  UNL d   1       5.172  -2.008   6.000  0.00  0.00     0.020 A 
ATOM      3  C2  UNL d   1       4.377  -3.156   5.989  0.00  0.00     0.034 A 
ATOM      4  C3  UNL d   1       4.391  -4.011   4.880  0.00  0.00     0.017 A 
ATOM      5  C4  UNL d   1       5.204  -3.711   3.782  0.00  0.00     0.017 A 
ATOM      6  C5  UNL d   1       5.998  -2.560   3.798  0.00  0.00     0.034 A 
ATOM      7 Cl   UNL d   1       5.274  -4.718   2.378  0.00  0.00    -0.070 Cl
ATOM      8 Cl1  UNL d   1       3.383  -5.413   4.935  0.00  0.00    -0.070 Cl
ENDROOT
TORSDOF 0
ENDMDL
