MODEL 1
REMARK minimizedAffinity -0.490752995
REMARK minimizedRMSD -1
REMARK  0 active torsions:
REMARK  status: ('A' for Active; 'I' for Inactive)
ROOT
ATOM      1  C   UNL d   1       5.980  -2.560   5.974  0.00  0.00     0.020 A 
ATOM      2  C1  UNL d   1       5.980  -3.948   5.842  0.00  0.00     0.020 A 
ATOM      3  C2  UNL d   1       5.986  -4.528   4.571  0.00  0.00     0.034 A 
ATOM      4  C3  UNL d   1       5.992  -3.720   3.429  0.00  0.00     0.017 A 
ATOM      5  C4  UNL d   1       5.992  -2.326   3.563  0.00  0.00     0.017 A 
ATOM      6  C5  UNL d   1       5.987  -1.751   4.837  0.00  0.00     0.034 A 
ATOM      7 Cl   UNL d   1       6.000  -1.264   2.199  0.00  0.00    -0.070 Cl
ATOM      8 Cl1  UNL d   1       5.999  -4.505   1.889  0.00  0.00    -0.070 Cl
ENDROOT
TORSDOF 0
ENDMDL
