MODEL 1
REMARK minimizedAffinity -2.03504419
REMARK minimizedRMSD -1
REMARK  0 active torsions:
REMARK  status: ('A' for Active; 'I' for Inactive)
ROOT
ATOM      1  C   UNL d   1       5.982  -5.999  -3.365  0.00  0.00     0.020 A 
ATOM      2  C1  UNL d   1       5.619  -4.857  -4.078  0.00  0.00     0.020 A 
ATOM      3  C2  UNL d   1       5.273  -3.688  -3.396  0.00  0.00     0.034 A 
ATOM      4  C3  UNL d   1       5.289  -3.659  -1.997  0.00  0.00     0.017 A 
ATOM      5  C4  UNL d   1       5.654  -4.805  -1.282  0.00  0.00     0.017 A 
ATOM      6  C5  UNL d   1       5.999  -5.973  -1.970  0.00  0.00     0.034 A 
ATOM      7 Cl   UNL d   1       5.698  -4.845   0.446  0.00  0.00    -0.070 Cl
ATOM      8 Cl1  UNL d   1       4.850  -2.179  -1.219  0.00  0.00    -0.070 Cl
ENDROOT
TORSDOF 0
ENDMDL
