MODEL 1
REMARK minimizedAffinity 5.82971764
REMARK minimizedRMSD -1
REMARK  0 active torsions:
REMARK  status: ('A' for Active; 'I' for Inactive)
ROOT
ATOM      1  C   UNL d   1       4.872  -1.932   2.808  0.00  0.00     0.020 A 
ATOM      2  C1  UNL d   1       5.932  -2.838   2.823  0.00  0.00     0.020 A 
ATOM      3  C2  UNL d   1       6.000  -3.816   3.818  0.00  0.00     0.034 A 
ATOM      4  C3  UNL d   1       5.006  -3.891   4.800  0.00  0.00     0.017 A 
ATOM      5  C4  UNL d   1       3.942  -2.982   4.784  0.00  0.00     0.017 A 
ATOM      6  C5  UNL d   1       3.879  -2.004   3.786  0.00  0.00     0.034 A 
ATOM      7 Cl   UNL d   1       2.679  -3.012   5.962  0.00  0.00    -0.070 Cl
ATOM      8 Cl1  UNL d   1       5.153  -5.127   5.999  0.00  0.00    -0.070 Cl
ENDROOT
TORSDOF 0
ENDMDL
