MODEL 1
REMARK minimizedAffinity -3.01519632
REMARK minimizedRMSD -1
REMARK  0 active torsions:
REMARK  status: ('A' for Active; 'I' for Inactive)
ROOT
ATOM      1  C   UNL d   1       5.933  -1.888   4.162  0.00  0.00     0.020 A 
ATOM      2  C1  UNL d   1       5.583  -2.050   5.502  0.00  0.00     0.020 A 
ATOM      3  C2  UNL d   1       5.299  -3.323   6.000  0.00  0.00     0.034 A 
ATOM      4  C3  UNL d   1       5.363  -4.439   5.157  0.00  0.00     0.017 A 
ATOM      5  C4  UNL d   1       5.714  -4.275   3.813  0.00  0.00     0.017 A 
ATOM      6  C5  UNL d   1       5.998  -2.998   3.319  0.00  0.00     0.034 A 
ATOM      7 Cl   UNL d   1       5.815  -5.604   2.712  0.00  0.00    -0.070 Cl
ATOM      8 Cl1  UNL d   1       4.999  -5.984   5.841  0.00  0.00    -0.070 Cl
ENDROOT
TORSDOF 0
ENDMDL
