MODEL 1
REMARK minimizedAffinity -2.4159584
REMARK minimizedRMSD -1
REMARK  0 active torsions:
REMARK  status: ('A' for Active; 'I' for Inactive)
ROOT
ATOM      1  C   UNL d   1       5.590  -2.138   5.556  0.00  0.00     0.020 A 
ATOM      2  C1  UNL d   1       5.999  -1.968   4.234  0.00  0.00     0.020 A 
ATOM      3  C2  UNL d   1       5.980  -3.050   3.352  0.00  0.00     0.034 A 
ATOM      4  C3  UNL d   1       5.551  -4.308   3.790  0.00  0.00     0.017 A 
ATOM      5  C4  UNL d   1       5.140  -4.478   5.117  0.00  0.00     0.017 A 
ATOM      6  C5  UNL d   1       5.161  -3.391   5.996  0.00  0.00     0.034 A 
ATOM      7 Cl   UNL d   1       4.597  -6.000   5.732  0.00  0.00    -0.070 Cl
ATOM      8 Cl1  UNL d   1       5.553  -5.602   2.645  0.00  0.00    -0.070 Cl
ENDROOT
TORSDOF 0
ENDMDL
