MODEL 1
REMARK minimizedAffinity 5.06423235
REMARK minimizedRMSD -1
REMARK  0 active torsions:
REMARK  status: ('A' for Active; 'I' for Inactive)
ROOT
ATOM      1  C   UNL d   1       5.415  -3.832   5.883  0.00  0.00     0.020 A 
ATOM      2  C1  UNL d   1       4.034  -3.675   6.000  0.00  0.00     0.020 A 
ATOM      3  C2  UNL d   1       3.238  -3.622   4.854  0.00  0.00     0.034 A 
ATOM      4  C3  UNL d   1       3.821  -3.725   3.586  0.00  0.00     0.017 A 
ATOM      5  C4  UNL d   1       5.207  -3.882   3.469  0.00  0.00     0.017 A 
ATOM      6  C5  UNL d   1       6.000  -3.935   4.620  0.00  0.00     0.034 A 
ATOM      7 Cl   UNL d   1       5.999  -4.016   1.939  0.00  0.00    -0.070 Cl
ATOM      8 Cl1  UNL d   1       2.776  -3.651   2.212  0.00  0.00    -0.070 Cl
ENDROOT
TORSDOF 0
ENDMDL
