MODEL 1
REMARK minimizedAffinity -3.59292078
REMARK minimizedRMSD -1
REMARK  0 active torsions:
REMARK  status: ('A' for Active; 'I' for Inactive)
ROOT
ATOM      1  C   UNL d   1      -0.448   0.841  -1.783  0.00  0.00     0.023 A 
ATOM      2  C1  UNL d   1       0.763   0.723  -1.100  0.00  0.00     0.003 A 
ATOM      3  C2  UNL d   1       0.782   0.261   0.217  0.00  0.00     0.048 A 
ATOM      4  C3  UNL d   1      -0.415  -0.082   0.846  0.00  0.00     0.023 A 
ATOM      5  C4  UNL d   1      -1.629   0.033   0.167  0.00  0.00     0.048 A 
ATOM      6  C5  UNL d   1      -1.642   0.497  -1.150  0.00  0.00     0.003 A 
ATOM      7  I   UNL d   1      -0.390  -0.770   2.807  0.00  0.00    -0.146 I 
ENDROOT
TORSDOF 0
ENDMDL
