MODEL 1
REMARK minimizedAffinity -2.70053196
REMARK minimizedRMSD -1
REMARK  0 active torsions:
REMARK  status: ('A' for Active; 'I' for Inactive)
ROOT
ATOM      1  C   UNL d   1      -0.602  -0.339   3.098  0.00  0.00     0.023 A 
ATOM      2  C1  UNL d   1       0.634   0.117   2.637  0.00  0.00     0.003 A 
ATOM      3  C2  UNL d   1       0.896   0.161   1.266  0.00  0.00     0.048 A 
ATOM      4  C3  UNL d   1      -0.082  -0.250   0.361  0.00  0.00     0.023 A 
ATOM      5  C4  UNL d   1      -1.320  -0.706   0.818  0.00  0.00     0.048 A 
ATOM      6  C5  UNL d   1      -1.577  -0.750   2.189  0.00  0.00     0.003 A 
ATOM      7  I   UNL d   1       0.305  -0.184  -1.680  0.00  0.00    -0.146 I 
ENDROOT
TORSDOF 0
ENDMDL
