MODEL 1
REMARK minimizedAffinity -1.92560875
REMARK minimizedRMSD -1
REMARK  0 active torsions:
REMARK  status: ('A' for Active; 'I' for Inactive)
ROOT
ATOM      1  C   UNL d   1       0.647   0.192   2.786  0.00  0.00     0.023 A 
ATOM      2  C1  UNL d   1      -0.613  -0.148   2.293  0.00  0.00     0.003 A 
ATOM      3  C2  UNL d   1      -0.823  -0.240   0.915  0.00  0.00     0.048 A 
ATOM      4  C3  UNL d   1       0.230   0.009   0.037  0.00  0.00     0.023 A 
ATOM      5  C4  UNL d   1       1.493   0.349   0.526  0.00  0.00     0.048 A 
ATOM      6  C5  UNL d   1       1.698   0.440   1.904  0.00  0.00     0.003 A 
ATOM      7  I   UNL d   1      -0.080  -0.126  -2.014  0.00  0.00    -0.146 I 
ENDROOT
TORSDOF 0
ENDMDL
