MODEL 1
REMARK minimizedAffinity -2.82299566
REMARK minimizedRMSD -1
REMARK  0 active torsions:
REMARK  status: ('A' for Active; 'I' for Inactive)
ROOT
ATOM      1  C   UNL d   1      -0.175  -0.098   1.331  0.00  0.00     0.023 A 
ATOM      2  C1  UNL d   1       0.716  -1.169   1.401  0.00  0.00     0.003 A 
ATOM      3  C2  UNL d   1       1.115  -1.823   0.233  0.00  0.00     0.048 A 
ATOM      4  C3  UNL d   1       0.620  -1.401  -1.000  0.00  0.00     0.023 A 
ATOM      5  C4  UNL d   1      -0.271  -0.329  -1.074  0.00  0.00     0.048 A 
ATOM      6  C5  UNL d   1      -0.668   0.321   0.095  0.00  0.00     0.003 A 
ATOM      7  I   UNL d   1       1.213  -2.374  -2.738  0.00  0.00    -0.146 I 
ENDROOT
TORSDOF 0
ENDMDL
