MODEL 1
REMARK minimizedAffinity -3.4048779
REMARK minimizedRMSD -1
REMARK  0 active torsions:
REMARK  status: ('A' for Active; 'I' for Inactive)
ROOT
ATOM      1  C   UNL d   1       0.012  -0.071   2.823  0.00  0.00     0.023 A 
ATOM      2  C1  UNL d   1       0.945   0.678   2.105  0.00  0.00     0.003 A 
ATOM      3  C2  UNL d   1       0.971   0.612   0.711  0.00  0.00     0.048 A 
ATOM      4  C3  UNL d   1       0.060  -0.203   0.040  0.00  0.00     0.023 A 
ATOM      5  C4  UNL d   1      -0.876  -0.953   0.754  0.00  0.00     0.048 A 
ATOM      6  C5  UNL d   1      -0.897  -0.885   2.148  0.00  0.00     0.003 A 
ATOM      7  I   UNL d   1       0.095  -0.301  -2.036  0.00  0.00    -0.146 I 
ENDROOT
TORSDOF 0
ENDMDL
