MODEL 1
REMARK minimizedAffinity -2.4939239
REMARK minimizedRMSD -1
REMARK  0 active torsions:
REMARK  status: ('A' for Active; 'I' for Inactive)
ROOT
ATOM      1  C   UNL d   1       0.010  -0.170   2.611  0.00  0.00     0.023 A 
ATOM      2  C1  UNL d   1      -1.071  -0.466   1.782  0.00  0.00     0.003 A 
ATOM      3  C2  UNL d   1      -0.900  -0.504   0.396  0.00  0.00     0.048 A 
ATOM      4  C3  UNL d   1       0.355  -0.247  -0.153  0.00  0.00     0.023 A 
ATOM      5  C4  UNL d   1       1.441   0.049   0.673  0.00  0.00     0.048 A 
ATOM      6  C5  UNL d   1       1.265   0.087   2.058  0.00  0.00     0.003 A 
ATOM      7  I   UNL d   1       0.612  -0.304  -2.214  0.00  0.00    -0.146 I 
ENDROOT
TORSDOF 0
ENDMDL
