MODEL 1
REMARK minimizedAffinity -3.59955668
REMARK minimizedRMSD -1
REMARK  0 active torsions:
REMARK  status: ('A' for Active; 'I' for Inactive)
ROOT
ATOM      1  C   UNL d   1      -0.603  -0.393   3.110  0.00  0.00     0.023 A 
ATOM      2  C1  UNL d   1       0.439   0.416   2.654  0.00  0.00     0.003 A 
ATOM      3  C2  UNL d   1       0.642   0.587   1.283  0.00  0.00     0.048 A 
ATOM      4  C3  UNL d   1      -0.201  -0.051   0.374  0.00  0.00     0.023 A 
ATOM      5  C4  UNL d   1      -1.245  -0.860   0.826  0.00  0.00     0.048 A 
ATOM      6  C5  UNL d   1      -1.443  -1.030   2.198  0.00  0.00     0.003 A 
ATOM      7  I   UNL d   1       0.099   0.203  -1.667  0.00  0.00    -0.146 I 
ENDROOT
TORSDOF 0
ENDMDL
