MODEL 1
REMARK minimizedAffinity -3.84034109
REMARK minimizedRMSD -1
REMARK  0 active torsions:
REMARK  status: ('A' for Active; 'I' for Inactive)
ROOT
ATOM      1  C   UNL d   1      -1.075  -0.534   3.021  0.00  0.00     0.023 A 
ATOM      2  C1  UNL d   1      -2.052  -0.429   2.031  0.00  0.00     0.003 A 
ATOM      3  C2  UNL d   1      -1.680  -0.256   0.696  0.00  0.00     0.048 A 
ATOM      4  C3  UNL d   1      -0.329  -0.190   0.358  0.00  0.00     0.023 A 
ATOM      5  C4  UNL d   1       0.653  -0.295   1.345  0.00  0.00     0.048 A 
ATOM      6  C5  UNL d   1       0.276  -0.467   2.678  0.00  0.00     0.003 A 
ATOM      7  I   UNL d   1       0.227   0.068  -1.628  0.00  0.00    -0.146 I 
ENDROOT
TORSDOF 0
ENDMDL
