MODEL 1
REMARK minimizedAffinity -1.20674884
REMARK minimizedRMSD -1
REMARK  0 active torsions:
REMARK  status: ('A' for Active; 'I' for Inactive)
ROOT
ATOM      1  C   UNL d   1      -0.412   0.256   1.162  0.00  0.00     0.023 A 
ATOM      2  C1  UNL d   1      -0.622   1.000   0.000  0.00  0.00     0.003 A 
ATOM      3  C2  UNL d   1      -0.119   0.547  -1.221  0.00  0.00     0.048 A 
ATOM      4  C3  UNL d   1       0.594  -0.650  -1.274  0.00  0.00     0.023 A 
ATOM      5  C4  UNL d   1       0.806  -1.398  -0.114  0.00  0.00     0.048 A 
ATOM      6  C5  UNL d   1       0.301  -0.941   1.105  0.00  0.00     0.003 A 
ATOM      7  I   UNL d   1       1.344  -1.326  -3.090  0.00  0.00    -0.146 I 
ENDROOT
TORSDOF 0
ENDMDL
