MODEL 1
REMARK minimizedAffinity -4.1433115
REMARK minimizedRMSD -1
REMARK  0 active torsions:
REMARK  status: ('A' for Active; 'I' for Inactive)
ROOT
ATOM      1  C   UNL d   1      -0.474  -0.385   2.678  0.00  0.00     0.023 A 
ATOM      2  C1  UNL d   1       0.731   0.075   2.147  0.00  0.00     0.003 A 
ATOM      3  C2  UNL d   1       0.868   0.247   0.768  0.00  0.00     0.048 A 
ATOM      4  C3  UNL d   1      -0.205  -0.042  -0.075  0.00  0.00     0.023 A 
ATOM      5  C4  UNL d   1      -1.413  -0.502   0.452  0.00  0.00     0.048 A 
ATOM      6  C5  UNL d   1      -1.544  -0.674   1.831  0.00  0.00     0.003 A 
ATOM      7  I   UNL d   1      -0.005   0.214  -2.127  0.00  0.00    -0.146 I 
ENDROOT
TORSDOF 0
ENDMDL
