MODEL 1
REMARK minimizedAffinity -3.06141925
REMARK minimizedRMSD -1
REMARK  0 active torsions:
REMARK  status: ('A' for Active; 'I' for Inactive)
ROOT
ATOM      1  C   UNL d   1      -0.113   0.075   2.846  0.00  0.00     0.023 A 
ATOM      2  C1  UNL d   1       0.818   0.886   2.197  0.00  0.00     0.003 A 
ATOM      3  C2  UNL d   1       1.133   0.654   0.856  0.00  0.00     0.048 A 
ATOM      4  C3  UNL d   1       0.513  -0.390   0.171  0.00  0.00     0.023 A 
ATOM      5  C4  UNL d   1      -0.420  -1.203   0.816  0.00  0.00     0.048 A 
ATOM      6  C5  UNL d   1      -0.731  -0.968   2.157  0.00  0.00     0.003 A 
ATOM      7  I   UNL d   1       0.980  -0.737  -1.824  0.00  0.00    -0.146 I 
ENDROOT
TORSDOF 0
ENDMDL
