MODEL 1
REMARK minimizedAffinity -2.68214941
REMARK minimizedRMSD -1
REMARK  0 active torsions:
REMARK  status: ('A' for Active; 'I' for Inactive)
ROOT
ATOM      1  C   UNL d   1      -0.040   0.044   2.398  0.00  0.00     0.023 A 
ATOM      2  C1  UNL d   1       0.836   0.780   1.601  0.00  0.00     0.003 A 
ATOM      3  C2  UNL d   1       0.963   0.483   0.242  0.00  0.00     0.048 A 
ATOM      4  C3  UNL d   1       0.210  -0.551  -0.313  0.00  0.00     0.023 A 
ATOM      5  C4  UNL d   1      -0.669  -1.290   0.481  0.00  0.00     0.048 A 
ATOM      6  C5  UNL d   1      -0.791  -0.990   1.839  0.00  0.00     0.003 A 
ATOM      7  I   UNL d   1       0.396  -0.995  -2.335  0.00  0.00    -0.146 I 
ENDROOT
TORSDOF 0
ENDMDL
