MODEL 1
REMARK minimizedAffinity 1.12363195
REMARK minimizedRMSD -1
REMARK  0 active torsions:
REMARK  status: ('A' for Active; 'I' for Inactive)
ROOT
ATOM      1  C   UNL d   1       0.029   0.998   3.273  0.00  0.00     0.023 A 
ATOM      2  C1  UNL d   1       0.850   1.593   2.314  0.00  0.00     0.003 A 
ATOM      3  C2  UNL d   1       0.914   1.063   1.024  0.00  0.00     0.048 A 
ATOM      4  C3  UNL d   1       0.156  -0.060   0.699  0.00  0.00     0.023 A 
ATOM      5  C4  UNL d   1      -0.667  -0.659   1.654  0.00  0.00     0.048 A 
ATOM      6  C5  UNL d   1      -0.728  -0.126   2.944  0.00  0.00     0.003 A 
ATOM      7  I   UNL d   1       0.250  -0.850  -1.222  0.00  0.00    -0.146 I 
ENDROOT
TORSDOF 0
ENDMDL
