MODEL 1
REMARK minimizedAffinity 1.51024914
REMARK minimizedRMSD -1
REMARK  0 active torsions:
REMARK  status: ('A' for Active; 'I' for Inactive)
ROOT
ATOM      1  C   UNL d   1      -2.529   0.424   1.434  0.00  0.00     0.078 C 
ATOM      2  C1  UNL d   1      -1.448   0.962   2.324  0.00  0.00    -0.077 A 
ATOM      3  C2  UNL d   1      -0.629   0.101   3.065  0.00  0.00    -0.001 A 
ATOM      4  C3  UNL d   1       0.366   0.616   3.897  0.00  0.00     0.003 A 
ATOM      5  C4  UNL d   1       0.551   1.994   3.996  0.00  0.00    -0.005 A 
ATOM      6  C5  UNL d   1      -0.260   2.858   3.265  0.00  0.00     0.003 A 
ATOM      7  C6  UNL d   1      -1.256   2.345   2.432  0.00  0.00    -0.001 A 
ENDROOT
TORSDOF 0
ENDMDL
