MODEL 1
REMARK minimizedAffinity 6.84579039
REMARK minimizedRMSD -1
REMARK  0 active torsions:
REMARK  status: ('A' for Active; 'I' for Inactive)
ROOT
ATOM      1  C   UNL d   1      -4.379   0.348   4.750  0.00  0.00     0.078 C 
ATOM      2  C1  UNL d   1      -3.611   0.359   3.463  0.00  0.00    -0.077 A 
ATOM      3  C2  UNL d   1      -4.271   0.341   2.228  0.00  0.00    -0.001 A 
ATOM      4  C3  UNL d   1      -3.543   0.342   1.038  0.00  0.00     0.003 A 
ATOM      5  C4  UNL d   1      -2.150   0.359   1.070  0.00  0.00    -0.005 A 
ATOM      6  C5  UNL d   1      -1.483   0.375   2.293  0.00  0.00     0.003 A 
ATOM      7  C6  UNL d   1      -2.210   0.375   3.485  0.00  0.00    -0.001 A 
ENDROOT
TORSDOF 0
ENDMDL
