MODEL 1
REMARK minimizedAffinity 0.213902026
REMARK minimizedRMSD -1
REMARK  0 active torsions:
REMARK  status: ('A' for Active; 'I' for Inactive)
ROOT
ATOM      1  C   UNL d   1      -0.573  -4.180  -5.989  0.00  0.00     0.078 C 
ATOM      2  C1  UNL d   1      -1.974  -3.644  -5.999  0.00  0.00    -0.077 A 
ATOM      3  C2  UNL d   1      -2.219  -2.266  -5.997  0.00  0.00    -0.001 A 
ATOM      4  C3  UNL d   1      -3.528  -1.782  -5.997  0.00  0.00     0.003 A 
ATOM      5  C4  UNL d   1      -4.602  -2.670  -5.997  0.00  0.00    -0.005 A 
ATOM      6  C5  UNL d   1      -4.368  -4.043  -5.996  0.00  0.00     0.003 A 
ATOM      7  C6  UNL d   1      -3.059  -4.529  -5.997  0.00  0.00    -0.001 A 
ENDROOT
TORSDOF 0
ENDMDL
