MODEL 1
REMARK minimizedAffinity 8.55975533
REMARK minimizedRMSD -1
REMARK  0 active torsions:
REMARK  status: ('A' for Active; 'I' for Inactive)
ROOT
ATOM      1  C   UNL d   1      -0.893  -3.871  -5.967  0.00  0.00     0.078 C 
ATOM      2  C1  UNL d   1      -2.177  -3.097  -5.983  0.00  0.00    -0.077 A 
ATOM      3  C2  UNL d   1      -2.176  -1.697  -5.975  0.00  0.00    -0.001 A 
ATOM      4  C3  UNL d   1      -3.380  -0.990  -5.980  0.00  0.00     0.003 A 
ATOM      5  C4  UNL d   1      -4.593  -1.675  -5.992  0.00  0.00    -0.005 A 
ATOM      6  C5  UNL d   1      -4.605  -3.068  -5.998  0.00  0.00     0.003 A 
ATOM      7  C6  UNL d   1      -3.402  -3.777  -5.993  0.00  0.00    -0.001 A 
ENDROOT
TORSDOF 0
ENDMDL
