MODEL 1
REMARK minimizedAffinity 0.261326402
REMARK minimizedRMSD -1
REMARK  0 active torsions:
REMARK  status: ('A' for Active; 'I' for Inactive)
ROOT
ATOM      1  C   UNL d   1      -5.950  -2.655  -5.989  0.00  0.00     0.078 C 
ATOM      2  C1  UNL d   1      -4.498  -3.028  -5.997  0.00  0.00    -0.077 A 
ATOM      3  C2  UNL d   1      -4.098  -4.370  -6.000  0.00  0.00    -0.001 A 
ATOM      4  C3  UNL d   1      -2.742  -4.702  -5.998  0.00  0.00     0.003 A 
ATOM      5  C4  UNL d   1      -1.775  -3.699  -5.992  0.00  0.00    -0.005 A 
ATOM      6  C5  UNL d   1      -2.164  -2.361  -5.987  0.00  0.00     0.003 A 
ATOM      7  C6  UNL d   1      -3.519  -2.026  -5.989  0.00  0.00    -0.001 A 
ENDROOT
TORSDOF 0
ENDMDL
