MODEL 1
REMARK minimizedAffinity 12.4658546
REMARK minimizedRMSD -1
REMARK  0 active torsions:
REMARK  status: ('A' for Active; 'I' for Inactive)
ROOT
ATOM      1  C   UNL d   1      -4.215  -4.264  -5.998  0.00  0.00     0.078 C 
ATOM      2  C1  UNL d   1      -3.398  -3.007  -5.989  0.00  0.00    -0.077 A 
ATOM      3  C2  UNL d   1      -1.998  -3.057  -5.998  0.00  0.00    -0.001 A 
ATOM      4  C3  UNL d   1      -1.250  -1.879  -5.979  0.00  0.00     0.003 A 
ATOM      5  C4  UNL d   1      -1.891  -0.642  -5.949  0.00  0.00    -0.005 A 
ATOM      6  C5  UNL d   1      -3.283  -0.583  -5.937  0.00  0.00     0.003 A 
ATOM      7  C6  UNL d   1      -4.034  -1.759  -5.956  0.00  0.00    -0.001 A 
ENDROOT
TORSDOF 0
ENDMDL
