MODEL 1
REMARK minimizedAffinity 5.25967407
REMARK minimizedRMSD -1
REMARK  0 active torsions:
REMARK  status: ('A' for Active; 'I' for Inactive)
ROOT
ATOM      1  C   UNL d   1      -4.507   0.691   1.865  0.00  0.00     0.078 C 
ATOM      2  C1  UNL d   1      -4.890   0.552   3.308  0.00  0.00    -0.077 A 
ATOM      3  C2  UNL d   1      -4.532  -0.584   4.044  0.00  0.00    -0.001 A 
ATOM      4  C3  UNL d   1      -4.903  -0.704   5.384  0.00  0.00     0.003 A 
ATOM      5  C4  UNL d   1      -5.637   0.308   6.000  0.00  0.00    -0.005 A 
ATOM      6  C5  UNL d   1      -6.000   1.441   5.276  0.00  0.00     0.003 A 
ATOM      7  C6  UNL d   1      -5.629   1.563   3.936  0.00  0.00    -0.001 A 
ENDROOT
TORSDOF 0
ENDMDL
