MODEL 1
REMARK minimizedAffinity -3.30218863
REMARK minimizedRMSD -1
REMARK  0 active torsions:
REMARK  status: ('A' for Active; 'I' for Inactive)
ROOT
ATOM      1  C   UNL d   1      -3.416   0.526   1.191  0.00  0.00     0.078 C 
ATOM      2  C1  UNL d   1      -2.325   0.949   2.129  0.00  0.00    -0.077 A 
ATOM      3  C2  UNL d   1      -2.292   2.244   2.660  0.00  0.00    -0.001 A 
ATOM      4  C3  UNL d   1      -1.265   2.626   3.524  0.00  0.00     0.003 A 
ATOM      5  C4  UNL d   1      -0.263   1.720   3.865  0.00  0.00    -0.005 A 
ATOM      6  C5  UNL d   1      -0.286   0.429   3.340  0.00  0.00     0.003 A 
ATOM      7  C6  UNL d   1      -1.312   0.045   2.475  0.00  0.00    -0.001 A 
ENDROOT
TORSDOF 0
ENDMDL
