MODEL 1
REMARK minimizedAffinity 2.16761684
REMARK minimizedRMSD -1
REMARK  0 active torsions:
REMARK  status: ('A' for Active; 'I' for Inactive)
ROOT
ATOM      1  C   UNL d   1       4.582   0.440  -6.000  0.00  0.00     0.078 C 
ATOM      2  C1  UNL d   1       3.437  -0.026  -5.151  0.00  0.00    -0.077 A 
ATOM      3  C2  UNL d   1       2.352  -0.708  -5.715  0.00  0.00    -0.001 A 
ATOM      4  C3  UNL d   1       1.289  -1.128  -4.914  0.00  0.00     0.003 A 
ATOM      5  C4  UNL d   1       1.300  -0.869  -3.545  0.00  0.00    -0.005 A 
ATOM      6  C5  UNL d   1       2.374  -0.189  -2.975  0.00  0.00     0.003 A 
ATOM      7  C6  UNL d   1       3.438   0.232  -3.774  0.00  0.00    -0.001 A 
ENDROOT
TORSDOF 0
ENDMDL
