MODEL 1
REMARK minimizedAffinity 7.60682154
REMARK minimizedRMSD -1
REMARK  0 active torsions:
REMARK  status: ('A' for Active; 'I' for Inactive)
ROOT
ATOM      1  C   UNL d   1      -1.451   0.884   1.838  0.00  0.00     0.078 C 
ATOM      2  C1  UNL d   1      -2.206  -0.301   1.314  0.00  0.00    -0.077 A 
ATOM      3  C2  UNL d   1      -3.562  -0.203   0.980  0.00  0.00    -0.001 A 
ATOM      4  C3  UNL d   1      -4.254  -1.317   0.503  0.00  0.00     0.003 A 
ATOM      5  C4  UNL d   1      -3.599  -2.538   0.357  0.00  0.00    -0.005 A 
ATOM      6  C5  UNL d   1      -2.250  -2.646   0.689  0.00  0.00     0.003 A 
ATOM      7  C6  UNL d   1      -1.556  -1.533   1.166  0.00  0.00    -0.001 A 
ENDROOT
TORSDOF 0
ENDMDL
