MODEL 1
REMARK minimizedAffinity 8.03881073
REMARK minimizedRMSD -1
REMARK  0 active torsions:
REMARK  status: ('A' for Active; 'I' for Inactive)
ROOT
ATOM      1  C   UNL d   1       1.284   2.699   2.683  0.00  0.00     0.078 C 
ATOM      2  C1  UNL d   1      -0.064   2.074   2.483  0.00  0.00    -0.077 A 
ATOM      3  C2  UNL d   1      -1.099   2.777   1.853  0.00  0.00    -0.001 A 
ATOM      4  C3  UNL d   1      -2.352   2.186   1.682  0.00  0.00     0.003 A 
ATOM      5  C4  UNL d   1      -2.582   0.890   2.139  0.00  0.00    -0.005 A 
ATOM      6  C5  UNL d   1      -1.560   0.184   2.770  0.00  0.00     0.003 A 
ATOM      7  C6  UNL d   1      -0.306   0.773   2.941  0.00  0.00    -0.001 A 
ENDROOT
TORSDOF 0
ENDMDL
