MODEL 1
REMARK minimizedAffinity 8.15050888
REMARK minimizedRMSD -1
REMARK  0 active torsions:
REMARK  status: ('A' for Active; 'I' for Inactive)
ROOT
ATOM      1  C   UNL d   1       1.483  -0.445  -4.375  0.00  0.00     0.078 C 
ATOM      2  C1  UNL d   1       0.166  -0.893  -4.936  0.00  0.00    -0.077 A 
ATOM      3  C2  UNL d   1       0.009  -2.176  -5.472  0.00  0.00    -0.001 A 
ATOM      4  C3  UNL d   1      -1.220  -2.576  -6.000  0.00  0.00     0.003 A 
ATOM      5  C4  UNL d   1      -2.301  -1.698  -5.997  0.00  0.00    -0.005 A 
ATOM      6  C5  UNL d   1      -2.155  -0.417  -5.467  0.00  0.00     0.003 A 
ATOM      7  C6  UNL d   1      -0.926  -0.016  -4.939  0.00  0.00    -0.001 A 
ENDROOT
TORSDOF 0
ENDMDL
