MODEL 1
REMARK minimizedAffinity 3.43708611
REMARK minimizedRMSD -1
REMARK  0 active torsions:
REMARK  status: ('A' for Active; 'I' for Inactive)
ROOT
ATOM      1  C   UNL d   1      -1.635  -0.026  -5.992  0.00  0.00     0.078 C 
ATOM      2  C1  UNL d   1      -2.422  -1.302  -6.000  0.00  0.00    -0.077 A 
ATOM      3  C2  UNL d   1      -3.822  -1.286  -5.995  0.00  0.00    -0.001 A 
ATOM      4  C3  UNL d   1      -4.542  -2.482  -5.993  0.00  0.00     0.003 A 
ATOM      5  C4  UNL d   1      -3.871  -3.703  -5.995  0.00  0.00    -0.005 A 
ATOM      6  C5  UNL d   1      -2.478  -3.729  -5.998  0.00  0.00     0.003 A 
ATOM      7  C6  UNL d   1      -1.756  -2.534  -6.000  0.00  0.00    -0.001 A 
ENDROOT
TORSDOF 0
ENDMDL
