MODEL 1
REMARK minimizedAffinity 0.815711379
REMARK minimizedRMSD -1
REMARK  0 active torsions:
REMARK  status: ('A' for Active; 'I' for Inactive)
ROOT
ATOM      1  C   UNL d   1      -0.426   0.546   2.976  0.00  0.00     0.078 C 
ATOM      2  C1  UNL d   1      -1.897   0.488   2.694  0.00  0.00    -0.077 A 
ATOM      3  C2  UNL d   1      -2.824   0.320   3.730  0.00  0.00    -0.001 A 
ATOM      4  C3  UNL d   1      -4.190   0.258   3.452  0.00  0.00     0.003 A 
ATOM      5  C4  UNL d   1      -4.642   0.361   2.138  0.00  0.00    -0.005 A 
ATOM      6  C5  UNL d   1      -3.727   0.526   1.100  0.00  0.00     0.003 A 
ATOM      7  C6  UNL d   1      -2.361   0.588   1.376  0.00  0.00    -0.001 A 
ENDROOT
TORSDOF 0
ENDMDL
