MODEL 1
REMARK minimizedAffinity 8.37237549
REMARK minimizedRMSD -1
REMARK  0 active torsions:
REMARK  status: ('A' for Active; 'I' for Inactive)
ROOT
ATOM      1  C   UNL d   1      -1.796   1.214   1.785  0.00  0.00     0.078 C 
ATOM      2  C1  UNL d   1      -3.172   0.835   2.245  0.00  0.00    -0.077 A 
ATOM      3  C2  UNL d   1      -4.139   0.388   1.336  0.00  0.00    -0.001 A 
ATOM      4  C3  UNL d   1      -5.419   0.048   1.776  0.00  0.00     0.003 A 
ATOM      5  C4  UNL d   1      -5.744   0.152   3.127  0.00  0.00    -0.005 A 
ATOM      6  C5  UNL d   1      -4.790   0.597   4.039  0.00  0.00     0.003 A 
ATOM      7  C6  UNL d   1      -3.509   0.938   3.600  0.00  0.00    -0.001 A 
ENDROOT
TORSDOF 0
ENDMDL
