MODEL 1
REMARK minimizedAffinity 6.77413273
REMARK minimizedRMSD -1
REMARK  0 active torsions:
REMARK  status: ('A' for Active; 'I' for Inactive)
ROOT
ATOM      1  C   UNL d   1       1.650   3.617   3.961  0.00  0.00     0.023 A 
ATOM      2  C1  UNL d   1       2.467   2.883   3.101  0.00  0.00     0.003 A 
ATOM      3  C2  UNL d   1       1.909   1.921   2.256  0.00  0.00     0.048 A 
ATOM      4  C3  UNL d   1       0.532   1.699   2.277  0.00  0.00     0.023 A 
ATOM      5  C4  UNL d   1      -0.290   2.431   3.135  0.00  0.00     0.048 A 
ATOM      6  C5  UNL d   1       0.273   3.391   3.978  0.00  0.00     0.003 A 
ATOM      7  I   UNL d   1      -0.301   0.268   1.021  0.00  0.00    -0.146 I 
ENDROOT
TORSDOF 0
ENDMDL
