MODEL 1
REMARK minimizedAffinity -0.838767588
REMARK minimizedRMSD -1
REMARK  0 active torsions:
REMARK  status: ('A' for Active; 'I' for Inactive)
ROOT
ATOM      1  C   UNL d   1      -1.885   3.409   4.812  0.00  0.00     0.023 A 
ATOM      2  C1  UNL d   1      -0.502   3.573   4.891  0.00  0.00     0.003 A 
ATOM      3  C2  UNL d   1       0.315   3.131   3.849  0.00  0.00     0.048 A 
ATOM      4  C3  UNL d   1      -0.257   2.526   2.731  0.00  0.00     0.023 A 
ATOM      5  C4  UNL d   1      -1.640   2.361   2.647  0.00  0.00     0.048 A 
ATOM      6  C5  UNL d   1      -2.454   2.804   3.692  0.00  0.00     0.003 A 
ATOM      7  I   UNL d   1       0.958   1.867   1.178  0.00  0.00    -0.146 I 
ENDROOT
TORSDOF 0
ENDMDL
