MODEL 1
REMARK minimizedAffinity 0.874091744
REMARK minimizedRMSD -1
REMARK  0 active torsions:
REMARK  status: ('A' for Active; 'I' for Inactive)
ROOT
ATOM      1  C   UNL d   1      -1.631  -0.913   1.505  0.00  0.00     0.023 A 
ATOM      2  C1  UNL d   1      -1.873  -2.084   2.222  0.00  0.00     0.003 A 
ATOM      3  C2  UNL d   1      -3.099  -2.272   2.863  0.00  0.00     0.048 A 
ATOM      4  C3  UNL d   1      -4.080  -1.284   2.780  0.00  0.00     0.023 A 
ATOM      5  C4  UNL d   1      -3.843  -0.111   2.063  0.00  0.00     0.048 A 
ATOM      6  C5  UNL d   1      -2.615   0.073   1.425  0.00  0.00     0.003 A 
ATOM      7  I   UNL d   1      -5.907  -1.562   3.732  0.00  0.00    -0.146 I 
ENDROOT
TORSDOF 0
ENDMDL
