MODEL 1
REMARK minimizedAffinity -1.88525927
REMARK minimizedRMSD -1
REMARK  0 active torsions:
REMARK  status: ('A' for Active; 'I' for Inactive)
ROOT
ATOM      1  C   UNL d   1       0.827   1.817   1.006  0.00  0.00     0.023 A 
ATOM      2  C1  UNL d   1      -0.379   1.253   1.421  0.00  0.00     0.003 A 
ATOM      3  C2  UNL d   1      -1.076   1.806   2.497  0.00  0.00     0.048 A 
ATOM      4  C3  UNL d   1      -0.561   2.924   3.153  0.00  0.00     0.023 A 
ATOM      5  C4  UNL d   1       0.645   3.492   2.740  0.00  0.00     0.048 A 
ATOM      6  C5  UNL d   1       1.339   2.935   1.664  0.00  0.00     0.003 A 
ATOM      7  I   UNL d   1      -1.596   3.750   4.754  0.00  0.00    -0.146 I 
ENDROOT
TORSDOF 0
ENDMDL
