MODEL 1
REMARK minimizedAffinity 1.02824819
REMARK minimizedRMSD -1
REMARK  0 active torsions:
REMARK  status: ('A' for Active; 'I' for Inactive)
ROOT
ATOM      1  C   UNL d   1       0.936   2.141   0.727  0.00  0.00     0.023 A 
ATOM      2  C1  UNL d   1       1.577   3.078   1.536  0.00  0.00     0.003 A 
ATOM      3  C2  UNL d   1       0.936   3.578   2.671  0.00  0.00     0.048 A 
ATOM      4  C3  UNL d   1      -0.347   3.135   2.992  0.00  0.00     0.023 A 
ATOM      5  C4  UNL d   1      -0.992   2.196   2.186  0.00  0.00     0.048 A 
ATOM      6  C5  UNL d   1      -0.347   1.700   1.051  0.00  0.00     0.003 A 
ATOM      7  I   UNL d   1      -1.304   3.876   4.681  0.00  0.00    -0.146 I 
ENDROOT
TORSDOF 0
ENDMDL
