MODEL 1
REMARK minimizedAffinity -2.5922215
REMARK minimizedRMSD -1
REMARK  0 active torsions:
REMARK  status: ('A' for Active; 'I' for Inactive)
ROOT
ATOM      1  C   UNL d   1       0.799   4.659   3.187  0.00  0.00     0.023 A 
ATOM      2  C1  UNL d   1      -0.361   3.987   3.572  0.00  0.00     0.003 A 
ATOM      3  C2  UNL d   1      -0.744   2.817   2.913  0.00  0.00     0.048 A 
ATOM      4  C3  UNL d   1       0.038   2.324   1.869  0.00  0.00     0.023 A 
ATOM      5  C4  UNL d   1       1.200   2.993   1.480  0.00  0.00     0.048 A 
ATOM      6  C5  UNL d   1       1.578   4.162   2.142  0.00  0.00     0.003 A 
ATOM      7  I   UNL d   1      -0.530   0.583   0.886  0.00  0.00    -0.146 I 
ENDROOT
TORSDOF 0
ENDMDL
