MODEL 1
REMARK minimizedAffinity 5.55490255
REMARK minimizedRMSD -1
REMARK  0 active torsions:
REMARK  status: ('A' for Active; 'I' for Inactive)
ROOT
ATOM      1  C   UNL d   1       4.383   1.463  -4.251  0.00  0.00     0.023 A 
ATOM      2  C1  UNL d   1       4.909   1.807  -5.497  0.00  0.00     0.003 A 
ATOM      3  C2  UNL d   1       4.729   3.097  -6.000  0.00  0.00     0.048 A 
ATOM      4  C3  UNL d   1       4.023   4.039  -5.252  0.00  0.00     0.023 A 
ATOM      5  C4  UNL d   1       3.495   3.700  -4.005  0.00  0.00     0.048 A 
ATOM      6  C5  UNL d   1       3.677   2.408  -3.506  0.00  0.00     0.003 A 
ATOM      7  I   UNL d   1       3.753   5.959  -5.999  0.00  0.00    -0.146 I 
ENDROOT
TORSDOF 0
ENDMDL
