MODEL 1
REMARK minimizedAffinity -0.426636428
REMARK minimizedRMSD -1
REMARK  0 active torsions:
REMARK  status: ('A' for Active; 'I' for Inactive)
ROOT
ATOM      1  C   UNL d   1       1.174   1.684   1.309  0.00  0.00     0.023 A 
ATOM      2  C1  UNL d   1      -0.149   1.983   0.984  0.00  0.00     0.003 A 
ATOM      3  C2  UNL d   1      -0.937   2.724   1.867  0.00  0.00     0.048 A 
ATOM      4  C3  UNL d   1      -0.394   3.164   3.074  0.00  0.00     0.023 A 
ATOM      5  C4  UNL d   1       0.929   2.868   3.403  0.00  0.00     0.048 A 
ATOM      6  C5  UNL d   1       1.712   2.126   2.517  0.00  0.00     0.003 A 
ATOM      7  I   UNL d   1      -1.564   4.268   4.390  0.00  0.00    -0.146 I 
ENDROOT
TORSDOF 0
ENDMDL
