MODEL 1
REMARK minimizedAffinity 5.6147809
REMARK minimizedRMSD -1
REMARK  0 active torsions:
REMARK  status: ('A' for Active; 'I' for Inactive)
ROOT
ATOM      1  C   UNL d   1       4.569   5.146   6.000  0.00  0.00     0.023 A 
ATOM      2  C1  UNL d   1       3.388   5.878   5.875  0.00  0.00     0.003 A 
ATOM      3  C2  UNL d   1       2.318   5.359   5.144  0.00  0.00     0.048 A 
ATOM      4  C3  UNL d   1       2.435   4.108   4.540  0.00  0.00     0.023 A 
ATOM      5  C4  UNL d   1       3.614   3.371   4.663  0.00  0.00     0.048 A 
ATOM      6  C5  UNL d   1       4.682   3.894   5.394  0.00  0.00     0.003 A 
ATOM      7  I   UNL d   1       0.843   3.333   3.451  0.00  0.00    -0.146 I 
ENDROOT
TORSDOF 0
ENDMDL
