MODEL 1
REMARK minimizedAffinity 3.92750883
REMARK minimizedRMSD -1
REMARK  0 active torsions:
REMARK  status: ('A' for Active; 'I' for Inactive)
ROOT
ATOM      1  C   UNL d   1       5.407   4.829   4.078  0.00  0.00     0.023 A 
ATOM      2  C1  UNL d   1       4.744   3.945   4.930  0.00  0.00     0.003 A 
ATOM      3  C2  UNL d   1       3.388   3.672   4.737  0.00  0.00     0.048 A 
ATOM      4  C3  UNL d   1       2.702   4.284   3.689  0.00  0.00     0.023 A 
ATOM      5  C4  UNL d   1       3.361   5.168   2.833  0.00  0.00     0.048 A 
ATOM      6  C5  UNL d   1       4.717   5.439   3.031  0.00  0.00     0.003 A 
ATOM      7  I   UNL d   1       0.684   3.879   3.399  0.00  0.00    -0.146 I 
ENDROOT
TORSDOF 0
ENDMDL
