MODEL 1
REMARK minimizedAffinity 9.9758625
REMARK minimizedRMSD -1
REMARK  0 active torsions:
REMARK  status: ('A' for Active; 'I' for Inactive)
ROOT
ATOM      1  C   UNL d   1       0.860   3.872   3.420  0.00  0.00     0.023 A 
ATOM      2  C1  UNL d   1       1.185   3.580   2.095  0.00  0.00     0.003 A 
ATOM      3  C2  UNL d   1       0.558   2.518   1.439  0.00  0.00     0.048 A 
ATOM      4  C3  UNL d   1      -0.393   1.754   2.113  0.00  0.00     0.023 A 
ATOM      5  C4  UNL d   1      -0.722   2.043   3.438  0.00  0.00     0.048 A 
ATOM      6  C5  UNL d   1      -0.093   3.104   4.091  0.00  0.00     0.003 A 
ATOM      7  I   UNL d   1      -1.327   0.173   1.138  0.00  0.00    -0.146 I 
ENDROOT
TORSDOF 0
ENDMDL
