MODEL 1
REMARK minimizedAffinity 7.95910025
REMARK minimizedRMSD -1
REMARK  0 active torsions:
REMARK  status: ('A' for Active; 'I' for Inactive)
ROOT
ATOM      1  C   UNL d   1      -0.463   3.614   4.625  0.00  0.00     0.023 A 
ATOM      2  C1  UNL d   1       0.558   3.402   3.698  0.00  0.00     0.003 A 
ATOM      3  C2  UNL d   1       0.382   2.484   2.662  0.00  0.00     0.048 A 
ATOM      4  C3  UNL d   1      -0.818   1.781   2.557  0.00  0.00     0.023 A 
ATOM      5  C4  UNL d   1      -1.842   1.990   3.481  0.00  0.00     0.048 A 
ATOM      6  C5  UNL d   1      -1.661   2.909   4.517  0.00  0.00     0.003 A 
ATOM      7  I   UNL d   1      -1.082   0.414   1.014  0.00  0.00    -0.146 I 
ENDROOT
TORSDOF 0
ENDMDL
