MODEL 1
REMARK minimizedAffinity 9.30751324
REMARK minimizedRMSD -1
REMARK  0 active torsions:
REMARK  status: ('A' for Active; 'I' for Inactive)
ROOT
ATOM      1  C   UNL d   1       0.253  -4.084  -1.238  0.00  0.00     0.023 A 
ATOM      2  C1  UNL d   1       0.486  -3.483  -0.001  0.00  0.00     0.003 A 
ATOM      3  C2  UNL d   1       1.483  -2.514   0.129  0.00  0.00     0.048 A 
ATOM      4  C3  UNL d   1       2.241  -2.149  -0.982  0.00  0.00     0.023 A 
ATOM      5  C4  UNL d   1       2.011  -2.747  -2.222  0.00  0.00     0.048 A 
ATOM      6  C5  UNL d   1       1.014  -3.716  -2.347  0.00  0.00     0.003 A 
ATOM      7  I   UNL d   1       3.725  -0.706  -0.791  0.00  0.00    -0.146 I 
ENDROOT
TORSDOF 0
ENDMDL
