MODEL 1
REMARK minimizedAffinity -1.55877697
REMARK minimizedRMSD -1
REMARK  0 active torsions:
REMARK  status: ('A' for Active; 'I' for Inactive)
ROOT
ATOM      1  C   UNL d   1       2.618  -0.922  -2.958  0.00  0.00     0.124 A 
ATOM      2  C1  UNL d   1       2.415   0.285  -2.303  0.00  0.00     0.062 A 
ATOM      3  C2  UNL d   1       1.142   0.641  -1.869  0.00  0.00     0.162 A 
ATOM      4  C3  UNL d   1       0.060  -0.212  -2.087  0.00  0.00    -0.034 A 
ATOM      5  C4  UNL d   1       0.271  -1.424  -2.747  0.00  0.00     0.162 A 
ATOM      6  C5  UNL d   1       1.546  -1.775  -3.179  0.00  0.00     0.062 A 
ATOM      7  F   UNL d   1       1.739  -2.942  -3.812  0.00  0.00    -0.097 F 
ATOM      8  F1  UNL d   1      -0.747  -2.268  -2.974  0.00  0.00    -0.096 F 
ATOM      9  I   UNL d   1      -1.846   0.316  -1.439  0.00  0.00    -0.060 I 
ATOM     10  F2  UNL d   1       0.975   1.813  -1.238  0.00  0.00    -0.096 F 
ATOM     11  F3  UNL d   1       3.449   1.111  -2.088  0.00  0.00    -0.097 F 
ATOM     12  F4  UNL d   1       3.844  -1.261  -3.376  0.00  0.00    -0.092 F 
ENDROOT
TORSDOF 0
ENDMDL
