MODEL 1
REMARK minimizedAffinity -0.618832886
REMARK minimizedRMSD -1
REMARK  0 active torsions:
REMARK  status: ('A' for Active; 'I' for Inactive)
ROOT
ATOM      1  C   UNL d   1       2.572  -0.758  -3.855  0.00  0.00     0.124 A 
ATOM      2  C1  UNL d   1       1.415  -1.499  -4.050  0.00  0.00     0.062 A 
ATOM      3  C2  UNL d   1       0.260  -1.194  -3.336  0.00  0.00     0.162 A 
ATOM      4  C3  UNL d   1       0.256  -0.141  -2.420  0.00  0.00    -0.034 A 
ATOM      5  C4  UNL d   1       1.424   0.599  -2.229  0.00  0.00     0.162 A 
ATOM      6  C5  UNL d   1       2.576   0.290  -2.945  0.00  0.00     0.062 A 
ATOM      7  F   UNL d   1       3.693   1.007  -2.756  0.00  0.00    -0.097 F 
ATOM      8  F1  UNL d   1       1.455   1.618  -1.357  0.00  0.00    -0.096 F 
ATOM      9  I   UNL d   1      -1.469   0.318  -1.350  0.00  0.00    -0.060 I 
ATOM     10  F2  UNL d   1      -0.844  -1.927  -3.544  0.00  0.00    -0.096 F 
ATOM     11  F3  UNL d   1       1.409  -2.512  -4.928  0.00  0.00    -0.097 F 
ATOM     12  F4  UNL d   1       3.683  -1.054  -4.543  0.00  0.00    -0.092 F 
ENDROOT
TORSDOF 0
ENDMDL
