MODEL 1
REMARK minimizedAffinity -3.57401609
REMARK minimizedRMSD -1
REMARK  0 active torsions:
REMARK  status: ('A' for Active; 'I' for Inactive)
ROOT
ATOM      1  C   UNL d   1      -1.942   0.010   1.994  0.00  0.00     0.124 A 
ATOM      2  C1  UNL d   1      -0.614  -0.393   2.018  0.00  0.00     0.062 A 
ATOM      3  C2  UNL d   1       0.159  -0.324   0.862  0.00  0.00     0.162 A 
ATOM      4  C3  UNL d   1      -0.394   0.151  -0.327  0.00  0.00    -0.034 A 
ATOM      5  C4  UNL d   1      -1.731   0.554  -0.343  0.00  0.00     0.162 A 
ATOM      6  C5  UNL d   1      -2.499   0.483   0.815  0.00  0.00     0.062 A 
ATOM      7  F   UNL d   1      -3.782   0.872   0.791  0.00  0.00    -0.097 F 
ATOM      8  F1  UNL d   1      -2.294   1.016  -1.469  0.00  0.00    -0.096 F 
ATOM      9  I   UNL d   1       0.758   0.256  -2.057  0.00  0.00    -0.060 I 
ATOM     10  F2  UNL d   1       1.439  -0.720   0.913  0.00  0.00    -0.096 F 
ATOM     11  F3  UNL d   1      -0.073  -0.851   3.156  0.00  0.00    -0.097 F 
ATOM     12  F4  UNL d   1      -2.683  -0.059   3.108  0.00  0.00    -0.092 F 
ENDROOT
TORSDOF 0
ENDMDL
