MODEL 1
REMARK minimizedAffinity -0.227863327
REMARK minimizedRMSD -1
REMARK  0 active torsions:
REMARK  status: ('A' for Active; 'I' for Inactive)
ROOT
ATOM      1  C   UNL d   1      -1.048   0.371   1.149  0.00  0.00     0.124 A 
ATOM      2  C1  UNL d   1      -1.659   0.644  -0.067  0.00  0.00     0.062 A 
ATOM      3  C2  UNL d   1      -1.032   0.295  -1.259  0.00  0.00     0.162 A 
ATOM      4  C3  UNL d   1       0.214  -0.332  -1.242  0.00  0.00    -0.034 A 
ATOM      5  C4  UNL d   1       0.823  -0.603  -0.016  0.00  0.00     0.162 A 
ATOM      6  C5  UNL d   1       0.192  -0.252   1.174  0.00  0.00     0.062 A 
ATOM      7  F   UNL d   1       0.784  -0.517   2.347  0.00  0.00    -0.097 F 
ATOM      8  F1  UNL d   1       2.021  -1.204   0.037  0.00  0.00    -0.096 F 
ATOM      9  I   UNL d   1       1.155  -0.855  -3.023  0.00  0.00    -0.060 I 
ATOM     10  F2  UNL d   1      -1.646   0.571  -2.420  0.00  0.00    -0.096 F 
ATOM     11  F3  UNL d   1      -2.857   1.246  -0.093  0.00  0.00    -0.097 F 
ATOM     12  F4  UNL d   1      -1.653   0.708   2.295  0.00  0.00    -0.092 F 
ENDROOT
TORSDOF 0
ENDMDL
