MODEL 1
REMARK minimizedAffinity -1.96677339
REMARK minimizedRMSD -1
REMARK  0 active torsions:
REMARK  status: ('A' for Active; 'I' for Inactive)
ROOT
ATOM      1  C   UNL d   1      -1.610   0.143   2.296  0.00  0.00     0.124 A 
ATOM      2  C1  UNL d   1      -0.288  -0.275   2.230  0.00  0.00     0.062 A 
ATOM      3  C2  UNL d   1       0.375  -0.314   1.007  0.00  0.00     0.162 A 
ATOM      4  C3  UNL d   1      -0.284   0.067  -0.162  0.00  0.00    -0.034 A 
ATOM      5  C4  UNL d   1      -1.614   0.485  -0.089  0.00  0.00     0.162 A 
ATOM      6  C5  UNL d   1      -2.271   0.523   1.136  0.00  0.00     0.062 A 
ATOM      7  F   UNL d   1      -3.548   0.927   1.197  0.00  0.00    -0.097 F 
ATOM      8  F1  UNL d   1      -2.277   0.859  -1.194  0.00  0.00    -0.096 F 
ATOM      9  I   UNL d   1       0.703   0.010  -1.994  0.00  0.00    -0.060 I 
ATOM     10  F2  UNL d   1       1.652  -0.722   0.973  0.00  0.00    -0.096 F 
ATOM     11  F3  UNL d   1       0.354  -0.643   3.349  0.00  0.00    -0.097 F 
ATOM     12  F4  UNL d   1      -2.245   0.178   3.474  0.00  0.00    -0.092 F 
ENDROOT
TORSDOF 0
ENDMDL
