MODEL 1
REMARK minimizedAffinity 0.198196545
REMARK minimizedRMSD -1
REMARK  0 active torsions:
REMARK  status: ('A' for Active; 'I' for Inactive)
ROOT
ATOM      1  C   UNL d   1      -0.856  -0.415   2.596  0.00  0.00     0.124 A 
ATOM      2  C1  UNL d   1       0.407   0.094   2.323  0.00  0.00     0.062 A 
ATOM      3  C2  UNL d   1       0.694   0.615   1.065  0.00  0.00     0.162 A 
ATOM      4  C3  UNL d   1      -0.284   0.631   0.070  0.00  0.00    -0.034 A 
ATOM      5  C4  UNL d   1      -1.551   0.118   0.352  0.00  0.00     0.162 A 
ATOM      6  C5  UNL d   1      -1.833  -0.402   1.611  0.00  0.00     0.062 A 
ATOM      7  F   UNL d   1      -3.053  -0.893   1.873  0.00  0.00    -0.097 F 
ATOM      8  F1  UNL d   1      -2.514   0.118  -0.582  0.00  0.00    -0.096 F 
ATOM      9  I   UNL d   1       0.142   1.410  -1.813  0.00  0.00    -0.060 I 
ATOM     10  F2  UNL d   1       1.922   1.099   0.829  0.00  0.00    -0.096 F 
ATOM     11  F3  UNL d   1       1.352   0.082   3.273  0.00  0.00    -0.097 F 
ATOM     12  F4  UNL d   1      -1.129  -0.917   3.807  0.00  0.00    -0.092 F 
ENDROOT
TORSDOF 0
ENDMDL
