MODEL 1
REMARK minimizedAffinity -0.821109712
REMARK minimizedRMSD -1
REMARK  0 active torsions:
REMARK  status: ('A' for Active; 'I' for Inactive)
ROOT
ATOM      1  C   UNL d   1       0.853  -0.998  -3.123  0.00  0.00     0.124 A 
ATOM      2  C1  UNL d   1       1.343   0.021  -2.318  0.00  0.00     0.062 A 
ATOM      3  C2  UNL d   1       0.918   0.136  -0.998  0.00  0.00     0.162 A 
ATOM      4  C3  UNL d   1      -0.002  -0.771  -0.473  0.00  0.00    -0.034 A 
ATOM      5  C4  UNL d   1      -0.492  -1.793  -1.289  0.00  0.00     0.162 A 
ATOM      6  C5  UNL d   1      -0.063  -1.904  -2.608  0.00  0.00     0.062 A 
ATOM      7  F   UNL d   1      -0.538  -2.889  -3.384  0.00  0.00    -0.097 F 
ATOM      8  F1  UNL d   1      -1.377  -2.682  -0.817  0.00  0.00    -0.096 F 
ATOM      9  I   UNL d   1      -0.641  -0.603   1.501  0.00  0.00    -0.060 I 
ATOM     10  F2  UNL d   1       1.408   1.131  -0.243  0.00  0.00    -0.096 F 
ATOM     11  F3  UNL d   1       2.228   0.898  -2.813  0.00  0.00    -0.097 F 
ATOM     12  F4  UNL d   1       1.263  -1.105  -4.393  0.00  0.00    -0.092 F 
ENDROOT
TORSDOF 0
ENDMDL
