MODEL 1
REMARK minimizedAffinity -3.54511762
REMARK minimizedRMSD -1
REMARK  0 active torsions:
REMARK  status: ('A' for Active; 'I' for Inactive)
ROOT
ATOM      1  C   UNL d   1      -2.313  -0.424   2.057  0.00  0.00     0.124 A 
ATOM      2  C1  UNL d   1      -2.892  -0.007   0.866  0.00  0.00     0.062 A 
ATOM      3  C2  UNL d   1      -2.093   0.286  -0.235  0.00  0.00     0.162 A 
ATOM      4  C3  UNL d   1      -0.707   0.163  -0.152  0.00  0.00    -0.034 A 
ATOM      5  C4  UNL d   1      -0.132  -0.256   1.050  0.00  0.00     0.162 A 
ATOM      6  C5  UNL d   1      -0.934  -0.548   2.148  0.00  0.00     0.062 A 
ATOM      7  F   UNL d   1      -0.373  -0.950   3.297  0.00  0.00    -0.097 F 
ATOM      8  F1  UNL d   1       1.198  -0.385   1.165  0.00  0.00    -0.096 F 
ATOM      9  I   UNL d   1       0.491   0.600  -1.797  0.00  0.00    -0.060 I 
ATOM     10  F2  UNL d   1      -2.680   0.686  -1.373  0.00  0.00    -0.096 F 
ATOM     11  F3  UNL d   1      -4.224   0.114   0.777  0.00  0.00    -0.097 F 
ATOM     12  F4  UNL d   1      -3.084  -0.704   3.116  0.00  0.00    -0.092 F 
ENDROOT
TORSDOF 0
ENDMDL
