MODEL 1
REMARK minimizedAffinity -1.08841169
REMARK minimizedRMSD -1
REMARK  0 active torsions:
REMARK  status: ('A' for Active; 'I' for Inactive)
ROOT
ATOM      1  C   UNL d   1       2.776  -0.951  -3.398  0.00  0.00     0.124 A 
ATOM      2  C1  UNL d   1       2.580   0.184  -2.624  0.00  0.00     0.062 A 
ATOM      3  C2  UNL d   1       1.370   0.383  -1.966  0.00  0.00     0.162 A 
ATOM      4  C3  UNL d   1       0.345  -0.557  -2.079  0.00  0.00    -0.034 A 
ATOM      5  C4  UNL d   1       0.549  -1.696  -2.860  0.00  0.00     0.162 A 
ATOM      6  C5  UNL d   1       1.761  -1.890  -3.515  0.00  0.00     0.062 A 
ATOM      7  F   UNL d   1       1.949  -2.987  -4.263  0.00  0.00    -0.097 F 
ATOM      8  F1  UNL d   1      -0.414  -2.620  -2.990  0.00  0.00    -0.096 F 
ATOM      9  I   UNL d   1      -1.466  -0.264  -1.097  0.00  0.00    -0.060 I 
ATOM     10  F2  UNL d   1       1.208   1.489  -1.225  0.00  0.00    -0.096 F 
ATOM     11  F3  UNL d   1       3.559   1.093  -2.510  0.00  0.00    -0.097 F 
ATOM     12  F4  UNL d   1       3.942  -1.139  -4.030  0.00  0.00    -0.092 F 
ENDROOT
TORSDOF 0
ENDMDL
