MODEL 1
REMARK minimizedAffinity -2.38766527
REMARK minimizedRMSD -1
REMARK  0 active torsions:
REMARK  status: ('A' for Active; 'I' for Inactive)
ROOT
ATOM      1  C   UNL d   1       0.084   0.003  -2.189  0.00  0.00     0.124 A 
ATOM      2  C1  UNL d   1       1.037  -0.754  -1.522  0.00  0.00     0.062 A 
ATOM      3  C2  UNL d   1       0.980  -0.891  -0.138  0.00  0.00     0.162 A 
ATOM      4  C3  UNL d   1      -0.035  -0.269   0.589  0.00  0.00    -0.034 A 
ATOM      5  C4  UNL d   1      -0.990   0.491  -0.088  0.00  0.00     0.162 A 
ATOM      6  C5  UNL d   1      -0.928   0.625  -1.472  0.00  0.00     0.062 A 
ATOM      7  F   UNL d   1      -1.850   1.357  -2.114  0.00  0.00    -0.097 F 
ATOM      8  F1  UNL d   1      -1.980   1.102   0.580  0.00  0.00    -0.096 F 
ATOM      9  I   UNL d   1      -0.125  -0.471   2.659  0.00  0.00    -0.060 I 
ATOM     10  F2  UNL d   1       1.914  -1.628   0.480  0.00  0.00    -0.096 F 
ATOM     11  F3  UNL d   1       2.017  -1.356  -2.212  0.00  0.00    -0.097 F 
ATOM     12  F4  UNL d   1       0.142   0.133  -3.520  0.00  0.00    -0.092 F 
ENDROOT
TORSDOF 0
ENDMDL
