MODEL 1
REMARK minimizedAffinity 0.0778801739
REMARK minimizedRMSD -1
REMARK  0 active torsions:
REMARK  status: ('A' for Active; 'I' for Inactive)
ROOT
ATOM      1  C   UNL d   1      -1.577  -0.659   1.829  0.00  0.00     0.124 A 
ATOM      2  C1  UNL d   1      -2.144  -0.051   0.718  0.00  0.00     0.062 A 
ATOM      3  C2  UNL d   1      -1.379   0.180  -0.421  0.00  0.00     0.162 A 
ATOM      4  C3  UNL d   1      -0.036  -0.198  -0.455  0.00  0.00    -0.034 A 
ATOM      5  C4  UNL d   1       0.528  -0.808   0.667  0.00  0.00     0.162 A 
ATOM      6  C5  UNL d   1      -0.242  -1.037   1.803  0.00  0.00     0.062 A 
ATOM      7  F   UNL d   1       0.308  -1.624   2.875  0.00  0.00    -0.097 F 
ATOM      8  F1  UNL d   1       1.815  -1.184   0.668  0.00  0.00    -0.096 F 
ATOM      9  I   UNL d   1       1.112   0.147  -2.156  0.00  0.00    -0.060 I 
ATOM     10  F2  UNL d   1      -1.953   0.770  -1.480  0.00  0.00    -0.096 F 
ATOM     11  F3  UNL d   1      -3.434   0.316   0.742  0.00  0.00    -0.097 F 
ATOM     12  F4  UNL d   1      -2.316  -0.879   2.924  0.00  0.00    -0.092 F 
ENDROOT
TORSDOF 0
ENDMDL
