MODEL 1
REMARK minimizedAffinity -3.29129577
REMARK minimizedRMSD -1
REMARK  0 active torsions:
REMARK  status: ('A' for Active; 'I' for Inactive)
ROOT
ATOM      1  C   UNL d   1      -1.162  -0.260   2.550  0.00  0.00     0.124 A 
ATOM      2  C1  UNL d   1       0.192  -0.005   2.380  0.00  0.00     0.062 A 
ATOM      3  C2  UNL d   1       0.701   0.259   1.112  0.00  0.00     0.162 A 
ATOM      4  C3  UNL d   1      -0.145   0.270   0.003  0.00  0.00    -0.034 A 
ATOM      5  C4  UNL d   1      -1.505   0.011   0.181  0.00  0.00     0.162 A 
ATOM      6  C5  UNL d   1      -2.009  -0.252   1.451  0.00  0.00     0.062 A 
ATOM      7  F   UNL d   1      -3.317  -0.499   1.613  0.00  0.00    -0.097 F 
ATOM      8  F1  UNL d   1      -2.346   0.014  -0.864  0.00  0.00    -0.096 F 
ATOM      9  I   UNL d   1       0.612   0.664  -1.895  0.00  0.00    -0.060 I 
ATOM     10  F2  UNL d   1       2.013   0.503   0.978  0.00  0.00    -0.096 F 
ATOM     11  F3  UNL d   1       1.013  -0.013   3.441  0.00  0.00    -0.097 F 
ATOM     12  F4  UNL d   1      -1.648  -0.515   3.772  0.00  0.00    -0.092 F 
ENDROOT
TORSDOF 0
ENDMDL
