MODEL 1
REMARK minimizedAffinity -1.28028524
REMARK minimizedRMSD -1
REMARK  0 active torsions:
REMARK  status: ('A' for Active; 'I' for Inactive)
ROOT
ATOM      1  C   UNL d   1       2.556  -0.736  -3.558  0.00  0.00     0.124 A 
ATOM      2  C1  UNL d   1       2.485   0.406  -2.772  0.00  0.00     0.062 A 
ATOM      3  C2  UNL d   1       1.483   0.536  -1.815  0.00  0.00     0.162 A 
ATOM      4  C3  UNL d   1       0.543  -0.480  -1.637  0.00  0.00    -0.034 A 
ATOM      5  C4  UNL d   1       0.621  -1.625  -2.432  0.00  0.00     0.162 A 
ATOM      6  C5  UNL d   1       1.624  -1.750  -3.387  0.00  0.00     0.062 A 
ATOM      7  F   UNL d   1       1.691  -2.855  -4.145  0.00  0.00    -0.097 F 
ATOM      8  F1  UNL d   1      -0.266  -2.621  -2.287  0.00  0.00    -0.096 F 
ATOM      9  I   UNL d   1      -0.957  -0.289  -0.207  0.00  0.00    -0.060 I 
ATOM     10  F2  UNL d   1       1.438   1.650  -1.070  0.00  0.00    -0.096 F 
ATOM     11  F3  UNL d   1       3.383   1.387  -2.936  0.00  0.00    -0.097 F 
ATOM     12  F4  UNL d   1       3.521  -0.858  -4.479  0.00  0.00    -0.092 F 
ENDROOT
TORSDOF 0
ENDMDL
