MODEL 1
REMARK minimizedAffinity 2.87926173
REMARK minimizedRMSD -1
REMARK  0 active torsions:
REMARK  status: ('A' for Active; 'I' for Inactive)
ROOT
ATOM      1  C   UNL d   1      -0.687   0.035   2.849  0.00  0.00     0.124 A 
ATOM      2  C1  UNL d   1      -1.158  -0.865   1.903  0.00  0.00     0.062 A 
ATOM      3  C2  UNL d   1      -0.599  -0.898   0.629  0.00  0.00     0.162 A 
ATOM      4  C3  UNL d   1       0.439  -0.029   0.293  0.00  0.00    -0.034 A 
ATOM      5  C4  UNL d   1       0.906   0.875   1.249  0.00  0.00     0.162 A 
ATOM      6  C5  UNL d   1       0.344   0.904   2.521  0.00  0.00     0.062 A 
ATOM      7  F   UNL d   1       0.800   1.775   3.434  0.00  0.00    -0.097 F 
ATOM      8  F1  UNL d   1       1.903   1.725   0.960  0.00  0.00    -0.096 F 
ATOM      9  I   UNL d   1       1.278  -0.075  -1.611  0.00  0.00    -0.060 I 
ATOM     10  F2  UNL d   1      -1.074  -1.778  -0.265  0.00  0.00    -0.096 F 
ATOM     11  F3  UNL d   1      -2.155  -1.704   2.217  0.00  0.00    -0.097 F 
ATOM     12  F4  UNL d   1      -1.228   0.066   4.074  0.00  0.00    -0.092 F 
ENDROOT
TORSDOF 0
ENDMDL
