MODEL 1
REMARK minimizedAffinity 8.53741455
REMARK minimizedRMSD -1
REMARK  0 active torsions:
REMARK  status: ('A' for Active; 'I' for Inactive)
ROOT
ATOM      1  C   UNL d   1       5.998   0.716   5.999  0.00  0.00     0.077 C 
ATOM      2  C1  UNL d   1       5.432   1.665   4.985  0.00  0.00    -0.074 A 
ATOM      3  C2  UNL d   1       4.527   1.224   4.014  0.00  0.00    -0.005 A 
ATOM      4  C3  UNL d   1       4.002   2.121   3.084  0.00  0.00     0.006 A 
ATOM      5  C4  UNL d   1       4.376   3.465   3.114  0.00  0.00    -0.005 A 
ATOM      6  C5  UNL d   1       5.280   3.924   4.078  0.00  0.00    -0.074 A 
ATOM      7  C6  UNL d   1       5.685   5.367   4.130  0.00  0.00     0.077 C 
ATOM      8  C7  UNL d   1       5.798   3.018   5.014  0.00  0.00    -0.001 A 
ENDROOT
TORSDOF 0
ENDMDL
