MODEL 1
REMARK minimizedAffinity 3.51101851
REMARK minimizedRMSD -1
REMARK  0 active torsions:
REMARK  status: ('A' for Active; 'I' for Inactive)
ROOT
ATOM      1  C   UNL d   1       5.997   0.771   5.911  0.00  0.00     0.077 C 
ATOM      2  C1  UNL d   1       5.296   0.658   4.589  0.00  0.00    -0.074 A 
ATOM      3  C2  UNL d   1       5.084  -0.589   3.993  0.00  0.00    -0.005 A 
ATOM      4  C3  UNL d   1       4.422  -0.680   2.769  0.00  0.00     0.006 A 
ATOM      5  C4  UNL d   1       3.967   0.474   2.129  0.00  0.00    -0.005 A 
ATOM      6  C5  UNL d   1       4.169   1.729   2.710  0.00  0.00    -0.074 A 
ATOM      7  C6  UNL d   1       3.677   2.978   2.041  0.00  0.00     0.077 C 
ATOM      8  C7  UNL d   1       4.829   1.812   3.944  0.00  0.00    -0.001 A 
ENDROOT
TORSDOF 0
ENDMDL
