MODEL 1
REMARK minimizedAffinity -3.27302051
REMARK minimizedRMSD -1
REMARK  0 active torsions:
REMARK  status: ('A' for Active; 'I' for Inactive)
ROOT
ATOM      1  C   UNL d   1      -2.562   2.788   0.363  0.00  0.00     0.077 C 
ATOM      2  C1  UNL d   1      -2.531   1.429   0.996  0.00  0.00    -0.074 A 
ATOM      3  C2  UNL d   1      -2.841   1.259   2.349  0.00  0.00    -0.005 A 
ATOM      4  C3  UNL d   1      -2.818  -0.013   2.921  0.00  0.00     0.006 A 
ATOM      5  C4  UNL d   1      -2.485  -1.126   2.148  0.00  0.00    -0.005 A 
ATOM      6  C5  UNL d   1      -2.174  -0.975   0.793  0.00  0.00    -0.074 A 
ATOM      7  C6  UNL d   1      -1.824  -2.162  -0.055  0.00  0.00     0.077 C 
ATOM      8  C7  UNL d   1      -2.206   0.305   0.223  0.00  0.00    -0.001 A 
ENDROOT
TORSDOF 0
ENDMDL
