MODEL 1
REMARK minimizedAffinity 2.24112105
REMARK minimizedRMSD -1
REMARK  0 active torsions:
REMARK  status: ('A' for Active; 'I' for Inactive)
ROOT
ATOM      1  C   UNL d   1      -3.359   5.633  -0.372  0.00  0.00     0.077 C 
ATOM      2  C1  UNL d   1      -2.992   4.180  -0.301  0.00  0.00    -0.074 A 
ATOM      3  C2  UNL d   1      -3.904   3.230   0.170  0.00  0.00    -0.005 A 
ATOM      4  C3  UNL d   1      -3.551   1.882   0.221  0.00  0.00     0.006 A 
ATOM      5  C4  UNL d   1      -2.285   1.470  -0.197  0.00  0.00    -0.005 A 
ATOM      6  C5  UNL d   1      -1.360   2.406  -0.672  0.00  0.00    -0.074 A 
ATOM      7  C6  UNL d   1       0.001   1.979  -1.134  0.00  0.00     0.077 C 
ATOM      8  C7  UNL d   1      -1.724   3.758  -0.727  0.00  0.00    -0.001 A 
ENDROOT
TORSDOF 0
ENDMDL
