MODEL 1
REMARK minimizedAffinity -3.29308224
REMARK minimizedRMSD -1
REMARK  0 active torsions:
REMARK  status: ('A' for Active; 'I' for Inactive)
ROOT
ATOM      1  C   UNL d   1      -1.756   0.203   3.358  0.00  0.00     0.077 C 
ATOM      2  C1  UNL d   1      -2.396   0.501   2.034  0.00  0.00    -0.074 A 
ATOM      3  C2  UNL d   1      -2.994  -0.514   1.280  0.00  0.00    -0.005 A 
ATOM      4  C3  UNL d   1      -3.593  -0.221   0.056  0.00  0.00     0.006 A 
ATOM      5  C4  UNL d   1      -3.600   1.088  -0.428  0.00  0.00    -0.005 A 
ATOM      6  C5  UNL d   1      -3.008   2.116   0.312  0.00  0.00    -0.074 A 
ATOM      7  C6  UNL d   1      -3.015   3.530  -0.188  0.00  0.00     0.077 C 
ATOM      8  C7  UNL d   1      -2.414   1.815   1.546  0.00  0.00    -0.001 A 
ENDROOT
TORSDOF 0
ENDMDL
