MODEL 1
REMARK minimizedAffinity 2.53390241
REMARK minimizedRMSD -1
REMARK  0 active torsions:
REMARK  status: ('A' for Active; 'I' for Inactive)
ROOT
ATOM      1  C   UNL d   1      -1.504  -1.804   0.094  0.00  0.00     0.077 C 
ATOM      2  C1  UNL d   1      -1.524  -0.350  -0.274  0.00  0.00    -0.074 A 
ATOM      3  C2  UNL d   1      -0.341   0.329  -0.585  0.00  0.00    -0.005 A 
ATOM      4  C3  UNL d   1      -0.376   1.679  -0.936  0.00  0.00     0.006 A 
ATOM      5  C4  UNL d   1      -1.592   2.362  -0.979  0.00  0.00    -0.005 A 
ATOM      6  C5  UNL d   1      -2.785   1.700  -0.672  0.00  0.00    -0.074 A 
ATOM      7  C6  UNL d   1      -4.101   2.417  -0.723  0.00  0.00     0.077 C 
ATOM      8  C7  UNL d   1      -2.742   0.342  -0.328  0.00  0.00    -0.001 A 
ENDROOT
TORSDOF 0
ENDMDL
