MODEL 1
REMARK minimizedAffinity -2.16009641
REMARK minimizedRMSD -1
REMARK  0 active torsions:
REMARK  status: ('A' for Active; 'I' for Inactive)
ROOT
ATOM      1  C   UNL d   1      -2.938   2.390   0.046  0.00  0.00     0.077 C 
ATOM      2  C1  UNL d   1      -2.657   1.193   0.904  0.00  0.00    -0.074 A 
ATOM      3  C2  UNL d   1      -2.935   1.209   2.275  0.00  0.00    -0.005 A 
ATOM      4  C3  UNL d   1      -2.677   0.084   3.058  0.00  0.00     0.006 A 
ATOM      5  C4  UNL d   1      -2.141  -1.067   2.480  0.00  0.00    -0.005 A 
ATOM      6  C5  UNL d   1      -1.858  -1.102   1.111  0.00  0.00    -0.074 A 
ATOM      7  C6  UNL d   1      -1.290  -2.335   0.472  0.00  0.00     0.077 C 
ATOM      8  C7  UNL d   1      -2.126   0.030   0.329  0.00  0.00    -0.001 A 
ENDROOT
TORSDOF 0
ENDMDL
