MODEL 1
REMARK minimizedAffinity 0.999145567
REMARK minimizedRMSD -1
REMARK  0 active torsions:
REMARK  status: ('A' for Active; 'I' for Inactive)
ROOT
ATOM      1  C   UNL d   1       2.894  -1.369   2.410  0.00  0.00     0.077 C 
ATOM      2  C1  UNL d   1       3.958  -0.405   2.846  0.00  0.00    -0.074 A 
ATOM      3  C2  UNL d   1       5.008  -0.819   3.672  0.00  0.00    -0.005 A 
ATOM      4  C3  UNL d   1       5.995   0.086   4.061  0.00  0.00     0.006 A 
ATOM      5  C4  UNL d   1       5.942   1.412   3.630  0.00  0.00    -0.005 A 
ATOM      6  C5  UNL d   1       4.900   1.844   2.803  0.00  0.00    -0.074 A 
ATOM      7  C6  UNL d   1       4.833   3.263   2.322  0.00  0.00     0.077 C 
ATOM      8  C7  UNL d   1       3.916   0.926   2.410  0.00  0.00    -0.001 A 
ENDROOT
TORSDOF 0
ENDMDL
