MODEL 1
REMARK minimizedAffinity 14.4526148
REMARK minimizedRMSD -1
REMARK  0 active torsions:
REMARK  status: ('A' for Active; 'I' for Inactive)
ROOT
ATOM      1  C   UNL d   1       5.999   1.219   5.965  0.00  0.00     0.077 C 
ATOM      2  C1  UNL d   1       5.314   0.444   4.879  0.00  0.00    -0.074 A 
ATOM      3  C2  UNL d   1       6.000   0.075   3.717  0.00  0.00    -0.005 A 
ATOM      4  C3  UNL d   1       5.353  -0.653   2.719  0.00  0.00     0.006 A 
ATOM      5  C4  UNL d   1       4.015  -1.020   2.873  0.00  0.00    -0.005 A 
ATOM      6  C5  UNL d   1       3.313  -0.661   4.028  0.00  0.00    -0.074 A 
ATOM      7  C6  UNL d   1       1.878  -1.056   4.213  0.00  0.00     0.077 C 
ATOM      8  C7  UNL d   1       3.973   0.065   5.029  0.00  0.00    -0.001 A 
ENDROOT
TORSDOF 0
ENDMDL
