MODEL 1
REMARK minimizedAffinity 2.36162806
REMARK minimizedRMSD -1
REMARK  0 active torsions:
REMARK  status: ('A' for Active; 'I' for Inactive)
ROOT
ATOM      1  C   UNL d   1       3.376   2.325   1.101  0.00  0.00     0.077 C 
ATOM      2  C1  UNL d   1       4.296   2.115   2.267  0.00  0.00    -0.074 A 
ATOM      3  C2  UNL d   1       4.743   3.196   3.034  0.00  0.00    -0.005 A 
ATOM      4  C3  UNL d   1       5.591   2.984   4.121  0.00  0.00     0.006 A 
ATOM      5  C4  UNL d   1       5.999   1.692   4.452  0.00  0.00    -0.005 A 
ATOM      6  C5  UNL d   1       5.562   0.599   3.698  0.00  0.00    -0.074 A 
ATOM      7  C6  UNL d   1       5.984  -0.798   4.046  0.00  0.00     0.077 C 
ATOM      8  C7  UNL d   1       4.705   0.819   2.611  0.00  0.00    -0.001 A 
ENDROOT
TORSDOF 0
ENDMDL
