MODEL 1
REMARK minimizedAffinity 1.9313798
REMARK minimizedRMSD -1
REMARK  0 active torsions:
REMARK  status: ('A' for Active; 'I' for Inactive)
ROOT
ATOM      1  C   UNL d   1      -3.823   0.936   4.894  0.00  0.00     0.077 C 
ATOM      2  C1  UNL d   1      -3.377   0.011   3.800  0.00  0.00    -0.074 A 
ATOM      3  C2  UNL d   1      -2.660  -1.154   4.092  0.00  0.00    -0.005 A 
ATOM      4  C3  UNL d   1      -2.260  -2.010   3.066  0.00  0.00     0.006 A 
ATOM      5  C4  UNL d   1      -2.573  -1.710   1.739  0.00  0.00    -0.005 A 
ATOM      6  C5  UNL d   1      -3.290  -0.550   1.428  0.00  0.00    -0.074 A 
ATOM      7  C6  UNL d   1      -3.643  -0.218   0.009  0.00  0.00     0.077 C 
ATOM      8  C7  UNL d   1      -3.694   0.301   2.466  0.00  0.00    -0.001 A 
ENDROOT
TORSDOF 0
ENDMDL
