MODEL 1
REMARK minimizedAffinity 0.0653648302
REMARK minimizedRMSD -1
REMARK  0 active torsions:
REMARK  status: ('A' for Active; 'I' for Inactive)
ROOT
ATOM      1  C   UNL d   1       4.489   1.879   1.994  0.00  0.00     0.077 C 
ATOM      2  C1  UNL d   1       5.010   2.471   3.270  0.00  0.00    -0.074 A 
ATOM      3  C2  UNL d   1       5.280   1.663   4.379  0.00  0.00    -0.005 A 
ATOM      4  C3  UNL d   1       5.773   2.227   5.556  0.00  0.00     0.006 A 
ATOM      5  C4  UNL d   1       6.000   3.601   5.636  0.00  0.00    -0.005 A 
ATOM      6  C5  UNL d   1       5.736   4.425   4.537  0.00  0.00    -0.074 A 
ATOM      7  C6  UNL d   1       5.984   5.902   4.602  0.00  0.00     0.077 C 
ATOM      8  C7  UNL d   1       5.248   3.850   3.355  0.00  0.00    -0.001 A 
ENDROOT
TORSDOF 0
ENDMDL
