MODEL 1
REMARK minimizedAffinity 12.6674719
REMARK minimizedRMSD -1
REMARK  0 active torsions:
REMARK  status: ('A' for Active; 'I' for Inactive)
ROOT
ATOM      1  C   UNL d   1       5.999  -0.115   4.167  0.00  0.00     0.077 C 
ATOM      2  C1  UNL d   1       5.333   1.099   3.590  0.00  0.00    -0.074 A 
ATOM      3  C2  UNL d   1       4.304   0.976   2.651  0.00  0.00    -0.005 A 
ATOM      4  C3  UNL d   1       3.687   2.113   2.130  0.00  0.00     0.006 A 
ATOM      5  C4  UNL d   1       4.093   3.383   2.543  0.00  0.00    -0.005 A 
ATOM      6  C5  UNL d   1       5.119   3.526   3.482  0.00  0.00    -0.074 A 
ATOM      7  C6  UNL d   1       5.560   4.883   3.943  0.00  0.00     0.077 C 
ATOM      8  C7  UNL d   1       5.729   2.378   4.006  0.00  0.00    -0.001 A 
ENDROOT
TORSDOF 0
ENDMDL
