MODEL 1
REMARK minimizedAffinity 0.61116761
REMARK minimizedRMSD -1
REMARK  0 active torsions:
REMARK  status: ('A' for Active; 'I' for Inactive)
ROOT
ATOM      1  C   UNL d   1       5.978   5.234   4.097  0.00  0.00     0.077 C 
ATOM      2  C1  UNL d   1       5.496   3.819   3.981  0.00  0.00    -0.074 A 
ATOM      3  C2  UNL d   1       4.616   3.440   2.961  0.00  0.00    -0.005 A 
ATOM      4  C3  UNL d   1       4.184   2.118   2.860  0.00  0.00     0.006 A 
ATOM      5  C4  UNL d   1       4.626   1.162   3.776  0.00  0.00    -0.005 A 
ATOM      6  C5  UNL d   1       5.506   1.522   4.802  0.00  0.00    -0.074 A 
ATOM      7  C6  UNL d   1       5.999   0.506   5.788  0.00  0.00     0.077 C 
ATOM      8  C7  UNL d   1       5.942   2.851   4.892  0.00  0.00    -0.001 A 
ENDROOT
TORSDOF 0
ENDMDL
