MODEL 1
REMARK minimizedAffinity 0.521479368
REMARK minimizedRMSD -1
REMARK  0 active torsions:
REMARK  status: ('A' for Active; 'I' for Inactive)
ROOT
ATOM      1  C   UNL d   1       4.104   2.691   2.245  0.00  0.00     0.077 C 
ATOM      2  C1  UNL d   1       4.471   1.468   3.031  0.00  0.00    -0.074 A 
ATOM      3  C2  UNL d   1       5.676   1.402   3.737  0.00  0.00    -0.005 A 
ATOM      4  C3  UNL d   1       6.000   0.261   4.471  0.00  0.00     0.006 A 
ATOM      5  C4  UNL d   1       5.123  -0.823   4.507  0.00  0.00    -0.005 A 
ATOM      6  C5  UNL d   1       3.913  -0.775   3.808  0.00  0.00    -0.074 A 
ATOM      7  C6  UNL d   1       2.954  -1.929   3.844  0.00  0.00     0.077 C 
ATOM      8  C7  UNL d   1       3.592   0.377   3.078  0.00  0.00    -0.001 A 
ENDROOT
TORSDOF 0
ENDMDL
