MODEL 1
REMARK minimizedAffinity -1.13085091
REMARK minimizedRMSD -1
REMARK  0 active torsions:
REMARK  status: ('A' for Active; 'I' for Inactive)
ROOT
ATOM      1  C   UNL d   1      -0.011  -1.478  -0.288  0.00  0.00     0.077 C 
ATOM      2  C1  UNL d   1       1.304  -1.659   0.411  0.00  0.00    -0.074 A 
ATOM      3  C2  UNL d   1       1.946  -2.901   0.423  0.00  0.00    -0.005 A 
ATOM      4  C3  UNL d   1       3.173  -3.052   1.069  0.00  0.00     0.006 A 
ATOM      5  C4  UNL d   1       3.769  -1.964   1.707  0.00  0.00    -0.005 A 
ATOM      6  C5  UNL d   1       3.142  -0.714   1.705  0.00  0.00    -0.074 A 
ATOM      7  C6  UNL d   1       3.774   0.468   2.378  0.00  0.00     0.077 C 
ATOM      8  C7  UNL d   1       1.913  -0.569   1.048  0.00  0.00    -0.001 A 
ENDROOT
TORSDOF 0
ENDMDL
