MODEL 1
REMARK minimizedAffinity 5.81627226
REMARK minimizedRMSD -1
REMARK  0 active torsions:
REMARK  status: ('A' for Active; 'I' for Inactive)
ROOT
ATOM      1  C   UNL d   1       3.622   1.853   1.116  0.00  0.00     0.077 C 
ATOM      2  C1  UNL d   1       4.445   1.917   2.368  0.00  0.00    -0.074 A 
ATOM      3  C2  UNL d   1       4.855   0.749   3.019  0.00  0.00    -0.005 A 
ATOM      4  C3  UNL d   1       5.628   0.824   4.177  0.00  0.00     0.006 A 
ATOM      5  C4  UNL d   1       5.999   2.065   4.695  0.00  0.00    -0.005 A 
ATOM      6  C5  UNL d   1       5.600   3.244   4.057  0.00  0.00    -0.074 A 
ATOM      7  C6  UNL d   1       5.999   4.586   4.595  0.00  0.00     0.077 C 
ATOM      8  C7  UNL d   1       4.829   3.160   2.890  0.00  0.00    -0.001 A 
ENDROOT
TORSDOF 0
ENDMDL
