MODEL 1
REMARK minimizedAffinity -1.60386074
REMARK minimizedRMSD -1
REMARK  0 active torsions:
REMARK  status: ('A' for Active; 'I' for Inactive)
ROOT
ATOM      1  C   UNL d   1      -1.397  -2.144   0.296  0.00  0.00     0.077 C 
ATOM      2  C1  UNL d   1      -2.243  -1.526   1.369  0.00  0.00    -0.074 A 
ATOM      3  C2  UNL d   1      -1.659  -0.941   2.498  0.00  0.00    -0.005 A 
ATOM      4  C3  UNL d   1      -2.459  -0.362   3.483  0.00  0.00     0.006 A 
ATOM      5  C4  UNL d   1      -3.848  -0.361   3.350  0.00  0.00    -0.005 A 
ATOM      6  C5  UNL d   1      -4.449  -0.940   2.228  0.00  0.00    -0.074 A 
ATOM      7  C6  UNL d   1      -5.940  -0.940   2.065  0.00  0.00     0.077 C 
ATOM      8  C7  UNL d   1      -3.639  -1.514   1.239  0.00  0.00    -0.001 A 
ENDROOT
TORSDOF 0
ENDMDL
