MODEL 1
REMARK minimizedAffinity -2.42440629
REMARK minimizedRMSD -1
REMARK  0 active torsions:
REMARK  status: ('A' for Active; 'I' for Inactive)
ROOT
ATOM      1  C   UNL d   1       2.855  -0.130   1.026  0.00  0.00     0.023 A 
ATOM      2  C1  UNL d   1       2.153  -1.296   0.721  0.00  0.00     0.003 A 
ATOM      3  C2  UNL d   1       0.855  -1.218   0.212  0.00  0.00     0.048 A 
ATOM      4  C3  UNL d   1       0.266   0.029   0.009  0.00  0.00     0.023 A 
ATOM      5  C4  UNL d   1       0.965   1.199   0.311  0.00  0.00     0.048 A 
ATOM      6  C5  UNL d   1       2.262   1.116   0.821  0.00  0.00     0.003 A 
ATOM      7  I   UNL d   1      -1.665   0.147  -0.750  0.00  0.00    -0.146 I 
ENDROOT
TORSDOF 0
ENDMDL
