MODEL 1
REMARK minimizedAffinity -2.15014386
REMARK minimizedRMSD -1
REMARK  0 active torsions:
REMARK  status: ('A' for Active; 'I' for Inactive)
ROOT
ATOM      1  C   UNL d   1       2.426   0.055   1.096  0.00  0.00     0.023 A 
ATOM      2  C1  UNL d   1       1.372   0.932   1.355  0.00  0.00     0.003 A 
ATOM      3  C2  UNL d   1       0.229   0.907   0.553  0.00  0.00     0.048 A 
ATOM      4  C3  UNL d   1       0.146   0.003  -0.505  0.00  0.00     0.023 A 
ATOM      5  C4  UNL d   1       1.197  -0.876  -0.767  0.00  0.00     0.048 A 
ATOM      6  C5  UNL d   1       2.339  -0.848   0.037  0.00  0.00     0.003 A 
ATOM      7  I   UNL d   1      -1.554  -0.035  -1.700  0.00  0.00    -0.146 I 
ENDROOT
TORSDOF 0
ENDMDL
