MODEL 1
REMARK minimizedAffinity -5.63307905
REMARK minimizedRMSD -1
REMARK  0 active torsions:
REMARK  status: ('A' for Active; 'I' for Inactive)
ROOT
ATOM      1  C   UNL d   1       2.753  -2.013   2.409  0.00  0.00     0.023 A 
ATOM      2  C1  UNL d   1       1.432  -2.441   2.281  0.00  0.00     0.003 A 
ATOM      3  C2  UNL d   1       0.552  -1.753   1.443  0.00  0.00     0.048 A 
ATOM      4  C3  UNL d   1       1.000  -0.638   0.736  0.00  0.00     0.023 A 
ATOM      5  C4  UNL d   1       2.322  -0.206   0.861  0.00  0.00     0.048 A 
ATOM      6  C5  UNL d   1       3.198  -0.897   1.700  0.00  0.00     0.003 A 
ATOM      7  I   UNL d   1      -0.308   0.389  -0.511  0.00  0.00    -0.146 I 
ENDROOT
TORSDOF 0
ENDMDL
