MODEL 1
REMARK minimizedAffinity -3.86260033
REMARK minimizedRMSD -1
REMARK  0 active torsions:
REMARK  status: ('A' for Active; 'I' for Inactive)
ROOT
ATOM      1  C   UNL d   1       3.204  -1.263   1.537  0.00  0.00     0.023 A 
ATOM      2  C1  UNL d   1       2.048  -1.994   1.809  0.00  0.00     0.003 A 
ATOM      3  C2  UNL d   1       0.823  -1.592   1.272  0.00  0.00     0.048 A 
ATOM      4  C3  UNL d   1       0.762  -0.458   0.463  0.00  0.00     0.023 A 
ATOM      5  C4  UNL d   1       1.916   0.277   0.188  0.00  0.00     0.048 A 
ATOM      6  C5  UNL d   1       3.138  -0.129   0.728  0.00  0.00     0.003 A 
ATOM      7  I   UNL d   1      -1.060   0.142  -0.337  0.00  0.00    -0.146 I 
ENDROOT
TORSDOF 0
ENDMDL
