MODEL 1
REMARK minimizedAffinity -4.4971137
REMARK minimizedRMSD -1
REMARK  0 active torsions:
REMARK  status: ('A' for Active; 'I' for Inactive)
ROOT
ATOM      1  C   UNL d   1       2.127  -2.508   1.878  0.00  0.00     0.023 A 
ATOM      2  C1  UNL d   1       2.744  -1.448   1.213  0.00  0.00     0.003 A 
ATOM      3  C2  UNL d   1       1.971  -0.428   0.656  0.00  0.00     0.048 A 
ATOM      4  C3  UNL d   1       0.581  -0.473   0.767  0.00  0.00     0.023 A 
ATOM      5  C4  UNL d   1      -0.040  -1.532   1.432  0.00  0.00     0.048 A 
ATOM      6  C5  UNL d   1       0.737  -2.550   1.987  0.00  0.00     0.003 A 
ATOM      7  I   UNL d   1      -0.572   1.044  -0.062  0.00  0.00    -0.146 I 
ENDROOT
TORSDOF 0
ENDMDL
