MODEL 1
REMARK minimizedAffinity -2.67158794
REMARK minimizedRMSD -1
REMARK  0 active torsions:
REMARK  status: ('A' for Active; 'I' for Inactive)
ROOT
ATOM      1  C   UNL d   1       3.056  -0.691   1.217  0.00  0.00     0.023 A 
ATOM      2  C1  UNL d   1       3.000   0.500   0.493  0.00  0.00     0.003 A 
ATOM      3  C2  UNL d   1       1.813   0.881  -0.138  0.00  0.00     0.048 A 
ATOM      4  C3  UNL d   1       0.686   0.066  -0.039  0.00  0.00     0.023 A 
ATOM      5  C4  UNL d   1       0.737  -1.127   0.684  0.00  0.00     0.048 A 
ATOM      6  C5  UNL d   1       1.926  -1.504   1.312  0.00  0.00     0.003 A 
ATOM      7  I   UNL d   1      -1.081   0.630  -0.977  0.00  0.00    -0.146 I 
ENDROOT
TORSDOF 0
ENDMDL
