MODEL 1
REMARK minimizedAffinity -1.24945807
REMARK minimizedRMSD -1
REMARK  0 active torsions:
REMARK  status: ('A' for Active; 'I' for Inactive)
ROOT
ATOM      1  C   UNL d   1       2.143   0.394   1.464  0.00  0.00     0.023 A 
ATOM      2  C1  UNL d   1       1.973   1.271   0.392  0.00  0.00     0.003 A 
ATOM      3  C2  UNL d   1       0.811   1.216  -0.380  0.00  0.00     0.048 A 
ATOM      4  C3  UNL d   1      -0.178   0.281  -0.075  0.00  0.00     0.023 A 
ATOM      5  C4  UNL d   1      -0.013  -0.598   0.996  0.00  0.00     0.048 A 
ATOM      6  C5  UNL d   1       1.151  -0.540   1.765  0.00  0.00     0.003 A 
ATOM      7  I   UNL d   1      -1.908   0.196  -1.224  0.00  0.00    -0.146 I 
ENDROOT
TORSDOF 0
ENDMDL
