MODEL 1
REMARK minimizedAffinity -0.313388765
REMARK minimizedRMSD -1
REMARK  0 active torsions:
REMARK  status: ('A' for Active; 'I' for Inactive)
ROOT
ATOM      1  C   UNL d   1       2.609  -0.148   4.132  0.00  0.00     0.023 A 
ATOM      2  C1  UNL d   1       1.503  -0.898   3.730  0.00  0.00     0.003 A 
ATOM      3  C2  UNL d   1       0.773  -0.518   2.603  0.00  0.00     0.048 A 
ATOM      4  C3  UNL d   1       1.154   0.612   1.880  0.00  0.00     0.023 A 
ATOM      5  C4  UNL d   1       2.261   1.365   2.278  0.00  0.00     0.048 A 
ATOM      6  C5  UNL d   1       2.987   0.981   3.406  0.00  0.00     0.003 A 
ATOM      7  I   UNL d   1       0.069   1.179   0.201  0.00  0.00    -0.146 I 
ENDROOT
TORSDOF 0
ENDMDL
