MODEL 1
REMARK minimizedAffinity 1.68508232
REMARK minimizedRMSD -1
REMARK  0 active torsions:
REMARK  status: ('A' for Active; 'I' for Inactive)
ROOT
ATOM      1  C   UNL d   1       1.863   0.220   1.361  0.00  0.00     0.023 A 
ATOM      2  C1  UNL d   1       0.643   0.255   0.685  0.00  0.00     0.003 A 
ATOM      3  C2  UNL d   1       0.023   1.478   0.425  0.00  0.00     0.048 A 
ATOM      4  C3  UNL d   1       0.628   2.663   0.842  0.00  0.00     0.023 A 
ATOM      5  C4  UNL d   1       1.849   2.633   1.517  0.00  0.00     0.048 A 
ATOM      6  C5  UNL d   1       2.465   1.407   1.776  0.00  0.00     0.003 A 
ATOM      7  I   UNL d   1      -0.294   4.485   0.455  0.00  0.00    -0.146 I 
ENDROOT
TORSDOF 0
ENDMDL
