MODEL 1
REMARK minimizedAffinity 10.3966284
REMARK minimizedRMSD -1
REMARK  0 active torsions:
REMARK  status: ('A' for Active; 'I' for Inactive)
ROOT
ATOM      1  C1  DEN d   1       0.398  -1.397   3.933  0.00  0.00     0.130 A 
ATOM      2  C2  DEN d   1       1.085  -2.372   3.091  0.00  0.00    -0.031 A 
ATOM      3  C3  DEN d   1       0.403  -2.406   1.782  0.00  0.00     0.027 A 
ATOM      4  C4  DEN d   1      -1.636  -1.045   0.979  0.00  0.00     0.027 A 
ATOM      5  C5  DEN d   1      -2.568  -0.100   1.344  0.00  0.00    -0.003 A 
ATOM      6  C6  DEN d   1      -2.598   0.451   2.598  0.00  0.00     0.001 A 
ATOM      7  C7  DEN d   1      -1.650   0.092   3.519  0.00  0.00     0.017 A 
ATOM      8  C8  DEN d   1      -0.711  -0.866   3.161  0.00  0.00    -0.094 A 
ATOM      9  C9  DEN d   1      -0.690  -1.402   1.885  0.00  0.00    -0.072 A 
ENDROOT
TORSDOF 0
ENDMDL
