MODEL 1
REMARK minimizedAffinity 18.5813427
REMARK minimizedRMSD -1
REMARK  0 active torsions:
REMARK  status: ('A' for Active; 'I' for Inactive)
ROOT
ATOM      1  C1  DEN d   1       0.824  -1.073   3.792  0.00  0.00     0.130 A 
ATOM      2  C2  DEN d   1       1.548  -2.217   3.243  0.00  0.00    -0.031 A 
ATOM      3  C3  DEN d   1       0.818  -2.688   2.049  0.00  0.00     0.027 A 
ATOM      4  C4  DEN d   1      -1.348  -1.760   1.000  0.00  0.00     0.027 A 
ATOM      5  C5  DEN d   1      -2.334  -0.805   1.119  0.00  0.00    -0.003 A 
ATOM      6  C6  DEN d   1      -2.354   0.098   2.149  0.00  0.00     0.001 A 
ATOM      7  C7  DEN d   1      -1.345   0.095   3.075  0.00  0.00     0.017 A 
ATOM      8  C8  DEN d   1      -0.352  -0.870   2.965  0.00  0.00    -0.094 A 
ATOM      9  C9  DEN d   1      -0.342  -1.767   1.911  0.00  0.00    -0.072 A 
ENDROOT
TORSDOF 0
ENDMDL
