MODEL 1
REMARK minimizedAffinity 5.38008213
REMARK minimizedRMSD -1
REMARK  0 active torsions:
REMARK  status: ('A' for Active; 'I' for Inactive)
ROOT
ATOM      1  C1  DEN d   1      -5.677  -3.343   5.105  0.00  0.00     0.130 A 
ATOM      2  C2  DEN d   1      -5.975  -4.459   5.999  0.00  0.00    -0.031 A 
ATOM      3  C3  DEN d   1      -5.996  -5.697   5.193  0.00  0.00     0.027 A 
ATOM      4  C4  DEN d   1      -5.592  -5.991   2.662  0.00  0.00     0.027 A 
ATOM      5  C5  DEN d   1      -5.315  -5.332   1.486  0.00  0.00    -0.003 A 
ATOM      6  C6  DEN d   1      -5.174  -3.970   1.427  0.00  0.00     0.001 A 
ATOM      7  C7  DEN d   1      -5.265  -3.229   2.576  0.00  0.00     0.017 A 
ATOM      8  C8  DEN d   1      -5.552  -3.886   3.765  0.00  0.00    -0.094 A 
ATOM      9  C9  DEN d   1      -5.678  -5.264   3.805  0.00  0.00    -0.072 A 
ENDROOT
TORSDOF 0
ENDMDL
