MODEL 1
REMARK minimizedAffinity 17.6957378
REMARK minimizedRMSD -1
REMARK  0 active torsions:
REMARK  status: ('A' for Active; 'I' for Inactive)
ROOT
ATOM      1  C1  DEN d   1       0.086  -2.875   1.258  0.00  0.00     0.130 A 
ATOM      2  C2  DEN d   1       1.139  -2.174   1.987  0.00  0.00    -0.031 A 
ATOM      3  C3  DEN d   1       0.659  -0.810   2.284  0.00  0.00     0.027 A 
ATOM      4  C4  DEN d   1      -1.603   0.279   1.693  0.00  0.00     0.027 A 
ATOM      5  C5  DEN d   1      -2.815   0.081   1.069  0.00  0.00    -0.003 A 
ATOM      6  C6  DEN d   1      -3.129  -1.094   0.439  0.00  0.00     0.001 A 
ATOM      7  C7  DEN d   1      -2.237  -2.134   0.459  0.00  0.00     0.017 A 
ATOM      8  C8  DEN d   1      -1.011  -1.940   1.081  0.00  0.00    -0.094 A 
ATOM      9  C9  DEN d   1      -0.717  -0.748   1.722  0.00  0.00    -0.072 A 
ENDROOT
TORSDOF 0
ENDMDL
