MODEL 1
REMARK minimizedAffinity 4.19303226
REMARK minimizedRMSD -1
REMARK  0 active torsions:
REMARK  status: ('A' for Active; 'I' for Inactive)
ROOT
ATOM      1  C1  DEN d   1       1.425   6.000  -3.007  0.00  0.00     0.130 A 
ATOM      2  C2  DEN d   1       0.720   5.011  -3.818  0.00  0.00    -0.031 A 
ATOM      3  C3  DEN d   1       1.597   3.831  -3.964  0.00  0.00     0.027 A 
ATOM      4  C4  DEN d   1       3.963   3.441  -3.014  0.00  0.00     0.027 A 
ATOM      5  C5  DEN d   1       4.981   3.999  -2.274  0.00  0.00    -0.003 A 
ATOM      6  C6  DEN d   1       4.900   5.265  -1.759  0.00  0.00     0.001 A 
ATOM      7  C7  DEN d   1       3.758   6.000  -1.939  0.00  0.00     0.017 A 
ATOM      8  C8  DEN d   1       2.730   5.447  -2.691  0.00  0.00    -0.094 A 
ATOM      9  C9  DEN d   1       2.826   4.160  -3.193  0.00  0.00    -0.072 A 
ENDROOT
TORSDOF 0
ENDMDL
