MODEL 1
REMARK minimizedAffinity 19.6937866
REMARK minimizedRMSD -1
REMARK  0 active torsions:
REMARK  status: ('A' for Active; 'I' for Inactive)
ROOT
ATOM      1  C1  DEN d   1      -0.987  -2.138   0.530  0.00  0.00     0.130 A 
ATOM      2  C2  DEN d   1      -1.314  -0.715   0.512  0.00  0.00    -0.031 A 
ATOM      3  C3  DEN d   1      -0.762  -0.104   1.738  0.00  0.00     0.027 A 
ATOM      4  C4  DEN d   1       0.563  -1.217   3.650  0.00  0.00     0.027 A 
ATOM      5  C5  DEN d   1       1.077  -2.407   4.116  0.00  0.00    -0.003 A 
ATOM      6  C6  DEN d   1       0.910  -3.588   3.442  0.00  0.00     0.001 A 
ATOM      7  C7  DEN d   1       0.251  -3.596   2.241  0.00  0.00     0.017 A 
ATOM      8  C8  DEN d   1      -0.275  -2.401   1.768  0.00  0.00    -0.094 A 
ATOM      9  C9  DEN d   1      -0.086  -1.216   2.459  0.00  0.00    -0.072 A 
ENDROOT
TORSDOF 0
ENDMDL
