MODEL 1
REMARK minimizedAffinity 8.19823647
REMARK minimizedRMSD -1
REMARK  0 active torsions:
REMARK  status: ('A' for Active; 'I' for Inactive)
ROOT
ATOM      1  C1  DEN d   1      -3.318   0.433  -0.570  0.00  0.00     0.130 A 
ATOM      2  C2  DEN d   1      -4.545   1.060  -0.087  0.00  0.00    -0.031 A 
ATOM      3  C3  DEN d   1      -4.542   0.993   1.388  0.00  0.00     0.027 A 
ATOM      4  C4  DEN d   1      -2.764  -0.011   2.963  0.00  0.00     0.027 A 
ATOM      5  C5  DEN d   1      -1.553  -0.666   3.017  0.00  0.00    -0.003 A 
ATOM      6  C6  DEN d   1      -0.868  -1.027   1.888  0.00  0.00     0.001 A 
ATOM      7  C7  DEN d   1      -1.367  -0.696   0.656  0.00  0.00     0.017 A 
ATOM      8  C8  DEN d   1      -2.591  -0.043   0.593  0.00  0.00    -0.094 A 
ATOM      9  C9  DEN d   1      -3.262   0.325   1.747  0.00  0.00    -0.072 A 
ENDROOT
TORSDOF 0
ENDMDL
