MODEL 1
REMARK minimizedAffinity 9.91626167
REMARK minimizedRMSD -1
REMARK  0 active torsions:
REMARK  status: ('A' for Active; 'I' for Inactive)
ROOT
ATOM      1  C1  DEN d   1      -5.985   3.225   6.000  0.00  0.00     0.130 A 
ATOM      2  C2  DEN d   1      -5.489   4.426   5.333  0.00  0.00    -0.031 A 
ATOM      3  C3  DEN d   1      -4.332   4.040   4.500  0.00  0.00     0.027 A 
ATOM      4  C4  DEN d   1      -3.271   1.712   4.176  0.00  0.00     0.027 A 
ATOM      5  C5  DEN d   1      -3.338   0.387   4.544  0.00  0.00    -0.003 A 
ATOM      6  C6  DEN d   1      -4.264  -0.076   5.442  0.00  0.00     0.001 A 
ATOM      7  C7  DEN d   1      -5.189   0.787   5.968  0.00  0.00     0.017 A 
ATOM      8  C8  DEN d   1      -5.122   2.126   5.607  0.00  0.00    -0.094 A 
ATOM      9  C9  DEN d   1      -4.187   2.572   4.689  0.00  0.00    -0.072 A 
ENDROOT
TORSDOF 0
ENDMDL
