MODEL 1
REMARK minimizedAffinity 15.023819
REMARK minimizedRMSD -1
REMARK  0 active torsions:
REMARK  status: ('A' for Active; 'I' for Inactive)
ROOT
ATOM      1  C1  DEN d   1       4.371   1.489  -0.545  0.00  0.00     0.130 A 
ATOM      2  C2  DEN d   1       3.329   0.777   0.190  0.00  0.00    -0.031 A 
ATOM      3  C3  DEN d   1       2.082   0.851  -0.598  0.00  0.00     0.027 A 
ATOM      4  C4  DEN d   1       1.667   1.990  -2.875  0.00  0.00     0.027 A 
ATOM      5  C5  DEN d   1       2.246   2.731  -3.881  0.00  0.00    -0.003 A 
ATOM      6  C6  DEN d   1       3.553   3.136  -3.830  0.00  0.00     0.001 A 
ATOM      7  C7  DEN d   1       4.339   2.763  -2.772  0.00  0.00     0.017 A 
ATOM      8  C8  DEN d   1       3.760   2.022  -1.750  0.00  0.00    -0.094 A 
ATOM      9  C9  DEN d   1       2.440   1.612  -1.825  0.00  0.00    -0.072 A 
ENDROOT
TORSDOF 0
ENDMDL
