MODEL 1
REMARK minimizedAffinity 10.1184072
REMARK minimizedRMSD -1
REMARK  0 active torsions:
REMARK  status: ('A' for Active; 'I' for Inactive)
ROOT
ATOM      1  C1  DEN d   1      -0.192  -0.419  -0.386  0.00  0.00     0.130 A 
ATOM      2  C2  DEN d   1      -0.142  -0.739   1.038  0.00  0.00    -0.031 A 
ATOM      3  C3  DEN d   1       1.072  -0.115   1.603  0.00  0.00     0.027 A 
ATOM      4  C4  DEN d   1       2.865   1.311   0.418  0.00  0.00     0.027 A 
ATOM      5  C5  DEN d   1       3.258   1.843  -0.790  0.00  0.00    -0.003 A 
ATOM      6  C6  DEN d   1       2.553   1.632  -1.945  0.00  0.00     0.001 A 
ATOM      7  C7  DEN d   1       1.392   0.906  -1.909  0.00  0.00     0.017 A 
ATOM      8  C8  DEN d   1       0.993   0.360  -0.696  0.00  0.00    -0.094 A 
ATOM      9  C9  DEN d   1       1.713   0.595   0.463  0.00  0.00    -0.072 A 
ENDROOT
TORSDOF 0
ENDMDL
