MODEL 1
REMARK minimizedAffinity 16.7622547
REMARK minimizedRMSD -1
REMARK  0 active torsions:
REMARK  status: ('A' for Active; 'I' for Inactive)
ROOT
ATOM      1  C1  DEN d   1       2.817  -0.154   2.222  0.00  0.00     0.130 A 
ATOM      2  C2  DEN d   1       2.409   1.032   1.474  0.00  0.00    -0.031 A 
ATOM      3  C3  DEN d   1       3.304   1.165   0.306  0.00  0.00     0.027 A 
ATOM      4  C4  DEN d   1       5.267  -0.345  -0.413  0.00  0.00     0.027 A 
ATOM      5  C5  DEN d   1       6.000  -1.465  -0.088  0.00  0.00    -0.003 A 
ATOM      6  C6  DEN d   1       5.747  -2.201   1.040  0.00  0.00     0.001 A 
ATOM      7  C7  DEN d   1       4.706  -1.851   1.859  0.00  0.00     0.017 A 
ATOM      8  C8  DEN d   1       3.968  -0.719   1.541  0.00  0.00    -0.094 A 
ATOM      9  C9  DEN d   1       4.231   0.004   0.390  0.00  0.00    -0.072 A 
ENDROOT
TORSDOF 0
ENDMDL
