MODEL 1
REMARK minimizedAffinity 20.6194172
REMARK minimizedRMSD -1
REMARK  0 active torsions:
REMARK  status: ('A' for Active; 'I' for Inactive)
ROOT
ATOM      1  C1  DEN d   1      -1.749   0.431   4.457  0.00  0.00     0.130 A 
ATOM      2  C2  DEN d   1      -0.752   0.074   5.461  0.00  0.00    -0.031 A 
ATOM      3  C3  DEN d   1       0.276  -0.762   4.808  0.00  0.00     0.027 A 
ATOM      4  C4  DEN d   1       0.420  -1.529   2.350  0.00  0.00     0.027 A 
ATOM      5  C5  DEN d   1      -0.203  -1.486   1.122  0.00  0.00    -0.003 A 
ATOM      6  C6  DEN d   1      -1.393  -0.835   0.929  0.00  0.00     0.001 A 
ATOM      7  C7  DEN d   1      -1.975  -0.162   1.971  0.00  0.00     0.017 A 
ATOM      8  C8  DEN d   1      -1.356  -0.207   3.213  0.00  0.00    -0.094 A 
ATOM      9  C9  DEN d   1      -0.148  -0.860   3.385  0.00  0.00    -0.072 A 
ENDROOT
TORSDOF 0
ENDMDL
