MODEL 1
REMARK minimizedAffinity 20.639719
REMARK minimizedRMSD -1
REMARK  0 active torsions:
REMARK  status: ('A' for Active; 'I' for Inactive)
ROOT
ATOM      1  C1  DEN d   1      -0.472  -0.710   4.528  0.00  0.00     0.130 A 
ATOM      2  C2  DEN d   1      -0.415  -1.848   5.442  0.00  0.00    -0.031 A 
ATOM      3  C3  DEN d   1      -0.472  -3.084   4.636  0.00  0.00     0.027 A 
ATOM      4  C4  DEN d   1      -0.638  -3.346   2.076  0.00  0.00     0.027 A 
ATOM      5  C5  DEN d   1      -0.725  -2.666   0.881  0.00  0.00    -0.003 A 
ATOM      6  C6  DEN d   1      -0.769  -1.298   0.821  0.00  0.00     0.001 A 
ATOM      7  C7  DEN d   1      -0.679  -0.565   1.975  0.00  0.00     0.017 A 
ATOM      8  C8  DEN d   1      -0.597  -1.243   3.184  0.00  0.00    -0.094 A 
ATOM      9  C9  DEN d   1      -0.543  -2.626   3.222  0.00  0.00    -0.072 A 
ENDROOT
TORSDOF 0
ENDMDL
