MODEL 1
REMARK minimizedAffinity 4.53517437
REMARK minimizedRMSD -1
REMARK  1 active torsions:
REMARK  status: ('A' for Active; 'I' for Inactive)
REMARK    1  A    between atoms: C1_2  and  C2_3 
ROOT
ATOM      1  C2  UNL d   1       4.011   1.536   2.971  0.00  0.00    -0.076 A 
ATOM      2  C3  UNL d   1       3.218   2.404   2.199  0.00  0.00     0.004 A 
ATOM      3  C4  UNL d   1       3.514   2.643   0.858  0.00  0.00    -0.003 A 
ATOM      4  C5  UNL d   1       4.607   2.018   0.267  0.00  0.00     0.000 A 
ATOM      5  C6  UNL d   1       5.393   1.140   1.013  0.00  0.00     0.000 A 
ATOM      6  C7  UNL d   1       5.099   0.876   2.361  0.00  0.00    -0.073 A 
ATOM      7  C8  UNL d   1       5.984  -0.075   3.120  0.00  0.00     0.078 C 
ENDROOT
BRANCH   1   8
ATOM      8  C1  UNL d   1       3.657   1.336   4.427  0.00  0.00     0.053 C 
ATOM      9  C   UNL d   1       3.616   2.644   5.202  0.00  0.00     0.018 C 
ENDBRANCH   1   8
TORSDOF 1
ENDMDL
