MODEL 1
REMARK minimizedAffinity 14.3083
REMARK minimizedRMSD -1
REMARK  1 active torsions:
REMARK  status: ('A' for Active; 'I' for Inactive)
REMARK    1  A    between atoms: C1_2  and  C2_3 
ROOT
ATOM      1  C2  UNL d   1      -1.783  -2.779   0.854  0.00  0.00    -0.076 A 
ATOM      2  C3  UNL d   1      -1.003  -3.806   0.295  0.00  0.00     0.004 A 
ATOM      3  C4  UNL d   1      -0.391  -4.763   1.102  0.00  0.00    -0.003 A 
ATOM      4  C5  UNL d   1      -0.549  -4.710   2.482  0.00  0.00     0.000 A 
ATOM      5  C6  UNL d   1      -1.334  -3.708   3.054  0.00  0.00     0.000 A 
ATOM      6  C7  UNL d   1      -1.971  -2.745   2.253  0.00  0.00    -0.073 A 
ATOM      7  C8  UNL d   1      -2.801  -1.684   2.922  0.00  0.00     0.078 C 
ENDROOT
BRANCH   1   8
ATOM      8  C1  UNL d   1      -2.400  -1.753  -0.069  0.00  0.00     0.053 C 
ATOM      9  C   UNL d   1      -1.529  -1.461  -1.281  0.00  0.00     0.018 C 
ENDBRANCH   1   8
TORSDOF 1
ENDMDL
