MODEL 1
REMARK minimizedAffinity 8.19760227
REMARK minimizedRMSD -1
REMARK  1 active torsions:
REMARK  status: ('A' for Active; 'I' for Inactive)
REMARK    1  A    between atoms: C1_2  and  C2_3 
ROOT
ATOM      1  C2  UNL d   1      -4.418   4.771  -0.890  0.00  0.00    -0.076 A 
ATOM      2  C3  UNL d   1      -4.660   5.968  -0.194  0.00  0.00     0.004 A 
ATOM      3  C4  UNL d   1      -5.442   5.981   0.960  0.00  0.00    -0.003 A 
ATOM      4  C5  UNL d   1      -5.993   4.797   1.437  0.00  0.00     0.000 A 
ATOM      5  C6  UNL d   1      -5.749   3.597   0.770  0.00  0.00     0.000 A 
ATOM      6  C7  UNL d   1      -4.949   3.564  -0.386  0.00  0.00    -0.073 A 
ATOM      7  C8  UNL d   1      -4.723   2.244  -1.070  0.00  0.00     0.078 C 
ENDROOT
BRANCH   1   8
ATOM      8  C1  UNL d   1      -3.585   4.822  -2.150  0.00  0.00     0.053 C 
ATOM      9  C   UNL d   1      -4.078   5.874  -3.132  0.00  0.00     0.018 C 
ENDBRANCH   1   8
TORSDOF 1
ENDMDL
