MODEL 1
REMARK minimizedAffinity 11.7385054
REMARK minimizedRMSD -1
REMARK  1 active torsions:
REMARK  status: ('A' for Active; 'I' for Inactive)
REMARK    1  A    between atoms: C1_2  and  C2_3 
ROOT
ATOM      1  C2  UNL d   1       5.577   1.514   2.088  0.00  0.00    -0.076 A 
ATOM      2  C3  UNL d   1       5.997   1.500   0.746  0.00  0.00     0.004 A 
ATOM      3  C4  UNL d   1       5.629   2.518  -0.132  0.00  0.00    -0.003 A 
ATOM      4  C5  UNL d   1       4.836   3.568   0.318  0.00  0.00     0.000 A 
ATOM      5  C6  UNL d   1       4.425   3.608   1.650  0.00  0.00     0.000 A 
ATOM      6  C7  UNL d   1       4.801   2.598   2.552  0.00  0.00    -0.073 A 
ATOM      7  C8  UNL d   1       4.324   2.688   3.976  0.00  0.00     0.078 C 
ENDROOT
BRANCH   1   8
ATOM      8  C1  UNL d   1       5.984   0.369   2.987  0.00  0.00     0.053 C 
ATOM      9  C   UNL d   1       4.792  -0.431   3.488  0.00  0.00     0.018 C 
ENDBRANCH   1   8
TORSDOF 1
ENDMDL
