MODEL 1
REMARK minimizedAffinity 16.4503212
REMARK minimizedRMSD -1
REMARK  1 active torsions:
REMARK  status: ('A' for Active; 'I' for Inactive)
REMARK    1  A    between atoms: C1_2  and  C2_3 
ROOT
ATOM      1  C2  UNL d   1       5.280   1.413   1.987  0.00  0.00    -0.076 A 
ATOM      2  C3  UNL d   1       5.998   1.470   0.780  0.00  0.00     0.004 A 
ATOM      3  C4  UNL d   1       5.739   2.463  -0.163  0.00  0.00    -0.003 A 
ATOM      4  C5  UNL d   1       4.757   3.416   0.086  0.00  0.00     0.000 A 
ATOM      5  C6  UNL d   1       4.047   3.386   1.286  0.00  0.00     0.000 A 
ATOM      6  C7  UNL d   1       4.308   2.401   2.254  0.00  0.00    -0.073 A 
ATOM      7  C8  UNL d   1       3.508   2.412   3.528  0.00  0.00     0.078 C 
ENDROOT
BRANCH   1   8
ATOM      8  C1  UNL d   1       5.585   0.297   2.960  0.00  0.00     0.053 C 
ATOM      9  C   UNL d   1       4.347  -0.501   3.339  0.00  0.00     0.018 C 
ENDBRANCH   1   8
TORSDOF 1
ENDMDL
