MODEL 1
REMARK minimizedAffinity 16.5333862
REMARK minimizedRMSD -1
REMARK  1 active torsions:
REMARK  status: ('A' for Active; 'I' for Inactive)
REMARK    1  A    between atoms: C1_2  and  C2_3 
ROOT
ATOM      1  C2  UNL d   1       4.421   2.375   2.919  0.00  0.00    -0.076 A 
ATOM      2  C3  UNL d   1       3.946   3.356   2.031  0.00  0.00     0.004 A 
ATOM      3  C4  UNL d   1       4.496   3.497   0.758  0.00  0.00    -0.003 A 
ATOM      4  C5  UNL d   1       5.528   2.660   0.351  0.00  0.00     0.000 A 
ATOM      5  C6  UNL d   1       6.000   1.669   1.212  0.00  0.00     0.000 A 
ATOM      6  C7  UNL d   1       5.446   1.503   2.493  0.00  0.00    -0.073 A 
ATOM      7  C8  UNL d   1       5.997   0.422   3.383  0.00  0.00     0.078 C 
ENDROOT
BRANCH   1   8
ATOM      8  C1  UNL d   1       3.805   2.286   4.297  0.00  0.00     0.053 C 
ATOM      9  C   UNL d   1       4.110   3.507   5.151  0.00  0.00     0.018 C 
ENDBRANCH   1   8
TORSDOF 1
ENDMDL
