MODEL 1
REMARK minimizedAffinity 8.72417259
REMARK minimizedRMSD -1
REMARK  1 active torsions:
REMARK  status: ('A' for Active; 'I' for Inactive)
REMARK    1  A    between atoms: C1_2  and  C2_3 
ROOT
ATOM      1  C2  UNL d   1      -2.122  -2.241  -0.281  0.00  0.00    -0.076 A 
ATOM      2  C3  UNL d   1      -2.185  -1.407   0.849  0.00  0.00     0.004 A 
ATOM      3  C4  UNL d   1      -1.770  -1.863   2.100  0.00  0.00    -0.003 A 
ATOM      4  C5  UNL d   1      -1.285  -3.158   2.240  0.00  0.00     0.000 A 
ATOM      5  C6  UNL d   1      -1.199  -3.993   1.126  0.00  0.00     0.000 A 
ATOM      6  C7  UNL d   1      -1.598  -3.544  -0.145  0.00  0.00    -0.073 A 
ATOM      7  C8  UNL d   1      -1.489  -4.488  -1.310  0.00  0.00     0.078 C 
ENDROOT
BRANCH   1   8
ATOM      8  C1  UNL d   1      -2.611  -1.701  -1.606  0.00  0.00     0.053 C 
ATOM      9  C   UNL d   1      -3.791  -0.755  -1.450  0.00  0.00     0.018 C 
ENDBRANCH   1   8
TORSDOF 1
ENDMDL
