MODEL 1
REMARK minimizedAffinity 10.8134041
REMARK minimizedRMSD -1
REMARK  1 active torsions:
REMARK  status: ('A' for Active; 'I' for Inactive)
REMARK    1  A    between atoms: C1_2  and  C2_3 
ROOT
ATOM      1  C2  UNL d   1       4.593   2.404   2.632  0.00  0.00    -0.076 A 
ATOM      2  C3  UNL d   1       4.177   3.369   1.698  0.00  0.00     0.004 A 
ATOM      3  C4  UNL d   1       4.662   3.360   0.392  0.00  0.00    -0.003 A 
ATOM      4  C5  UNL d   1       5.571   2.384  -0.003  0.00  0.00     0.000 A 
ATOM      5  C6  UNL d   1       5.982   1.408   0.905  0.00  0.00     0.000 A 
ATOM      6  C7  UNL d   1       5.489   1.394   2.221  0.00  0.00    -0.073 A 
ATOM      7  C8  UNL d   1       5.970   0.322   3.160  0.00  0.00     0.078 C 
ENDROOT
BRANCH   1   8
ATOM      8  C1  UNL d   1       4.053   2.480   4.042  0.00  0.00     0.053 C 
ATOM      9  C   UNL d   1       4.750   3.545   4.875  0.00  0.00     0.018 C 
ENDBRANCH   1   8
TORSDOF 1
ENDMDL
