MODEL 1
REMARK minimizedAffinity 14.2552204
REMARK minimizedRMSD -1
REMARK  1 active torsions:
REMARK  status: ('A' for Active; 'I' for Inactive)
REMARK    1  A    between atoms: C1_2  and  C2_3 
ROOT
ATOM      1  C2  UNL d   1      -1.791  -2.966   1.692  0.00  0.00    -0.076 A 
ATOM      2  C3  UNL d   1      -2.405  -1.843   1.112  0.00  0.00     0.004 A 
ATOM      3  C4  UNL d   1      -2.130  -1.474  -0.203  0.00  0.00    -0.003 A 
ATOM      4  C5  UNL d   1      -1.236  -2.222  -0.960  0.00  0.00     0.000 A 
ATOM      5  C6  UNL d   1      -0.630  -3.350  -0.407  0.00  0.00     0.000 A 
ATOM      6  C7  UNL d   1      -0.910  -3.746   0.912  0.00  0.00    -0.073 A 
ATOM      7  C8  UNL d   1      -0.224  -4.967   1.460  0.00  0.00     0.078 C 
ENDROOT
BRANCH   1   8
ATOM      8  C1  UNL d   1      -2.108  -3.303   3.132  0.00  0.00     0.053 C 
ATOM      9  C   UNL d   1      -2.845  -2.179   3.844  0.00  0.00     0.018 C 
ENDBRANCH   1   8
TORSDOF 1
ENDMDL
