MODEL 1
REMARK minimizedAffinity -5.17498541
REMARK minimizedRMSD -1
REMARK  1 active torsions:
REMARK  status: ('A' for Active; 'I' for Inactive)
REMARK    1  A    between atoms: C1_2  and  C2_3 
ROOT
ATOM      1  C2  UNL d   1       0.464  -1.864  -1.471  0.00  0.00    -0.076 A 
ATOM      2  C3  UNL d   1       1.642  -2.275  -2.118  0.00  0.00     0.004 A 
ATOM      3  C4  UNL d   1       2.881  -1.751  -1.753  0.00  0.00    -0.003 A 
ATOM      4  C5  UNL d   1       2.962  -0.808  -0.734  0.00  0.00     0.000 A 
ATOM      5  C6  UNL d   1       1.805  -0.403  -0.069  0.00  0.00     0.000 A 
ATOM      6  C7  UNL d   1       0.550  -0.933  -0.414  0.00  0.00    -0.073 A 
ATOM      7  C8  UNL d   1      -0.665  -0.455   0.333  0.00  0.00     0.078 C 
ENDROOT
BRANCH   1   8
ATOM      8  C1  UNL d   1      -0.855  -2.446  -1.928  0.00  0.00     0.053 C 
ATOM      9  C   UNL d   1      -1.119  -2.202  -3.406  0.00  0.00     0.018 C 
ENDBRANCH   1   8
TORSDOF 1
ENDMDL
