MODEL 1
REMARK minimizedAffinity -3.49220371
REMARK minimizedRMSD -1
REMARK  1 active torsions:
REMARK  status: ('A' for Active; 'I' for Inactive)
REMARK    1  A    between atoms: C1_2  and  C2_3 
ROOT
ATOM      1  C2  UNL d   1      -1.982  -0.550   1.361  0.00  0.00    -0.076 A 
ATOM      2  C3  UNL d   1      -3.116  -0.708   0.544  0.00  0.00     0.004 A 
ATOM      3  C4  UNL d   1      -4.290  -0.003   0.804  0.00  0.00    -0.003 A 
ATOM      4  C5  UNL d   1      -4.350   0.871   1.883  0.00  0.00     0.000 A 
ATOM      5  C6  UNL d   1      -3.230   1.053   2.693  0.00  0.00     0.000 A 
ATOM      6  C7  UNL d   1      -2.033   0.363   2.436  0.00  0.00    -0.073 A 
ATOM      7  C8  UNL d   1      -0.857   0.593   3.345  0.00  0.00     0.078 C 
ENDROOT
BRANCH   1   8
ATOM      8  C1  UNL d   1      -0.745  -1.360   1.047  0.00  0.00     0.053 C 
ATOM      9  C   UNL d   1      -0.643  -1.721  -0.427  0.00  0.00     0.018 C 
ENDBRANCH   1   8
TORSDOF 1
ENDMDL
