MODEL 1
REMARK minimizedAffinity -5.56121826
REMARK minimizedRMSD -1
REMARK  1 active torsions:
REMARK  status: ('A' for Active; 'I' for Inactive)
REMARK    1  A    between atoms: C1_2  and  C2_3 
ROOT
ATOM      1  C2  UNL d   1       1.220  -1.805  -0.828  0.00  0.00    -0.076 A 
ATOM      2  C3  UNL d   1       1.591  -1.270   0.418  0.00  0.00     0.004 A 
ATOM      3  C4  UNL d   1       0.653  -0.653   1.243  0.00  0.00    -0.003 A 
ATOM      4  C5  UNL d   1      -0.674  -0.561   0.835  0.00  0.00     0.000 A 
ATOM      5  C6  UNL d   1      -1.064  -1.101  -0.390  0.00  0.00     0.000 A 
ATOM      6  C7  UNL d   1      -0.133  -1.741  -1.226  0.00  0.00    -0.073 A 
ATOM      7  C8  UNL d   1      -0.607  -2.301  -2.539  0.00  0.00     0.078 C 
ENDROOT
BRANCH   1   8
ATOM      8  C1  UNL d   1       2.287  -2.438  -1.692  0.00  0.00     0.053 C 
ATOM      9  C   UNL d   1       3.659  -1.822  -1.469  0.00  0.00     0.018 C 
ENDBRANCH   1   8
TORSDOF 1
ENDMDL
