MODEL 1
REMARK minimizedAffinity 0.800105929
REMARK minimizedRMSD -1
REMARK  1 active torsions:
REMARK  status: ('A' for Active; 'I' for Inactive)
REMARK    1  A    between atoms: C1_2  and  C2_3 
ROOT
ATOM      1  C2  UNL d   1      -0.385  -1.396  -3.815  0.00  0.00    -0.076 A 
ATOM      2  C3  UNL d   1      -0.093  -0.928  -2.521  0.00  0.00     0.004 A 
ATOM      3  C4  UNL d   1       0.182  -1.815  -1.482  0.00  0.00    -0.003 A 
ATOM      4  C5  UNL d   1       0.171  -3.185  -1.720  0.00  0.00     0.000 A 
ATOM      5  C6  UNL d   1      -0.099  -3.667  -3.000  0.00  0.00     0.000 A 
ATOM      6  C7  UNL d   1      -0.362  -2.785  -4.063  0.00  0.00    -0.073 A 
ATOM      7  C8  UNL d   1      -0.653  -3.359  -5.422  0.00  0.00     0.078 C 
ENDROOT
BRANCH   1   8
ATOM      8  C1  UNL d   1      -0.702  -0.387  -4.895  0.00  0.00     0.053 C 
ATOM      9  C   UNL d   1       0.491   0.490  -5.242  0.00  0.00     0.018 C 
ENDBRANCH   1   8
TORSDOF 1
ENDMDL
