MODEL 1
REMARK minimizedAffinity -6.05827904
REMARK minimizedRMSD -1
REMARK  1 active torsions:
REMARK  status: ('A' for Active; 'I' for Inactive)
REMARK    1  A    between atoms: C1_2  and  C2_3 
ROOT
ATOM      1  C2  UNL d   1      -0.954  -0.715  -0.098  0.00  0.00    -0.076 A 
ATOM      2  C3  UNL d   1      -2.316  -0.463  -0.335  0.00  0.00     0.004 A 
ATOM      3  C4  UNL d   1      -3.135   0.053   0.667  0.00  0.00    -0.003 A 
ATOM      4  C5  UNL d   1      -2.605   0.328   1.923  0.00  0.00     0.000 A 
ATOM      5  C6  UNL d   1      -1.252   0.101   2.170  0.00  0.00     0.000 A 
ATOM      6  C7  UNL d   1      -0.408  -0.404   1.166  0.00  0.00    -0.073 A 
ATOM      7  C8  UNL d   1       1.042  -0.635   1.490  0.00  0.00     0.078 C 
ENDROOT
BRANCH   1   8
ATOM      8  C1  UNL d   1      -0.120  -1.301  -1.216  0.00  0.00     0.053 C 
ATOM      9  C   UNL d   1      -0.912  -1.477  -2.502  0.00  0.00     0.018 C 
ENDBRANCH   1   8
TORSDOF 1
ENDMDL
