MODEL 1
REMARK minimizedAffinity -2.46970081
REMARK minimizedRMSD -1
REMARK  0 active torsions:
REMARK  status: ('A' for Active; 'I' for Inactive)
ROOT
ATOM      1  C1  BNZ d   1      -0.026   5.976   3.888  0.00  0.00     0.000 A 
ATOM      2  C2  BNZ d   1      -1.394   6.000   3.940  0.00  0.00     0.000 A 
ATOM      3  C3  BNZ d   1      -2.063   5.468   5.007  0.00  0.00     0.000 A 
ATOM      4  C4  BNZ d   1      -1.366   4.878   5.999  0.00  0.00     0.000 A 
ATOM      5  C5  BNZ d   1       0.013   4.837   5.957  0.00  0.00     0.000 A 
ATOM      6  C6  BNZ d   1       0.685   5.408   4.900  0.00  0.00     0.000 A 
ENDROOT
TORSDOF 0
ENDMDL
