MODEL 1
REMARK minimizedAffinity -3.59346128
REMARK minimizedRMSD -1
REMARK  0 active torsions:
REMARK  status: ('A' for Active; 'I' for Inactive)
ROOT
ATOM      1  C1  BNZ d   1      -3.350   5.408   4.843  0.00  0.00     0.000 A 
ATOM      2  C2  BNZ d   1      -2.180   5.998   4.446  0.00  0.00     0.000 A 
ATOM      3  C3  BNZ d   1      -0.996   5.318   4.514  0.00  0.00     0.000 A 
ATOM      4  C4  BNZ d   1      -0.978   4.066   5.015  0.00  0.00     0.000 A 
ATOM      5  C5  BNZ d   1      -2.148   3.461   5.427  0.00  0.00     0.000 A 
ATOM      6  C6  BNZ d   1      -3.344   4.134   5.321  0.00  0.00     0.000 A 
ENDROOT
TORSDOF 0
ENDMDL
