MODEL 1
REMARK minimizedAffinity -2.75580692
REMARK minimizedRMSD -1
REMARK  0 active torsions:
REMARK  status: ('A' for Active; 'I' for Inactive)
ROOT
ATOM      1  C1  BNZ d   1       0.172   6.000   3.767  0.00  0.00     0.000 A 
ATOM      2  C2  BNZ d   1      -1.058   5.400   3.777  0.00  0.00     0.000 A 
ATOM      3  C3  BNZ d   1      -1.521   4.771   4.900  0.00  0.00     0.000 A 
ATOM      4  C4  BNZ d   1      -0.736   4.709   5.995  0.00  0.00     0.000 A 
ATOM      5  C5  BNZ d   1       0.511   5.301   5.997  0.00  0.00     0.000 A 
ATOM      6  C6  BNZ d   1       0.957   5.967   4.878  0.00  0.00     0.000 A 
ENDROOT
TORSDOF 0
ENDMDL
