MODEL 1
REMARK minimizedAffinity -1.63984895
REMARK minimizedRMSD -1
REMARK  0 active torsions:
REMARK  status: ('A' for Active; 'I' for Inactive)
ROOT
ATOM      1  C1  BNZ d   1      -2.387   4.610   4.861  0.00  0.00     0.000 A 
ATOM      2  C2  BNZ d   1      -1.555   4.600   3.773  0.00  0.00     0.000 A 
ATOM      3  C3  BNZ d   1      -0.361   5.265   3.800  0.00  0.00     0.000 A 
ATOM      4  C4  BNZ d   1      -0.020   5.971   4.897  0.00  0.00     0.000 A 
ATOM      5  C5  BNZ d   1      -0.853   5.999   5.998  0.00  0.00     0.000 A 
ATOM      6  C6  BNZ d   1      -2.036   5.296   5.982  0.00  0.00     0.000 A 
ENDROOT
TORSDOF 0
ENDMDL
