MODEL 1
REMARK minimizedAffinity -1.92023587
REMARK minimizedRMSD -1
REMARK  0 active torsions:
REMARK  status: ('A' for Active; 'I' for Inactive)
ROOT
ATOM      1  C1  BNZ d   1      -2.009   4.143   5.887  0.00  0.00     0.000 A 
ATOM      2  C2  BNZ d   1      -0.645   4.147   6.000  0.00  0.00     0.000 A 
ATOM      3  C3  BNZ d   1       0.108   5.088   5.354  0.00  0.00     0.000 A 
ATOM      4  C4  BNZ d   1      -0.500   5.997   4.565  0.00  0.00     0.000 A 
ATOM      5  C5  BNZ d   1      -1.875   6.000   4.433  0.00  0.00     0.000 A 
ATOM      6  C6  BNZ d   1      -2.632   5.076   5.116  0.00  0.00     0.000 A 
ENDROOT
TORSDOF 0
ENDMDL
