MODEL 1
REMARK minimizedAffinity -3.69061065
REMARK minimizedRMSD -1
REMARK  0 active torsions:
REMARK  status: ('A' for Active; 'I' for Inactive)
ROOT
ATOM      1  C1  BNZ d   1       3.055  -4.187   1.600  0.00  0.00     0.000 A 
ATOM      2  C2  BNZ d   1       4.267  -4.825   1.619  0.00  0.00     0.000 A 
ATOM      3  C3  BNZ d   1       5.433  -4.113   1.609  0.00  0.00     0.000 A 
ATOM      4  C4  BNZ d   1       5.388  -2.767   1.540  0.00  0.00     0.000 A 
ATOM      5  C5  BNZ d   1       4.174  -2.109   1.511  0.00  0.00     0.000 A 
ATOM      6  C6  BNZ d   1       3.002  -2.828   1.560  0.00  0.00     0.000 A 
ENDROOT
TORSDOF 0
ENDMDL
