MODEL 1
REMARK minimizedAffinity -2.32575631
REMARK minimizedRMSD -1
REMARK  0 active torsions:
REMARK  status: ('A' for Active; 'I' for Inactive)
ROOT
ATOM      1  C1  BNZ d   1      -0.113   5.969   5.996  0.00  0.00     0.000 A 
ATOM      2  C2  BNZ d   1       1.256   5.992   5.973  0.00  0.00     0.000 A 
ATOM      3  C3  BNZ d   1       1.941   5.749   4.816  0.00  0.00     0.000 A 
ATOM      4  C4  BNZ d   1       1.258   5.445   3.693  0.00  0.00     0.000 A 
ATOM      5  C5  BNZ d   1      -0.122   5.409   3.702  0.00  0.00     0.000 A 
ATOM      6  C6  BNZ d   1      -0.809   5.692   4.860  0.00  0.00     0.000 A 
ENDROOT
TORSDOF 0
ENDMDL
