MODEL 1
REMARK minimizedAffinity 0.868305266
REMARK minimizedRMSD -1
REMARK  0 active torsions:
REMARK  status: ('A' for Active; 'I' for Inactive)
ROOT
ATOM      1  C1  BNZ d   1       0.896  -1.496   1.522  0.00  0.00     0.000 A 
ATOM      2  C2  BNZ d   1       1.932  -0.687   1.137  0.00  0.00     0.000 A 
ATOM      3  C3  BNZ d   1       3.066  -1.217   0.587  0.00  0.00     0.000 A 
ATOM      4  C4  BNZ d   1       3.179  -2.554   0.460  0.00  0.00     0.000 A 
ATOM      5  C5  BNZ d   1       2.148  -3.384   0.853  0.00  0.00     0.000 A 
ATOM      6  C6  BNZ d   1       0.992  -2.845   1.370  0.00  0.00     0.000 A 
ENDROOT
TORSDOF 0
ENDMDL
