MODEL 1
REMARK minimizedAffinity 8.57867146
REMARK minimizedRMSD -1
REMARK  0 active torsions:
REMARK  status: ('A' for Active; 'I' for Inactive)
ROOT
ATOM      1  C   UNL d   1      -5.436  -2.008   3.836  0.00  0.00     0.020 A 
ATOM      2  C1  UNL d   1      -4.829  -1.989   2.581  0.00  0.00     0.020 A 
ATOM      3  C2  UNL d   1      -3.831  -1.053   2.303  0.00  0.00     0.034 A 
ATOM      4  C3  UNL d   1      -3.437  -0.132   3.280  0.00  0.00     0.017 A 
ATOM      5  C4  UNL d   1      -4.047  -0.152   4.540  0.00  0.00     0.017 A 
ATOM      6  C5  UNL d   1      -5.046  -1.091   4.813  0.00  0.00     0.034 A 
ATOM      7 Cl   UNL d   1      -3.615   0.953   5.797  0.00  0.00    -0.070 Cl
ATOM      8 Cl1  UNL d   1      -2.197   0.998   2.867  0.00  0.00    -0.070 Cl
ENDROOT
TORSDOF 0
ENDMDL
