MODEL 1
REMARK minimizedAffinity 1.94009221
REMARK minimizedRMSD -1
REMARK  0 active torsions:
REMARK  status: ('A' for Active; 'I' for Inactive)
ROOT
ATOM      1  C   UNL d   1      -2.933   1.516   5.254  0.00  0.00     0.020 A 
ATOM      2  C1  UNL d   1      -2.993   1.698   3.873  0.00  0.00     0.020 A 
ATOM      3  C2  UNL d   1      -3.734   0.815   3.084  0.00  0.00     0.034 A 
ATOM      4  C3  UNL d   1      -4.417  -0.253   3.675  0.00  0.00     0.017 A 
ATOM      5  C4  UNL d   1      -4.356  -0.435   5.061  0.00  0.00     0.017 A 
ATOM      6  C5  UNL d   1      -3.613   0.451   5.847  0.00  0.00     0.034 A 
ATOM      7 Cl   UNL d   1      -5.172  -1.731   5.863  0.00  0.00    -0.070 Cl
ATOM      8 Cl1  UNL d   1      -5.313  -1.306   2.638  0.00  0.00    -0.070 Cl
ENDROOT
TORSDOF 0
ENDMDL
