MODEL 1
REMARK minimizedAffinity 11.6596136
REMARK minimizedRMSD -1
REMARK  0 active torsions:
REMARK  status: ('A' for Active; 'I' for Inactive)
ROOT
ATOM      1  C   UNL d   1      -5.256  -1.566   2.133  0.00  0.00     0.020 A 
ATOM      2  C1  UNL d   1      -4.738  -0.271   2.129  0.00  0.00     0.020 A 
ATOM      3  C2  UNL d   1      -4.600   0.429   3.329  0.00  0.00     0.034 A 
ATOM      4  C3  UNL d   1      -4.982  -0.164   4.538  0.00  0.00     0.017 A 
ATOM      5  C4  UNL d   1      -5.502  -1.463   4.541  0.00  0.00     0.017 A 
ATOM      6  C5  UNL d   1      -5.638  -2.160   3.336  0.00  0.00     0.034 A 
ATOM      7 Cl   UNL d   1      -5.995  -2.261   5.992  0.00  0.00    -0.070 Cl
ATOM      8 Cl1  UNL d   1      -4.784   0.761   5.984  0.00  0.00    -0.070 Cl
ENDROOT
TORSDOF 0
ENDMDL
