MODEL 1
REMARK minimizedAffinity 12.2962208
REMARK minimizedRMSD -1
REMARK  0 active torsions:
REMARK  status: ('A' for Active; 'I' for Inactive)
ROOT
ATOM      1  C   UNL d   1      -0.114  -1.241   2.840  0.00  0.00     0.020 A 
ATOM      2  C1  UNL d   1      -1.418  -1.215   2.349  0.00  0.00     0.020 A 
ATOM      3  C2  UNL d   1      -1.831  -2.167   1.414  0.00  0.00     0.034 A 
ATOM      4  C3  UNL d   1      -0.939  -3.149   0.968  0.00  0.00     0.017 A 
ATOM      5  C4  UNL d   1       0.370  -3.174   1.463  0.00  0.00     0.017 A 
ATOM      6  C5  UNL d   1       0.778  -2.219   2.398  0.00  0.00     0.034 A 
ATOM      7 Cl   UNL d   1       1.527  -4.356   0.960  0.00  0.00    -0.070 Cl
ATOM      8 Cl1  UNL d   1      -1.518  -4.295  -0.188  0.00  0.00    -0.070 Cl
ENDROOT
TORSDOF 0
ENDMDL
