MODEL 1
REMARK minimizedAffinity 8.28292942
REMARK minimizedRMSD -1
REMARK  0 active torsions:
REMARK  status: ('A' for Active; 'I' for Inactive)
ROOT
ATOM      1  C   UNL d   1      -2.961  -1.566   1.516  0.00  0.00     0.020 A 
ATOM      2  C1  UNL d   1      -2.331  -0.401   1.952  0.00  0.00     0.020 A 
ATOM      3  C2  UNL d   1      -0.937  -0.343   2.018  0.00  0.00     0.034 A 
ATOM      4  C3  UNL d   1      -0.169  -1.453   1.648  0.00  0.00     0.017 A 
ATOM      5  C4  UNL d   1      -0.802  -2.622   1.211  0.00  0.00     0.017 A 
ATOM      6  C5  UNL d   1      -2.197  -2.675   1.147  0.00  0.00     0.034 A 
ATOM      7 Cl   UNL d   1       0.080  -4.032   0.738  0.00  0.00    -0.070 Cl
ATOM      8 Cl1  UNL d   1       1.550  -1.311   1.754  0.00  0.00    -0.070 Cl
ENDROOT
TORSDOF 0
ENDMDL
