MODEL 1
REMARK minimizedAffinity -1.8777405
REMARK minimizedRMSD -1
REMARK  0 active torsions:
REMARK  status: ('A' for Active; 'I' for Inactive)
ROOT
ATOM      1  C   UNL d   1       2.034  -3.569  -1.065  0.00  0.00     0.020 A 
ATOM      2  C1  UNL d   1       2.240  -2.242  -0.692  0.00  0.00     0.020 A 
ATOM      3  C2  UNL d   1       3.472  -1.848  -0.165  0.00  0.00     0.034 A 
ATOM      4  C3  UNL d   1       4.502  -2.783  -0.009  0.00  0.00     0.017 A 
ATOM      5  C4  UNL d   1       4.294  -4.115  -0.385  0.00  0.00     0.017 A 
ATOM      6  C5  UNL d   1       3.059  -4.504  -0.912  0.00  0.00     0.034 A 
ATOM      7 Cl   UNL d   1       5.518  -5.325  -0.223  0.00  0.00    -0.070 Cl
ATOM      8 Cl1  UNL d   1       6.000  -2.226   0.649  0.00  0.00    -0.070 Cl
ENDROOT
TORSDOF 0
ENDMDL
