MODEL 1
REMARK minimizedAffinity -0.1968676
REMARK minimizedRMSD -1
REMARK  0 active torsions:
REMARK  status: ('A' for Active; 'I' for Inactive)
ROOT
ATOM      1  C   UNL d   1       5.049  -5.848  -1.213  0.00  0.00     0.020 A 
ATOM      2  C1  UNL d   1       5.673  -4.737  -1.781  0.00  0.00     0.020 A 
ATOM      3  C2  UNL d   1       5.011  -3.508  -1.819  0.00  0.00     0.034 A 
ATOM      4  C3  UNL d   1       3.722  -3.386  -1.288  0.00  0.00     0.017 A 
ATOM      5  C4  UNL d   1       3.096  -4.502  -0.719  0.00  0.00     0.017 A 
ATOM      6  C5  UNL d   1       3.764  -5.730  -0.683  0.00  0.00     0.034 A 
ATOM      7 Cl   UNL d   1       1.507  -4.429  -0.044  0.00  0.00    -0.070 Cl
ATOM      8 Cl1  UNL d   1       2.963  -1.836  -1.369  0.00  0.00    -0.070 Cl
ENDROOT
TORSDOF 0
ENDMDL
