MODEL 1
REMARK minimizedAffinity -2.7337482
REMARK minimizedRMSD -1
REMARK  0 active torsions:
REMARK  status: ('A' for Active; 'I' for Inactive)
ROOT
ATOM      1  C   UNL d   1       5.247  -4.080  -1.563  0.00  0.00     0.020 A 
ATOM      2  C1  UNL d   1       4.951  -4.597  -0.303  0.00  0.00     0.020 A 
ATOM      3  C2  UNL d   1       3.777  -4.215   0.350  0.00  0.00     0.034 A 
ATOM      4  C3  UNL d   1       2.895  -3.313  -0.257  0.00  0.00     0.017 A 
ATOM      5  C4  UNL d   1       3.194  -2.795  -1.522  0.00  0.00     0.017 A 
ATOM      6  C5  UNL d   1       4.370  -3.181  -2.172  0.00  0.00     0.034 A 
ATOM      7 Cl   UNL d   1       2.155  -1.678  -2.335  0.00  0.00    -0.070 Cl
ATOM      8 Cl1  UNL d   1       1.462  -2.884   0.608  0.00  0.00    -0.070 Cl
ENDROOT
TORSDOF 0
ENDMDL
