MODEL 1
REMARK minimizedAffinity -0.992683768
REMARK minimizedRMSD -1
REMARK  0 active torsions:
REMARK  status: ('A' for Active; 'I' for Inactive)
ROOT
ATOM      1  C   UNL d   1       1.174  -3.715   1.416  0.00  0.00     0.020 A 
ATOM      2  C1  UNL d   1       0.760  -2.409   1.156  0.00  0.00     0.020 A 
ATOM      3  C2  UNL d   1       1.407  -1.654   0.176  0.00  0.00     0.034 A 
ATOM      4  C3  UNL d   1       2.472  -2.203  -0.548  0.00  0.00     0.017 A 
ATOM      5  C4  UNL d   1       2.886  -3.514  -0.286  0.00  0.00     0.017 A 
ATOM      6  C5  UNL d   1       2.235  -4.266   0.697  0.00  0.00     0.034 A 
ATOM      7 Cl   UNL d   1       4.192  -4.261  -1.138  0.00  0.00    -0.070 Cl
ATOM      8 Cl1  UNL d   1       3.226  -1.212  -1.746  0.00  0.00    -0.070 Cl
ENDROOT
TORSDOF 0
ENDMDL
