MODEL 1
REMARK minimizedAffinity -2.69174123
REMARK minimizedRMSD -1
REMARK  0 active torsions:
REMARK  status: ('A' for Active; 'I' for Inactive)
ROOT
ATOM      1  C   UNL d   1       5.999  -4.501  -1.355  0.00  0.00     0.020 A 
ATOM      2  C1  UNL d   1       5.296  -5.225  -0.393  0.00  0.00     0.020 A 
ATOM      3  C2  UNL d   1       4.003  -4.838  -0.035  0.00  0.00     0.034 A 
ATOM      4  C3  UNL d   1       3.409  -3.724  -0.639  0.00  0.00     0.017 A 
ATOM      5  C4  UNL d   1       4.116  -2.998  -1.605  0.00  0.00     0.017 A 
ATOM      6  C5  UNL d   1       5.410  -3.390  -1.960  0.00  0.00     0.034 A 
ATOM      7 Cl   UNL d   1       3.449  -1.612  -2.394  0.00  0.00    -0.070 Cl
ATOM      8 Cl1  UNL d   1       1.807  -3.303  -0.148  0.00  0.00    -0.070 Cl
ENDROOT
TORSDOF 0
ENDMDL
