MODEL 1
REMARK minimizedAffinity -3.78512335
REMARK minimizedRMSD -1
REMARK  0 active torsions:
REMARK  status: ('A' for Active; 'I' for Inactive)
ROOT
ATOM      1  C   UNL d   1       5.102  -5.942   0.007  0.00  0.00     0.020 A 
ATOM      2  C1  UNL d   1       5.671  -5.092  -0.940  0.00  0.00     0.020 A 
ATOM      3  C2  UNL d   1       4.967  -3.971  -1.386  0.00  0.00     0.034 A 
ATOM      4  C3  UNL d   1       3.690  -3.697  -0.884  0.00  0.00     0.017 A 
ATOM      5  C4  UNL d   1       3.119  -4.551   0.067  0.00  0.00     0.017 A 
ATOM      6  C5  UNL d   1       3.829  -5.671   0.510  0.00  0.00     0.034 A 
ATOM      7 Cl   UNL d   1       1.547  -4.278   0.733  0.00  0.00    -0.070 Cl
ATOM      8 Cl1  UNL d   1       2.876  -2.294  -1.479  0.00  0.00    -0.070 Cl
ENDROOT
TORSDOF 0
ENDMDL
