MODEL 1
REMARK minimizedAffinity 7.24751854
REMARK minimizedRMSD -1
REMARK  0 active torsions:
REMARK  status: ('A' for Active; 'I' for Inactive)
ROOT
ATOM      1  C   UNL d   1      -0.054  -4.653  -5.999  0.00  0.00     0.020 A 
ATOM      2  C1  UNL d   1       0.488  -5.593  -5.125  0.00  0.00     0.020 A 
ATOM      3  C2  UNL d   1      -0.226  -5.985  -3.990  0.00  0.00     0.034 A 
ATOM      4  C3  UNL d   1      -1.487  -5.437  -3.728  0.00  0.00     0.017 A 
ATOM      5  C4  UNL d   1      -2.031  -4.493  -4.607  0.00  0.00     0.017 A 
ATOM      6  C5  UNL d   1      -1.311  -4.104  -5.741  0.00  0.00     0.034 A 
ATOM      7 Cl   UNL d   1      -3.580  -3.772  -4.350  0.00  0.00    -0.070 Cl
ATOM      8 Cl1  UNL d   1      -2.315  -5.968  -2.307  0.00  0.00    -0.070 Cl
ENDROOT
TORSDOF 0
ENDMDL
