MODEL 1
REMARK minimizedAffinity 3.96870208
REMARK minimizedRMSD -1
REMARK  0 active torsions:
REMARK  status: ('A' for Active; 'I' for Inactive)
ROOT
ATOM      1  C   UNL d   1       5.914  -5.998  -1.162  0.00  0.00     0.020 A 
ATOM      2  C1  UNL d   1       5.933  -4.812  -1.894  0.00  0.00     0.020 A 
ATOM      3  C2  UNL d   1       5.959  -3.583  -1.230  0.00  0.00     0.034 A 
ATOM      4  C3  UNL d   1       5.966  -3.538   0.168  0.00  0.00     0.017 A 
ATOM      5  C4  UNL d   1       5.948  -4.730   0.902  0.00  0.00     0.017 A 
ATOM      6  C5  UNL d   1       5.922  -5.958   0.233  0.00  0.00     0.034 A 
ATOM      7 Cl   UNL d   1       5.956  -4.755   2.630  0.00  0.00    -0.070 Cl
ATOM      8 Cl1  UNL d   1       6.000  -1.984   0.923  0.00  0.00    -0.070 Cl
ENDROOT
TORSDOF 0
ENDMDL
