MODEL 1
REMARK minimizedAffinity 12.0144548
REMARK minimizedRMSD -1
REMARK  0 active torsions:
REMARK  status: ('A' for Active; 'I' for Inactive)
ROOT
ATOM      1  C   UNL d   1      -4.315   0.693   0.625  0.00  0.00     0.020 A 
ATOM      2  C1  UNL d   1      -3.255   0.750   1.528  0.00  0.00     0.020 A 
ATOM      3  C2  UNL d   1      -2.427   1.875   1.563  0.00  0.00     0.034 A 
ATOM      4  C3  UNL d   1      -2.659   2.947   0.694  0.00  0.00     0.017 A 
ATOM      5  C4  UNL d   1      -3.724   2.888  -0.212  0.00  0.00     0.017 A 
ATOM      6  C5  UNL d   1      -4.549   1.760  -0.243  0.00  0.00     0.034 A 
ATOM      7 Cl   UNL d   1      -4.073   4.171  -1.317  0.00  0.00    -0.070 Cl
ATOM      8 Cl1  UNL d   1      -1.597   4.306   0.792  0.00  0.00    -0.070 Cl
ENDROOT
TORSDOF 0
ENDMDL
