MODEL 1
REMARK minimizedAffinity 8.23925114
REMARK minimizedRMSD -1
REMARK  0 active torsions:
REMARK  status: ('A' for Active; 'I' for Inactive)
ROOT
ATOM      1  C   UNL d   1      -0.345   4.737  -0.319  0.00  0.00     0.020 A 
ATOM      2  C1  UNL d   1       0.612   3.858   0.186  0.00  0.00     0.020 A 
ATOM      3  C2  UNL d   1       1.476   3.191  -0.685  0.00  0.00     0.034 A 
ATOM      4  C3  UNL d   1       1.384   3.402  -2.066  0.00  0.00     0.017 A 
ATOM      5  C4  UNL d   1       0.423   4.285  -2.572  0.00  0.00     0.017 A 
ATOM      6  C5  UNL d   1      -0.440   4.950  -1.695  0.00  0.00     0.034 A 
ATOM      7 Cl   UNL d   1       0.249   4.597  -4.263  0.00  0.00    -0.070 Cl
ATOM      8 Cl1  UNL d   1       2.484   2.544  -3.085  0.00  0.00    -0.070 Cl
ENDROOT
TORSDOF 0
ENDMDL
