MODEL 1
REMARK minimizedAffinity 0.618500769
REMARK minimizedRMSD -1
REMARK  0 active torsions:
REMARK  status: ('A' for Active; 'I' for Inactive)
ROOT
ATOM      1  C   UNL d   1       4.879  -3.933  -0.229  0.00  0.00     0.020 A 
ATOM      2  C1  UNL d   1       4.055  -5.055  -0.312  0.00  0.00     0.020 A 
ATOM      3  C2  UNL d   1       2.684  -4.932  -0.080  0.00  0.00     0.034 A 
ATOM      4  C3  UNL d   1       2.132  -3.684   0.235  0.00  0.00     0.017 A 
ATOM      5  C4  UNL d   1       2.960  -2.559   0.317  0.00  0.00     0.017 A 
ATOM      6  C5  UNL d   1       4.333  -2.688   0.084  0.00  0.00     0.034 A 
ATOM      7 Cl   UNL d   1       2.352  -0.987   0.700  0.00  0.00    -0.070 Cl
ATOM      8 Cl1  UNL d   1       0.428  -3.606   0.508  0.00  0.00    -0.070 Cl
ENDROOT
TORSDOF 0
ENDMDL
