MODEL 1
REMARK minimizedAffinity 2.80118084
REMARK minimizedRMSD -1
REMARK  0 active torsions:
REMARK  status: ('A' for Active; 'I' for Inactive)
ROOT
ATOM      1  C   UNL d   1       2.212   5.729   1.750  0.00  0.00     0.020 A 
ATOM      2  C1  UNL d   1       1.589   4.667   1.096  0.00  0.00     0.020 A 
ATOM      3  C2  UNL d   1       2.314   3.874   0.204  0.00  0.00     0.034 A 
ATOM      4  C3  UNL d   1       3.667   4.141  -0.035  0.00  0.00     0.017 A 
ATOM      5  C4  UNL d   1       4.291   5.207   0.622  0.00  0.00     0.017 A 
ATOM      6  C5  UNL d   1       3.560   5.998   1.514  0.00  0.00     0.034 A 
ATOM      7 Cl   UNL d   1       5.957   5.599   0.377  0.00  0.00    -0.070 Cl
ATOM      8 Cl1  UNL d   1       4.502   3.119  -1.150  0.00  0.00    -0.070 Cl
ENDROOT
TORSDOF 0
ENDMDL
