MODEL 1
REMARK minimizedAffinity 6.80384684
REMARK minimizedRMSD -1
REMARK  0 active torsions:
REMARK  status: ('A' for Active; 'I' for Inactive)
ROOT
ATOM      1  C   UNL d   1       5.692   5.997   0.545  0.00  0.00     0.020 A 
ATOM      2  C1  UNL d   1       4.672   6.000   1.495  0.00  0.00     0.020 A 
ATOM      3  C2  UNL d   1       3.754   4.949   1.537  0.00  0.00     0.034 A 
ATOM      4  C3  UNL d   1       3.854   3.890   0.627  0.00  0.00     0.017 A 
ATOM      5  C4  UNL d   1       4.878   3.888  -0.326  0.00  0.00     0.017 A 
ATOM      6  C5  UNL d   1       5.795   4.943  -0.364  0.00  0.00     0.034 A 
ATOM      7 Cl   UNL d   1       5.066   2.616  -1.482  0.00  0.00    -0.070 Cl
ATOM      8 Cl1  UNL d   1       2.684   2.623   0.737  0.00  0.00    -0.070 Cl
ENDROOT
TORSDOF 0
ENDMDL
