MODEL 1
REMARK minimizedAffinity -1.22109485
REMARK minimizedRMSD -1
REMARK  0 active torsions:
REMARK  status: ('A' for Active; 'I' for Inactive)
ROOT
ATOM      1  C   UNL d   1       0.964  -0.550  -0.879  0.00  0.00     0.077 C 
ATOM      2  C1  UNL d   1       0.332  -0.069   0.394  0.00  0.00    -0.074 A 
ATOM      3  C2  UNL d   1      -0.075  -0.974   1.380  0.00  0.00    -0.005 A 
ATOM      4  C3  UNL d   1      -0.653  -0.512   2.563  0.00  0.00     0.006 A 
ATOM      5  C4  UNL d   1      -0.829   0.857   2.771  0.00  0.00    -0.005 A 
ATOM      6  C5  UNL d   1      -0.427   1.776   1.796  0.00  0.00    -0.074 A 
ATOM      7  C6  UNL d   1      -0.600   3.251   2.008  0.00  0.00     0.077 C 
ATOM      8  C7  UNL d   1       0.159   1.304   0.614  0.00  0.00    -0.001 A 
ENDROOT
TORSDOF 0
ENDMDL
