MODEL 1
REMARK minimizedAffinity -1.91763425
REMARK minimizedRMSD -1
REMARK  0 active torsions:
REMARK  status: ('A' for Active; 'I' for Inactive)
ROOT
ATOM      1  C   UNL d   1      -0.566   3.866   0.674  0.00  0.00     0.077 C 
ATOM      2  C1  UNL d   1      -0.363   2.388   0.831  0.00  0.00    -0.074 A 
ATOM      3  C2  UNL d   1      -0.825   1.716   1.967  0.00  0.00    -0.005 A 
ATOM      4  C3  UNL d   1      -0.637   0.340   2.094  0.00  0.00     0.006 A 
ATOM      5  C4  UNL d   1       0.012  -0.377   1.089  0.00  0.00    -0.005 A 
ATOM      6  C5  UNL d   1       0.480   0.278  -0.055  0.00  0.00    -0.074 A 
ATOM      7  C6  UNL d   1       1.171  -0.479  -1.150  0.00  0.00     0.077 C 
ATOM      8  C7  UNL d   1       0.282   1.660  -0.179  0.00  0.00    -0.001 A 
ENDROOT
TORSDOF 0
ENDMDL
