MODEL 1
REMARK minimizedAffinity -4.93938828
REMARK minimizedRMSD -1
REMARK  0 active torsions:
REMARK  status: ('A' for Active; 'I' for Inactive)
ROOT
ATOM      1  C   UNL d   1      -0.073   3.798   1.492  0.00  0.00     0.077 C 
ATOM      2  C1  UNL d   1      -0.278   2.314   1.567  0.00  0.00    -0.074 A 
ATOM      3  C2  UNL d   1      -1.009   1.742   2.612  0.00  0.00    -0.005 A 
ATOM      4  C3  UNL d   1      -1.199   0.361   2.664  0.00  0.00     0.006 A 
ATOM      5  C4  UNL d   1      -0.661  -0.460   1.672  0.00  0.00    -0.005 A 
ATOM      6  C5  UNL d   1       0.073   0.095   0.619  0.00  0.00    -0.074 A 
ATOM      7  C6  UNL d   1       0.650  -0.772  -0.461  0.00  0.00     0.077 C 
ATOM      8  C7  UNL d   1       0.254   1.484   0.570  0.00  0.00    -0.001 A 
ENDROOT
TORSDOF 0
ENDMDL
