MODEL 1
REMARK minimizedAffinity -5.2741828
REMARK minimizedRMSD -1
REMARK  0 active torsions:
REMARK  status: ('A' for Active; 'I' for Inactive)
ROOT
ATOM      1  C   UNL d   1       0.660  -1.147  -0.491  0.00  0.00     0.077 C 
ATOM      2  C1  UNL d   1       0.077  -0.058   0.361  0.00  0.00    -0.074 A 
ATOM      3  C2  UNL d   1      -0.643  -0.361   1.521  0.00  0.00    -0.005 A 
ATOM      4  C3  UNL d   1      -1.171   0.663   2.307  0.00  0.00     0.006 A 
ATOM      5  C4  UNL d   1      -0.984   1.997   1.943  0.00  0.00    -0.005 A 
ATOM      6  C5  UNL d   1      -0.266   2.318   0.786  0.00  0.00    -0.074 A 
ATOM      7  C6  UNL d   1      -0.048   3.747   0.385  0.00  0.00     0.077 C 
ATOM      8  C7  UNL d   1       0.267   1.284   0.005  0.00  0.00    -0.001 A 
ENDROOT
TORSDOF 0
ENDMDL
