MODEL 1
REMARK minimizedAffinity -2.21105599
REMARK minimizedRMSD -1
REMARK  0 active torsions:
REMARK  status: ('A' for Active; 'I' for Inactive)
ROOT
ATOM      1  C   UNL d   1       1.496   0.806  -1.539  0.00  0.00     0.077 C 
ATOM      2  C1  UNL d   1       0.628   0.904  -0.320  0.00  0.00    -0.074 A 
ATOM      3  C2  UNL d   1       0.364  -0.221   0.467  0.00  0.00    -0.005 A 
ATOM      4  C3  UNL d   1      -0.438  -0.112   1.603  0.00  0.00     0.006 A 
ATOM      5  C4  UNL d   1      -0.983   1.121   1.963  0.00  0.00    -0.005 A 
ATOM      6  C5  UNL d   1      -0.729   2.257   1.188  0.00  0.00    -0.074 A 
ATOM      7  C6  UNL d   1      -1.299   3.592   1.566  0.00  0.00     0.077 C 
ATOM      8  C7  UNL d   1       0.084   2.141   0.052  0.00  0.00    -0.001 A 
ENDROOT
TORSDOF 0
ENDMDL
