MODEL 1
REMARK minimizedAffinity -4.36237764
REMARK minimizedRMSD -1
REMARK  0 active torsions:
REMARK  status: ('A' for Active; 'I' for Inactive)
ROOT
ATOM      1  C   UNL d   1       0.806  -1.130  -0.713  0.00  0.00     0.077 C 
ATOM      2  C1  UNL d   1       0.287   0.027   0.088  0.00  0.00    -0.074 A 
ATOM      3  C2  UNL d   1      -0.367  -0.178   1.307  0.00  0.00    -0.005 A 
ATOM      4  C3  UNL d   1      -0.836   0.908   2.046  0.00  0.00     0.006 A 
ATOM      5  C4  UNL d   1      -0.657   2.209   1.573  0.00  0.00    -0.005 A 
ATOM      6  C5  UNL d   1      -0.005   2.434   0.356  0.00  0.00    -0.074 A 
ATOM      7  C6  UNL d   1       0.204   3.826  -0.161  0.00  0.00     0.077 C 
ATOM      8  C7  UNL d   1       0.470   1.337  -0.376  0.00  0.00    -0.001 A 
ENDROOT
TORSDOF 0
ENDMDL
