MODEL 1
REMARK minimizedAffinity -1.31100881
REMARK minimizedRMSD -1
REMARK  0 active torsions:
REMARK  status: ('A' for Active; 'I' for Inactive)
ROOT
ATOM      1  C   UNL d   1       0.372   1.845   4.608  0.00  0.00     0.077 C 
ATOM      2  C1  UNL d   1      -0.014   0.966   3.455  0.00  0.00    -0.074 A 
ATOM      3  C2  UNL d   1       0.822  -0.072   3.032  0.00  0.00    -0.005 A 
ATOM      4  C3  UNL d   1       0.445  -0.888   1.965  0.00  0.00     0.006 A 
ATOM      5  C4  UNL d   1      -0.769  -0.673   1.311  0.00  0.00    -0.005 A 
ATOM      6  C5  UNL d   1      -1.618   0.360   1.721  0.00  0.00    -0.074 A 
ATOM      7  C6  UNL d   1      -2.931   0.598   1.036  0.00  0.00     0.077 C 
ATOM      8  C7  UNL d   1      -1.235   1.170   2.799  0.00  0.00    -0.001 A 
ENDROOT
TORSDOF 0
ENDMDL
