MODEL 1
REMARK minimizedAffinity -4.37190723
REMARK minimizedRMSD -1
REMARK  0 active torsions:
REMARK  status: ('A' for Active; 'I' for Inactive)
ROOT
ATOM      1  C   UNL d   1       0.591  -3.352  -2.801  0.00  0.00     0.077 C 
ATOM      2  C1  UNL d   1       0.404  -2.033  -2.112  0.00  0.00    -0.074 A 
ATOM      3  C2  UNL d   1      -0.317  -1.000  -2.720  0.00  0.00    -0.005 A 
ATOM      4  C3  UNL d   1      -0.490   0.218  -2.064  0.00  0.00     0.006 A 
ATOM      5  C4  UNL d   1       0.055   0.416  -0.795  0.00  0.00    -0.005 A 
ATOM      6  C5  UNL d   1       0.779  -0.605  -0.171  0.00  0.00    -0.074 A 
ATOM      7  C6  UNL d   1       1.364  -0.412   1.197  0.00  0.00     0.077 C 
ATOM      8  C7  UNL d   1       0.943  -1.828  -0.834  0.00  0.00    -0.001 A 
ENDROOT
TORSDOF 0
ENDMDL
