MODEL 1
REMARK minimizedAffinity -2.41509557
REMARK minimizedRMSD -1
REMARK  0 active torsions:
REMARK  status: ('A' for Active; 'I' for Inactive)
ROOT
ATOM      1  C   UNL d   1       0.762  -4.350  -0.942  0.00  0.00     0.077 C 
ATOM      2  C1  UNL d   1       0.523  -3.132  -1.783  0.00  0.00    -0.074 A 
ATOM      3  C2  UNL d   1       0.029  -3.244  -3.086  0.00  0.00    -0.005 A 
ATOM      4  C3  UNL d   1      -0.197  -2.102  -3.854  0.00  0.00     0.006 A 
ATOM      5  C4  UNL d   1       0.068  -0.837  -3.326  0.00  0.00    -0.005 A 
ATOM      6  C5  UNL d   1       0.562  -0.705  -2.025  0.00  0.00    -0.074 A 
ATOM      7  C6  UNL d   1       0.844   0.647  -1.439  0.00  0.00     0.077 C 
ATOM      8  C7  UNL d   1       0.780  -1.858  -1.258  0.00  0.00    -0.001 A 
ENDROOT
TORSDOF 0
ENDMDL
