MODEL 1
REMARK minimizedAffinity -3.34973955
REMARK minimizedRMSD -1
REMARK  0 active torsions:
REMARK  status: ('A' for Active; 'I' for Inactive)
ROOT
ATOM      1  C   UNL d   1       1.172  -3.779  -0.889  0.00  0.00     0.077 C 
ATOM      2  C1  UNL d   1       0.710  -2.546  -1.607  0.00  0.00    -0.074 A 
ATOM      3  C2  UNL d   1       0.049  -2.635  -2.836  0.00  0.00    -0.005 A 
ATOM      4  C3  UNL d   1      -0.383  -1.480  -3.488  0.00  0.00     0.006 A 
ATOM      5  C4  UNL d   1      -0.161  -0.226  -2.917  0.00  0.00    -0.005 A 
ATOM      6  C5  UNL d   1       0.497  -0.117  -1.688  0.00  0.00    -0.074 A 
ATOM      7  C6  UNL d   1       0.736   1.222  -1.056  0.00  0.00     0.077 C 
ATOM      8  C7  UNL d   1       0.923  -1.283  -1.036  0.00  0.00    -0.001 A 
ENDROOT
TORSDOF 0
ENDMDL
