MODEL 1
REMARK minimizedAffinity 1.94338644
REMARK minimizedRMSD -1
REMARK  0 active torsions:
REMARK  status: ('A' for Active; 'I' for Inactive)
ROOT
ATOM      1  C   UNL d   1      -0.968   1.177   0.642  0.00  0.00     0.077 C 
ATOM      2  C1  UNL d   1      -0.435   2.357   1.400  0.00  0.00    -0.074 A 
ATOM      3  C2  UNL d   1      -0.179   2.273   2.772  0.00  0.00    -0.005 A 
ATOM      4  C3  UNL d   1       0.325   3.376   3.462  0.00  0.00     0.006 A 
ATOM      5  C4  UNL d   1       0.578   4.571   2.787  0.00  0.00    -0.005 A 
ATOM      6  C5  UNL d   1       0.329   4.673   1.415  0.00  0.00    -0.074 A 
ATOM      7  C6  UNL d   1       0.604   5.947   0.673  0.00  0.00     0.077 C 
ATOM      8  C7  UNL d   1      -0.171   3.559   0.728  0.00  0.00    -0.001 A 
ENDROOT
TORSDOF 0
ENDMDL
