MODEL 1
REMARK minimizedAffinity -2.85362196
REMARK minimizedRMSD -1
REMARK  0 active torsions:
REMARK  status: ('A' for Active; 'I' for Inactive)
ROOT
ATOM      1  C   UNL d   1      -0.917  -0.119   3.379  0.00  0.00     0.077 C 
ATOM      2  C1  UNL d   1      -0.630   0.401   2.002  0.00  0.00    -0.074 A 
ATOM      3  C2  UNL d   1      -1.078   1.665   1.603  0.00  0.00    -0.005 A 
ATOM      4  C3  UNL d   1      -0.795   2.140   0.322  0.00  0.00     0.006 A 
ATOM      5  C4  UNL d   1      -0.064   1.357  -0.572  0.00  0.00    -0.005 A 
ATOM      6  C5  UNL d   1       0.393   0.091  -0.191  0.00  0.00    -0.074 A 
ATOM      7  C6  UNL d   1       1.189  -0.759  -1.136  0.00  0.00     0.077 C 
ATOM      8  C7  UNL d   1       0.111  -0.376   1.100  0.00  0.00    -0.001 A 
ENDROOT
TORSDOF 0
ENDMDL
