MODEL 1
REMARK minimizedAffinity 2.39639425
REMARK minimizedRMSD -1
REMARK  0 active torsions:
REMARK  status: ('A' for Active; 'I' for Inactive)
ROOT
ATOM      1  C   UNL d   1      -0.316   1.184   3.272  0.00  0.00     0.077 C 
ATOM      2  C1  UNL d   1       0.004   0.606   1.926  0.00  0.00    -0.074 A 
ATOM      3  C2  UNL d   1      -0.161  -0.760   1.673  0.00  0.00    -0.005 A 
ATOM      4  C3  UNL d   1       0.131  -1.282   0.413  0.00  0.00     0.006 A 
ATOM      5  C4  UNL d   1       0.590  -0.445  -0.605  0.00  0.00    -0.005 A 
ATOM      6  C5  UNL d   1       0.760   0.923  -0.371  0.00  0.00    -0.074 A 
ATOM      7  C6  UNL d   1       1.242   1.838  -1.457  0.00  0.00     0.077 C 
ATOM      8  C7  UNL d   1       0.457   1.441   0.896  0.00  0.00    -0.001 A 
ENDROOT
TORSDOF 0
ENDMDL
