MODEL 1
REMARK minimizedAffinity -3.71246409
REMARK minimizedRMSD -1
REMARK  0 active torsions:
REMARK  status: ('A' for Active; 'I' for Inactive)
ROOT
ATOM      1  C   UNL d   1       0.066   3.529  -0.152  0.00  0.00     0.077 C 
ATOM      2  C1  UNL d   1      -0.142   2.129   0.344  0.00  0.00    -0.074 A 
ATOM      3  C2  UNL d   1      -0.651   1.888   1.625  0.00  0.00    -0.005 A 
ATOM      4  C3  UNL d   1      -0.848   0.581   2.069  0.00  0.00     0.006 A 
ATOM      5  C4  UNL d   1      -0.541  -0.498   1.238  0.00  0.00    -0.005 A 
ATOM      6  C5  UNL d   1      -0.033  -0.276  -0.046  0.00  0.00    -0.074 A 
ATOM      7  C6  UNL d   1       0.294  -1.424  -0.955  0.00  0.00     0.077 C 
ATOM      8  C7  UNL d   1       0.157   1.040  -0.487  0.00  0.00    -0.001 A 
ENDROOT
TORSDOF 0
ENDMDL
