MODEL 1
REMARK minimizedAffinity -5.1912241
REMARK minimizedRMSD -1
REMARK  0 active torsions:
REMARK  status: ('A' for Active; 'I' for Inactive)
ROOT
ATOM      1  C   UNL d   1      -0.478   3.408   0.747  0.00  0.00     0.077 C 
ATOM      2  C1  UNL d   1      -0.381   1.934   1.009  0.00  0.00    -0.074 A 
ATOM      3  C2  UNL d   1      -0.812   1.391   2.224  0.00  0.00    -0.005 A 
ATOM      4  C3  UNL d   1      -0.725   0.017   2.450  0.00  0.00     0.006 A 
ATOM      5  C4  UNL d   1      -0.206  -0.825   1.465  0.00  0.00    -0.005 A 
ATOM      6  C5  UNL d   1       0.229  -0.300   0.245  0.00  0.00    -0.074 A 
ATOM      7  C6  UNL d   1       0.780  -1.192  -0.828  0.00  0.00     0.077 C 
ATOM      8  C7  UNL d   1       0.131   1.081   0.022  0.00  0.00    -0.001 A 
ENDROOT
TORSDOF 0
ENDMDL
