MODEL 1
REMARK minimizedAffinity 4.36015368
REMARK minimizedRMSD -1
REMARK  0 active torsions:
REMARK  status: ('A' for Active; 'I' for Inactive)
ROOT
ATOM      1  C   UNL d   1       1.365  -1.422   3.770  0.00  0.00     0.077 C 
ATOM      2  C1  UNL d   1       0.467  -0.706   2.806  0.00  0.00    -0.074 A 
ATOM      3  C2  UNL d   1      -0.548   0.140   3.262  0.00  0.00    -0.005 A 
ATOM      4  C3  UNL d   1      -1.370   0.807   2.353  0.00  0.00     0.006 A 
ATOM      5  C4  UNL d   1      -1.185   0.633   0.981  0.00  0.00    -0.005 A 
ATOM      6  C5  UNL d   1      -0.174  -0.209   0.506  0.00  0.00    -0.074 A 
ATOM      7  C6  UNL d   1       0.045  -0.399  -0.966  0.00  0.00     0.077 C 
ATOM      8  C7  UNL d   1       0.652  -0.869   1.426  0.00  0.00    -0.001 A 
ENDROOT
TORSDOF 0
ENDMDL
