MODEL 1
REMARK minimizedAffinity -3.93540263
REMARK minimizedRMSD -1
REMARK  0 active torsions:
REMARK  status: ('A' for Active; 'I' for Inactive)
ROOT
ATOM      1  C   UNL d   1       0.948  -4.913  -0.813  0.00  0.00     0.077 C 
ATOM      2  C1  UNL d   1       0.793  -3.622  -1.560  0.00  0.00    -0.074 A 
ATOM      3  C2  UNL d   1       0.239  -3.596  -2.844  0.00  0.00    -0.005 A 
ATOM      4  C3  UNL d   1       0.092  -2.387  -3.523  0.00  0.00     0.006 A 
ATOM      5  C4  UNL d   1       0.497  -1.192  -2.926  0.00  0.00    -0.005 A 
ATOM      6  C5  UNL d   1       1.052  -1.198  -1.642  0.00  0.00    -0.074 A 
ATOM      7  C6  UNL d   1       1.484   0.078  -0.982  0.00  0.00     0.077 C 
ATOM      8  C7  UNL d   1       1.190  -2.417  -0.964  0.00  0.00    -0.001 A 
ENDROOT
TORSDOF 0
ENDMDL
