MODEL 1
REMARK minimizedAffinity -3.66991568
REMARK minimizedRMSD -1
REMARK  0 active torsions:
REMARK  status: ('A' for Active; 'I' for Inactive)
ROOT
ATOM      1  C   UNL d   1      -0.736  -1.649  -2.193  0.00  0.00     0.077 C 
ATOM      2  C1  UNL d   1      -0.423  -1.197  -0.798  0.00  0.00    -0.074 A 
ATOM      3  C2  UNL d   1       0.448  -1.929   0.016  0.00  0.00    -0.005 A 
ATOM      4  C3  UNL d   1       0.737  -1.491   1.309  0.00  0.00     0.006 A 
ATOM      5  C4  UNL d   1       0.160  -0.320   1.800  0.00  0.00    -0.005 A 
ATOM      6  C5  UNL d   1      -0.713   0.425   1.000  0.00  0.00    -0.074 A 
ATOM      7  C6  UNL d   1      -1.334   1.692   1.508  0.00  0.00     0.077 C 
ATOM      8  C7  UNL d   1      -0.993  -0.017  -0.300  0.00  0.00    -0.001 A 
ENDROOT
TORSDOF 0
ENDMDL
