MODEL 1
REMARK minimizedAffinity -4.1698041
REMARK minimizedRMSD -1
REMARK  1 active torsions:
REMARK  status: ('A' for Active; 'I' for Inactive)
REMARK    1  A    between atoms: C1_2  and  C2_3 
ROOT
ATOM      1  C2  UNL d   1       0.131  -0.405   0.308  0.00  0.00    -0.077 A 
ATOM      2  C3  UNL d   1       1.113  -0.751   1.247  0.00  0.00     0.002 A 
ATOM      3  C4  UNL d   1       0.758  -1.041   2.566  0.00  0.00     0.002 A 
ATOM      4  C5  UNL d   1      -0.579  -0.990   2.956  0.00  0.00    -0.004 A 
ATOM      5  C6  UNL d   1      -1.562  -0.645   2.031  0.00  0.00     0.002 A 
ATOM      6  C7  UNL d   1      -1.209  -0.354   0.712  0.00  0.00     0.002 A 
ENDROOT
BRANCH   1   7
ATOM      7  C1  UNL d   1       0.506  -0.141  -1.127  0.00  0.00     0.055 C 
ATOM      8  C   UNL d   1      -0.621   0.557  -1.875  0.00  0.00     0.019 C 
ENDBRANCH   1   7
TORSDOF 1
ENDMDL
