MODEL 1
REMARK minimizedAffinity -2.35233045
REMARK minimizedRMSD -1
REMARK  1 active torsions:
REMARK  status: ('A' for Active; 'I' for Inactive)
REMARK    1  A    between atoms: C1_2  and  C2_3 
ROOT
ATOM      1  C2  UNL d   1      -0.324   0.128  -0.619  0.00  0.00    -0.077 A 
ATOM      2  C3  UNL d   1       0.709  -0.307   0.222  0.00  0.00     0.002 A 
ATOM      3  C4  UNL d   1       0.448  -0.621   1.557  0.00  0.00     0.002 A 
ATOM      4  C5  UNL d   1      -0.846  -0.508   2.061  0.00  0.00    -0.004 A 
ATOM      5  C6  UNL d   1      -1.881  -0.076   1.233  0.00  0.00     0.002 A 
ATOM      6  C7  UNL d   1      -1.621   0.240  -0.102  0.00  0.00     0.002 A 
ENDROOT
BRANCH   1   7
ATOM      7  C1  UNL d   1      -0.054   0.420  -2.072  0.00  0.00     0.055 C 
ATOM      8  C   UNL d   1      -0.969   1.518  -2.595  0.00  0.00     0.019 C 
ENDBRANCH   1   7
TORSDOF 1
ENDMDL
