MODEL 1
REMARK minimizedAffinity -6.14473724
REMARK minimizedRMSD -1
REMARK  1 active torsions:
REMARK  status: ('A' for Active; 'I' for Inactive)
REMARK    1  A    between atoms: C1_2  and  C2_3 
ROOT
ATOM      1  C2  UNL d   1       0.798  -0.299   0.341  0.00  0.00    -0.077 A 
ATOM      2  C3  UNL d   1       1.790  -1.227  -0.003  0.00  0.00     0.002 A 
ATOM      3  C4  UNL d   1       2.475  -1.929   0.991  0.00  0.00     0.002 A 
ATOM      4  C5  UNL d   1       2.172  -1.713   2.334  0.00  0.00    -0.004 A 
ATOM      5  C6  UNL d   1       1.188  -0.790   2.686  0.00  0.00     0.002 A 
ATOM      6  C7  UNL d   1       0.503  -0.086   1.694  0.00  0.00     0.002 A 
ENDROOT
BRANCH   1   7
ATOM      7  C1  UNL d   1       0.024   0.423  -0.731  0.00  0.00     0.055 C 
ATOM      8  C   UNL d   1      -0.945  -0.512  -1.440  0.00  0.00     0.019 C 
ENDBRANCH   1   7
TORSDOF 1
ENDMDL
