MODEL 1
REMARK minimizedAffinity -4.15287924
REMARK minimizedRMSD -1
REMARK  1 active torsions:
REMARK  status: ('A' for Active; 'I' for Inactive)
REMARK    1  A    between atoms: C1_2  and  C2_3 
ROOT
ATOM      1  C2  UNL d   1      -1.787  -0.480  -1.027  0.00  0.00    -0.077 A 
ATOM      2  C3  UNL d   1      -2.360  -0.721   0.229  0.00  0.00     0.002 A 
ATOM      3  C4  UNL d   1      -1.550  -0.918   1.349  0.00  0.00     0.002 A 
ATOM      4  C5  UNL d   1      -0.163  -0.872   1.224  0.00  0.00    -0.004 A 
ATOM      5  C6  UNL d   1       0.417  -0.634  -0.021  0.00  0.00     0.002 A 
ATOM      6  C7  UNL d   1      -0.392  -0.439  -1.142  0.00  0.00     0.002 A 
ENDROOT
BRANCH   1   7
ATOM      7  C1  UNL d   1      -2.660  -0.219  -2.227  0.00  0.00     0.055 C 
ATOM      8  C   UNL d   1      -3.335   1.142  -2.135  0.00  0.00     0.019 C 
ENDBRANCH   1   7
TORSDOF 1
ENDMDL
