MODEL 1
REMARK minimizedAffinity -0.904900551
REMARK minimizedRMSD -1
REMARK  1 active torsions:
REMARK  status: ('A' for Active; 'I' for Inactive)
REMARK    1  A    between atoms: C1_2  and  C2_3 
ROOT
ATOM      1  C2  UNL d   1       0.480  -0.620  -0.808  0.00  0.00    -0.077 A 
ATOM      2  C3  UNL d   1       0.099   0.708  -0.570  0.00  0.00     0.002 A 
ATOM      3  C4  UNL d   1       1.064   1.690  -0.339  0.00  0.00     0.002 A 
ATOM      4  C5  UNL d   1       2.417   1.355  -0.347  0.00  0.00    -0.004 A 
ATOM      5  C6  UNL d   1       2.806   0.037  -0.581  0.00  0.00     0.002 A 
ATOM      6  C7  UNL d   1       1.843  -0.946  -0.811  0.00  0.00     0.002 A 
ENDROOT
BRANCH   1   7
ATOM      7  C1  UNL d   1      -0.557  -1.670  -1.107  0.00  0.00     0.055 C 
ATOM      8  C   UNL d   1      -1.412  -1.967   0.116  0.00  0.00     0.019 C 
ENDBRANCH   1   7
TORSDOF 1
ENDMDL
