MODEL 1
REMARK minimizedAffinity -1.59901118
REMARK minimizedRMSD -1
REMARK  1 active torsions:
REMARK  status: ('A' for Active; 'I' for Inactive)
REMARK    1  A    between atoms: C1_2  and  C2_3 
ROOT
ATOM      1  C2  UNL d   1       0.420   0.837  -0.534  0.00  0.00    -0.077 A 
ATOM      2  C3  UNL d   1       1.352   0.653   0.498  0.00  0.00     0.002 A 
ATOM      3  C4  UNL d   1       1.639   1.694   1.383  0.00  0.00     0.002 A 
ATOM      4  C5  UNL d   1       0.997   2.923   1.248  0.00  0.00    -0.004 A 
ATOM      5  C6  UNL d   1       0.071   3.116   0.223  0.00  0.00     0.002 A 
ATOM      6  C7  UNL d   1      -0.217   2.077  -0.663  0.00  0.00     0.002 A 
ENDROOT
BRANCH   1   7
ATOM      7  C1  UNL d   1       0.073  -0.300  -1.459  0.00  0.00     0.055 C 
ATOM      8  C   UNL d   1      -1.275  -0.911  -1.103  0.00  0.00     0.019 C 
ENDBRANCH   1   7
TORSDOF 1
ENDMDL
