MODEL 1
REMARK minimizedAffinity 4.31013632
REMARK minimizedRMSD -1
REMARK  1 active torsions:
REMARK  status: ('A' for Active; 'I' for Inactive)
REMARK    1  A    between atoms: C1_2  and  C2_3 
ROOT
ATOM      1  C2  UNL d   1       4.684   1.705  -1.138  0.00  0.00    -0.077 A 
ATOM      2  C3  UNL d   1       3.636   1.605  -0.212  0.00  0.00     0.002 A 
ATOM      3  C4  UNL d   1       2.651   0.627  -0.365  0.00  0.00     0.002 A 
ATOM      4  C5  UNL d   1       2.706  -0.259  -1.438  0.00  0.00    -0.004 A 
ATOM      5  C6  UNL d   1       3.744  -0.167  -2.364  0.00  0.00     0.002 A 
ATOM      6  C7  UNL d   1       4.729   0.811  -2.215  0.00  0.00     0.002 A 
ENDROOT
BRANCH   1   7
ATOM      7  C1  UNL d   1       5.774   2.727  -0.948  0.00  0.00     0.055 C 
ATOM      8  C   UNL d   1       5.555   3.942  -1.838  0.00  0.00     0.019 C 
ENDBRANCH   1   7
TORSDOF 1
ENDMDL
