MODEL 1
REMARK minimizedAffinity 9.09590244
REMARK minimizedRMSD -1
REMARK  1 active torsions:
REMARK  status: ('A' for Active; 'I' for Inactive)
REMARK    1  A    between atoms: C1_2  and  C2_3 
ROOT
ATOM      1  C2  UNL d   1       3.344   0.682   0.806  0.00  0.00    -0.077 A 
ATOM      2  C3  UNL d   1       4.419   1.576   0.710  0.00  0.00     0.002 A 
ATOM      3  C4  UNL d   1       4.774   2.124  -0.524  0.00  0.00     0.002 A 
ATOM      4  C5  UNL d   1       4.056   1.787  -1.670  0.00  0.00    -0.004 A 
ATOM      5  C6  UNL d   1       2.987   0.896  -1.585  0.00  0.00     0.002 A 
ATOM      6  C7  UNL d   1       2.631   0.347  -0.352  0.00  0.00     0.002 A 
ENDROOT
BRANCH   1   7
ATOM      7  C1  UNL d   1       2.928   0.128   2.144  0.00  0.00     0.055 C 
ATOM      8  C   UNL d   1       3.714  -1.128   2.492  0.00  0.00     0.019 C 
ENDBRANCH   1   7
TORSDOF 1
ENDMDL
