MODEL 1
REMARK minimizedAffinity -4.53978157
REMARK minimizedRMSD -1
REMARK  1 active torsions:
REMARK  status: ('A' for Active; 'I' for Inactive)
REMARK    1  A    between atoms: C1_2  and  C2_3 
ROOT
ATOM      1  C2  UNL d   1       2.386   4.066   4.766  0.00  0.00    -0.077 A 
ATOM      2  C3  UNL d   1       2.832   3.852   3.454  0.00  0.00     0.002 A 
ATOM      3  C4  UNL d   1       4.146   4.158   3.097  0.00  0.00     0.002 A 
ATOM      4  C5  UNL d   1       5.026   4.676   4.045  0.00  0.00    -0.004 A 
ATOM      5  C6  UNL d   1       4.591   4.894   5.352  0.00  0.00     0.002 A 
ATOM      6  C7  UNL d   1       3.277   4.589   5.711  0.00  0.00     0.002 A 
ENDROOT
BRANCH   1   7
ATOM      7  C1  UNL d   1       0.983   3.690   5.166  0.00  0.00     0.055 C 
ATOM      8  C   UNL d   1       0.791   2.180   5.159  0.00  0.00     0.019 C 
ENDBRANCH   1   7
TORSDOF 1
ENDMDL
