MODEL 1
REMARK minimizedAffinity 4.59430933
REMARK minimizedRMSD -1
REMARK  1 active torsions:
REMARK  status: ('A' for Active; 'I' for Inactive)
REMARK    1  A    between atoms: C1_2  and  C2_3 
ROOT
ATOM      1  C2  UNL d   1       4.808   1.299  -1.817  0.00  0.00    -0.077 A 
ATOM      2  C3  UNL d   1       4.413   1.285  -0.472  0.00  0.00     0.002 A 
ATOM      3  C4  UNL d   1       3.360   0.470  -0.053  0.00  0.00     0.002 A 
ATOM      4  C5  UNL d   1       2.697  -0.341  -0.972  0.00  0.00    -0.004 A 
ATOM      5  C6  UNL d   1       3.080  -0.333  -2.312  0.00  0.00     0.002 A 
ATOM      6  C7  UNL d   1       4.132   0.483  -2.733  0.00  0.00     0.002 A 
ENDROOT
BRANCH   1   7
ATOM      7  C1  UNL d   1       5.976   2.141  -2.262  0.00  0.00     0.055 C 
ATOM      8  C   UNL d   1       5.527   3.533  -2.679  0.00  0.00     0.019 C 
ENDBRANCH   1   7
TORSDOF 1
ENDMDL
