MODEL 1
REMARK minimizedAffinity 1.69488943
REMARK minimizedRMSD -1
REMARK  1 active torsions:
REMARK  status: ('A' for Active; 'I' for Inactive)
REMARK    1  A    between atoms: C1_2  and  C2_3 
ROOT
ATOM      1  C2  UNL d   1       5.168   1.718  -2.199  0.00  0.00    -0.077 A 
ATOM      2  C3  UNL d   1       4.075   0.968  -2.656  0.00  0.00     0.002 A 
ATOM      3  C4  UNL d   1       3.320   0.204  -1.764  0.00  0.00     0.002 A 
ATOM      4  C5  UNL d   1       3.646   0.188  -0.410  0.00  0.00    -0.004 A 
ATOM      5  C6  UNL d   1       4.732   0.929   0.054  0.00  0.00     0.002 A 
ATOM      6  C7  UNL d   1       5.489   1.692  -0.836  0.00  0.00     0.002 A 
ENDROOT
BRANCH   1   7
ATOM      7  C1  UNL d   1       5.953   2.581  -3.152  0.00  0.00     0.055 C 
ATOM      8  C   UNL d   1       5.384   3.990  -3.221  0.00  0.00     0.019 C 
ENDBRANCH   1   7
TORSDOF 1
ENDMDL
