MODEL 1
REMARK minimizedAffinity 3.62332582
REMARK minimizedRMSD -1
REMARK  1 active torsions:
REMARK  status: ('A' for Active; 'I' for Inactive)
REMARK    1  A    between atoms: C1_2  and  C2_3 
ROOT
ATOM      1  C2  UNL d   1       4.994   1.880  -1.849  0.00  0.00    -0.077 A 
ATOM      2  C3  UNL d   1       3.954   1.155  -2.448  0.00  0.00     0.002 A 
ATOM      3  C4  UNL d   1       2.996   0.513  -1.660  0.00  0.00     0.002 A 
ATOM      4  C5  UNL d   1       3.066   0.595  -0.271  0.00  0.00    -0.004 A 
ATOM      5  C6  UNL d   1       4.098   1.312   0.334  0.00  0.00     0.002 A 
ATOM      6  C7  UNL d   1       5.056   1.953  -0.452  0.00  0.00     0.002 A 
ENDROOT
BRANCH   1   7
ATOM      7  C1  UNL d   1       6.000   2.614  -2.698  0.00  0.00     0.055 C 
ATOM      8  C   UNL d   1       5.710   4.108  -2.733  0.00  0.00     0.019 C 
ENDBRANCH   1   7
TORSDOF 1
ENDMDL
