MODEL 1
REMARK minimizedAffinity 2.81986809
REMARK minimizedRMSD -1
REMARK  1 active torsions:
REMARK  status: ('A' for Active; 'I' for Inactive)
REMARK    1  A    between atoms: C1_2  and  C2_3 
ROOT
ATOM      1  C2  UNL d   1       3.477   0.753  -1.422  0.00  0.00    -0.077 A 
ATOM      2  C3  UNL d   1       3.976   0.981  -0.132  0.00  0.00     0.002 A 
ATOM      3  C4  UNL d   1       5.141   1.727   0.053  0.00  0.00     0.002 A 
ATOM      4  C5  UNL d   1       5.815   2.255  -1.047  0.00  0.00    -0.004 A 
ATOM      5  C6  UNL d   1       5.328   2.032  -2.334  0.00  0.00     0.002 A 
ATOM      6  C7  UNL d   1       4.164   1.285  -2.521  0.00  0.00     0.002 A 
ENDROOT
BRANCH   1   7
ATOM      7  C1  UNL d   1       2.193  -0.010  -1.621  0.00  0.00     0.055 C 
ATOM      8  C   UNL d   1       1.025   0.684  -0.936  0.00  0.00     0.019 C 
ENDBRANCH   1   7
TORSDOF 1
ENDMDL
