MODEL 1
REMARK minimizedAffinity -0.284807503
REMARK minimizedRMSD -1
REMARK  0 active torsions:
REMARK  status: ('A' for Active; 'I' for Inactive)
ROOT
ATOM      1  C   UNL d   1      -0.124   0.406   2.781  0.00  0.00     0.124 A 
ATOM      2  C1  UNL d   1       1.156   0.214   2.280  0.00  0.00     0.062 A 
ATOM      3  C2  UNL d   1       1.357   0.065   0.911  0.00  0.00     0.162 A 
ATOM      4  C3  UNL d   1       0.275   0.107   0.032  0.00  0.00    -0.034 A 
ATOM      5  C4  UNL d   1      -1.010   0.298   0.543  0.00  0.00     0.162 A 
ATOM      6  C5  UNL d   1      -1.206   0.448   1.912  0.00  0.00     0.062 A 
ATOM      7  F   UNL d   1      -2.443   0.632   2.394  0.00  0.00    -0.097 F 
ATOM      8  F1  UNL d   1      -2.072   0.344  -0.274  0.00  0.00    -0.096 F 
ATOM      9  I   UNL d   1       0.572  -0.117  -2.016  0.00  0.00    -0.060 I 
ATOM     10  F2  UNL d   1       2.606  -0.119   0.456  0.00  0.00    -0.096 F 
ATOM     11  F3  UNL d   1       2.203   0.173   3.118  0.00  0.00    -0.097 F 
ATOM     12  F4  UNL d   1      -0.315   0.548   4.099  0.00  0.00    -0.092 F 
ENDROOT
TORSDOF 0
ENDMDL
