MODEL 1
REMARK minimizedAffinity -1.35543668
REMARK minimizedRMSD -1
REMARK  0 active torsions:
REMARK  status: ('A' for Active; 'I' for Inactive)
ROOT
ATOM      1  C   UNL d   1      -0.345   0.280   1.772  0.00  0.00     0.124 A 
ATOM      2  C1  UNL d   1       0.775  -0.338   1.232  0.00  0.00     0.062 A 
ATOM      3  C2  UNL d   1       0.906  -0.468  -0.147  0.00  0.00     0.162 A 
ATOM      4  C3  UNL d   1      -0.085   0.022  -0.998  0.00  0.00    -0.034 A 
ATOM      5  C4  UNL d   1      -1.208   0.641  -0.448  0.00  0.00     0.162 A 
ATOM      6  C5  UNL d   1      -1.335   0.769   0.932  0.00  0.00     0.062 A 
ATOM      7  F   UNL d   1      -2.417   1.367   1.451  0.00  0.00    -0.097 F 
ATOM      8  F1  UNL d   1      -2.180   1.124  -1.237  0.00  0.00    -0.096 F 
ATOM      9  I   UNL d   1       0.108  -0.171  -3.061  0.00  0.00    -0.060 I 
ATOM     10  F2  UNL d   1       1.999  -1.070  -0.641  0.00  0.00    -0.096 F 
ATOM     11  F3  UNL d   1       1.733  -0.812   2.042  0.00  0.00    -0.097 F 
ATOM     12  F4  UNL d   1      -0.469   0.404   3.100  0.00  0.00    -0.092 F 
ENDROOT
TORSDOF 0
ENDMDL
