MODEL 1
REMARK minimizedAffinity -2.01121545
REMARK minimizedRMSD -1
REMARK  0 active torsions:
REMARK  status: ('A' for Active; 'I' for Inactive)
ROOT
ATOM      1  C   UNL d   1      -0.700   0.829   2.554  0.00  0.00     0.124 A 
ATOM      2  C1  UNL d   1      -1.791   0.339   1.849  0.00  0.00     0.062 A 
ATOM      3  C2  UNL d   1      -1.669   0.027   0.498  0.00  0.00     0.162 A 
ATOM      4  C3  UNL d   1      -0.450   0.203  -0.158  0.00  0.00    -0.034 A 
ATOM      5  C4  UNL d   1       0.642   0.698   0.557  0.00  0.00     0.162 A 
ATOM      6  C5  UNL d   1       0.515   1.008   1.907  0.00  0.00     0.062 A 
ATOM      7  F   UNL d   1       1.570   1.482   2.586  0.00  0.00    -0.097 F 
ATOM      8  F1  UNL d   1       1.828   0.879  -0.042  0.00  0.00    -0.096 F 
ATOM      9  I   UNL d   1      -0.264  -0.262  -2.177  0.00  0.00    -0.060 I 
ATOM     10  F2  UNL d   1      -2.740  -0.445  -0.158  0.00  0.00    -0.096 F 
ATOM     11  F3  UNL d   1      -2.966   0.166   2.471  0.00  0.00    -0.097 F 
ATOM     12  F4  UNL d   1      -0.821   1.130   3.853  0.00  0.00    -0.092 F 
ENDROOT
TORSDOF 0
ENDMDL
