MODEL 1
REMARK minimizedAffinity 0.811892807
REMARK minimizedRMSD -1
REMARK  0 active torsions:
REMARK  status: ('A' for Active; 'I' for Inactive)
ROOT
ATOM      1  C   UNL d   1      -0.493   0.737   2.802  0.00  0.00     0.124 A 
ATOM      2  C1  UNL d   1       0.752   0.998   2.247  0.00  0.00     0.062 A 
ATOM      3  C2  UNL d   1       1.009   0.673   0.919  0.00  0.00     0.162 A 
ATOM      4  C3  UNL d   1       0.017   0.083   0.135  0.00  0.00    -0.034 A 
ATOM      5  C4  UNL d   1      -1.232  -0.178   0.700  0.00  0.00     0.162 A 
ATOM      6  C5  UNL d   1      -1.484   0.149   2.028  0.00  0.00     0.062 A 
ATOM      7  F   UNL d   1      -2.687  -0.104   2.563  0.00  0.00    -0.097 F 
ATOM      8  F1  UNL d   1      -2.208  -0.744  -0.025  0.00  0.00    -0.096 F 
ATOM      9  I   UNL d   1       0.397  -0.406  -1.853  0.00  0.00    -0.060 I 
ATOM     10  F2  UNL d   1       2.221   0.937   0.409  0.00  0.00    -0.096 F 
ATOM     11  F3  UNL d   1       1.711   1.565   2.993  0.00  0.00    -0.097 F 
ATOM     12  F4  UNL d   1      -0.737   1.050   4.081  0.00  0.00    -0.092 F 
ENDROOT
TORSDOF 0
ENDMDL
