MODEL 1
REMARK minimizedAffinity -1.93435597
REMARK minimizedRMSD -1
REMARK  0 active torsions:
REMARK  status: ('A' for Active; 'I' for Inactive)
ROOT
ATOM      1  C   UNL d   1      -0.559   0.604   2.436  0.00  0.00     0.124 A 
ATOM      2  C1  UNL d   1       0.750   0.503   1.985  0.00  0.00     0.062 A 
ATOM      3  C2  UNL d   1       1.011   0.100   0.679  0.00  0.00     0.162 A 
ATOM      4  C3  UNL d   1      -0.039  -0.204  -0.188  0.00  0.00    -0.034 A 
ATOM      5  C4  UNL d   1      -1.353  -0.101   0.273  0.00  0.00     0.162 A 
ATOM      6  C5  UNL d   1      -1.609   0.302   1.580  0.00  0.00     0.062 A 
ATOM      7  F   UNL d   1      -2.874   0.399   2.013  0.00  0.00    -0.097 F 
ATOM      8  F1  UNL d   1      -2.387  -0.385  -0.533  0.00  0.00    -0.096 F 
ATOM      9  I   UNL d   1       0.347  -0.807  -2.142  0.00  0.00    -0.060 I 
ATOM     10  F2  UNL d   1       2.285   0.011   0.270  0.00  0.00    -0.096 F 
ATOM     11  F3  UNL d   1       1.766   0.793   2.810  0.00  0.00    -0.097 F 
ATOM     12  F4  UNL d   1      -0.808   0.991   3.693  0.00  0.00    -0.092 F 
ENDROOT
TORSDOF 0
ENDMDL
