MODEL 1
REMARK minimizedAffinity -4.45681143
REMARK minimizedRMSD -1
REMARK  0 active torsions:
REMARK  status: ('A' for Active; 'I' for Inactive)
ROOT
ATOM      1  C   UNL d   1       0.425   0.557   3.105  0.00  0.00     0.124 A 
ATOM      2  C1  UNL d   1      -0.598   1.002   2.279  0.00  0.00     0.062 A 
ATOM      3  C2  UNL d   1      -0.547   0.758   0.909  0.00  0.00     0.162 A 
ATOM      4  C3  UNL d   1       0.530   0.065   0.357  0.00  0.00    -0.034 A 
ATOM      5  C4  UNL d   1       1.555  -0.379   1.195  0.00  0.00     0.162 A 
ATOM      6  C5  UNL d   1       1.500  -0.132   2.563  0.00  0.00     0.062 A 
ATOM      7  F   UNL d   1       2.489  -0.563   3.359  0.00  0.00    -0.097 F 
ATOM      8  F1  UNL d   1       2.605  -1.048   0.697  0.00  0.00    -0.096 F 
ATOM      9  I   UNL d   1       0.610  -0.302  -1.690  0.00  0.00    -0.060 I 
ATOM     10  F2  UNL d   1      -1.549   1.199   0.134  0.00  0.00    -0.096 F 
ATOM     11  F3  UNL d   1      -1.637   1.669   2.800  0.00  0.00    -0.097 F 
ATOM     12  F4  UNL d   1       0.374   0.794   4.422  0.00  0.00    -0.092 F 
ENDROOT
TORSDOF 0
ENDMDL
