MODEL 1
REMARK minimizedAffinity -1.95254421
REMARK minimizedRMSD -1
REMARK  0 active torsions:
REMARK  status: ('A' for Active; 'I' for Inactive)
ROOT
ATOM      1  C   UNL d   1       1.528   0.243   2.349  0.00  0.00     0.124 A 
ATOM      2  C1  UNL d   1       1.471  -0.658   1.295  0.00  0.00     0.062 A 
ATOM      3  C2  UNL d   1       0.313  -0.768   0.530  0.00  0.00     0.162 A 
ATOM      4  C3  UNL d   1      -0.798   0.025   0.817  0.00  0.00    -0.034 A 
ATOM      5  C4  UNL d   1      -0.733   0.928   1.879  0.00  0.00     0.162 A 
ATOM      6  C5  UNL d   1       0.426   1.035   2.640  0.00  0.00     0.062 A 
ATOM      7  F   UNL d   1       0.479   1.906   3.658  0.00  0.00    -0.097 F 
ATOM      8  F1  UNL d   1      -1.783   1.707   2.182  0.00  0.00    -0.096 F 
ATOM      9  I   UNL d   1      -2.531  -0.137  -0.324  0.00  0.00    -0.060 I 
ATOM     10  F2  UNL d   1       0.286  -1.648  -0.482  0.00  0.00    -0.096 F 
ATOM     11  F3  UNL d   1       2.534  -1.425   1.012  0.00  0.00    -0.097 F 
ATOM     12  F4  UNL d   1       2.643   0.347   3.084  0.00  0.00    -0.092 F 
ENDROOT
TORSDOF 0
ENDMDL
