MODEL 1
REMARK minimizedAffinity -3.48190403
REMARK minimizedRMSD -1
REMARK  0 active torsions:
REMARK  status: ('A' for Active; 'I' for Inactive)
ROOT
ATOM      1  C   UNL d   1      -0.834   0.623   2.554  0.00  0.00     0.124 A 
ATOM      2  C1  UNL d   1      -1.804  -0.002   1.782  0.00  0.00     0.062 A 
ATOM      3  C2  UNL d   1      -1.483  -0.498   0.522  0.00  0.00     0.162 A 
ATOM      4  C3  UNL d   1      -0.185  -0.373   0.026  0.00  0.00    -0.034 A 
ATOM      5  C4  UNL d   1       0.784   0.258   0.808  0.00  0.00     0.162 A 
ATOM      6  C5  UNL d   1       0.458   0.752   2.067  0.00  0.00     0.062 A 
ATOM      7  F   UNL d   1       1.396   1.356   2.811  0.00  0.00    -0.097 F 
ATOM      8  F1  UNL d   1       2.042   0.396   0.362  0.00  0.00    -0.096 F 
ATOM      9  I   UNL d   1       0.300  -1.114  -1.858  0.00  0.00    -0.060 I 
ATOM     10  F2  UNL d   1      -2.439  -1.098  -0.202  0.00  0.00    -0.096 F 
ATOM     11  F3  UNL d   1      -3.054  -0.128   2.250  0.00  0.00    -0.097 F 
ATOM     12  F4  UNL d   1      -1.147   1.100   3.766  0.00  0.00    -0.092 F 
ENDROOT
TORSDOF 0
ENDMDL
