MODEL 1
REMARK minimizedAffinity -4.52942896
REMARK minimizedRMSD -1
REMARK  0 active torsions:
REMARK  status: ('A' for Active; 'I' for Inactive)
ROOT
ATOM      1  C   UNL d   1       0.422   0.704   2.137  0.00  0.00     0.124 A 
ATOM      2  C1  UNL d   1      -0.111   1.470   1.110  0.00  0.00     0.062 A 
ATOM      3  C2  UNL d   1       0.010   1.051  -0.212  0.00  0.00     0.162 A 
ATOM      4  C3  UNL d   1       0.667  -0.141  -0.515  0.00  0.00    -0.034 A 
ATOM      5  C4  UNL d   1       1.202  -0.906   0.524  0.00  0.00     0.162 A 
ATOM      6  C5  UNL d   1       1.078  -0.483   1.843  0.00  0.00     0.062 A 
ATOM      7  F   UNL d   1       1.595  -1.224   2.834  0.00  0.00    -0.097 F 
ATOM      8  F1  UNL d   1       1.841  -2.058   0.268  0.00  0.00    -0.096 F 
ATOM      9  I   UNL d   1       0.851  -0.771  -2.490  0.00  0.00    -0.060 I 
ATOM     10  F2  UNL d   1      -0.515   1.812  -1.184  0.00  0.00    -0.096 F 
ATOM     11  F3  UNL d   1      -0.745   2.618   1.391  0.00  0.00    -0.097 F 
ATOM     12  F4  UNL d   1       0.305   1.110   3.408  0.00  0.00    -0.092 F 
ENDROOT
TORSDOF 0
ENDMDL
