MODEL 1
REMARK minimizedAffinity 3.14903855
REMARK minimizedRMSD -1
REMARK  0 active torsions:
REMARK  status: ('A' for Active; 'I' for Inactive)
ROOT
ATOM      1  C   UNL d   1       1.725  -0.043   1.099  0.00  0.00     0.124 A 
ATOM      2  C1  UNL d   1       1.648   1.241   0.577  0.00  0.00     0.062 A 
ATOM      3  C2  UNL d   1       0.530   1.634  -0.153  0.00  0.00     0.162 A 
ATOM      4  C3  UNL d   1      -0.521   0.742  -0.365  0.00  0.00    -0.034 A 
ATOM      5  C4  UNL d   1      -0.436  -0.548   0.162  0.00  0.00     0.162 A 
ATOM      6  C5  UNL d   1       0.683  -0.936   0.891  0.00  0.00     0.062 A 
ATOM      7  F   UNL d   1       0.756  -2.176   1.395  0.00  0.00    -0.097 F 
ATOM      8  F1  UNL d   1      -1.429  -1.430  -0.023  0.00  0.00    -0.096 F 
ATOM      9  I   UNL d   1      -2.194   1.326  -1.456  0.00  0.00    -0.060 I 
ATOM     10  F2  UNL d   1       0.483   2.881  -0.646  0.00  0.00    -0.096 F 
ATOM     11  F3  UNL d   1       2.654   2.105   0.776  0.00  0.00    -0.097 F 
ATOM     12  F4  UNL d   1       2.802  -0.419   1.800  0.00  0.00    -0.092 F 
ENDROOT
TORSDOF 0
ENDMDL
