MODEL 1
REMARK minimizedAffinity -2.87046671
REMARK minimizedRMSD -1
REMARK  0 active torsions:
REMARK  status: ('A' for Active; 'I' for Inactive)
ROOT
ATOM      1  C   UNL d   1       2.513   0.002   0.854  0.00  0.00     0.124 A 
ATOM      2  C1  UNL d   1       1.676  -1.054   0.524  0.00  0.00     0.062 A 
ATOM      3  C2  UNL d   1       0.411  -0.807  -0.002  0.00  0.00     0.162 A 
ATOM      4  C3  UNL d   1      -0.024   0.503  -0.203  0.00  0.00    -0.034 A 
ATOM      5  C4  UNL d   1       0.824   1.561   0.132  0.00  0.00     0.162 A 
ATOM      6  C5  UNL d   1       2.087   1.308   0.657  0.00  0.00     0.062 A 
ATOM      7  F   UNL d   1       2.895   2.330   0.976  0.00  0.00    -0.097 F 
ATOM      8  F1  UNL d   1       0.438   2.832  -0.049  0.00  0.00    -0.096 F 
ATOM      9  I   UNL d   1      -1.914   0.877  -0.990  0.00  0.00    -0.060 I 
ATOM     10  F2  UNL d   1      -0.377  -1.847  -0.312  0.00  0.00    -0.096 F 
ATOM     11  F3  UNL d   1       2.085  -2.317   0.714  0.00  0.00    -0.097 F 
ATOM     12  F4  UNL d   1       3.729  -0.238   1.361  0.00  0.00    -0.092 F 
ENDROOT
TORSDOF 0
ENDMDL
