MODEL 1
REMARK minimizedAffinity 3.67688513
REMARK minimizedRMSD -1
REMARK  0 active torsions:
REMARK  status: ('A' for Active; 'I' for Inactive)
ROOT
ATOM      1  C   UNL d   1       2.164   0.620   1.651  0.00  0.00     0.124 A 
ATOM      2  C1  UNL d   1       1.980  -0.489   0.837  0.00  0.00     0.062 A 
ATOM      3  C2  UNL d   1       0.859  -0.577   0.016  0.00  0.00     0.162 A 
ATOM      4  C3  UNL d   1      -0.087   0.448   0.005  0.00  0.00    -0.034 A 
ATOM      5  C4  UNL d   1       0.104   1.559   0.827  0.00  0.00     0.162 A 
ATOM      6  C5  UNL d   1       1.226   1.643   1.645  0.00  0.00     0.062 A 
ATOM      7  F   UNL d   1       1.402   2.715   2.431  0.00  0.00    -0.097 F 
ATOM      8  F1  UNL d   1      -0.786   2.563   0.841  0.00  0.00    -0.096 F 
ATOM      9  I   UNL d   1      -1.764   0.320  -1.221  0.00  0.00    -0.060 I 
ATOM     10  F2  UNL d   1       0.707  -1.661  -0.760  0.00  0.00    -0.096 F 
ATOM     11  F3  UNL d   1       2.884  -1.479   0.841  0.00  0.00    -0.097 F 
ATOM     12  F4  UNL d   1       3.243   0.702   2.440  0.00  0.00    -0.092 F 
ENDROOT
TORSDOF 0
ENDMDL
