MODEL 1
REMARK minimizedAffinity -3.96847486
REMARK minimizedRMSD -1
REMARK  0 active torsions:
REMARK  status: ('A' for Active; 'I' for Inactive)
ROOT
ATOM      1  C   UNL d   1       1.193  -1.054   0.217  0.00  0.00     0.124 A 
ATOM      2  C1  UNL d   1      -0.057  -0.550  -0.115  0.00  0.00     0.062 A 
ATOM      3  C2  UNL d   1      -0.295   0.820  -0.067  0.00  0.00     0.162 A 
ATOM      4  C3  UNL d   1       0.720   1.698   0.314  0.00  0.00    -0.034 A 
ATOM      5  C4  UNL d   1       1.975   1.184   0.648  0.00  0.00     0.162 A 
ATOM      6  C5  UNL d   1       2.207  -0.187   0.599  0.00  0.00     0.062 A 
ATOM      7  F   UNL d   1       3.415  -0.672   0.920  0.00  0.00    -0.097 F 
ATOM      8  F1  UNL d   1       2.973   1.999   1.019  0.00  0.00    -0.096 F 
ATOM      9  I   UNL d   1       0.369   3.748   0.387  0.00  0.00    -0.060 I 
ATOM     10  F2  UNL d   1      -1.512   1.279  -0.394  0.00  0.00    -0.096 F 
ATOM     11  F3  UNL d   1      -1.039  -1.386  -0.483  0.00  0.00    -0.097 F 
ATOM     12  F4  UNL d   1       1.419  -2.373   0.171  0.00  0.00    -0.092 F 
ENDROOT
TORSDOF 0
ENDMDL
