MODEL 1
REMARK minimizedAffinity -0.212426454
REMARK minimizedRMSD -1
REMARK  0 active torsions:
REMARK  status: ('A' for Active; 'I' for Inactive)
ROOT
ATOM      1  C   UNL d   1       2.336   1.261   0.888  0.00  0.00     0.124 A 
ATOM      2  C1  UNL d   1       1.255   1.751   0.168  0.00  0.00     0.062 A 
ATOM      3  C2  UNL d   1       0.130   0.957  -0.033  0.00  0.00     0.162 A 
ATOM      4  C3  UNL d   1       0.078  -0.335   0.488  0.00  0.00    -0.034 A 
ATOM      5  C4  UNL d   1       1.169  -0.822   1.211  0.00  0.00     0.162 A 
ATOM      6  C5  UNL d   1       2.292  -0.024   1.409  0.00  0.00     0.062 A 
ATOM      7  F   UNL d   1       3.335  -0.500   2.105  0.00  0.00    -0.097 F 
ATOM      8  F1  UNL d   1       1.153  -2.060   1.727  0.00  0.00    -0.096 F 
ATOM      9  I   UNL d   1      -1.603  -1.525   0.191  0.00  0.00    -0.060 I 
ATOM     10  F2  UNL d   1      -0.900   1.457  -0.733  0.00  0.00    -0.096 F 
ATOM     11  F3  UNL d   1       1.296   2.993  -0.338  0.00  0.00    -0.097 F 
ATOM     12  F4  UNL d   1       3.418   2.027   1.079  0.00  0.00    -0.092 F 
ENDROOT
TORSDOF 0
ENDMDL
