MODEL 1
REMARK minimizedAffinity -3.92328191
REMARK minimizedRMSD -1
REMARK  0 active torsions:
REMARK  status: ('A' for Active; 'I' for Inactive)
ROOT
ATOM      1  C   UNL d   1       2.184  -0.847   1.612  0.00  0.00     0.124 A 
ATOM      2  C1  UNL d   1       1.048  -1.626   1.782  0.00  0.00     0.062 A 
ATOM      3  C2  UNL d   1      -0.114  -1.332   1.075  0.00  0.00     0.162 A 
ATOM      4  C3  UNL d   1      -0.146  -0.256   0.189  0.00  0.00    -0.034 A 
ATOM      5  C4  UNL d   1       1.001   0.523   0.023  0.00  0.00     0.162 A 
ATOM      6  C5  UNL d   1       2.160   0.226   0.732  0.00  0.00     0.062 A 
ATOM      7  F   UNL d   1       3.257   0.979   0.566  0.00  0.00    -0.097 F 
ATOM      8  F1  UNL d   1       1.005   1.566  -0.821  0.00  0.00    -0.096 F 
ATOM      9  I   UNL d   1      -1.881   0.187  -0.871  0.00  0.00    -0.060 I 
ATOM     10  F2  UNL d   1      -1.198  -2.101   1.260  0.00  0.00    -0.096 F 
ATOM     11  F3  UNL d   1       1.069  -2.663   2.632  0.00  0.00    -0.097 F 
ATOM     12  F4  UNL d   1       3.301  -1.131   2.294  0.00  0.00    -0.092 F 
ENDROOT
TORSDOF 0
ENDMDL
