MODEL 1
REMARK minimizedAffinity -3.639153
REMARK minimizedRMSD -1
REMARK  0 active torsions:
REMARK  status: ('A' for Active; 'I' for Inactive)
ROOT
ATOM      1  C   UNL d   1       0.756  -1.300   0.805  0.00  0.00     0.124 A 
ATOM      2  C1  UNL d   1      -0.349  -0.481   0.613  0.00  0.00     0.062 A 
ATOM      3  C2  UNL d   1      -0.180   0.886   0.411  0.00  0.00     0.162 A 
ATOM      4  C3  UNL d   1       1.099   1.443   0.399  0.00  0.00    -0.034 A 
ATOM      5  C4  UNL d   1       2.205   0.613   0.594  0.00  0.00     0.162 A 
ATOM      6  C5  UNL d   1       2.031  -0.753   0.795  0.00  0.00     0.062 A 
ATOM      7  F   UNL d   1       3.099  -1.542   0.980  0.00  0.00    -0.097 F 
ATOM      8  F1  UNL d   1       3.448   1.115   0.588  0.00  0.00    -0.096 F 
ATOM      9  I   UNL d   1       1.355   3.486   0.098  0.00  0.00    -0.060 I 
ATOM     10  F2  UNL d   1      -1.265   1.653   0.228  0.00  0.00    -0.096 F 
ATOM     11  F3  UNL d   1      -1.582  -1.008   0.623  0.00  0.00    -0.097 F 
ATOM     12  F4  UNL d   1       0.590  -2.615   1.000  0.00  0.00    -0.092 F 
ENDROOT
TORSDOF 0
ENDMDL
