MODEL 1
REMARK minimizedAffinity -2.30596733
REMARK minimizedRMSD -1
REMARK  0 active torsions:
REMARK  status: ('A' for Active; 'I' for Inactive)
ROOT
ATOM      1  C   UNL d   1       2.549   0.169   1.142  0.00  0.00     0.124 A 
ATOM      2  C1  UNL d   1       1.857   1.371   1.113  0.00  0.00     0.062 A 
ATOM      3  C2  UNL d   1       0.622   1.453   0.477  0.00  0.00     0.162 A 
ATOM      4  C3  UNL d   1       0.069   0.328  -0.135  0.00  0.00    -0.034 A 
ATOM      5  C4  UNL d   1       0.771  -0.878  -0.103  0.00  0.00     0.162 A 
ATOM      6  C5  UNL d   1       2.006  -0.955   0.534  0.00  0.00     0.062 A 
ATOM      7  F   UNL d   1       2.673  -2.118   0.561  0.00  0.00    -0.097 F 
ATOM      8  F1  UNL d   1       0.269  -1.979  -0.681  0.00  0.00    -0.096 F 
ATOM      9  I   UNL d   1      -1.778   0.446  -1.086  0.00  0.00    -0.060 I 
ATOM     10  F2  UNL d   1      -0.025   2.628   0.465  0.00  0.00    -0.096 F 
ATOM     11  F3  UNL d   1       2.380   2.458   1.699  0.00  0.00    -0.097 F 
ATOM     12  F4  UNL d   1       3.738   0.093   1.753  0.00  0.00    -0.092 F 
ENDROOT
TORSDOF 0
ENDMDL
