MODEL 1
REMARK minimizedAffinity 5.07446909
REMARK minimizedRMSD -1
REMARK  1 active torsions:
REMARK  status: ('A' for Active; 'I' for Inactive)
REMARK    1  A    between atoms: C1_2  and  C2_3 
ROOT
ATOM      1  C2  UNL d   1       1.515  -2.688  -0.173  0.00  0.00    -0.076 A 
ATOM      2  C3  UNL d   1       1.603  -2.968   1.202  0.00  0.00     0.004 A 
ATOM      3  C4  UNL d   1       2.416  -2.205   2.038  0.00  0.00    -0.003 A 
ATOM      4  C5  UNL d   1       3.153  -1.149   1.514  0.00  0.00     0.000 A 
ATOM      5  C6  UNL d   1       3.063  -0.846   0.156  0.00  0.00     0.000 A 
ATOM      6  C7  UNL d   1       2.236  -1.595  -0.698  0.00  0.00    -0.073 A 
ATOM      7  C8  UNL d   1       2.182  -1.228  -2.156  0.00  0.00     0.078 C 
ENDROOT
BRANCH   1   8
ATOM      8  C1  UNL d   1       0.638  -3.567  -1.036  0.00  0.00     0.053 C 
ATOM      9  C   UNL d   1      -0.416  -4.310  -0.229  0.00  0.00     0.018 C 
ENDBRANCH   1   8
TORSDOF 1
ENDMDL
