MODEL 1
REMARK minimizedAffinity -0.0124180606
REMARK minimizedRMSD -1
REMARK  1 active torsions:
REMARK  status: ('A' for Active; 'I' for Inactive)
REMARK    1  A    between atoms: C1_2  and  C2_3 
ROOT
ATOM      1  C2  UNL d   1       1.636  -0.660  -0.470  0.00  0.00    -0.076 A 
ATOM      2  C3  UNL d   1       0.836   0.422  -0.877  0.00  0.00     0.004 A 
ATOM      3  C4  UNL d   1       1.010   1.690  -0.325  0.00  0.00    -0.003 A 
ATOM      4  C5  UNL d   1       1.987   1.897   0.642  0.00  0.00     0.000 A 
ATOM      5  C6  UNL d   1       2.802   0.840   1.044  0.00  0.00     0.000 A 
ATOM      6  C7  UNL d   1       2.651  -0.441   0.486  0.00  0.00    -0.073 A 
ATOM      7  C8  UNL d   1       3.553  -1.547   0.962  0.00  0.00     0.078 C 
ENDROOT
BRANCH   1   8
ATOM      8  C1  UNL d   1       1.384  -2.019  -1.084  0.00  0.00     0.053 C 
ATOM      9  C   UNL d   1       0.590  -2.934  -0.165  0.00  0.00     0.018 C 
ENDBRANCH   1   8
TORSDOF 1
ENDMDL
