MODEL 1
REMARK minimizedAffinity 4.15505981
REMARK minimizedRMSD -1
REMARK  1 active torsions:
REMARK  status: ('A' for Active; 'I' for Inactive)
REMARK    1  A    between atoms: C1_2  and  C2_3 
ROOT
ATOM      1  C2  UNL d   1      -3.961   1.350  -2.217  0.00  0.00    -0.076 A 
ATOM      2  C3  UNL d   1      -4.179   2.451  -3.064  0.00  0.00     0.004 A 
ATOM      3  C4  UNL d   1      -5.189   3.373  -2.797  0.00  0.00    -0.003 A 
ATOM      4  C5  UNL d   1      -5.999   3.210  -1.678  0.00  0.00     0.000 A 
ATOM      5  C6  UNL d   1      -5.786   2.134  -0.817  0.00  0.00     0.000 A 
ATOM      6  C7  UNL d   1      -4.761   1.204  -1.063  0.00  0.00    -0.073 A 
ATOM      7  C8  UNL d   1      -4.580   0.059  -0.105  0.00  0.00     0.078 C 
ENDROOT
BRANCH   1   8
ATOM      8  C1  UNL d   1      -2.868   0.368  -2.573  0.00  0.00     0.053 C 
ATOM      9  C   UNL d   1      -1.736   1.015  -3.355  0.00  0.00     0.018 C 
ENDBRANCH   1   8
TORSDOF 1
ENDMDL
