MODEL 1
REMARK minimizedAffinity 1.97633028
REMARK minimizedRMSD -1
REMARK  1 active torsions:
REMARK  status: ('A' for Active; 'I' for Inactive)
REMARK    1  A    between atoms: C1_2  and  C2_3 
ROOT
ATOM      1  C2  UNL d   1       0.148   0.917   0.242  0.00  0.00    -0.076 A 
ATOM      2  C3  UNL d   1       1.524   0.838   0.520  0.00  0.00     0.004 A 
ATOM      3  C4  UNL d   1       2.362   0.019  -0.234  0.00  0.00    -0.003 A 
ATOM      4  C5  UNL d   1       1.838  -0.735  -1.279  0.00  0.00     0.000 A 
ATOM      5  C6  UNL d   1       0.479  -0.655  -1.580  0.00  0.00     0.000 A 
ATOM      6  C7  UNL d   1      -0.377   0.178  -0.840  0.00  0.00    -0.073 A 
ATOM      7  C8  UNL d   1      -1.836   0.221  -1.204  0.00  0.00     0.078 C 
ENDROOT
BRANCH   1   8
ATOM      8  C1  UNL d   1      -0.717   1.802   1.111  0.00  0.00     0.053 C 
ATOM      9  C   UNL d   1      -0.880   1.254   2.521  0.00  0.00     0.018 C 
ENDBRANCH   1   8
TORSDOF 1
ENDMDL
