MODEL 1
REMARK minimizedAffinity 17.6730747
REMARK minimizedRMSD -1
REMARK  1 active torsions:
REMARK  status: ('A' for Active; 'I' for Inactive)
REMARK    1  A    between atoms: C1_2  and  C2_3 
ROOT
ATOM      1  C2  UNL d   1       1.352   1.209   0.114  0.00  0.00    -0.076 A 
ATOM      2  C3  UNL d   1       0.936  -0.126  -0.031  0.00  0.00     0.004 A 
ATOM      3  C4  UNL d   1       1.856  -1.172   0.001  0.00  0.00    -0.003 A 
ATOM      4  C5  UNL d   1       3.208  -0.900   0.179  0.00  0.00     0.000 A 
ATOM      5  C6  UNL d   1       3.637   0.417   0.342  0.00  0.00     0.000 A 
ATOM      6  C7  UNL d   1       2.720   1.482   0.328  0.00  0.00    -0.073 A 
ATOM      7  C8  UNL d   1       3.238   2.883   0.502  0.00  0.00     0.078 C 
ENDROOT
BRANCH   1   8
ATOM      8  C1  UNL d   1       0.311   2.304   0.044  0.00  0.00     0.053 C 
ATOM      9  C   UNL d   1      -0.777   2.142   1.094  0.00  0.00     0.018 C 
ENDBRANCH   1   8
TORSDOF 1
ENDMDL
