MODEL 1
REMARK minimizedAffinity 0.0350512825
REMARK minimizedRMSD -1
REMARK  1 active torsions:
REMARK  status: ('A' for Active; 'I' for Inactive)
REMARK    1  A    between atoms: C1_2  and  C2_3 
ROOT
ATOM      1  C2  UNL d   1       0.861   0.261  -0.724  0.00  0.00    -0.076 A 
ATOM      2  C3  UNL d   1       0.715  -1.114  -0.981  0.00  0.00     0.004 A 
ATOM      3  C4  UNL d   1       1.595  -2.044  -0.431  0.00  0.00    -0.003 A 
ATOM      4  C5  UNL d   1       2.635  -1.615   0.387  0.00  0.00     0.000 A 
ATOM      5  C6  UNL d   1       2.784  -0.257   0.667  0.00  0.00     0.000 A 
ATOM      6  C7  UNL d   1       1.895   0.692   0.134  0.00  0.00    -0.073 A 
ATOM      7  C8  UNL d   1       2.106   2.144   0.464  0.00  0.00     0.078 C 
ENDROOT
BRANCH   1   8
ATOM      8  C1  UNL d   1      -0.108   1.225  -1.370  0.00  0.00     0.053 C 
ATOM      9  C   UNL d   1      -0.943   0.570  -2.459  0.00  0.00     0.018 C 
ENDBRANCH   1   8
TORSDOF 1
ENDMDL
