MODEL 1
REMARK minimizedAffinity 7.96547222
REMARK minimizedRMSD -1
REMARK  1 active torsions:
REMARK  status: ('A' for Active; 'I' for Inactive)
REMARK    1  A    between atoms: C1_2  and  C2_3 
ROOT
ATOM      1  C2  UNL d   1       2.864  -0.162   0.646  0.00  0.00    -0.076 A 
ATOM      2  C3  UNL d   1       2.916  -0.038  -0.753  0.00  0.00     0.004 A 
ATOM      3  C4  UNL d   1       2.916  -1.164  -1.573  0.00  0.00    -0.003 A 
ATOM      4  C5  UNL d   1       2.864  -2.434  -1.008  0.00  0.00     0.000 A 
ATOM      5  C6  UNL d   1       2.794  -2.575   0.378  0.00  0.00     0.000 A 
ATOM      6  C7  UNL d   1       2.777  -1.449   1.218  0.00  0.00    -0.073 A 
ATOM      7  C8  UNL d   1       2.707  -1.660   2.706  0.00  0.00     0.078 C 
ENDROOT
BRANCH   1   8
ATOM      8  C1  UNL d   1       2.894   1.095   1.486  0.00  0.00     0.053 C 
ATOM      9  C   UNL d   1       2.218   2.272   0.799  0.00  0.00     0.018 C 
ENDBRANCH   1   8
TORSDOF 1
ENDMDL
