MODEL 1
REMARK minimizedAffinity 7.5959425
REMARK minimizedRMSD -1
REMARK  1 active torsions:
REMARK  status: ('A' for Active; 'I' for Inactive)
REMARK    1  A    between atoms: C1_2  and  C2_3 
ROOT
ATOM      1  C2  UNL d   1       2.233  -1.129   0.077  0.00  0.00    -0.076 A 
ATOM      2  C3  UNL d   1       1.549  -0.058  -0.523  0.00  0.00     0.004 A 
ATOM      3  C4  UNL d   1       1.497   1.193   0.091  0.00  0.00    -0.003 A 
ATOM      4  C5  UNL d   1       2.129   1.392   1.313  0.00  0.00     0.000 A 
ATOM      5  C6  UNL d   1       2.826   0.345   1.914  0.00  0.00     0.000 A 
ATOM      6  C7  UNL d   1       2.902  -0.917   1.301  0.00  0.00    -0.073 A 
ATOM      7  C8  UNL d   1       3.663  -2.013   1.997  0.00  0.00     0.078 C 
ENDROOT
BRANCH   1   8
ATOM      8  C1  UNL d   1       2.233  -2.470  -0.621  0.00  0.00     0.053 C 
ATOM      9  C   UNL d   1       0.919  -3.217  -0.449  0.00  0.00     0.018 C 
ENDBRANCH   1   8
TORSDOF 1
ENDMDL
