MODEL 1
REMARK minimizedAffinity 11.7553692
REMARK minimizedRMSD -1
REMARK  1 active torsions:
REMARK  status: ('A' for Active; 'I' for Inactive)
REMARK    1  A    between atoms: C1_2  and  C2_3 
ROOT
ATOM      1  C2  UNL d   1       2.215  -1.269   2.357  0.00  0.00    -0.076 A 
ATOM      2  C3  UNL d   1       1.735  -2.243   3.250  0.00  0.00     0.004 A 
ATOM      3  C4  UNL d   1       0.731  -1.942   4.169  0.00  0.00    -0.003 A 
ATOM      4  C5  UNL d   1       0.190  -0.662   4.209  0.00  0.00     0.000 A 
ATOM      5  C6  UNL d   1       0.641   0.312   3.319  0.00  0.00     0.000 A 
ATOM      6  C7  UNL d   1       1.641   0.021   2.376  0.00  0.00    -0.073 A 
ATOM      7  C8  UNL d   1       2.094   1.111   1.444  0.00  0.00     0.078 C 
ENDROOT
BRANCH   1   8
ATOM      8  C1  UNL d   1       3.324  -1.645   1.401  0.00  0.00     0.053 C 
ATOM      9  C   UNL d   1       2.797  -2.116   0.054  0.00  0.00     0.018 C 
ENDBRANCH   1   8
TORSDOF 1
ENDMDL
