MODEL 1
REMARK minimizedAffinity 4.35575199
REMARK minimizedRMSD -1
REMARK  1 active torsions:
REMARK  status: ('A' for Active; 'I' for Inactive)
REMARK    1  A    between atoms: C1_2  and  C2_3 
ROOT
ATOM      1  C2  UNL d   1       0.770  -1.223  -2.758  0.00  0.00    -0.076 A 
ATOM      2  C3  UNL d   1       2.111  -1.622  -2.897  0.00  0.00     0.004 A 
ATOM      3  C4  UNL d   1       3.016  -1.472  -1.847  0.00  0.00    -0.003 A 
ATOM      4  C5  UNL d   1       2.594  -0.923  -0.641  0.00  0.00     0.000 A 
ATOM      5  C6  UNL d   1       1.264  -0.538  -0.481  0.00  0.00     0.000 A 
ATOM      6  C7  UNL d   1       0.335  -0.697  -1.523  0.00  0.00    -0.073 A 
ATOM      7  C8  UNL d   1      -1.086  -0.259  -1.297  0.00  0.00     0.078 C 
ENDROOT
BRANCH   1   8
ATOM      8  C1  UNL d   1      -0.159  -1.384  -3.940  0.00  0.00     0.053 C 
ATOM      9  C   UNL d   1      -0.754  -2.781  -4.027  0.00  0.00     0.018 C 
ENDBRANCH   1   8
TORSDOF 1
ENDMDL
