MODEL 1
REMARK minimizedAffinity 4.02247381
REMARK minimizedRMSD -1
REMARK  0 active torsions:
REMARK  status: ('A' for Active; 'I' for Inactive)
ROOT
ATOM      1  O1  BZF d   1      -5.696  -4.889  -5.515  0.00  0.00    -0.204 OA
ATOM      2  C2  BZF d   1      -6.000  -3.629  -5.993  0.00  0.00     0.174 A 
ATOM      3  C3  BZF d   1      -4.922  -2.821  -5.931  0.00  0.00    -0.012 A 
ATOM      4  C3A BZF d   1      -3.855  -3.653  -5.465  0.00  0.00    -0.107 A 
ATOM      5  C4  BZF d   1      -2.531  -3.430  -5.214  0.00  0.00     0.055 A 
ATOM      6  C5  BZF d   1      -1.778  -4.436  -4.697  0.00  0.00    -0.016 A 
ATOM      7  C6  BZF d   1      -2.316  -5.675  -4.416  0.00  0.00     0.022 A 
ATOM      8  C7  BZF d   1      -3.623  -5.945  -4.653  0.00  0.00     0.029 A 
ATOM      9  C7A BZF d   1      -4.379  -4.941  -5.205  0.00  0.00     0.058 A 
ENDROOT
TORSDOF 0
ENDMDL
