MODEL 1
REMARK minimizedAffinity 6.94505739
REMARK minimizedRMSD -1
REMARK  0 active torsions:
REMARK  status: ('A' for Active; 'I' for Inactive)
ROOT
ATOM      1  O1  BZF d   1       0.228   0.963   0.657  0.00  0.00    -0.204 OA
ATOM      2  C2  BZF d   1       0.262   1.210   2.016  0.00  0.00     0.174 A 
ATOM      3  C3  BZF d   1      -0.068   2.491   2.278  0.00  0.00    -0.012 A 
ATOM      4  C3A BZF d   1      -0.413   3.057   1.010  0.00  0.00    -0.107 A 
ATOM      5  C4  BZF d   1      -0.840   4.294   0.620  0.00  0.00     0.055 A 
ATOM      6  C5  BZF d   1      -1.020   4.543  -0.704  0.00  0.00    -0.016 A 
ATOM      7  C6  BZF d   1      -0.777   3.582  -1.663  0.00  0.00     0.022 A 
ATOM      8  C7  BZF d   1      -0.358   2.339  -1.324  0.00  0.00     0.029 A 
ATOM      9  C7A BZF d   1      -0.207   2.074   0.015  0.00  0.00     0.058 A 
ENDROOT
TORSDOF 0
ENDMDL
