MODEL 1
REMARK minimizedAffinity 3.5879457
REMARK minimizedRMSD -1
REMARK  0 active torsions:
REMARK  status: ('A' for Active; 'I' for Inactive)
ROOT
ATOM      1  O1  BZF d   1       1.579  -0.031   3.293  0.00  0.00    -0.204 OA
ATOM      2  C2  BZF d   1       0.873  -1.013   3.960  0.00  0.00     0.174 A 
ATOM      3  C3  BZF d   1      -0.421  -0.660   4.100  0.00  0.00    -0.012 A 
ATOM      4  C3A BZF d   1      -0.551   0.581   3.400  0.00  0.00    -0.107 A 
ATOM      5  C4  BZF d   1      -1.601   1.422   3.168  0.00  0.00     0.055 A 
ATOM      6  C5  BZF d   1      -1.378   2.591   2.511  0.00  0.00    -0.016 A 
ATOM      7  C6  BZF d   1      -0.119   2.952   2.078  0.00  0.00     0.022 A 
ATOM      8  C7  BZF d   1       0.953   2.147   2.281  0.00  0.00     0.029 A 
ATOM      9  C7A BZF d   1       0.725   0.950   2.916  0.00  0.00     0.058 A 
ENDROOT
TORSDOF 0
ENDMDL
