MODEL 1
REMARK minimizedAffinity 6.67644262
REMARK minimizedRMSD -1
REMARK  0 active torsions:
REMARK  status: ('A' for Active; 'I' for Inactive)
ROOT
ATOM      1  O1  BZF d   1       1.307   4.096  -0.720  0.00  0.00    -0.204 OA
ATOM      2  C2  BZF d   1       0.721   3.112   0.052  0.00  0.00     0.174 A 
ATOM      3  C3  BZF d   1      -0.604   3.040  -0.189  0.00  0.00    -0.012 A 
ATOM      4  C3A BZF d   1      -0.846   3.979  -1.241  0.00  0.00    -0.107 A 
ATOM      5  C4  BZF d   1      -1.967   4.353  -1.926  0.00  0.00     0.055 A 
ATOM      6  C5  BZF d   1      -1.878   5.351  -2.843  0.00  0.00    -0.016 A 
ATOM      7  C6  BZF d   1      -0.687   6.000  -3.097  0.00  0.00     0.022 A 
ATOM      8  C7  BZF d   1       0.452   5.661  -2.446  0.00  0.00     0.029 A 
ATOM      9  C7A BZF d   1       0.372   4.630  -1.542  0.00  0.00     0.058 A 
ENDROOT
TORSDOF 0
ENDMDL
