MODEL 1
REMARK minimizedAffinity 6.43296194
REMARK minimizedRMSD -1
REMARK  0 active torsions:
REMARK  status: ('A' for Active; 'I' for Inactive)
ROOT
ATOM      1  O1  BZF d   1       1.326   3.762   0.170  0.00  0.00    -0.204 OA
ATOM      2  C2  BZF d   1       0.505   2.822   0.762  0.00  0.00     0.174 A 
ATOM      3  C3  BZF d   1      -0.754   2.922   0.289  0.00  0.00    -0.012 A 
ATOM      4  C3A BZF d   1      -0.697   3.930  -0.725  0.00  0.00    -0.107 A 
ATOM      5  C4  BZF d   1      -1.626   4.467  -1.569  0.00  0.00     0.055 A 
ATOM      6  C5  BZF d   1      -1.263   5.488  -2.389  0.00  0.00    -0.016 A 
ATOM      7  C6  BZF d   1       0.018   6.000  -2.387  0.00  0.00     0.022 A 
ATOM      8  C7  BZF d   1       0.977   5.496  -1.571  0.00  0.00     0.029 A 
ATOM      9  C7A BZF d   1       0.621   4.443  -0.765  0.00  0.00     0.058 A 
ENDROOT
TORSDOF 0
ENDMDL
