MODEL 1
REMARK minimizedAffinity 2.28739977
REMARK minimizedRMSD -1
REMARK  0 active torsions:
REMARK  status: ('A' for Active; 'I' for Inactive)
ROOT
ATOM      1  O1  BZF d   1      -5.992  -3.248  -5.979  0.00  0.00    -0.204 OA
ATOM      2  C2  BZF d   1      -5.555  -1.938  -6.000  0.00  0.00     0.174 A 
ATOM      3  C3  BZF d   1      -4.208  -1.882  -5.955  0.00  0.00    -0.012 A 
ATOM      4  C3A BZF d   1      -3.774  -3.245  -5.995  0.00  0.00    -0.107 A 
ATOM      5  C4  BZF d   1      -2.544  -3.839  -5.994  0.00  0.00     0.055 A 
ATOM      6  C5  BZF d   1      -2.466  -5.196  -5.966  0.00  0.00    -0.016 A 
ATOM      7  C6  BZF d   1      -3.595  -5.988  -5.933  0.00  0.00     0.022 A 
ATOM      8  C7  BZF d   1      -4.837  -5.444  -5.938  0.00  0.00     0.029 A 
ATOM      9  C7A BZF d   1      -4.919  -4.074  -5.999  0.00  0.00     0.058 A 
ENDROOT
TORSDOF 0
ENDMDL
