MODEL 1
REMARK minimizedAffinity 7.13980961
REMARK minimizedRMSD -1
REMARK  0 active torsions:
REMARK  status: ('A' for Active; 'I' for Inactive)
ROOT
ATOM      1  O1  BZF d   1      -0.693   2.432  -1.384  0.00  0.00    -0.204 OA
ATOM      2  C2  BZF d   1       0.044   3.584  -1.585  0.00  0.00     0.174 A 
ATOM      3  C3  BZF d   1       0.595   4.007  -0.430  0.00  0.00    -0.012 A 
ATOM      4  C3A BZF d   1       0.253   3.010   0.538  0.00  0.00    -0.107 A 
ATOM      5  C4  BZF d   1       0.525   2.859   1.867  0.00  0.00     0.055 A 
ATOM      6  C5  BZF d   1      -0.019   1.810   2.539  0.00  0.00    -0.016 A 
ATOM      7  C6  BZF d   1      -0.843   0.898   1.914  0.00  0.00     0.022 A 
ATOM      8  C7  BZF d   1      -1.139   1.003   0.595  0.00  0.00     0.029 A 
ATOM      9  C7A BZF d   1      -0.563   2.043  -0.093  0.00  0.00     0.058 A 
ENDROOT
TORSDOF 0
ENDMDL
