MODEL 1
REMARK minimizedAffinity 11.162097
REMARK minimizedRMSD -1
REMARK  0 active torsions:
REMARK  status: ('A' for Active; 'I' for Inactive)
ROOT
ATOM      1  O1  BZF d   1      -4.840   5.475  -1.402  0.00  0.00    -0.204 OA
ATOM      2  C2  BZF d   1      -5.010   4.871  -2.633  0.00  0.00     0.174 A 
ATOM      3  C3  BZF d   1      -3.819   4.542  -3.173  0.00  0.00    -0.012 A 
ATOM      4  C3A BZF d   1      -2.848   4.883  -2.179  0.00  0.00    -0.107 A 
ATOM      5  C4  BZF d   1      -1.488   4.777  -2.120  0.00  0.00     0.055 A 
ATOM      6  C5  BZF d   1      -0.833   5.269  -1.036  0.00  0.00    -0.016 A 
ATOM      7  C6  BZF d   1      -1.506   5.877   0.004  0.00  0.00     0.022 A 
ATOM      8  C7  BZF d   1      -2.856   6.000  -0.007  0.00  0.00     0.029 A 
ATOM      9  C7A BZF d   1      -3.523   5.474  -1.086  0.00  0.00     0.058 A 
ENDROOT
TORSDOF 0
ENDMDL
