MODEL 1
REMARK minimizedAffinity 8.03324127
REMARK minimizedRMSD -1
REMARK  0 active torsions:
REMARK  status: ('A' for Active; 'I' for Inactive)
ROOT
ATOM      1  O1  BZF d   1      -1.999   5.498  -2.847  0.00  0.00    -0.204 OA
ATOM      2  C2  BZF d   1      -3.014   4.565  -2.769  0.00  0.00     0.174 A 
ATOM      3  C3  BZF d   1      -2.589   3.446  -2.147  0.00  0.00    -0.012 A 
ATOM      4  C3A BZF d   1      -1.249   3.731  -1.734  0.00  0.00    -0.107 A 
ATOM      5  C4  BZF d   1      -0.303   3.018  -1.055  0.00  0.00     0.055 A 
ATOM      6  C5  BZF d   1       0.932   3.557  -0.879  0.00  0.00    -0.016 A 
ATOM      7  C6  BZF d   1       1.256   4.804  -1.372  0.00  0.00     0.022 A 
ATOM      8  C7  BZF d   1       0.350   5.552  -2.048  0.00  0.00     0.029 A 
ATOM      9  C7A BZF d   1      -0.908   5.023  -2.199  0.00  0.00     0.058 A 
ENDROOT
TORSDOF 0
ENDMDL
