MODEL 1
REMARK minimizedAffinity 9.2621603
REMARK minimizedRMSD -1
REMARK  0 active torsions:
REMARK  status: ('A' for Active; 'I' for Inactive)
ROOT
ATOM      1  O1  BZF d   1      -0.421   2.233  -1.509  0.00  0.00    -0.204 OA
ATOM      2  C2  BZF d   1      -0.547   1.644  -0.266  0.00  0.00     0.174 A 
ATOM      3  C3  BZF d   1      -0.926   2.551   0.657  0.00  0.00    -0.012 A 
ATOM      4  C3A BZF d   1      -1.133   3.765  -0.071  0.00  0.00    -0.107 A 
ATOM      5  C4  BZF d   1      -1.533   5.019   0.290  0.00  0.00     0.055 A 
ATOM      6  C5  BZF d   1      -1.564   5.999  -0.651  0.00  0.00    -0.016 A 
ATOM      7  C6  BZF d   1      -1.197   5.761  -1.959  0.00  0.00     0.022 A 
ATOM      8  C7  BZF d   1      -0.798   4.531  -2.366  0.00  0.00     0.029 A 
ATOM      9  C7A BZF d   1      -0.798   3.531  -1.425  0.00  0.00     0.058 A 
ENDROOT
TORSDOF 0
ENDMDL
