MODEL 1
REMARK minimizedAffinity 9.02750397
REMARK minimizedRMSD -1
REMARK  0 active torsions:
REMARK  status: ('A' for Active; 'I' for Inactive)
ROOT
ATOM      1  O1  BZF d   1      -1.826   4.032   1.770  0.00  0.00    -0.204 OA
ATOM      2  C2  BZF d   1      -2.247   5.346   1.690  0.00  0.00     0.174 A 
ATOM      3  C3  BZF d   1      -1.593   5.999   0.708  0.00  0.00    -0.012 A 
ATOM      4  C3A BZF d   1      -0.774   5.009   0.078  0.00  0.00    -0.107 A 
ATOM      5  C4  BZF d   1       0.097   5.041  -0.973  0.00  0.00     0.055 A 
ATOM      6  C5  BZF d   1       0.792   3.918  -1.289  0.00  0.00    -0.016 A 
ATOM      7  C6  BZF d   1       0.647   2.748  -0.573  0.00  0.00     0.022 A 
ATOM      8  C7  BZF d   1      -0.209   2.666   0.475  0.00  0.00     0.029 A 
ATOM      9  C7A BZF d   1      -0.938   3.790   0.776  0.00  0.00     0.058 A 
ENDROOT
TORSDOF 0
ENDMDL
