MODEL 1
REMARK minimizedAffinity -1.33594239
REMARK minimizedRMSD -1
REMARK  2 active torsions:
REMARK  status: ('A' for Active; 'I' for Inactive)
REMARK    1  A    between atoms: C2'_3  and  C1'_4 
REMARK    2  A    between atoms: C1'_4  and  C1_5 
ROOT
ATOM      1  C1  I4B d   1       0.281   2.284   0.019  0.00  0.00    -0.075 A 
ATOM      2  C2  I4B d   1      -0.320   3.045   0.990  0.00  0.00     0.003 A 
ATOM      3  C3  I4B d   1       0.400   4.083   1.629  0.00  0.00     0.002 A 
ATOM      4  C4  I4B d   1       1.725   4.290   1.305  0.00  0.00    -0.004 A 
ATOM      5  C5  I4B d   1       2.326   3.532   0.304  0.00  0.00     0.002 A 
ATOM      6  C6  I4B d   1       1.596   2.531  -0.352  0.00  0.00     0.003 A 
ENDROOT
BRANCH   1   7
ATOM      7  C1' I4B d   1      -0.499   1.174  -0.613  0.00  0.00     0.060 C 
BRANCH   7   8
ATOM      8  C2' I4B d   1       0.331  -0.090  -0.522  0.00  0.00    -0.013 C 
ATOM      9  C4' I4B d   1      -0.319  -1.104   0.383  0.00  0.00     0.013 C 
ATOM     10  C3' I4B d   1       0.502  -0.633  -1.909  0.00  0.00     0.013 C 
ENDBRANCH   7   8
ENDBRANCH   1   7
TORSDOF 2
ENDMDL
