MODEL 1
REMARK minimizedAffinity 1.02829742
REMARK minimizedRMSD -1
REMARK  2 active torsions:
REMARK  status: ('A' for Active; 'I' for Inactive)
REMARK    1  A    between atoms: C2'_3  and  C1'_4 
REMARK    2  A    between atoms: C1'_4  and  C1_5 
ROOT
ATOM      1  C1  I4B d   1       0.439   4.301   1.149  0.00  0.00    -0.075 A 
ATOM      2  C2  I4B d   1      -0.727   4.323   0.425  0.00  0.00     0.003 A 
ATOM      3  C3  I4B d   1      -1.776   5.202   0.789  0.00  0.00     0.002 A 
ATOM      4  C4  I4B d   1      -1.637   6.000   1.907  0.00  0.00    -0.004 A 
ATOM      5  C5  I4B d   1      -0.445   5.992   2.626  0.00  0.00     0.002 A 
ATOM      6  C6  I4B d   1       0.604   5.147   2.238  0.00  0.00     0.003 A 
ENDROOT
BRANCH   1   7
ATOM      7  C1' I4B d   1       1.512   3.336   0.756  0.00  0.00     0.060 C 
BRANCH   7   8
ATOM      8  C2' I4B d   1       2.746   4.136   0.387  0.00  0.00    -0.013 C 
ATOM      9  C4' I4B d   1       3.904   3.797   1.287  0.00  0.00     0.013 C 
ATOM     10  C3' I4B d   1       3.072   3.847  -1.048  0.00  0.00     0.013 C 
ENDBRANCH   7   8
ENDBRANCH   1   7
TORSDOF 2
ENDMDL
