MODEL 1
REMARK minimizedAffinity -2.84240723
REMARK minimizedRMSD -1
REMARK  2 active torsions:
REMARK  status: ('A' for Active; 'I' for Inactive)
REMARK    1  A    between atoms: C2'_3  and  C1'_4 
REMARK    2  A    between atoms: C1'_4  and  C1_5 
ROOT
ATOM      1  C1  I4B d   1       1.032   1.993   0.260  0.00  0.00    -0.075 A 
ATOM      2  C2  I4B d   1       2.362   1.836  -0.041  0.00  0.00     0.003 A 
ATOM      3  C3  I4B d   1       3.295   2.845   0.303  0.00  0.00     0.002 A 
ATOM      4  C4  I4B d   1       2.849   4.008   0.898  0.00  0.00    -0.004 A 
ATOM      5  C5  I4B d   1       1.504   4.155   1.223  0.00  0.00     0.002 A 
ATOM      6  C6  I4B d   1       0.591   3.137   0.914  0.00  0.00     0.003 A 
ENDROOT
BRANCH   1   7
ATOM      7  C1' I4B d   1       0.070   0.923  -0.147  0.00  0.00     0.060 C 
BRANCH   7   8
ATOM      8  C2' I4B d   1       0.874  -0.279  -0.600  0.00  0.00    -0.013 C 
ATOM      9  C4' I4B d   1       0.638  -1.464   0.300  0.00  0.00     0.013 C 
ATOM     10  C3' I4B d   1       0.485  -0.589  -2.015  0.00  0.00     0.013 C 
ENDBRANCH   7   8
ENDBRANCH   1   7
TORSDOF 2
ENDMDL
