MODEL 1
REMARK minimizedAffinity -4.0694623
REMARK minimizedRMSD -1
REMARK  2 active torsions:
REMARK  status: ('A' for Active; 'I' for Inactive)
REMARK    1  A    between atoms: C2'_3  and  C1'_4 
REMARK    2  A    between atoms: C1'_4  and  C1_5 
ROOT
ATOM      1  C1  I4B d   1       0.170   0.107   0.090  0.00  0.00    -0.075 A 
ATOM      2  C2  I4B d   1      -0.721  -0.079   1.117  0.00  0.00     0.003 A 
ATOM      3  C3  I4B d   1      -0.984  -1.382   1.605  0.00  0.00     0.002 A 
ATOM      4  C4  I4B d   1      -0.375  -2.467   1.008  0.00  0.00    -0.004 A 
ATOM      5  C5  I4B d   1       0.545  -2.275  -0.017  0.00  0.00     0.002 A 
ATOM      6  C6  I4B d   1       0.830  -0.979  -0.472  0.00  0.00     0.003 A 
ENDROOT
BRANCH   1   7
ATOM      7  C1' I4B d   1       0.399   1.493  -0.423  0.00  0.00     0.060 C 
BRANCH   7   8
ATOM      8  C2' I4B d   1       1.251   2.231   0.590  0.00  0.00    -0.013 C 
ATOM      9  C4' I4B d   1       2.630   2.502   0.048  0.00  0.00     0.013 C 
ATOM     10  C3' I4B d   1       0.548   3.507   0.944  0.00  0.00     0.013 C 
ENDBRANCH   7   8
ENDBRANCH   1   7
TORSDOF 2
ENDMDL
