MODEL 1
REMARK minimizedAffinity -3.8477397
REMARK minimizedRMSD -1
REMARK  2 active torsions:
REMARK  status: ('A' for Active; 'I' for Inactive)
REMARK    1  A    between atoms: C2'_3  and  C1'_4 
REMARK    2  A    between atoms: C1'_4  and  C1_5 
ROOT
ATOM      1  C1  I4B d   1      -0.925  -1.966   1.284  0.00  0.00    -0.075 A 
ATOM      2  C2  I4B d   1      -0.795  -2.990   0.379  0.00  0.00     0.003 A 
ATOM      3  C3  I4B d   1       0.081  -2.857  -0.726  0.00  0.00     0.002 A 
ATOM      4  C4  I4B d   1       0.763  -1.673  -0.914  0.00  0.00    -0.004 A 
ATOM      5  C5  I4B d   1       0.647  -0.645   0.017  0.00  0.00     0.002 A 
ATOM      6  C6  I4B d   1      -0.193  -0.796   1.129  0.00  0.00     0.003 A 
ENDROOT
BRANCH   1   7
ATOM      7  C1' I4B d   1      -1.884  -2.127   2.421  0.00  0.00     0.060 C 
BRANCH   7   8
ATOM      8  C2' I4B d   1      -1.915  -0.824   3.193  0.00  0.00    -0.013 C 
ATOM      9  C4' I4B d   1      -2.753   0.209   2.486  0.00  0.00     0.013 C 
ATOM     10  C3' I4B d   1      -2.451  -1.111   4.564  0.00  0.00     0.013 C 
ENDBRANCH   7   8
ENDBRANCH   1   7
TORSDOF 2
ENDMDL
