MODEL 1
REMARK minimizedAffinity -5.70095587
REMARK minimizedRMSD -1
REMARK  2 active torsions:
REMARK  status: ('A' for Active; 'I' for Inactive)
REMARK    1  A    between atoms: C2'_3  and  C1'_4 
REMARK    2  A    between atoms: C1'_4  and  C1_5 
ROOT
ATOM      1  C1  I4B d   1       0.468  -0.384   0.566  0.00  0.00    -0.075 A 
ATOM      2  C2  I4B d   1      -0.416  -0.147   1.588  0.00  0.00     0.003 A 
ATOM      3  C3  I4B d   1      -1.442  -1.080   1.873  0.00  0.00     0.002 A 
ATOM      4  C4  I4B d   1      -1.577  -2.205   1.085  0.00  0.00    -0.004 A 
ATOM      5  C5  I4B d   1      -0.665  -2.455   0.064  0.00  0.00     0.002 A 
ATOM      6  C6  I4B d   1       0.372  -1.546  -0.190  0.00  0.00     0.003 A 
ENDROOT
BRANCH   1   7
ATOM      7  C1' I4B d   1       1.520   0.638   0.271  0.00  0.00     0.060 C 
BRANCH   7   8
ATOM      8  C2' I4B d   1       0.823   1.941  -0.066  0.00  0.00    -0.013 C 
ATOM      9  C4' I4B d   1       1.729   3.120   0.170  0.00  0.00     0.013 C 
ATOM     10  C3' I4B d   1       0.382   1.873  -1.497  0.00  0.00     0.013 C 
ENDBRANCH   7   8
ENDBRANCH   1   7
TORSDOF 2
ENDMDL
