MODEL 1
REMARK minimizedAffinity -3.56382871
REMARK minimizedRMSD -1
REMARK  2 active torsions:
REMARK  status: ('A' for Active; 'I' for Inactive)
REMARK    1  A    between atoms: C2'_3  and  C1'_4 
REMARK    2  A    between atoms: C1'_4  and  C1_5 
ROOT
ATOM      1  C1  I4B d   1      -0.129  -0.592   0.025  0.00  0.00    -0.075 A 
ATOM      2  C2  I4B d   1      -1.326  -0.781   0.670  0.00  0.00     0.003 A 
ATOM      3  C3  I4B d   1      -1.687  -2.066   1.141  0.00  0.00     0.002 A 
ATOM      4  C4  I4B d   1      -0.851  -3.137   0.903  0.00  0.00    -0.004 A 
ATOM      5  C5  I4B d   1       0.373  -2.940   0.270  0.00  0.00     0.002 A 
ATOM      6  C6  I4B d   1       0.742  -1.657  -0.161  0.00  0.00     0.003 A 
ENDROOT
BRANCH   1   7
ATOM      7  C1' I4B d   1       0.206   0.772  -0.488  0.00  0.00     0.060 C 
BRANCH   7   8
ATOM      8  C2' I4B d   1       0.818   1.562   0.651  0.00  0.00    -0.013 C 
ATOM      9  C4' I4B d   1       2.162   2.121   0.266  0.00  0.00     0.013 C 
ATOM     10  C3' I4B d   1      -0.138   2.657   1.020  0.00  0.00     0.013 C 
ENDBRANCH   7   8
ENDBRANCH   1   7
TORSDOF 2
ENDMDL
