MODEL 1
REMARK minimizedAffinity -4.0805192
REMARK minimizedRMSD -1
REMARK  2 active torsions:
REMARK  status: ('A' for Active; 'I' for Inactive)
REMARK    1  A    between atoms: C2'_3  and  C1'_4 
REMARK    2  A    between atoms: C1'_4  and  C1_5 
ROOT
ATOM      1  C1  I4B d   1       0.134  -0.555  -0.172  0.00  0.00    -0.075 A 
ATOM      2  C2  I4B d   1      -1.113  -0.830   0.331  0.00  0.00     0.003 A 
ATOM      3  C3  I4B d   1      -1.395  -2.104   0.879  0.00  0.00     0.002 A 
ATOM      4  C4  I4B d   1      -0.422  -3.083   0.859  0.00  0.00    -0.004 A 
ATOM      5  C5  I4B d   1       0.848  -2.795   0.370  0.00  0.00     0.002 A 
ATOM      6  C6  I4B d   1       1.133  -1.519  -0.138  0.00  0.00     0.003 A 
ENDROOT
BRANCH   1   7
ATOM      7  C1' I4B d   1       0.388   0.791  -0.774  0.00  0.00     0.060 C 
BRANCH   7   8
ATOM      8  C2' I4B d   1       0.795   1.732   0.341  0.00  0.00    -0.013 C 
ATOM      9  C4' I4B d   1       2.174   2.290   0.108  0.00  0.00     0.013 C 
ATOM     10  C3' I4B d   1      -0.226   2.828   0.418  0.00  0.00     0.013 C 
ENDBRANCH   7   8
ENDBRANCH   1   7
TORSDOF 2
ENDMDL
