MODEL 1
REMARK minimizedAffinity -0.750979125
REMARK minimizedRMSD -1
REMARK  2 active torsions:
REMARK  status: ('A' for Active; 'I' for Inactive)
REMARK    1  A    between atoms: C2'_3  and  C1'_4 
REMARK    2  A    between atoms: C1'_4  and  C1_5 
ROOT
ATOM      1  C1  I4B d   1      -1.080  -1.940   0.773  0.00  0.00    -0.075 A 
ATOM      2  C2  I4B d   1      -0.427  -0.870   0.212  0.00  0.00     0.003 A 
ATOM      3  C3  I4B d   1       0.953  -0.955  -0.089  0.00  0.00     0.002 A 
ATOM      4  C4  I4B d   1       1.649  -2.103   0.231  0.00  0.00    -0.004 A 
ATOM      5  C5  I4B d   1       0.982  -3.195   0.778  0.00  0.00     0.002 A 
ATOM      6  C6  I4B d   1      -0.394  -3.118   1.039  0.00  0.00     0.003 A 
ENDROOT
BRANCH   1   7
ATOM      7  C1' I4B d   1      -2.531  -1.804   1.108  0.00  0.00     0.060 C 
BRANCH   7   8
ATOM      8  C2' I4B d   1      -2.697  -0.570   1.972  0.00  0.00    -0.013 C 
ATOM      9  C4' I4B d   1      -3.803   0.312   1.456  0.00  0.00     0.013 C 
ATOM     10  C3' I4B d   1      -2.975  -1.022   3.375  0.00  0.00     0.013 C 
ENDBRANCH   7   8
ENDBRANCH   1   7
TORSDOF 2
ENDMDL
