MODEL 1
REMARK minimizedAffinity -4.41896343
REMARK minimizedRMSD -1
REMARK  2 active torsions:
REMARK  status: ('A' for Active; 'I' for Inactive)
REMARK    1  A    between atoms: C2'_3  and  C1'_4 
REMARK    2  A    between atoms: C1'_4  and  C1_5 
ROOT
ATOM      1  C1  I4B d   1       0.281  -0.141   0.106  0.00  0.00    -0.075 A 
ATOM      2  C2  I4B d   1      -0.812  -0.223   0.933  0.00  0.00     0.003 A 
ATOM      3  C3  I4B d   1      -1.256  -1.482   1.404  0.00  0.00     0.002 A 
ATOM      4  C4  I4B d   1      -0.614  -2.630   0.986  0.00  0.00    -0.004 A 
ATOM      5  C5  I4B d   1       0.508  -2.543   0.166  0.00  0.00     0.002 A 
ATOM      6  C6  I4B d   1       0.965  -1.290  -0.267  0.00  0.00     0.003 A 
ENDROOT
BRANCH   1   7
ATOM      7  C1' I4B d   1       0.703   1.203  -0.399  0.00  0.00     0.060 C 
BRANCH   7   8
ATOM      8  C2' I4B d   1       1.355   1.948   0.747  0.00  0.00    -0.013 C 
ATOM      9  C4' I4B d   1       2.841   2.076   0.538  0.00  0.00     0.013 C 
ATOM     10  C3' I4B d   1       0.705   3.296   0.853  0.00  0.00     0.013 C 
ENDBRANCH   7   8
ENDBRANCH   1   7
TORSDOF 2
ENDMDL
