MODEL 1
REMARK minimizedAffinity -3.16578269
REMARK minimizedRMSD -1
REMARK  2 active torsions:
REMARK  status: ('A' for Active; 'I' for Inactive)
REMARK    1  A    between atoms: C2'_3  and  C1'_4 
REMARK    2  A    between atoms: C1'_4  and  C1_5 
ROOT
ATOM      1  C1  I4B d   1      -0.581  -0.543  -0.263  0.00  0.00    -0.075 A 
ATOM      2  C2  I4B d   1      -0.047  -0.835  -1.494  0.00  0.00     0.003 A 
ATOM      3  C3  I4B d   1      -0.082  -2.161  -1.990  0.00  0.00     0.002 A 
ATOM      4  C4  I4B d   1      -0.612  -3.166  -1.206  0.00  0.00    -0.004 A 
ATOM      5  C5  I4B d   1      -1.173  -2.864   0.031  0.00  0.00     0.002 A 
ATOM      6  C6  I4B d   1      -1.169  -1.543   0.501  0.00  0.00     0.003 A 
ENDROOT
BRANCH   1   7
ATOM      7  C1' I4B d   1      -0.497   0.861   0.244  0.00  0.00     0.060 C 
BRANCH   7   8
ATOM      8  C2' I4B d   1       0.945   1.138   0.615  0.00  0.00    -0.013 C 
ATOM      9  C4' I4B d   1       1.138   2.577   1.017  0.00  0.00     0.013 C 
ATOM     10  C3' I4B d   1       1.323   0.209   1.730  0.00  0.00     0.013 C 
ENDBRANCH   7   8
ENDBRANCH   1   7
TORSDOF 2
ENDMDL
