MODEL 1
REMARK minimizedAffinity -4.59288454
REMARK minimizedRMSD -1
REMARK  2 active torsions:
REMARK  status: ('A' for Active; 'I' for Inactive)
REMARK    1  A    between atoms: C2'_3  and  C1'_4 
REMARK    2  A    between atoms: C1'_4  and  C1_5 
ROOT
ATOM      1  C1  I4B d   1       0.165  -0.142  -0.086  0.00  0.00    -0.075 A 
ATOM      2  C2  I4B d   1      -0.921  -0.373   0.720  0.00  0.00     0.003 A 
ATOM      3  C3  I4B d   1      -1.184  -1.676   1.207  0.00  0.00     0.002 A 
ATOM      4  C4  I4B d   1      -0.368  -2.722   0.824  0.00  0.00    -0.004 A 
ATOM      5  C5  I4B d   1       0.746  -2.482   0.025  0.00  0.00     0.002 A 
ATOM      6  C6  I4B d   1       1.022  -1.182  -0.423  0.00  0.00     0.003 A 
ENDROOT
BRANCH   1   7
ATOM      7  C1' I4B d   1       0.394   1.241  -0.609  0.00  0.00     0.060 C 
BRANCH   7   8
ATOM      8  C2' I4B d   1       0.858   2.106   0.545  0.00  0.00    -0.013 C 
ATOM      9  C4' I4B d   1       2.347   2.326   0.497  0.00  0.00     0.013 C 
ATOM     10  C3' I4B d   1       0.115   3.407   0.476  0.00  0.00     0.013 C 
ENDBRANCH   7   8
ENDBRANCH   1   7
TORSDOF 2
ENDMDL
