MODEL 1
REMARK minimizedAffinity -5.07243633
REMARK minimizedRMSD -1
REMARK  2 active torsions:
REMARK  status: ('A' for Active; 'I' for Inactive)
REMARK    1  A    between atoms: C2'_3  and  C1'_4 
REMARK    2  A    between atoms: C1'_4  and  C1_5 
ROOT
ATOM      1  C1  I4B d   1       0.161  -0.156  -0.062  0.00  0.00    -0.075 A 
ATOM      2  C2  I4B d   1       1.046  -1.143  -0.420  0.00  0.00     0.003 A 
ATOM      3  C3  I4B d   1       0.992  -2.410   0.209  0.00  0.00     0.002 A 
ATOM      4  C4  I4B d   1       0.077  -2.630   1.219  0.00  0.00    -0.004 A 
ATOM      5  C5  I4B d   1      -0.834  -1.636   1.564  0.00  0.00     0.002 A 
ATOM      6  C6  I4B d   1      -0.800  -0.395   0.911  0.00  0.00     0.003 A 
ENDROOT
BRANCH   1   7
ATOM      7  C1' I4B d   1       0.267   1.182  -0.724  0.00  0.00     0.060 C 
BRANCH   7   8
ATOM      8  C2' I4B d   1       0.810   2.164   0.294  0.00  0.00    -0.013 C 
ATOM      9  C4' I4B d   1       2.295   2.352   0.133  0.00  0.00     0.013 C 
ATOM     10  C3' I4B d   1       0.078   3.461   0.121  0.00  0.00     0.013 C 
ENDBRANCH   7   8
ENDBRANCH   1   7
TORSDOF 2
ENDMDL
