MODEL 1
REMARK minimizedAffinity -4.97675705
REMARK minimizedRMSD -1
REMARK  2 active torsions:
REMARK  status: ('A' for Active; 'I' for Inactive)
REMARK    1  A    between atoms: C1_2  and  C2_3 
REMARK    2  A    between atoms: C2_3  and  C3_4 
ROOT
ATOM      1  C3  UNL d   1      -0.963   0.888  -0.086  0.00  0.00    -0.075 A 
ATOM      2  C4  UNL d   1      -0.371  -0.382  -0.046  0.00  0.00     0.002 A 
ATOM      3  C5  UNL d   1       0.845  -0.618  -0.689  0.00  0.00     0.002 A 
ATOM      4  C6  UNL d   1       1.478   0.409  -1.386  0.00  0.00    -0.004 A 
ATOM      5  C7  UNL d   1       0.890   1.670  -1.446  0.00  0.00     0.002 A 
ATOM      6  C8  UNL d   1      -0.324   1.910  -0.801  0.00  0.00     0.002 A 
ENDROOT
BRANCH   1   7
ATOM      7  C2  UNL d   1      -2.264   1.158   0.632  0.00  0.00     0.056 C 
BRANCH   7   8
ATOM      8  C1  UNL d   1      -2.113   2.009   1.898  0.00  0.00     0.007 C 
ATOM      9  C   UNL d   1      -1.003   1.523   2.820  0.00  0.00     0.009 C 
ENDBRANCH   7   8
ENDBRANCH   1   7
TORSDOF 2
ENDMDL
