MODEL 1
REMARK minimizedAffinity -5.31261349
REMARK minimizedRMSD -1
REMARK  2 active torsions:
REMARK  status: ('A' for Active; 'I' for Inactive)
REMARK    1  A    between atoms: C1_2  and  C2_3 
REMARK    2  A    between atoms: C2_3  and  C3_4 
ROOT
ATOM      1  C3  UNL d   1       0.065  -0.169   0.149  0.00  0.00    -0.075 A 
ATOM      2  C4  UNL d   1       0.032  -0.287   1.546  0.00  0.00     0.002 A 
ATOM      3  C5  UNL d   1      -0.867   0.468   2.300  0.00  0.00     0.002 A 
ATOM      4  C6  UNL d   1      -1.736   1.356   1.669  0.00  0.00    -0.004 A 
ATOM      5  C7  UNL d   1      -1.701   1.493   0.283  0.00  0.00     0.002 A 
ATOM      6  C8  UNL d   1      -0.805   0.736  -0.474  0.00  0.00     0.002 A 
ENDROOT
BRANCH   1   7
ATOM      7  C2  UNL d   1       1.015  -1.004  -0.675  0.00  0.00     0.056 C 
BRANCH   7   8
ATOM      8  C1  UNL d   1       0.326  -1.865  -1.740  0.00  0.00     0.007 C 
ATOM      9  C   UNL d   1       0.976  -3.230  -1.921  0.00  0.00     0.009 C 
ENDBRANCH   7   8
ENDBRANCH   1   7
TORSDOF 2
ENDMDL
