MODEL 1
REMARK minimizedAffinity -3.01713443
REMARK minimizedRMSD -1
REMARK  2 active torsions:
REMARK  status: ('A' for Active; 'I' for Inactive)
REMARK    1  A    between atoms: C1_2  and  C2_3 
REMARK    2  A    between atoms: C2_3  and  C3_4 
ROOT
ATOM      1  C3  UNL d   1       0.552  -0.933  -0.268  0.00  0.00    -0.075 A 
ATOM      2  C4  UNL d   1       0.684   0.354  -0.809  0.00  0.00     0.002 A 
ATOM      3  C5  UNL d   1       0.218   1.468  -0.111  0.00  0.00     0.002 A 
ATOM      4  C6  UNL d   1      -0.396   1.309   1.130  0.00  0.00    -0.004 A 
ATOM      5  C7  UNL d   1      -0.548   0.034   1.670  0.00  0.00     0.002 A 
ATOM      6  C8  UNL d   1      -0.078  -1.082   0.975  0.00  0.00     0.002 A 
ENDROOT
BRANCH   1   7
ATOM      7  C2  UNL d   1       1.081  -2.140  -1.005  0.00  0.00     0.056 C 
BRANCH   7   8
ATOM      8  C1  UNL d   1       0.306  -2.480  -2.282  0.00  0.00     0.007 C 
ATOM      9  C   UNL d   1       0.680  -3.835  -2.869  0.00  0.00     0.009 C 
ENDBRANCH   7   8
ENDBRANCH   1   7
TORSDOF 2
ENDMDL
