MODEL 1
REMARK minimizedAffinity -5.46296835
REMARK minimizedRMSD -1
REMARK  2 active torsions:
REMARK  status: ('A' for Active; 'I' for Inactive)
REMARK    1  A    between atoms: C1_2  and  C2_3 
REMARK    2  A    between atoms: C2_3  and  C3_4 
ROOT
ATOM      1  C3  UNL d   1       0.146   0.475   0.222  0.00  0.00    -0.075 A 
ATOM      2  C4  UNL d   1      -0.439   0.413   1.495  0.00  0.00     0.002 A 
ATOM      3  C5  UNL d   1      -1.073   1.531   2.038  0.00  0.00     0.002 A 
ATOM      4  C6  UNL d   1      -1.119   2.725   1.322  0.00  0.00    -0.004 A 
ATOM      5  C7  UNL d   1      -0.526   2.803   0.063  0.00  0.00     0.002 A 
ATOM      6  C8  UNL d   1       0.104   1.684  -0.484  0.00  0.00     0.002 A 
ENDROOT
BRANCH   1   7
ATOM      7  C2  UNL d   1       0.807  -0.741  -0.384  0.00  0.00     0.056 C 
BRANCH   7   8
ATOM      8  C1  UNL d   1      -0.002  -1.396  -1.508  0.00  0.00     0.007 C 
ATOM      9  C   UNL d   1       0.446  -2.817  -1.821  0.00  0.00     0.009 C 
ENDBRANCH   7   8
ENDBRANCH   1   7
TORSDOF 2
ENDMDL
