MODEL 1
REMARK minimizedAffinity -5.84474468
REMARK minimizedRMSD -1
REMARK  2 active torsions:
REMARK  status: ('A' for Active; 'I' for Inactive)
REMARK    1  A    between atoms: C1_2  and  C2_3 
REMARK    2  A    between atoms: C2_3  and  C3_4 
ROOT
ATOM      1  C3  UNL d   1      -0.646   1.554   0.083  0.00  0.00    -0.075 A 
ATOM      2  C4  UNL d   1       0.065   2.458  -0.719  0.00  0.00     0.002 A 
ATOM      3  C5  UNL d   1       0.005   3.829  -0.466  0.00  0.00     0.002 A 
ATOM      4  C6  UNL d   1      -0.774   4.313   0.583  0.00  0.00    -0.004 A 
ATOM      5  C7  UNL d   1      -1.499   3.425   1.375  0.00  0.00     0.002 A 
ATOM      6  C8  UNL d   1      -1.436   2.053   1.127  0.00  0.00     0.002 A 
ENDROOT
BRANCH   1   7
ATOM      7  C2  UNL d   1      -0.561   0.067  -0.167  0.00  0.00     0.056 C 
BRANCH   7   8
ATOM      8  C1  UNL d   1       0.864  -0.446  -0.400  0.00  0.00     0.007 C 
ATOM      9  C   UNL d   1       0.914  -1.723  -1.227  0.00  0.00     0.009 C 
ENDBRANCH   7   8
ENDBRANCH   1   7
TORSDOF 2
ENDMDL
