MODEL 1
REMARK minimizedAffinity -5.89369535
REMARK minimizedRMSD -1
REMARK  2 active torsions:
REMARK  status: ('A' for Active; 'I' for Inactive)
REMARK    1  A    between atoms: C1_2  and  C2_3 
REMARK    2  A    between atoms: C2_3  and  C3_4 
ROOT
ATOM      1  C3  UNL d   1      -1.087   1.675   0.483  0.00  0.00    -0.075 A 
ATOM      2  C4  UNL d   1      -1.315   1.326   1.822  0.00  0.00     0.002 A 
ATOM      3  C5  UNL d   1      -0.695   0.206   2.377  0.00  0.00     0.002 A 
ATOM      4  C6  UNL d   1       0.150  -0.583   1.600  0.00  0.00    -0.004 A 
ATOM      5  C7  UNL d   1       0.371  -0.255   0.264  0.00  0.00     0.002 A 
ATOM      6  C8  UNL d   1      -0.244   0.868  -0.292  0.00  0.00     0.002 A 
ENDROOT
BRANCH   1   7
ATOM      7  C2  UNL d   1      -1.731   2.903  -0.115  0.00  0.00     0.056 C 
BRANCH   7   8
ATOM      8  C1  UNL d   1      -0.731   3.940  -0.637  0.00  0.00     0.007 C 
ATOM      9  C   UNL d   1       0.296   4.362   0.406  0.00  0.00     0.009 C 
ENDBRANCH   7   8
ENDBRANCH   1   7
TORSDOF 2
ENDMDL
