MODEL 1
REMARK minimizedAffinity -5.90287209
REMARK minimizedRMSD -1
REMARK  2 active torsions:
REMARK  status: ('A' for Active; 'I' for Inactive)
REMARK    1  A    between atoms: C1_2  and  C2_3 
REMARK    2  A    between atoms: C2_3  and  C3_4 
ROOT
ATOM      1  C3  UNL d   1       0.017  -0.184   0.105  0.00  0.00    -0.075 A 
ATOM      2  C4  UNL d   1      -0.094  -0.112   1.501  0.00  0.00     0.002 A 
ATOM      3  C5  UNL d   1      -1.066   0.695   2.094  0.00  0.00     0.002 A 
ATOM      4  C6  UNL d   1      -1.931   1.445   1.300  0.00  0.00    -0.004 A 
ATOM      5  C7  UNL d   1      -1.819   1.394  -0.087  0.00  0.00     0.002 A 
ATOM      6  C8  UNL d   1      -0.850   0.584  -0.683  0.00  0.00     0.002 A 
ENDROOT
BRANCH   1   7
ATOM      7  C2  UNL d   1       1.048  -1.078  -0.542  0.00  0.00     0.056 C 
BRANCH   7   8
ATOM      8  C1  UNL d   1       0.518  -1.876  -1.738  0.00  0.00     0.007 C 
ATOM      9  C   UNL d   1       0.929  -3.342  -1.711  0.00  0.00     0.009 C 
ENDBRANCH   7   8
ENDBRANCH   1   7
TORSDOF 2
ENDMDL
