MODEL 1
REMARK minimizedAffinity -5.20631695
REMARK minimizedRMSD -1
REMARK  2 active torsions:
REMARK  status: ('A' for Active; 'I' for Inactive)
REMARK    1  A    between atoms: C1_2  and  C2_3 
REMARK    2  A    between atoms: C2_3  and  C3_4 
ROOT
ATOM      1  C3  UNL d   1      -0.698   0.669   0.133  0.00  0.00    -0.075 A 
ATOM      2  C4  UNL d   1      -1.742   1.029   0.999  0.00  0.00     0.002 A 
ATOM      3  C5  UNL d   1      -2.149   2.360   1.102  0.00  0.00     0.002 A 
ATOM      4  C6  UNL d   1      -1.514   3.346   0.351  0.00  0.00    -0.004 A 
ATOM      5  C7  UNL d   1      -0.465   3.003  -0.499  0.00  0.00     0.002 A 
ATOM      6  C8  UNL d   1      -0.058   1.672  -0.608  0.00  0.00     0.002 A 
ENDROOT
BRANCH   1   7
ATOM      7  C2  UNL d   1      -0.272  -0.773  -0.005  0.00  0.00     0.056 C 
BRANCH   7   8
ATOM      8  C1  UNL d   1       0.702  -1.027  -1.160  0.00  0.00     0.007 C 
ATOM      9  C   UNL d   1       0.279  -2.181  -2.060  0.00  0.00     0.009 C 
ENDBRANCH   7   8
ENDBRANCH   1   7
TORSDOF 2
ENDMDL
