MODEL 1
REMARK minimizedAffinity -3.79369283
REMARK minimizedRMSD -1
REMARK  2 active torsions:
REMARK  status: ('A' for Active; 'I' for Inactive)
REMARK    1  A    between atoms: C1_2  and  C2_3 
REMARK    2  A    between atoms: C2_3  and  C3_4 
ROOT
ATOM      1  C3  UNL d   1       0.203   0.034   0.311  0.00  0.00    -0.075 A 
ATOM      2  C4  UNL d   1      -0.738   0.821  -0.368  0.00  0.00     0.002 A 
ATOM      3  C5  UNL d   1      -1.457   1.807   0.309  0.00  0.00     0.002 A 
ATOM      4  C6  UNL d   1      -1.251   2.012   1.671  0.00  0.00    -0.004 A 
ATOM      5  C7  UNL d   1      -0.330   1.225   2.359  0.00  0.00     0.002 A 
ATOM      6  C8  UNL d   1       0.393   0.240   1.683  0.00  0.00     0.002 A 
ENDROOT
BRANCH   1   7
ATOM      7  C2  UNL d   1       1.005  -1.015  -0.422  0.00  0.00     0.056 C 
BRANCH   7   8
ATOM      8  C1  UNL d   1       0.316  -1.563  -1.676  0.00  0.00     0.007 C 
ATOM      9  C   UNL d   1       0.491  -3.066  -1.848  0.00  0.00     0.009 C 
ENDBRANCH   7   8
ENDBRANCH   1   7
TORSDOF 2
ENDMDL
