MODEL 1
REMARK minimizedAffinity -4.31556702
REMARK minimizedRMSD -1
REMARK  2 active torsions:
REMARK  status: ('A' for Active; 'I' for Inactive)
REMARK    1  A    between atoms: C1_2  and  C2_3 
REMARK    2  A    between atoms: C2_3  and  C3_4 
ROOT
ATOM      1  C3  UNL d   1       0.054   0.090   0.182  0.00  0.00    -0.075 A 
ATOM      2  C4  UNL d   1       0.202   1.311  -0.492  0.00  0.00     0.002 A 
ATOM      3  C5  UNL d   1      -0.349   2.481   0.033  0.00  0.00     0.002 A 
ATOM      4  C6  UNL d   1      -1.062   2.443   1.230  0.00  0.00    -0.004 A 
ATOM      5  C7  UNL d   1      -1.229   1.233   1.899  0.00  0.00     0.002 A 
ATOM      6  C8  UNL d   1      -0.675   0.062   1.379  0.00  0.00     0.002 A 
ENDROOT
BRANCH   1   7
ATOM      7  C2  UNL d   1       0.673  -1.174  -0.365  0.00  0.00     0.056 C 
BRANCH   7   8
ATOM      8  C1  UNL d   1       0.050  -1.655  -1.679  0.00  0.00     0.007 C 
ATOM      9  C   UNL d   1       0.403  -3.097  -2.019  0.00  0.00     0.009 C 
ENDBRANCH   7   8
ENDBRANCH   1   7
TORSDOF 2
ENDMDL
