MODEL 1
REMARK minimizedAffinity -4.60466003
REMARK minimizedRMSD -1
REMARK  2 active torsions:
REMARK  status: ('A' for Active; 'I' for Inactive)
REMARK    1  A    between atoms: C1_2  and  C2_3 
REMARK    2  A    between atoms: C2_3  and  C3_4 
ROOT
ATOM      1  C3  UNL d   1       0.886  -1.734  -1.511  0.00  0.00    -0.075 A 
ATOM      2  C4  UNL d   1       1.659  -2.822  -1.080  0.00  0.00     0.002 A 
ATOM      3  C5  UNL d   1       1.434  -4.099  -1.595  0.00  0.00     0.002 A 
ATOM      4  C6  UNL d   1       0.430  -4.306  -2.539  0.00  0.00    -0.004 A 
ATOM      5  C7  UNL d   1      -0.354  -3.235  -2.962  0.00  0.00     0.002 A 
ATOM      6  C8  UNL d   1      -0.129  -1.956  -2.451  0.00  0.00     0.002 A 
ENDROOT
BRANCH   1   7
ATOM      7  C2  UNL d   1       1.144  -0.344  -0.979  0.00  0.00     0.056 C 
BRANCH   7   8
ATOM      8  C1  UNL d   1      -0.097   0.340  -0.396  0.00  0.00     0.007 C 
ATOM      9  C   UNL d   1      -0.409  -0.095   1.030  0.00  0.00     0.009 C 
ENDBRANCH   7   8
ENDBRANCH   1   7
TORSDOF 2
ENDMDL
