MODEL 1
REMARK minimizedAffinity -3.99643373
REMARK minimizedRMSD -1
REMARK  1 active torsions:
REMARK  status: ('A' for Active; 'I' for Inactive)
REMARK    1  A    between atoms: C1_2  and  C2_3 
ROOT
ATOM      1  C2  UNL d   1       0.628  -0.024   0.589  0.00  0.00    -0.076 A 
ATOM      2  C3  UNL d   1       2.022  -0.179   0.682  0.00  0.00     0.004 A 
ATOM      3  C4  UNL d   1       2.595  -0.915   1.718  0.00  0.00    -0.003 A 
ATOM      4  C5  UNL d   1       1.783  -1.509   2.678  0.00  0.00     0.000 A 
ATOM      5  C6  UNL d   1       0.397  -1.380   2.591  0.00  0.00     0.000 A 
ATOM      6  C7  UNL d   1      -0.197  -0.655   1.544  0.00  0.00    -0.073 A 
ATOM      7  C8  UNL d   1      -1.697  -0.544   1.503  0.00  0.00     0.078 C 
ENDROOT
BRANCH   1   8
ATOM      8  C1  UNL d   1       0.066   0.808  -0.541  0.00  0.00     0.053 C 
ATOM      9  C   UNL d   1      -0.111   2.269  -0.157  0.00  0.00     0.018 C 
ENDBRANCH   1   8
TORSDOF 1
ENDMDL
