MODEL 1
REMARK minimizedAffinity -0.903796434
REMARK minimizedRMSD -1
REMARK  1 active torsions:
REMARK  status: ('A' for Active; 'I' for Inactive)
REMARK    1  A    between atoms: C1_2  and  C2_3 
ROOT
ATOM      1  C2  UNL d   1       0.588  -1.211  -0.029  0.00  0.00    -0.076 A 
ATOM      2  C3  UNL d   1      -0.360  -0.180   0.093  0.00  0.00     0.004 A 
ATOM      3  C4  UNL d   1      -1.208  -0.112   1.196  0.00  0.00    -0.003 A 
ATOM      4  C5  UNL d   1      -1.122  -1.074   2.197  0.00  0.00     0.000 A 
ATOM      5  C6  UNL d   1      -0.176  -2.094   2.101  0.00  0.00     0.000 A 
ATOM      6  C7  UNL d   1       0.698  -2.167   1.003  0.00  0.00    -0.073 A 
ATOM      7  C8  UNL d   1       1.696  -3.292   0.949  0.00  0.00     0.078 C 
ENDROOT
BRANCH   1   8
ATOM      8  C1  UNL d   1       1.463  -1.249  -1.261  0.00  0.00     0.053 C 
ATOM      9  C   UNL d   1       2.655  -0.310  -1.159  0.00  0.00     0.018 C 
ENDBRANCH   1   8
TORSDOF 1
ENDMDL
