MODEL 1
REMARK minimizedAffinity -0.912299037
REMARK minimizedRMSD -1
REMARK  1 active torsions:
REMARK  status: ('A' for Active; 'I' for Inactive)
REMARK    1  A    between atoms: C1_2  and  C2_3 
ROOT
ATOM      1  C2  UNL d   1      -0.020  -2.653   2.085  0.00  0.00    -0.076 A 
ATOM      2  C3  UNL d   1       1.128  -2.843   1.296  0.00  0.00     0.004 A 
ATOM      3  C4  UNL d   1       1.648  -4.118   1.080  0.00  0.00    -0.003 A 
ATOM      4  C5  UNL d   1       1.027  -5.225   1.649  0.00  0.00     0.000 A 
ATOM      5  C6  UNL d   1      -0.123  -5.057   2.419  0.00  0.00     0.000 A 
ATOM      6  C7  UNL d   1      -0.670  -3.780   2.633  0.00  0.00    -0.073 A 
ATOM      7  C8  UNL d   1      -1.908  -3.657   3.477  0.00  0.00     0.078 C 
ENDROOT
BRANCH   1   8
ATOM      8  C1  UNL d   1      -0.523  -1.244   2.306  0.00  0.00     0.053 C 
ATOM      9  C   UNL d   1      -1.463  -0.781   1.204  0.00  0.00     0.018 C 
ENDBRANCH   1   8
TORSDOF 1
ENDMDL
