MODEL 1
REMARK minimizedAffinity 6.18389559
REMARK minimizedRMSD -1
REMARK  1 active torsions:
REMARK  status: ('A' for Active; 'I' for Inactive)
REMARK    1  A    between atoms: C1_2  and  C2_3 
ROOT
ATOM      1  C2  UNL d   1      -0.040  -1.436   1.678  0.00  0.00    -0.076 A 
ATOM      2  C3  UNL d   1       0.934  -1.075   0.730  0.00  0.00     0.004 A 
ATOM      3  C4  UNL d   1       1.891  -1.993   0.300  0.00  0.00    -0.003 A 
ATOM      4  C5  UNL d   1       1.889  -3.286   0.810  0.00  0.00     0.000 A 
ATOM      5  C6  UNL d   1       0.920  -3.667   1.738  0.00  0.00     0.000 A 
ATOM      6  C7  UNL d   1      -0.062  -2.759   2.169  0.00  0.00    -0.073 A 
ATOM      7  C8  UNL d   1      -1.080  -3.221   3.176  0.00  0.00     0.078 C 
ENDROOT
BRANCH   1   8
ATOM      8  C1  UNL d   1      -1.036  -0.391   2.127  0.00  0.00     0.053 C 
ATOM      9  C   UNL d   1      -1.927   0.091   0.992  0.00  0.00     0.018 C 
ENDBRANCH   1   8
TORSDOF 1
ENDMDL
