MODEL 1
REMARK minimizedAffinity 0.675269365
REMARK minimizedRMSD -1
REMARK  1 active torsions:
REMARK  status: ('A' for Active; 'I' for Inactive)
REMARK    1  A    between atoms: C1_2  and  C2_3 
ROOT
ATOM      1  C2  UNL d   1       0.137  -1.637   1.163  0.00  0.00    -0.076 A 
ATOM      2  C3  UNL d   1       0.096  -1.885   2.546  0.00  0.00     0.004 A 
ATOM      3  C4  UNL d   1      -0.908  -1.339   3.343  0.00  0.00    -0.003 A 
ATOM      4  C5  UNL d   1      -1.888  -0.535   2.771  0.00  0.00     0.000 A 
ATOM      5  C6  UNL d   1      -1.873  -0.293   1.398  0.00  0.00     0.000 A 
ATOM      6  C7  UNL d   1      -0.877  -0.850   0.577  0.00  0.00    -0.073 A 
ATOM      7  C8  UNL d   1      -0.906  -0.550  -0.897  0.00  0.00     0.078 C 
ENDROOT
BRANCH   1   8
ATOM      8  C1  UNL d   1       1.265  -2.235   0.353  0.00  0.00     0.053 C 
ATOM      9  C   UNL d   1       1.967  -3.371   1.081  0.00  0.00     0.018 C 
ENDBRANCH   1   8
TORSDOF 1
ENDMDL
