MODEL 1
REMARK minimizedAffinity -0.845728517
REMARK minimizedRMSD -1
REMARK  1 active torsions:
REMARK  status: ('A' for Active; 'I' for Inactive)
REMARK    1  A    between atoms: C1_2  and  C2_3 
ROOT
ATOM      1  C2  UNL d   1       1.296  -2.173   1.391  0.00  0.00    -0.076 A 
ATOM      2  C3  UNL d   1       0.504  -2.543   2.492  0.00  0.00     0.004 A 
ATOM      3  C4  UNL d   1      -0.663  -1.846   2.802  0.00  0.00    -0.003 A 
ATOM      4  C5  UNL d   1      -1.057  -0.769   2.017  0.00  0.00     0.000 A 
ATOM      5  C6  UNL d   1      -0.293  -0.399   0.910  0.00  0.00     0.000 A 
ATOM      6  C7  UNL d   1       0.878  -1.101   0.574  0.00  0.00    -0.073 A 
ATOM      7  C8  UNL d   1       1.667  -0.655  -0.626  0.00  0.00     0.078 C 
ENDROOT
BRANCH   1   8
ATOM      8  C1  UNL d   1       2.565  -2.948   1.119  0.00  0.00     0.053 C 
ATOM      9  C   UNL d   1       2.378  -4.449   1.286  0.00  0.00     0.018 C 
ENDBRANCH   1   8
TORSDOF 1
ENDMDL
