MODEL 1
REMARK minimizedAffinity 4.05882215
REMARK minimizedRMSD -1
REMARK  0 active torsions:
REMARK  status: ('A' for Active; 'I' for Inactive)
ROOT
ATOM      1  C   UNL d   1       5.767  -2.184   2.138  0.00  0.00     0.172 C 
ATOM      2  N   UNL d   1       5.360  -2.474   3.493  0.00  0.00    -0.070 N 
ATOM      3  C1  UNL d   1       5.917  -3.423   4.308  0.00  0.00    -0.004 A 
ATOM      4  C2  UNL d   1       5.250  -3.387   5.514  0.00  0.00    -0.047 A 
ATOM      5  C3  UNL d   1       4.258  -2.383   5.419  0.00  0.00    -0.047 A 
ATOM      6  C4  UNL d   1       4.348  -1.834   4.158  0.00  0.00    -0.004 A 
ENDROOT
TORSDOF 0
ENDMDL
