MODEL 1
REMARK minimizedAffinity 0.0379240178
REMARK minimizedRMSD -1
REMARK  0 active torsions:
REMARK  status: ('A' for Active; 'I' for Inactive)
ROOT
ATOM      1  C   UNL d   1      -3.418   4.828  -5.067  0.00  0.00     0.172 C 
ATOM      2  N   UNL d   1      -2.919   3.478  -4.943  0.00  0.00    -0.070 N 
ATOM      3  C1  UNL d   1      -2.307   2.759  -5.935  0.00  0.00    -0.004 A 
ATOM      4  C2  UNL d   1      -1.981   1.523  -5.420  0.00  0.00    -0.047 A 
ATOM      5  C3  UNL d   1      -2.414   1.498  -4.073  0.00  0.00    -0.047 A 
ATOM      6  C4  UNL d   1      -2.992   2.721  -3.804  0.00  0.00    -0.004 A 
ENDROOT
TORSDOF 0
ENDMDL
