MODEL 1
REMARK minimizedAffinity 6.23040533
REMARK minimizedRMSD -1
REMARK  0 active torsions:
REMARK  status: ('A' for Active; 'I' for Inactive)
ROOT
ATOM      1  C   UNL d   1       1.717   4.586  -1.117  0.00  0.00     0.172 C 
ATOM      2  N   UNL d   1       0.607   3.774  -0.676  0.00  0.00    -0.070 N 
ATOM      3  C1  UNL d   1      -0.700   3.938  -1.048  0.00  0.00    -0.004 A 
ATOM      4  C2  UNL d   1      -1.445   2.967  -0.413  0.00  0.00    -0.047 A 
ATOM      5  C3  UNL d   1      -0.554   2.193   0.368  0.00  0.00    -0.047 A 
ATOM      6  C4  UNL d   1       0.710   2.714   0.187  0.00  0.00    -0.004 A 
ENDROOT
TORSDOF 0
ENDMDL
