MODEL 1
REMARK minimizedAffinity 0.871904254
REMARK minimizedRMSD -1
REMARK  0 active torsions:
REMARK  status: ('A' for Active; 'I' for Inactive)
ROOT
ATOM      1  C   UNL d   1      -3.105   3.796  -5.333  0.00  0.00     0.172 C 
ATOM      2  N   UNL d   1      -2.023   2.912  -4.967  0.00  0.00    -0.070 N 
ATOM      3  C1  UNL d   1      -1.379   2.898  -3.759  0.00  0.00    -0.004 A 
ATOM      4  C2  UNL d   1      -0.414   1.915  -3.807  0.00  0.00    -0.047 A 
ATOM      5  C3  UNL d   1      -0.480   1.319  -5.089  0.00  0.00    -0.047 A 
ATOM      6  C4  UNL d   1      -1.485   1.955  -5.786  0.00  0.00    -0.004 A 
ENDROOT
TORSDOF 0
ENDMDL
