MODEL 1
REMARK minimizedAffinity 3.9875927
REMARK minimizedRMSD -1
REMARK  0 active torsions:
REMARK  status: ('A' for Active; 'I' for Inactive)
ROOT
ATOM      1  C   UNL d   1      -0.254  -3.753  -1.866  0.00  0.00     0.172 C 
ATOM      2  N   UNL d   1       0.619  -4.442  -0.945  0.00  0.00    -0.070 N 
ATOM      3  C1  UNL d   1       1.817  -3.971  -0.477  0.00  0.00    -0.004 A 
ATOM      4  C2  UNL d   1       2.339  -4.919   0.375  0.00  0.00    -0.047 A 
ATOM      5  C3  UNL d   1       1.425  -5.999   0.420  0.00  0.00    -0.047 A 
ATOM      6  C4  UNL d   1       0.369  -5.677  -0.407  0.00  0.00    -0.004 A 
ENDROOT
TORSDOF 0
ENDMDL
