MODEL 1
REMARK minimizedAffinity 7.34140635
REMARK minimizedRMSD -1
REMARK  0 active torsions:
REMARK  status: ('A' for Active; 'I' for Inactive)
ROOT
ATOM      1  C   UNL d   1       3.013  -0.734   2.647  0.00  0.00     0.172 C 
ATOM      2  N   UNL d   1       4.023  -1.756   2.509  0.00  0.00    -0.070 N 
ATOM      3  C1  UNL d   1       4.522  -2.528   3.525  0.00  0.00    -0.004 A 
ATOM      4  C2  UNL d   1       5.461  -3.379   2.985  0.00  0.00    -0.047 A 
ATOM      5  C3  UNL d   1       5.531  -3.110   1.598  0.00  0.00    -0.047 A 
ATOM      6  C4  UNL d   1       4.629  -2.101   1.330  0.00  0.00    -0.004 A 
ENDROOT
TORSDOF 0
ENDMDL
