MODEL 1
REMARK minimizedAffinity 5.4474082
REMARK minimizedRMSD -1
REMARK  0 active torsions:
REMARK  status: ('A' for Active; 'I' for Inactive)
ROOT
ATOM      1  C   UNL d   1       1.929   5.980  -1.608  0.00  0.00     0.172 C 
ATOM      2  N   UNL d   1       1.268   4.932  -0.866  0.00  0.00    -0.070 N 
ATOM      3  C1  UNL d   1      -0.071   4.652  -0.900  0.00  0.00    -0.004 A 
ATOM      4  C2  UNL d   1      -0.301   3.585  -0.058  0.00  0.00    -0.047 A 
ATOM      5  C3  UNL d   1       0.943   3.212   0.503  0.00  0.00    -0.047 A 
ATOM      6  C4  UNL d   1       1.898   4.062  -0.015  0.00  0.00    -0.004 A 
ENDROOT
TORSDOF 0
ENDMDL
