MODEL 1
REMARK minimizedAffinity 7.89970398
REMARK minimizedRMSD -1
REMARK  0 active torsions:
REMARK  status: ('A' for Active; 'I' for Inactive)
ROOT
ATOM      1  C   UNL d   1      -5.995  -1.152   2.404  0.00  0.00     0.172 C 
ATOM      2  N   UNL d   1      -5.378  -0.955   3.695  0.00  0.00    -0.070 N 
ATOM      3  C1  UNL d   1      -4.092  -0.535   3.909  0.00  0.00    -0.004 A 
ATOM      4  C2  UNL d   1      -3.890  -0.473   5.271  0.00  0.00    -0.047 A 
ATOM      5  C3  UNL d   1      -5.096  -0.871   5.897  0.00  0.00    -0.047 A 
ATOM      6  C4  UNL d   1      -6.000  -1.163   4.898  0.00  0.00    -0.004 A 
ENDROOT
TORSDOF 0
ENDMDL
