MODEL 1
REMARK minimizedAffinity -1.56136286
REMARK minimizedRMSD -1
REMARK  0 active torsions:
REMARK  status: ('A' for Active; 'I' for Inactive)
ROOT
ATOM      1  C   UNL d   1       2.831  -0.518   2.671  0.00  0.00     0.172 C 
ATOM      2  N   UNL d   1       3.868  -1.522   2.638  0.00  0.00    -0.070 N 
ATOM      3  C1  UNL d   1       4.497  -2.056   3.731  0.00  0.00    -0.004 A 
ATOM      4  C2  UNL d   1       5.417  -2.977   3.281  0.00  0.00    -0.047 A 
ATOM      5  C3  UNL d   1       5.340  -2.997   1.868  0.00  0.00    -0.047 A 
ATOM      6  C4  UNL d   1       4.373  -2.087   1.497  0.00  0.00    -0.004 A 
ENDROOT
TORSDOF 0
ENDMDL
