MODEL 1
REMARK minimizedAffinity -3.54039407
REMARK minimizedRMSD -1
REMARK  0 active torsions:
REMARK  status: ('A' for Active; 'I' for Inactive)
ROOT
ATOM      1  C   UNL d   1       0.375  -0.033   2.847  0.00  0.00    -0.002 A 
ATOM      2  C1  UNL d   1      -0.928   0.442   2.900  0.00  0.00     0.010 A 
ATOM      3  C2  UNL d   1      -1.594   0.821   1.733  0.00  0.00     0.041 A 
ATOM      4  C3  UNL d   1      -0.923   0.710   0.499  0.00  0.00    -0.075 A 
ATOM      5  S   UNL d   1      -1.541   1.113  -1.059  0.00  0.00     0.015 SA
ATOM      6  C4  UNL d   1      -0.090   0.662  -1.833  0.00  0.00     0.022 A 
ATOM      7  C5  UNL d   1       0.853   0.213  -0.939  0.00  0.00     0.026 A 
ATOM      8  C6  UNL d   1       0.388   0.233   0.420  0.00  0.00    -0.082 A 
ATOM      9  C7  UNL d   1       1.037  -0.142   1.621  0.00  0.00     0.045 A 
ENDROOT
TORSDOF 0
ENDMDL
