MODEL 1
REMARK minimizedAffinity -3.01319647
REMARK minimizedRMSD -1
REMARK  0 active torsions:
REMARK  status: ('A' for Active; 'I' for Inactive)
ROOT
ATOM      1  C   UNL d   1      -2.651  -0.237   2.625  0.00  0.00    -0.002 A 
ATOM      2  C1  UNL d   1      -2.994   0.030   1.307  0.00  0.00     0.010 A 
ATOM      3  C2  UNL d   1      -2.006   0.275   0.352  0.00  0.00     0.041 A 
ATOM      4  C3  UNL d   1      -0.654   0.245   0.747  0.00  0.00    -0.075 A 
ATOM      5  S   UNL d   1       0.727   0.514  -0.251  0.00  0.00     0.015 SA
ATOM      6  C4  UNL d   1       1.804   0.281   1.049  0.00  0.00     0.022 A 
ATOM      7  C5  UNL d   1       1.144   0.004   2.223  0.00  0.00     0.026 A 
ATOM      8  C6  UNL d   1      -0.283  -0.022   2.068  0.00  0.00    -0.082 A 
ATOM      9  C7  UNL d   1      -1.309  -0.266   3.013  0.00  0.00     0.045 A 
ENDROOT
TORSDOF 0
ENDMDL
