MODEL 1
REMARK minimizedAffinity -3.529917
REMARK minimizedRMSD -1
REMARK  0 active torsions:
REMARK  status: ('A' for Active; 'I' for Inactive)
ROOT
ATOM      1  C   UNL d   1       1.722  -0.694  -3.314  0.00  0.00    -0.002 A 
ATOM      2  C1  UNL d   1       0.481  -1.312  -3.372  0.00  0.00     0.010 A 
ATOM      3  C2  UNL d   1      -0.418  -1.201  -2.309  0.00  0.00     0.041 A 
ATOM      4  C3  UNL d   1      -0.046  -0.449  -1.178  0.00  0.00    -0.075 A 
ATOM      5  S   UNL d   1      -0.985  -0.175   0.242  0.00  0.00     0.015 SA
ATOM      6  C4  UNL d   1       0.239   0.771   0.959  0.00  0.00     0.022 A 
ATOM      7  C5  UNL d   1       1.344   0.885   0.148  0.00  0.00     0.026 A 
ATOM      8  C6  UNL d   1       1.197   0.184  -1.096  0.00  0.00    -0.082 A 
ATOM      9  C7  UNL d   1       2.087   0.052  -2.190  0.00  0.00     0.045 A 
ENDROOT
TORSDOF 0
ENDMDL
