MODEL 1
REMARK minimizedAffinity -3.41324377
REMARK minimizedRMSD -1
REMARK  0 active torsions:
REMARK  status: ('A' for Active; 'I' for Inactive)
ROOT
ATOM      1  C   UNL d   1      -0.844  -0.884   3.462  0.00  0.00    -0.002 A 
ATOM      2  C1  UNL d   1      -2.141  -0.504   3.144  0.00  0.00     0.010 A 
ATOM      3  C2  UNL d   1      -2.456  -0.061   1.858  0.00  0.00     0.041 A 
ATOM      4  C3  UNL d   1      -1.437  -0.006   0.887  0.00  0.00    -0.075 A 
ATOM      5  S   UNL d   1      -1.590   0.503  -0.753  0.00  0.00     0.015 SA
ATOM      6  C4  UNL d   1       0.062   0.228  -1.070  0.00  0.00     0.022 A 
ATOM      7  C5  UNL d   1       0.729  -0.240   0.037  0.00  0.00     0.026 A 
ATOM      8  C6  UNL d   1      -0.124  -0.384   1.183  0.00  0.00    -0.082 A 
ATOM      9  C7  UNL d   1       0.164  -0.828   2.496  0.00  0.00     0.045 A 
ENDROOT
TORSDOF 0
ENDMDL
