MODEL 1
REMARK minimizedAffinity -1.02119195
REMARK minimizedRMSD -1
REMARK  0 active torsions:
REMARK  status: ('A' for Active; 'I' for Inactive)
ROOT
ATOM      1  C   UNL d   1       0.468   0.556   2.865  0.00  0.00    -0.002 A 
ATOM      2  C1  UNL d   1      -0.682  -0.221   2.862  0.00  0.00     0.010 A 
ATOM      3  C2  UNL d   1      -1.167  -0.766   1.671  0.00  0.00     0.041 A 
ATOM      4  C3  UNL d   1      -0.470  -0.516   0.473  0.00  0.00    -0.075 A 
ATOM      5  S   UNL d   1      -0.878  -1.081  -1.104  0.00  0.00     0.015 SA
ATOM      6  C4  UNL d   1       0.465  -0.306  -1.810  0.00  0.00     0.022 A 
ATOM      7  C5  UNL d   1       1.217   0.373  -0.881  0.00  0.00     0.026 A 
ATOM      8  C6  UNL d   1       0.691   0.262   0.451  0.00  0.00    -0.082 A 
ATOM      9  C7  UNL d   1       1.157   0.801   1.674  0.00  0.00     0.045 A 
ENDROOT
TORSDOF 0
ENDMDL
