MODEL 1
REMARK minimizedAffinity -4.87095547
REMARK minimizedRMSD -1
REMARK  0 active torsions:
REMARK  status: ('A' for Active; 'I' for Inactive)
ROOT
ATOM      1  C   UNL d   1      -1.683  -0.516   3.497  0.00  0.00    -0.002 A 
ATOM      2  C1  UNL d   1      -2.631  -0.237   2.522  0.00  0.00     0.010 A 
ATOM      3  C2  UNL d   1      -2.241   0.022   1.207  0.00  0.00     0.041 A 
ATOM      4  C3  UNL d   1      -0.870  -0.004   0.884  0.00  0.00    -0.075 A 
ATOM      5  S   UNL d   1      -0.159   0.282  -0.660  0.00  0.00     0.015 SA
ATOM      6  C4  UNL d   1       1.418   0.041  -0.062  0.00  0.00     0.022 A 
ATOM      7  C5  UNL d   1       1.422  -0.251   1.281  0.00  0.00     0.026 A 
ATOM      8  C6  UNL d   1       0.103  -0.283   1.849  0.00  0.00    -0.082 A 
ATOM      9  C7  UNL d   1      -0.324  -0.541   3.174  0.00  0.00     0.045 A 
ENDROOT
TORSDOF 0
ENDMDL
