MODEL 1
REMARK minimizedAffinity -2.55315828
REMARK minimizedRMSD -1
REMARK  0 active torsions:
REMARK  status: ('A' for Active; 'I' for Inactive)
ROOT
ATOM      1  C   UNL d   1       0.027  -0.589   3.209  0.00  0.00    -0.002 A 
ATOM      2  C1  UNL d   1      -1.329  -0.667   2.927  0.00  0.00     0.010 A 
ATOM      3  C2  UNL d   1      -1.802  -0.423   1.636  0.00  0.00     0.041 A 
ATOM      4  C3  UNL d   1      -0.879  -0.097   0.623  0.00  0.00    -0.075 A 
ATOM      5  S   UNL d   1      -1.228   0.241  -1.032  0.00  0.00     0.015 SA
ATOM      6  C4  UNL d   1       0.416   0.497  -1.403  0.00  0.00     0.022 A 
ATOM      7  C5  UNL d   1       1.225   0.332  -0.304  0.00  0.00     0.026 A 
ATOM      8  C6  UNL d   1       0.492  -0.013   0.882  0.00  0.00    -0.082 A 
ATOM      9  C7  UNL d   1       0.940  -0.266   2.201  0.00  0.00     0.045 A 
ENDROOT
TORSDOF 0
ENDMDL
