MODEL 1
REMARK minimizedAffinity -2.77044153
REMARK minimizedRMSD -1
REMARK  0 active torsions:
REMARK  status: ('A' for Active; 'I' for Inactive)
ROOT
ATOM      1  C   UNL d   1       0.553  -0.750   3.173  0.00  0.00    -0.002 A 
ATOM      2  C1  UNL d   1      -0.762  -1.167   3.022  0.00  0.00     0.010 A 
ATOM      3  C2  UNL d   1      -1.412  -1.037   1.793  0.00  0.00     0.041 A 
ATOM      4  C3  UNL d   1      -0.710  -0.478   0.707  0.00  0.00    -0.075 A 
ATOM      5  S   UNL d   1      -1.302  -0.222  -0.892  0.00  0.00     0.015 SA
ATOM      6  C4  UNL d   1       0.177   0.446  -1.413  0.00  0.00     0.022 A 
ATOM      7  C5  UNL d   1       1.110   0.481  -0.404  0.00  0.00     0.026 A 
ATOM      8  C6  UNL d   1       0.615  -0.052   0.834  0.00  0.00    -0.082 A 
ATOM      9  C7  UNL d   1       1.246  -0.195   2.093  0.00  0.00     0.045 A 
ENDROOT
TORSDOF 0
ENDMDL
