MODEL 1
REMARK minimizedAffinity 1.43568754
REMARK minimizedRMSD -1
REMARK  0 active torsions:
REMARK  status: ('A' for Active; 'I' for Inactive)
ROOT
ATOM      1  C   UNL d   1       2.247   1.644   2.349  0.00  0.00    -0.002 A 
ATOM      2  C1  UNL d   1       2.003   1.147   1.076  0.00  0.00     0.010 A 
ATOM      3  C2  UNL d   1       0.752   0.620   0.748  0.00  0.00     0.041 A 
ATOM      4  C3  UNL d   1      -0.259   0.602   1.729  0.00  0.00    -0.075 A 
ATOM      5  S   UNL d   1      -1.867   0.006   1.553  0.00  0.00     0.015 SA
ATOM      6  C4  UNL d   1      -2.268   0.397   3.163  0.00  0.00     0.022 A 
ATOM      7  C5  UNL d   1      -1.212   0.970   3.832  0.00  0.00     0.026 A 
ATOM      8  C6  UNL d   1      -0.037   1.097   3.017  0.00  0.00    -0.082 A 
ATOM      9  C7  UNL d   1       1.242   1.625   3.319  0.00  0.00     0.045 A 
ENDROOT
TORSDOF 0
ENDMDL
