MODEL 1
REMARK minimizedAffinity -4.20130634
REMARK minimizedRMSD -1
REMARK  0 active torsions:
REMARK  status: ('A' for Active; 'I' for Inactive)
ROOT
ATOM      1  C   UNL d   1      -3.184   0.171   2.837  0.00  0.00    -0.002 A 
ATOM      2  C1  UNL d   1      -3.429   0.351   1.483  0.00  0.00     0.010 A 
ATOM      3  C2  UNL d   1      -2.378   0.343   0.564  0.00  0.00     0.041 A 
ATOM      4  C3  UNL d   1      -1.064   0.147   1.032  0.00  0.00    -0.075 A 
ATOM      5  S   UNL d   1       0.379   0.098   0.090  0.00  0.00     0.015 SA
ATOM      6  C4  UNL d   1       1.355  -0.164   1.463  0.00  0.00     0.022 A 
ATOM      7  C5  UNL d   1       0.614  -0.216   2.620  0.00  0.00     0.026 A 
ATOM      8  C6  UNL d   1      -0.792  -0.038   2.391  0.00  0.00    -0.082 A 
ATOM      9  C7  UNL d   1      -1.879  -0.023   3.298  0.00  0.00     0.045 A 
ENDROOT
TORSDOF 0
ENDMDL
