MODEL 1
REMARK minimizedAffinity -3.82730246
REMARK minimizedRMSD -1
REMARK  1 active torsions:
REMARK  status: ('A' for Active; 'I' for Inactive)
REMARK    1  A    between atoms: C1_2  and  C2_3 
ROOT
ATOM      1  C2  UNL d   1       0.119   1.206   1.440  0.00  0.00    -0.076 A 
ATOM      2  C3  UNL d   1      -0.450   2.423   1.854  0.00  0.00     0.004 A 
ATOM      3  C4  UNL d   1      -1.766   2.481   2.310  0.00  0.00    -0.003 A 
ATOM      4  C5  UNL d   1      -2.535   1.323   2.358  0.00  0.00     0.000 A 
ATOM      5  C6  UNL d   1      -1.981   0.104   1.967  0.00  0.00     0.000 A 
ATOM      6  C7  UNL d   1      -0.651   0.026   1.521  0.00  0.00    -0.073 A 
ATOM      7  C8  UNL d   1      -0.106  -1.314   1.106  0.00  0.00     0.078 C 
ENDROOT
BRANCH   1   8
ATOM      8  C1  UNL d   1       1.542   1.209   0.930  0.00  0.00     0.053 C 
ATOM      9  C   UNL d   1       1.670   0.570  -0.445  0.00  0.00     0.018 C 
ENDBRANCH   1   8
TORSDOF 1
ENDMDL
