MODEL 1
REMARK minimizedAffinity -4.28171968
REMARK minimizedRMSD -1
REMARK  1 active torsions:
REMARK  status: ('A' for Active; 'I' for Inactive)
REMARK    1  A    between atoms: C1_2  and  C2_3 
ROOT
ATOM      1  C2  UNL d   1      -1.220   0.324   2.090  0.00  0.00    -0.076 A 
ATOM      2  C3  UNL d   1      -2.468   0.086   2.691  0.00  0.00     0.004 A 
ATOM      3  C4  UNL d   1      -3.286   1.142   3.090  0.00  0.00    -0.003 A 
ATOM      4  C5  UNL d   1      -2.869   2.453   2.893  0.00  0.00     0.000 A 
ATOM      5  C6  UNL d   1      -1.642   2.709   2.282  0.00  0.00     0.000 A 
ATOM      6  C7  UNL d   1      -0.812   1.655   1.860  0.00  0.00    -0.073 A 
ATOM      7  C8  UNL d   1       0.504   1.988   1.212  0.00  0.00     0.078 C 
ENDROOT
BRANCH   1   8
ATOM      8  C1  UNL d   1      -0.364  -0.861   1.704  0.00  0.00     0.053 C 
ATOM      9  C   UNL d   1       0.879  -0.989   2.571  0.00  0.00     0.018 C 
ENDBRANCH   1   8
TORSDOF 1
ENDMDL
