MODEL 1
REMARK minimizedAffinity 1.92077303
REMARK minimizedRMSD -1
REMARK  1 active torsions:
REMARK  status: ('A' for Active; 'I' for Inactive)
REMARK    1  A    between atoms: C1_2  and  C2_3 
ROOT
ATOM      1  C2  UNL d   1      -2.501   1.632   2.253  0.00  0.00    -0.076 A 
ATOM      2  C3  UNL d   1      -1.657   2.725   1.988  0.00  0.00     0.004 A 
ATOM      3  C4  UNL d   1      -0.336   2.532   1.590  0.00  0.00    -0.003 A 
ATOM      4  C5  UNL d   1       0.164   1.242   1.450  0.00  0.00     0.000 A 
ATOM      5  C6  UNL d   1      -0.664   0.145   1.691  0.00  0.00     0.000 A 
ATOM      6  C7  UNL d   1      -2.003   0.323   2.077  0.00  0.00    -0.073 A 
ATOM      7  C8  UNL d   1      -2.849  -0.895   2.330  0.00  0.00     0.078 C 
ENDROOT
BRANCH   1   8
ATOM      8  C1  UNL d   1      -3.917   1.904   2.707  0.00  0.00     0.053 C 
ATOM      9  C   UNL d   1      -4.069   1.828   4.219  0.00  0.00     0.018 C 
ENDBRANCH   1   8
TORSDOF 1
ENDMDL
