MODEL 1
REMARK minimizedAffinity 1.64567292
REMARK minimizedRMSD -1
REMARK  1 active torsions:
REMARK  status: ('A' for Active; 'I' for Inactive)
REMARK    1  A    between atoms: C1_2  and  C2_3 
ROOT
ATOM      1  C2  UNL d   1      -2.743   1.341   2.789  0.00  0.00    -0.076 A 
ATOM      2  C3  UNL d   1      -2.272   2.666   2.792  0.00  0.00     0.004 A 
ATOM      3  C4  UNL d   1      -1.123   3.021   2.086  0.00  0.00    -0.003 A 
ATOM      4  C5  UNL d   1      -0.428   2.056   1.365  0.00  0.00     0.000 A 
ATOM      5  C6  UNL d   1      -0.891   0.741   1.336  0.00  0.00     0.000 A 
ATOM      6  C7  UNL d   1      -2.056   0.371   2.029  0.00  0.00    -0.073 A 
ATOM      7  C8  UNL d   1      -2.506  -1.063   1.969  0.00  0.00     0.078 C 
ENDROOT
BRANCH   1   8
ATOM      8  C1  UNL d   1      -3.978   1.010   3.595  0.00  0.00     0.053 C 
ATOM      9  C   UNL d   1      -4.228   2.009   4.715  0.00  0.00     0.018 C 
ENDBRANCH   1   8
TORSDOF 1
ENDMDL
