MODEL 1
REMARK minimizedAffinity -3.43503618
REMARK minimizedRMSD -1
REMARK  1 active torsions:
REMARK  status: ('A' for Active; 'I' for Inactive)
REMARK    1  A    between atoms: C1_2  and  C2_3 
ROOT
ATOM      1  C2  UNL d   1      -1.854   0.725   2.371  0.00  0.00    -0.076 A 
ATOM      2  C3  UNL d   1      -1.848   2.089   2.032  0.00  0.00     0.004 A 
ATOM      3  C4  UNL d   1      -0.727   2.678   1.449  0.00  0.00    -0.003 A 
ATOM      4  C5  UNL d   1       0.406   1.912   1.196  0.00  0.00     0.000 A 
ATOM      5  C6  UNL d   1       0.410   0.553   1.510  0.00  0.00     0.000 A 
ATOM      6  C7  UNL d   1      -0.717  -0.060   2.083  0.00  0.00    -0.073 A 
ATOM      7  C8  UNL d   1      -0.655  -1.527   2.406  0.00  0.00     0.078 C 
ENDROOT
BRANCH   1   8
ATOM      8  C1  UNL d   1      -3.089   0.147   3.026  0.00  0.00     0.053 C 
ATOM      9  C   UNL d   1      -3.995   1.220   3.609  0.00  0.00     0.018 C 
ENDBRANCH   1   8
TORSDOF 1
ENDMDL
