MODEL 1
REMARK minimizedAffinity 1.70815969
REMARK minimizedRMSD -1
REMARK  1 active torsions:
REMARK  status: ('A' for Active; 'I' for Inactive)
REMARK    1  A    between atoms: C1_2  and  C2_3 
ROOT
ATOM      1  C2  UNL d   1      -2.901   1.047   3.218  0.00  0.00    -0.076 A 
ATOM      2  C3  UNL d   1      -2.263   2.248   2.860  0.00  0.00     0.004 A 
ATOM      3  C4  UNL d   1      -1.138   2.245   2.036  0.00  0.00    -0.003 A 
ATOM      4  C5  UNL d   1      -0.633   1.041   1.557  0.00  0.00     0.000 A 
ATOM      5  C6  UNL d   1      -1.264  -0.158   1.889  0.00  0.00     0.000 A 
ATOM      6  C7  UNL d   1      -2.408  -0.171   2.704  0.00  0.00    -0.073 A 
ATOM      7  C8  UNL d   1      -3.044  -1.494   3.035  0.00  0.00     0.078 C 
ENDROOT
BRANCH   1   8
ATOM      8  C1  UNL d   1      -4.100   1.111   4.137  0.00  0.00     0.053 C 
ATOM      9  C   UNL d   1      -4.123   2.377   4.979  0.00  0.00     0.018 C 
ENDBRANCH   1   8
TORSDOF 1
ENDMDL
