MODEL 1
REMARK minimizedAffinity -2.0826273
REMARK minimizedRMSD -1
REMARK  1 active torsions:
REMARK  status: ('A' for Active; 'I' for Inactive)
REMARK    1  A    between atoms: C1_2  and  C2_3 
ROOT
ATOM      1  C2  UNL d   1      -1.885  -0.403   2.194  0.00  0.00    -0.076 A 
ATOM      2  C3  UNL d   1      -0.684  -0.738   1.546  0.00  0.00     0.004 A 
ATOM      3  C4  UNL d   1       0.207   0.250   1.130  0.00  0.00    -0.003 A 
ATOM      4  C5  UNL d   1      -0.088   1.590   1.357  0.00  0.00     0.000 A 
ATOM      5  C6  UNL d   1      -1.267   1.940   2.014  0.00  0.00     0.000 A 
ATOM      6  C7  UNL d   1      -2.169   0.955   2.454  0.00  0.00    -0.073 A 
ATOM      7  C8  UNL d   1      -3.428   1.390   3.152  0.00  0.00     0.078 C 
ENDROOT
BRANCH   1   8
ATOM      8  C1  UNL d   1      -2.826  -1.516   2.597  0.00  0.00     0.053 C 
ATOM      9  C   UNL d   1      -2.363  -2.245   3.849  0.00  0.00     0.018 C 
ENDBRANCH   1   8
TORSDOF 1
ENDMDL
