MODEL 1
REMARK minimizedAffinity -1.72920346
REMARK minimizedRMSD -1
REMARK  1 active torsions:
REMARK  status: ('A' for Active; 'I' for Inactive)
REMARK    1  A    between atoms: C1_2  and  C2_3 
ROOT
ATOM      1  C2  UNL d   1      -1.776   1.583   1.892  0.00  0.00    -0.076 A 
ATOM      2  C3  UNL d   1      -0.784   2.494   2.292  0.00  0.00     0.004 A 
ATOM      3  C4  UNL d   1       0.554   2.289   1.962  0.00  0.00    -0.003 A 
ATOM      4  C5  UNL d   1       0.922   1.168   1.225  0.00  0.00     0.000 A 
ATOM      5  C6  UNL d   1      -0.052   0.263   0.804  0.00  0.00     0.000 A 
ATOM      6  C7  UNL d   1      -1.407   0.464   1.115  0.00  0.00    -0.073 A 
ATOM      7  C8  UNL d   1      -2.415  -0.548   0.641  0.00  0.00     0.078 C 
ENDROOT
BRANCH   1   8
ATOM      8  C1  UNL d   1      -3.208   1.844   2.304  0.00  0.00     0.053 C 
ATOM      9  C   UNL d   1      -3.610   1.060   3.543  0.00  0.00     0.018 C 
ENDBRANCH   1   8
TORSDOF 1
ENDMDL
