MODEL 1
REMARK minimizedAffinity 2.56483364
REMARK minimizedRMSD -1
REMARK  1 active torsions:
REMARK  status: ('A' for Active; 'I' for Inactive)
REMARK    1  A    between atoms: C1_2  and  C2_3 
ROOT
ATOM      1  C2  UNL d   1      -1.184   1.432   1.833  0.00  0.00    -0.076 A 
ATOM      2  C3  UNL d   1      -0.088   1.913   1.095  0.00  0.00     0.004 A 
ATOM      3  C4  UNL d   1       0.906   1.047   0.642  0.00  0.00    -0.003 A 
ATOM      4  C5  UNL d   1       0.821  -0.313   0.919  0.00  0.00     0.000 A 
ATOM      5  C6  UNL d   1      -0.269  -0.809   1.634  0.00  0.00     0.000 A 
ATOM      6  C7  UNL d   1      -1.288   0.047   2.084  0.00  0.00    -0.073 A 
ATOM      7  C8  UNL d   1      -2.437  -0.541   2.856  0.00  0.00     0.078 C 
ENDROOT
BRANCH   1   8
ATOM      8  C1  UNL d   1      -2.218   2.421   2.321  0.00  0.00     0.053 C 
ATOM      9  C   UNL d   1      -2.678   2.130   3.741  0.00  0.00     0.018 C 
ENDBRANCH   1   8
TORSDOF 1
ENDMDL
