MODEL 1
REMARK minimizedAffinity 1.28777659
REMARK minimizedRMSD -1
REMARK  1 active torsions:
REMARK  status: ('A' for Active; 'I' for Inactive)
REMARK    1  A    between atoms: C1_2  and  C2_3 
ROOT
ATOM      1  C2  UNL d   1      -2.631   1.745   2.613  0.00  0.00    -0.076 A 
ATOM      2  C3  UNL d   1      -2.681   0.351   2.782  0.00  0.00     0.004 A 
ATOM      3  C4  UNL d   1      -1.693  -0.473   2.245  0.00  0.00    -0.003 A 
ATOM      4  C5  UNL d   1      -0.639   0.084   1.531  0.00  0.00     0.000 A 
ATOM      5  C6  UNL d   1      -0.563   1.467   1.368  0.00  0.00     0.000 A 
ATOM      6  C7  UNL d   1      -1.542   2.313   1.917  0.00  0.00    -0.073 A 
ATOM      7  C8  UNL d   1      -1.415   3.797   1.706  0.00  0.00     0.078 C 
ENDROOT
BRANCH   1   8
ATOM      8  C1  UNL d   1      -3.745   2.586   3.194  0.00  0.00     0.053 C 
ATOM      9  C   UNL d   1      -4.141   2.141   4.594  0.00  0.00     0.018 C 
ENDBRANCH   1   8
TORSDOF 1
ENDMDL
