MODEL 1
REMARK minimizedAffinity -0.982702672
REMARK minimizedRMSD -1
REMARK  1 active torsions:
REMARK  status: ('A' for Active; 'I' for Inactive)
REMARK    1  A    between atoms: C1_2  and  C2_3 
ROOT
ATOM      1  C2  UNL d   1      -1.085   1.767   1.865  0.00  0.00    -0.076 A 
ATOM      2  C3  UNL d   1       0.117   2.438   1.579  0.00  0.00     0.004 A 
ATOM      3  C4  UNL d   1       1.250   1.737   1.170  0.00  0.00    -0.003 A 
ATOM      4  C5  UNL d   1       1.199   0.354   1.040  0.00  0.00     0.000 A 
ATOM      5  C6  UNL d   1       0.011  -0.326   1.302  0.00  0.00     0.000 A 
ATOM      6  C7  UNL d   1      -1.146   0.367   1.700  0.00  0.00    -0.073 A 
ATOM      7  C8  UNL d   1      -2.399  -0.418   1.975  0.00  0.00     0.078 C 
ENDROOT
BRANCH   1   8
ATOM      8  C1  UNL d   1      -2.274   2.578   2.330  0.00  0.00     0.053 C 
ATOM      9  C   UNL d   1      -2.966   1.958   3.535  0.00  0.00     0.018 C 
ENDBRANCH   1   8
TORSDOF 1
ENDMDL
