MODEL 1
REMARK minimizedAffinity 1.62029994
REMARK minimizedRMSD -1
REMARK  1 active torsions:
REMARK  status: ('A' for Active; 'I' for Inactive)
REMARK    1  A    between atoms: C1_2  and  C2_3 
ROOT
ATOM      1  C2  UNL d   1      -0.414   1.254   2.337  0.00  0.00    -0.076 A 
ATOM      2  C3  UNL d   1       0.586   1.017   3.296  0.00  0.00     0.004 A 
ATOM      3  C4  UNL d   1       1.427  -0.090   3.197  0.00  0.00    -0.003 A 
ATOM      4  C5  UNL d   1       1.282  -0.977   2.136  0.00  0.00     0.000 A 
ATOM      5  C6  UNL d   1       0.307  -0.748   1.166  0.00  0.00     0.000 A 
ATOM      6  C7  UNL d   1      -0.539   0.372   1.242  0.00  0.00    -0.073 A 
ATOM      7  C8  UNL d   1      -1.577   0.567   0.172  0.00  0.00     0.078 C 
ENDROOT
BRANCH   1   8
ATOM      8  C1  UNL d   1      -1.315   2.456   2.512  0.00  0.00     0.053 C 
ATOM      9  C   UNL d   1      -2.352   2.253   3.605  0.00  0.00     0.018 C 
ENDBRANCH   1   8
TORSDOF 1
ENDMDL
