MODEL 1
REMARK minimizedAffinity -2.70028591
REMARK minimizedRMSD -1
REMARK  1 active torsions:
REMARK  status: ('A' for Active; 'I' for Inactive)
REMARK    1  A    between atoms: C1_2  and  C2_3 
ROOT
ATOM      1  C2  UNL d   1      -1.978   1.643   2.509  0.00  0.00    -0.076 A 
ATOM      2  C3  UNL d   1      -1.855   0.247   2.399  0.00  0.00     0.004 A 
ATOM      3  C4  UNL d   1      -0.874  -0.326   1.592  0.00  0.00    -0.003 A 
ATOM      4  C5  UNL d   1       0.001   0.489   0.881  0.00  0.00     0.000 A 
ATOM      5  C6  UNL d   1      -0.096   1.876   0.992  0.00  0.00     0.000 A 
ATOM      6  C7  UNL d   1      -1.069   2.469   1.815  0.00  0.00    -0.073 A 
ATOM      7  C8  UNL d   1      -1.132   3.969   1.892  0.00  0.00     0.078 C 
ENDROOT
BRANCH   1   8
ATOM      8  C1  UNL d   1      -3.079   2.206   3.379  0.00  0.00     0.053 C 
ATOM      9  C   UNL d   1      -4.193   1.202   3.633  0.00  0.00     0.018 C 
ENDBRANCH   1   8
TORSDOF 1
ENDMDL
