MODEL 1
REMARK minimizedAffinity 11.3635845
REMARK minimizedRMSD -1
REMARK  0 active torsions:
REMARK  status: ('A' for Active; 'I' for Inactive)
ROOT
ATOM      1  C2' OXE d   1       0.931   3.031  -5.624  0.00  0.00     0.078 C 
ATOM      2  C1' OXE d   1       0.738   5.813  -5.946  0.00  0.00     0.078 C 
ATOM      3  C1  OXE d   1       2.117   5.207  -5.877  0.00  0.00    -0.078 A 
ATOM      4  C2  OXE d   1       2.203   3.851  -5.672  0.00  0.00    -0.078 A 
ATOM      5  C3  OXE d   1       3.450   3.233  -5.656  0.00  0.00     0.003 A 
ATOM      6  C4  OXE d   1       4.621   4.000  -5.691  0.00  0.00    -0.002 A 
ATOM      7  C5  OXE d   1       4.557   5.387  -5.859  0.00  0.00    -0.002 A 
ATOM      8  C6  OXE d   1       3.316   6.000  -5.996  0.00  0.00     0.003 A 
ENDROOT
TORSDOF 0
ENDMDL
