MODEL 1
REMARK minimizedAffinity 12.4340286
REMARK minimizedRMSD -1
REMARK  0 active torsions:
REMARK  status: ('A' for Active; 'I' for Inactive)
ROOT
ATOM      1  C2' OXE d   1       0.778  -0.489   3.121  0.00  0.00     0.078 C 
ATOM      2  C1' OXE d   1      -1.019  -2.628   2.844  0.00  0.00     0.078 C 
ATOM      3  C1  OXE d   1       0.355  -2.781   2.240  0.00  0.00    -0.078 A 
ATOM      4  C2  OXE d   1       1.211  -1.711   2.340  0.00  0.00    -0.078 A 
ATOM      5  C3  OXE d   1       2.509  -1.819   1.849  0.00  0.00     0.003 A 
ATOM      6  C4  OXE d   1       2.899  -2.949   1.119  0.00  0.00    -0.002 A 
ATOM      7  C5  OXE d   1       2.028  -4.034   0.971  0.00  0.00    -0.002 A 
ATOM      8  C6  OXE d   1       0.770  -3.983   1.561  0.00  0.00     0.003 A 
ENDROOT
TORSDOF 0
ENDMDL
