MODEL 1
REMARK minimizedAffinity 11.0219679
REMARK minimizedRMSD -1
REMARK  0 active torsions:
REMARK  status: ('A' for Active; 'I' for Inactive)
ROOT
ATOM      1  C2' OXE d   1      -5.993   0.232   4.965  0.00  0.00     0.078 C 
ATOM      2  C1' OXE d   1      -5.855   2.063   2.842  0.00  0.00     0.078 C 
ATOM      3  C1  OXE d   1      -4.807   2.159   3.923  0.00  0.00    -0.078 A 
ATOM      4  C2  OXE d   1      -4.910   1.289   4.982  0.00  0.00    -0.078 A 
ATOM      5  C3  OXE d   1      -3.938   1.298   5.978  0.00  0.00     0.003 A 
ATOM      6  C4  OXE d   1      -2.946   2.286   5.992  0.00  0.00    -0.002 A 
ATOM      7  C5  OXE d   1      -2.847   3.207   4.944  0.00  0.00    -0.002 A 
ATOM      8  C6  OXE d   1      -3.742   3.130   3.882  0.00  0.00     0.003 A 
ENDROOT
TORSDOF 0
ENDMDL
