MODEL 1
REMARK minimizedAffinity 10.4809694
REMARK minimizedRMSD -1
REMARK  0 active torsions:
REMARK  status: ('A' for Active; 'I' for Inactive)
ROOT
ATOM      1  C2' OXE d   1      -3.123   1.515  -2.865  0.00  0.00     0.078 C 
ATOM      2  C1' OXE d   1      -2.921  -0.995  -1.624  0.00  0.00     0.078 C 
ATOM      3  C1  OXE d   1      -4.003  -0.807  -2.658  0.00  0.00    -0.078 A 
ATOM      4  C2  OXE d   1      -4.125   0.439  -3.226  0.00  0.00    -0.078 A 
ATOM      5  C3  OXE d   1      -5.071   0.651  -4.225  0.00  0.00     0.003 A 
ATOM      6  C4  OXE d   1      -5.999  -0.346  -4.546  0.00  0.00    -0.002 A 
ATOM      7  C5  OXE d   1      -5.918  -1.609  -3.950  0.00  0.00    -0.002 A 
ATOM      8  C6  OXE d   1      -4.902  -1.869  -3.037  0.00  0.00     0.003 A 
ENDROOT
TORSDOF 0
ENDMDL
