MODEL 1
REMARK minimizedAffinity 11.9698887
REMARK minimizedRMSD -1
REMARK  0 active torsions:
REMARK  status: ('A' for Active; 'I' for Inactive)
ROOT
ATOM      1  C2' OXE d   1      -5.839   3.797  -5.267  0.00  0.00     0.078 C 
ATOM      2  C1' OXE d   1      -3.907   5.378  -3.982  0.00  0.00     0.078 C 
ATOM      3  C1  OXE d   1      -3.841   3.884  -3.781  0.00  0.00    -0.078 A 
ATOM      4  C2  OXE d   1      -4.818   3.123  -4.376  0.00  0.00    -0.078 A 
ATOM      5  C3  OXE d   1      -4.773   1.736  -4.267  0.00  0.00     0.003 A 
ATOM      6  C4  OXE d   1      -3.832   1.120  -3.433  0.00  0.00    -0.002 A 
ATOM      7  C5  OXE d   1      -2.852   1.881  -2.786  0.00  0.00    -0.002 A 
ATOM      8  C6  OXE d   1      -2.817   3.257  -2.983  0.00  0.00     0.003 A 
ENDROOT
TORSDOF 0
ENDMDL
