MODEL 1
REMARK minimizedAffinity 13.4383421
REMARK minimizedRMSD -1
REMARK  0 active torsions:
REMARK  status: ('A' for Active; 'I' for Inactive)
ROOT
ATOM      1  C2' OXE d   1       1.324  -0.246   2.802  0.00  0.00     0.078 C 
ATOM      2  C1' OXE d   1      -0.829  -1.954   2.231  0.00  0.00     0.078 C 
ATOM      3  C1  OXE d   1       0.526  -2.323   1.682  0.00  0.00    -0.078 A 
ATOM      4  C2  OXE d   1       1.565  -1.457   1.927  0.00  0.00    -0.078 A 
ATOM      5  C3  OXE d   1       2.847  -1.777   1.490  0.00  0.00     0.003 A 
ATOM      6  C4  OXE d   1       3.059  -2.894   0.672  0.00  0.00    -0.002 A 
ATOM      7  C5  OXE d   1       2.008  -3.768   0.377  0.00  0.00    -0.002 A 
ATOM      8  C6  OXE d   1       0.747  -3.520   0.908  0.00  0.00     0.003 A 
ENDROOT
TORSDOF 0
ENDMDL
