MODEL 1
REMARK minimizedAffinity 8.12273788
REMARK minimizedRMSD -1
REMARK  0 active torsions:
REMARK  status: ('A' for Active; 'I' for Inactive)
ROOT
ATOM      1  C2' OXE d   1      -0.672  -1.203   2.972  0.00  0.00     0.078 C 
ATOM      2  C1' OXE d   1       1.892  -0.407   3.791  0.00  0.00     0.078 C 
ATOM      3  C1  OXE d   1       1.781  -1.242   2.540  0.00  0.00    -0.078 A 
ATOM      4  C2  OXE d   1       0.526  -1.666   2.173  0.00  0.00    -0.078 A 
ATOM      5  C3  OXE d   1       0.361  -2.393   0.997  0.00  0.00     0.003 A 
ATOM      6  C4  OXE d   1       1.476  -2.826   0.269  0.00  0.00    -0.002 A 
ATOM      7  C5  OXE d   1       2.766  -2.438   0.648  0.00  0.00    -0.002 A 
ATOM      8  C6  OXE d   1       2.932  -1.613   1.754  0.00  0.00     0.003 A 
ENDROOT
TORSDOF 0
ENDMDL
