MODEL 1
REMARK minimizedAffinity 10.0096092
REMARK minimizedRMSD -1
REMARK  0 active torsions:
REMARK  status: ('A' for Active; 'I' for Inactive)
ROOT
ATOM      1  C2' OXE d   1      -1.193  -0.858   2.408  0.00  0.00     0.078 C 
ATOM      2  C1' OXE d   1       1.200   0.324   3.276  0.00  0.00     0.078 C 
ATOM      3  C1  OXE d   1       1.293  -0.798   2.273  0.00  0.00    -0.078 A 
ATOM      4  C2  OXE d   1       0.120  -1.402   1.889  0.00  0.00    -0.078 A 
ATOM      5  C3  OXE d   1       0.145  -2.406   0.925  0.00  0.00     0.003 A 
ATOM      6  C4  OXE d   1       1.365  -2.910   0.458  0.00  0.00    -0.002 A 
ATOM      7  C5  OXE d   1       2.574  -2.336   0.866  0.00  0.00    -0.002 A 
ATOM      8  C6  OXE d   1       2.553  -1.253   1.738  0.00  0.00     0.003 A 
ENDROOT
TORSDOF 0
ENDMDL
