MODEL 1
REMARK minimizedAffinity 10.7636137
REMARK minimizedRMSD -1
REMARK  0 active torsions:
REMARK  status: ('A' for Active; 'I' for Inactive)
ROOT
ATOM      1  C2' OXE d   1      -5.967   1.008  -4.502  0.00  0.00     0.078 C 
ATOM      2  C1' OXE d   1      -4.169   1.270  -2.362  0.00  0.00     0.078 C 
ATOM      3  C1  OXE d   1      -4.650  -0.116  -2.711  0.00  0.00    -0.078 A 
ATOM      4  C2  OXE d   1      -5.565  -0.230  -3.729  0.00  0.00    -0.078 A 
ATOM      5  C3  OXE d   1      -6.000  -1.491  -4.127  0.00  0.00     0.003 A 
ATOM      6  C4  OXE d   1      -5.631  -2.630  -3.401  0.00  0.00    -0.002 A 
ATOM      7  C5  OXE d   1      -4.731  -2.531  -2.335  0.00  0.00    -0.002 A 
ATOM      8  C6  OXE d   1      -4.199  -1.290  -2.005  0.00  0.00     0.003 A 
ENDROOT
TORSDOF 0
ENDMDL
