MODEL 1
REMARK minimizedAffinity 0.446848482
REMARK minimizedRMSD -1
REMARK  0 active torsions:
REMARK  status: ('A' for Active; 'I' for Inactive)
ROOT
ATOM      1  C2' OXE d   1      -3.847   5.993  -4.877  0.00  0.00     0.078 C 
ATOM      2  C1' OXE d   1      -5.948   4.509  -6.000  0.00  0.00     0.078 C 
ATOM      3  C1  OXE d   1      -4.649   3.794  -5.728  0.00  0.00    -0.078 A 
ATOM      4  C2  OXE d   1      -3.611   4.539  -5.222  0.00  0.00    -0.078 A 
ATOM      5  C3  OXE d   1      -2.408   3.917  -4.902  0.00  0.00     0.003 A 
ATOM      6  C4  OXE d   1      -2.194   2.573  -5.233  0.00  0.00    -0.002 A 
ATOM      7  C5  OXE d   1      -3.225   1.806  -5.786  0.00  0.00    -0.002 A 
ATOM      8  C6  OXE d   1      -4.469   2.389  -6.000  0.00  0.00     0.003 A 
ENDROOT
TORSDOF 0
ENDMDL
