MODEL 1
REMARK minimizedAffinity 9.30934525
REMARK minimizedRMSD -1
REMARK  0 active torsions:
REMARK  status: ('A' for Active; 'I' for Inactive)
ROOT
ATOM      1  C2' OXE d   1       1.605  -2.361  -0.694  0.00  0.00     0.078 C 
ATOM      2  C1' OXE d   1       3.907  -1.077   0.271  0.00  0.00     0.078 C 
ATOM      3  C1  OXE d   1       2.701  -1.131   1.175  0.00  0.00    -0.078 A 
ATOM      4  C2  OXE d   1       1.563  -1.721   0.677  0.00  0.00    -0.078 A 
ATOM      5  C3  OXE d   1       0.440  -1.846   1.488  0.00  0.00     0.003 A 
ATOM      6  C4  OXE d   1       0.406  -1.242   2.751  0.00  0.00    -0.002 A 
ATOM      7  C5  OXE d   1       1.541  -0.602   3.262  0.00  0.00    -0.002 A 
ATOM      8  C6  OXE d   1       2.707  -0.575   2.505  0.00  0.00     0.003 A 
ENDROOT
TORSDOF 0
ENDMDL
