MODEL 1
REMARK minimizedAffinity 13.5381584
REMARK minimizedRMSD -1
REMARK  0 active torsions:
REMARK  status: ('A' for Active; 'I' for Inactive)
ROOT
ATOM      1  C2' OXE d   1      -0.225   3.039  -3.474  0.00  0.00     0.078 C 
ATOM      2  C1' OXE d   1      -3.013   3.365  -3.505  0.00  0.00     0.078 C 
ATOM      3  C1  OXE d   1      -2.454   2.157  -2.796  0.00  0.00    -0.078 A 
ATOM      4  C2  OXE d   1      -1.092   1.981  -2.825  0.00  0.00    -0.078 A 
ATOM      5  C3  OXE d   1      -0.520   0.913  -2.140  0.00  0.00     0.003 A 
ATOM      6  C4  OXE d   1      -1.329  -0.067  -1.552  0.00  0.00    -0.002 A 
ATOM      7  C5  OXE d   1      -2.721   0.072  -1.544  0.00  0.00    -0.002 A 
ATOM      8  C6  OXE d   1      -3.296   1.198  -2.124  0.00  0.00     0.003 A 
ENDROOT
TORSDOF 0
ENDMDL
