MODEL 1
REMARK minimizedAffinity 13.3049936
REMARK minimizedRMSD -1
REMARK  0 active torsions:
REMARK  status: ('A' for Active; 'I' for Inactive)
ROOT
ATOM      1  C2' OXE d   1      -0.052  -2.078  -0.051  0.00  0.00     0.078 C 
ATOM      2  C1' OXE d   1       1.705  -4.239  -0.398  0.00  0.00     0.078 C 
ATOM      3  C1  OXE d   1       2.245  -2.992   0.255  0.00  0.00    -0.078 A 
ATOM      4  C2  OXE d   1       1.391  -1.922   0.379  0.00  0.00    -0.078 A 
ATOM      5  C3  OXE d   1       1.822  -0.766   1.023  0.00  0.00     0.003 A 
ATOM      6  C4  OXE d   1       3.161  -0.627   1.409  0.00  0.00    -0.002 A 
ATOM      7  C5  OXE d   1       4.058  -1.690   1.256  0.00  0.00    -0.002 A 
ATOM      8  C6  OXE d   1       3.606  -2.891   0.721  0.00  0.00     0.003 A 
ENDROOT
TORSDOF 0
ENDMDL
