MODEL 1
REMARK minimizedAffinity 14.9041004
REMARK minimizedRMSD -1
REMARK  0 active torsions:
REMARK  status: ('A' for Active; 'I' for Inactive)
ROOT
ATOM      1  C2' OXE d   1       3.160  -4.429  -0.022  0.00  0.00     0.078 C 
ATOM      2  C1' OXE d   1       4.834  -2.442   1.041  0.00  0.00     0.078 C 
ATOM      3  C1  OXE d   1       3.344  -2.255   1.181  0.00  0.00    -0.078 A 
ATOM      4  C2  OXE d   1       2.532  -3.210   0.617  0.00  0.00    -0.078 A 
ATOM      5  C3  OXE d   1       1.151  -3.115   0.765  0.00  0.00     0.003 A 
ATOM      6  C4  OXE d   1       0.577  -1.978   1.349  0.00  0.00    -0.002 A 
ATOM      7  C5  OXE d   1       1.385  -0.975   1.894  0.00  0.00    -0.002 A 
ATOM      8  C6  OXE d   1       2.768  -1.119   1.857  0.00  0.00     0.003 A 
ENDROOT
TORSDOF 0
ENDMDL
