MODEL 1
REMARK minimizedAffinity -1.67514992
REMARK minimizedRMSD -1
REMARK  1 active torsions:
REMARK  status: ('A' for Active; 'I' for Inactive)
REMARK    1  A    between atoms: C1_2  and  C2_3 
ROOT
ATOM      1  C2  UNL d   1      -1.083  -0.316   0.968  0.00  0.00    -0.081 A 
ATOM      2  C3  UNL d   1      -1.516  -1.636   0.792  0.00  0.00     0.006 A 
ATOM      3  C4  UNL d   1      -0.591  -2.664   0.598  0.00  0.00     0.002 A 
ATOM      4  C5  UNL d   1       0.781  -2.392   0.586  0.00  0.00    -0.080 A 
ATOM      5  C6  UNL d   1       1.786  -3.491   0.409  0.00  0.00     0.076 C 
ATOM      6  C7  UNL d   1       1.213  -1.071   0.745  0.00  0.00     0.002 A 
ATOM      7  C8  UNL d   1       0.289  -0.042   0.938  0.00  0.00     0.006 A 
ENDROOT
BRANCH   1   8
ATOM      8  C1  UNL d   1      -2.075   0.786   1.242  0.00  0.00     0.054 C 
ATOM      9  C   UNL d   1      -3.353   0.592   0.438  0.00  0.00     0.018 C 
ENDBRANCH   1   8
TORSDOF 1
ENDMDL
