MODEL 1
REMARK minimizedAffinity 0.194337562
REMARK minimizedRMSD -1
REMARK  1 active torsions:
REMARK  status: ('A' for Active; 'I' for Inactive)
REMARK    1  A    between atoms: C1_2  and  C2_3 
ROOT
ATOM      1  C2  UNL d   1       2.089  -3.605  -0.196  0.00  0.00    -0.081 A 
ATOM      2  C3  UNL d   1       2.903  -2.500   0.077  0.00  0.00     0.006 A 
ATOM      3  C4  UNL d   1       2.352  -1.324   0.592  0.00  0.00     0.002 A 
ATOM      4  C5  UNL d   1       0.980  -1.237   0.850  0.00  0.00    -0.080 A 
ATOM      5  C6  UNL d   1       0.380   0.009   1.431  0.00  0.00     0.076 C 
ATOM      6  C7  UNL d   1       0.163  -2.335   0.560  0.00  0.00     0.002 A 
ATOM      7  C8  UNL d   1       0.714  -3.511   0.044  0.00  0.00     0.006 A 
ENDROOT
BRANCH   1   8
ATOM      8  C1  UNL d   1       2.690  -4.896  -0.691  0.00  0.00     0.054 C 
ATOM      9  C   UNL d   1       3.967  -5.237   0.064  0.00  0.00     0.018 C 
ENDBRANCH   1   8
TORSDOF 1
ENDMDL
