MODEL 1
REMARK minimizedAffinity 1.37872028
REMARK minimizedRMSD -1
REMARK  1 active torsions:
REMARK  status: ('A' for Active; 'I' for Inactive)
REMARK    1  A    between atoms: C1_2  and  C2_3 
ROOT
ATOM      1  C2  UNL d   1      -0.551  -0.693   1.342  0.00  0.00    -0.081 A 
ATOM      2  C3  UNL d   1       0.636  -0.233   0.760  0.00  0.00     0.006 A 
ATOM      3  C4  UNL d   1       1.437  -1.096   0.009  0.00  0.00     0.002 A 
ATOM      4  C5  UNL d   1       1.060  -2.430  -0.180  0.00  0.00    -0.080 A 
ATOM      5  C6  UNL d   1       1.895  -3.359  -1.010  0.00  0.00     0.076 C 
ATOM      6  C7  UNL d   1      -0.118  -2.894   0.416  0.00  0.00     0.002 A 
ATOM      7  C8  UNL d   1      -0.918  -2.032   1.168  0.00  0.00     0.006 A 
ENDROOT
BRANCH   1   8
ATOM      8  C1  UNL d   1      -1.450   0.252   2.100  0.00  0.00     0.054 C 
ATOM      9  C   UNL d   1      -2.812   0.373   1.433  0.00  0.00     0.018 C 
ENDBRANCH   1   8
TORSDOF 1
ENDMDL
