MODEL 1
REMARK minimizedAffinity -1.33106852
REMARK minimizedRMSD -1
REMARK  1 active torsions:
REMARK  status: ('A' for Active; 'I' for Inactive)
REMARK    1  A    between atoms: C1_2  and  C2_3 
ROOT
ATOM      1  C2  UNL d   1       2.405  -3.401  -0.333  0.00  0.00    -0.081 A 
ATOM      2  C3  UNL d   1       2.846  -2.086  -0.139  0.00  0.00     0.006 A 
ATOM      3  C4  UNL d   1       1.946  -1.085   0.233  0.00  0.00     0.002 A 
ATOM      4  C5  UNL d   1       0.593  -1.382   0.424  0.00  0.00    -0.080 A 
ATOM      5  C6  UNL d   1      -0.378  -0.323   0.853  0.00  0.00     0.076 C 
ATOM      6  C7  UNL d   1       0.149  -2.692   0.213  0.00  0.00     0.002 A 
ATOM      7  C8  UNL d   1       1.048  -3.694  -0.159  0.00  0.00     0.006 A 
ENDROOT
BRANCH   1   8
ATOM      8  C1  UNL d   1       3.384  -4.496  -0.671  0.00  0.00     0.054 C 
ATOM      9  C   UNL d   1       4.811  -4.086  -0.333  0.00  0.00     0.018 C 
ENDBRANCH   1   8
TORSDOF 1
ENDMDL
