MODEL 1
REMARK minimizedAffinity -0.585484684
REMARK minimizedRMSD -1
REMARK  1 active torsions:
REMARK  status: ('A' for Active; 'I' for Inactive)
REMARK    1  A    between atoms: C1_2  and  C2_3 
ROOT
ATOM      1  C2  UNL d   1       4.546   2.837  -2.945  0.00  0.00    -0.081 A 
ATOM      2  C3  UNL d   1       3.484   3.138  -3.807  0.00  0.00     0.006 A 
ATOM      3  C4  UNL d   1       2.682   2.118  -4.325  0.00  0.00     0.002 A 
ATOM      4  C5  UNL d   1       2.922   0.783  -3.982  0.00  0.00    -0.080 A 
ATOM      5  C6  UNL d   1       2.049  -0.318  -4.507  0.00  0.00     0.076 C 
ATOM      6  C7  UNL d   1       3.993   0.481  -3.135  0.00  0.00     0.002 A 
ATOM      7  C8  UNL d   1       4.796   1.500  -2.617  0.00  0.00     0.006 A 
ENDROOT
BRANCH   1   8
ATOM      8  C1  UNL d   1       5.373   3.940  -2.334  0.00  0.00     0.054 C 
ATOM      9  C   UNL d   1       4.844   4.333  -0.962  0.00  0.00     0.018 C 
ENDBRANCH   1   8
TORSDOF 1
ENDMDL
