MODEL 1
REMARK minimizedAffinity 6.2159977
REMARK minimizedRMSD -1
REMARK  1 active torsions:
REMARK  status: ('A' for Active; 'I' for Inactive)
REMARK    1  A    between atoms: C1_2  and  C2_3 
ROOT
ATOM      1  C2  UNL d   1      -1.214  -2.842   0.263  0.00  0.00    -0.081 A 
ATOM      2  C3  UNL d   1      -1.211  -1.664   1.020  0.00  0.00     0.006 A 
ATOM      3  C4  UNL d   1      -0.037  -0.924   1.174  0.00  0.00     0.002 A 
ATOM      4  C5  UNL d   1       1.152  -1.344   0.568  0.00  0.00    -0.080 A 
ATOM      5  C6  UNL d   1       2.413  -0.543   0.700  0.00  0.00     0.076 C 
ATOM      6  C7  UNL d   1       1.153  -2.530  -0.175  0.00  0.00     0.002 A 
ATOM      7  C8  UNL d   1      -0.021  -3.271  -0.328  0.00  0.00     0.006 A 
ENDROOT
BRANCH   1   8
ATOM      8  C1  UNL d   1      -2.493  -3.608   0.041  0.00  0.00     0.054 C 
ATOM      9  C   UNL d   1      -3.530  -3.272   1.104  0.00  0.00     0.018 C 
ENDBRANCH   1   8
TORSDOF 1
ENDMDL
