MODEL 1
REMARK minimizedAffinity 4.87252283
REMARK minimizedRMSD -1
REMARK  1 active torsions:
REMARK  status: ('A' for Active; 'I' for Inactive)
REMARK    1  A    between atoms: C1_2  and  C2_3 
ROOT
ATOM      1  C2  UNL d   1       2.842  -0.941   1.372  0.00  0.00    -0.081 A 
ATOM      2  C3  UNL d   1       1.994   0.035   1.910  0.00  0.00     0.006 A 
ATOM      3  C4  UNL d   1       0.637   0.053   1.581  0.00  0.00     0.002 A 
ATOM      4  C5  UNL d   1       0.103  -0.907   0.715  0.00  0.00    -0.080 A 
ATOM      5  C6  UNL d   1      -1.358  -0.917   0.378  0.00  0.00     0.076 C 
ATOM      6  C7  UNL d   1       0.953  -1.871   0.163  0.00  0.00     0.002 A 
ATOM      7  C8  UNL d   1       2.311  -1.890   0.491  0.00  0.00     0.006 A 
ENDROOT
BRANCH   1   8
ATOM      8  C1  UNL d   1       4.293  -1.003   1.775  0.00  0.00     0.054 C 
ATOM      9  C   UNL d   1       5.122  -1.755   0.744  0.00  0.00     0.018 C 
ENDBRANCH   1   8
TORSDOF 1
ENDMDL
