MODEL 1
REMARK minimizedAffinity 0.776480556
REMARK minimizedRMSD -1
REMARK  1 active torsions:
REMARK  status: ('A' for Active; 'I' for Inactive)
REMARK    1  A    between atoms: C1_2  and  C2_3 
ROOT
ATOM      1  C2  UNL d   1      -1.093  -0.584   1.350  0.00  0.00    -0.081 A 
ATOM      2  C3  UNL d   1      -2.074  -1.148   0.527  0.00  0.00     0.006 A 
ATOM      3  C4  UNL d   1      -3.229  -0.430   0.207  0.00  0.00     0.002 A 
ATOM      4  C5  UNL d   1      -3.418   0.866   0.699  0.00  0.00    -0.080 A 
ATOM      5  C6  UNL d   1      -4.639   1.659   0.339  0.00  0.00     0.076 C 
ATOM      6  C7  UNL d   1      -2.445   1.423   1.536  0.00  0.00     0.002 A 
ATOM      7  C8  UNL d   1      -1.291   0.705   1.856  0.00  0.00     0.006 A 
ENDROOT
BRANCH   1   8
ATOM      8  C1  UNL d   1       0.183  -1.331   1.644  0.00  0.00     0.054 C 
ATOM      9  C   UNL d   1       0.558  -2.259   0.497  0.00  0.00     0.018 C 
ENDBRANCH   1   8
TORSDOF 1
ENDMDL
