MODEL 1
REMARK minimizedAffinity -1.92193472
REMARK minimizedRMSD -1
REMARK  1 active torsions:
REMARK  status: ('A' for Active; 'I' for Inactive)
REMARK    1  A    between atoms: C1_2  and  C2_3 
ROOT
ATOM      1  C2  UNL d   1      -0.507  -1.070   0.713  0.00  0.00    -0.081 A 
ATOM      2  C3  UNL d   1       0.429  -0.138   1.176  0.00  0.00     0.006 A 
ATOM      3  C4  UNL d   1       1.787  -0.295   0.890  0.00  0.00     0.002 A 
ATOM      4  C5  UNL d   1       2.231  -1.382   0.129  0.00  0.00    -0.080 A 
ATOM      5  C6  UNL d   1       3.683  -1.546  -0.212  0.00  0.00     0.076 C 
ATOM      6  C7  UNL d   1       1.298  -2.323  -0.319  0.00  0.00     0.002 A 
ATOM      7  C8  UNL d   1      -0.060  -2.167  -0.032  0.00  0.00     0.006 A 
ENDROOT
BRANCH   1   8
ATOM      8  C1  UNL d   1      -1.979  -0.869   0.966  0.00  0.00     0.054 C 
ATOM      9  C   UNL d   1      -2.246   0.464   1.649  0.00  0.00     0.018 C 
ENDBRANCH   1   8
TORSDOF 1
ENDMDL
