MODEL 1
REMARK minimizedAffinity 6.12106371
REMARK minimizedRMSD -1
REMARK  1 active torsions:
REMARK  status: ('A' for Active; 'I' for Inactive)
REMARK    1  A    between atoms: C1_2  and  C2_3 
ROOT
ATOM      1  C2  UNL d   1       2.477   3.650  -3.903  0.00  0.00    -0.081 A 
ATOM      2  C3  UNL d   1       2.256   4.277  -5.135  0.00  0.00     0.006 A 
ATOM      3  C4  UNL d   1       1.097   5.027  -5.350  0.00  0.00     0.002 A 
ATOM      4  C5  UNL d   1       0.145   5.169  -4.334  0.00  0.00    -0.080 A 
ATOM      5  C6  UNL d   1      -1.088   5.997  -4.541  0.00  0.00     0.076 C 
ATOM      6  C7  UNL d   1       0.358   4.528  -3.109  0.00  0.00     0.002 A 
ATOM      7  C8  UNL d   1       1.516   3.778  -2.894  0.00  0.00     0.006 A 
ENDROOT
BRANCH   1   8
ATOM      8  C1  UNL d   1       3.756   2.894  -3.647  0.00  0.00     0.054 C 
ATOM      9  C   UNL d   1       4.465   3.411  -2.404  0.00  0.00     0.018 C 
ENDBRANCH   1   8
TORSDOF 1
ENDMDL
