MODEL 1
REMARK minimizedAffinity -1.26257718
REMARK minimizedRMSD -1
REMARK  1 active torsions:
REMARK  status: ('A' for Active; 'I' for Inactive)
REMARK    1  A    between atoms: C1_2  and  C2_3 
ROOT
ATOM      1  C2  UNL d   1       0.667  -2.459  -0.388  0.00  0.00    -0.081 A 
ATOM      2  C3  UNL d   1       1.953  -1.905  -0.394  0.00  0.00     0.006 A 
ATOM      3  C4  UNL d   1       2.269  -0.840   0.454  0.00  0.00     0.002 A 
ATOM      4  C5  UNL d   1       1.308  -0.319   1.327  0.00  0.00    -0.080 A 
ATOM      5  C6  UNL d   1       1.643   0.804   2.263  0.00  0.00     0.076 C 
ATOM      6  C7  UNL d   1       0.018  -0.861   1.320  0.00  0.00     0.002 A 
ATOM      7  C8  UNL d   1      -0.299  -1.925   0.472  0.00  0.00     0.006 A 
ENDROOT
BRANCH   1   8
ATOM      8  C1  UNL d   1       0.341  -3.649  -1.255  0.00  0.00     0.054 C 
ATOM      9  C   UNL d   1       0.671  -3.376  -2.715  0.00  0.00     0.018 C 
ENDBRANCH   1   8
TORSDOF 1
ENDMDL
