MODEL 1
REMARK minimizedAffinity 0.782352388
REMARK minimizedRMSD -1
REMARK  1 active torsions:
REMARK  status: ('A' for Active; 'I' for Inactive)
REMARK    1  A    between atoms: C1_2  and  C2_3 
ROOT
ATOM      1  C2  UNL d   1       0.410  -1.277   0.288  0.00  0.00    -0.081 A 
ATOM      2  C3  UNL d   1       0.118  -2.637   0.125  0.00  0.00     0.006 A 
ATOM      3  C4  UNL d   1       1.139  -3.556  -0.129  0.00  0.00     0.002 A 
ATOM      4  C5  UNL d   1       2.469  -3.132  -0.216  0.00  0.00    -0.080 A 
ATOM      5  C6  UNL d   1       3.578  -4.112  -0.458  0.00  0.00     0.076 C 
ATOM      6  C7  UNL d   1       2.759  -1.771  -0.072  0.00  0.00     0.002 A 
ATOM      7  C8  UNL d   1       1.739  -0.852   0.182  0.00  0.00     0.006 A 
ENDROOT
BRANCH   1   8
ATOM      8  C1  UNL d   1      -0.681  -0.294   0.626  0.00  0.00     0.054 C 
ATOM      9  C   UNL d   1      -0.282   0.596   1.795  0.00  0.00     0.018 C 
ENDBRANCH   1   8
TORSDOF 1
ENDMDL
