MODEL 1
REMARK minimizedAffinity 2.88936877
REMARK minimizedRMSD -1
REMARK  1 active torsions:
REMARK  status: ('A' for Active; 'I' for Inactive)
REMARK    1  A    between atoms: C1_2  and  C2_3 
ROOT
ATOM      1  C2  UNL d   1       3.194  -1.907   0.485  0.00  0.00    -0.081 A 
ATOM      2  C3  UNL d   1       3.624  -3.094  -0.119  0.00  0.00     0.006 A 
ATOM      3  C4  UNL d   1       2.696  -4.034  -0.573  0.00  0.00     0.002 A 
ATOM      4  C5  UNL d   1       1.323  -3.799  -0.438  0.00  0.00    -0.080 A 
ATOM      5  C6  UNL d   1       0.316  -4.786  -0.949  0.00  0.00     0.076 C 
ATOM      6  C7  UNL d   1       0.894  -2.621   0.181  0.00  0.00     0.002 A 
ATOM      7  C8  UNL d   1       1.821  -1.681   0.636  0.00  0.00     0.006 A 
ENDROOT
BRANCH   1   8
ATOM      8  C1  UNL d   1       4.191  -0.862   0.918  0.00  0.00     0.054 C 
ATOM      9  C   UNL d   1       3.727  -0.142   2.176  0.00  0.00     0.018 C 
ENDBRANCH   1   8
TORSDOF 1
ENDMDL
