MODEL 1
REMARK minimizedAffinity 7.74398899
REMARK minimizedRMSD -1
REMARK  1 active torsions:
REMARK  status: ('A' for Active; 'I' for Inactive)
REMARK    1  A    between atoms: C1_2  and  C2_3 
ROOT
ATOM      1  C2  UNL d   1      -0.579   4.270  -0.812  0.00  0.00    -0.073 A 
ATOM      2  C3  UNL d   1       0.805   4.115  -0.948  0.00  0.00    -0.002 A 
ATOM      3  C4  UNL d   1       1.532   3.404   0.008  0.00  0.00     0.004 A 
ATOM      4  C5  UNL d   1       0.883   2.835   1.103  0.00  0.00    -0.004 A 
ATOM      5  C6  UNL d   1      -0.502   2.968   1.250  0.00  0.00    -0.075 A 
ATOM      6  C7  UNL d   1      -1.215   2.364   2.424  0.00  0.00     0.076 C 
ATOM      7  C8  UNL d   1      -1.224   3.686   0.288  0.00  0.00     0.001 A 
ENDROOT
BRANCH   1   8
ATOM      8  C1  UNL d   1      -1.369   5.032  -1.845  0.00  0.00     0.053 C 
ATOM      9  C   UNL d   1      -2.712   4.378  -2.131  0.00  0.00     0.018 C 
ENDBRANCH   1   8
TORSDOF 1
ENDMDL
