MODEL 1
REMARK minimizedAffinity 0.240045249
REMARK minimizedRMSD -1
REMARK  1 active torsions:
REMARK  status: ('A' for Active; 'I' for Inactive)
REMARK    1  A    between atoms: C1_2  and  C2_3 
ROOT
ATOM      1  C2  UNL d   1      -0.861   2.246  -1.377  0.00  0.00    -0.073 A 
ATOM      2  C3  UNL d   1      -0.233   2.043  -0.143  0.00  0.00    -0.002 A 
ATOM      3  C4  UNL d   1       0.345   3.114   0.539  0.00  0.00     0.004 A 
ATOM      4  C5  UNL d   1       0.296   4.399  -0.002  0.00  0.00    -0.004 A 
ATOM      5  C6  UNL d   1      -0.337   4.624  -1.229  0.00  0.00    -0.075 A 
ATOM      6  C7  UNL d   1      -0.397   6.000  -1.825  0.00  0.00     0.076 C 
ATOM      7  C8  UNL d   1      -0.913   3.542  -1.908  0.00  0.00     0.001 A 
ENDROOT
BRANCH   1   8
ATOM      8  C1  UNL d   1      -1.493   1.093  -2.114  0.00  0.00     0.053 C 
ATOM      9  C   UNL d   1      -1.116  -0.248  -1.504  0.00  0.00     0.018 C 
ENDBRANCH   1   8
TORSDOF 1
ENDMDL
