MODEL 1
REMARK minimizedAffinity 4.16471386
REMARK minimizedRMSD -1
REMARK  1 active torsions:
REMARK  status: ('A' for Active; 'I' for Inactive)
REMARK    1  A    between atoms: C1_2  and  C2_3 
ROOT
ATOM      1  C2  UNL d   1       0.581   3.154   0.376  0.00  0.00    -0.073 A 
ATOM      2  C3  UNL d   1      -0.562   2.628   0.988  0.00  0.00    -0.002 A 
ATOM      3  C4  UNL d   1      -0.495   2.114   2.283  0.00  0.00     0.004 A 
ATOM      4  C5  UNL d   1       0.712   2.127   2.982  0.00  0.00    -0.004 A 
ATOM      5  C6  UNL d   1       1.863   2.659   2.392  0.00  0.00    -0.075 A 
ATOM      6  C7  UNL d   1       3.170   2.679   3.129  0.00  0.00     0.076 C 
ATOM      7  C8  UNL d   1       1.788   3.171   1.089  0.00  0.00     0.001 A 
ENDROOT
BRANCH   1   8
ATOM      8  C1  UNL d   1       0.512   3.717  -1.021  0.00  0.00     0.053 C 
ATOM      9  C   UNL d   1      -0.692   4.626  -1.210  0.00  0.00     0.018 C 
ENDBRANCH   1   8
TORSDOF 1
ENDMDL
