MODEL 1
REMARK minimizedAffinity 4.71524
REMARK minimizedRMSD -1
REMARK  1 active torsions:
REMARK  status: ('A' for Active; 'I' for Inactive)
REMARK    1  A    between atoms: C1_2  and  C2_3 
ROOT
ATOM      1  C2  UNL d   1       0.236  -2.242  -1.374  0.00  0.00    -0.073 A 
ATOM      2  C3  UNL d   1      -0.724  -2.182  -2.390  0.00  0.00    -0.002 A 
ATOM      3  C4  UNL d   1      -1.178  -3.352  -3.001  0.00  0.00     0.004 A 
ATOM      4  C5  UNL d   1      -0.683  -4.592  -2.597  0.00  0.00    -0.004 A 
ATOM      5  C6  UNL d   1       0.268  -4.673  -1.575  0.00  0.00    -0.075 A 
ATOM      6  C7  UNL d   1       0.812  -5.999  -1.130  0.00  0.00     0.076 C 
ATOM      7  C8  UNL d   1       0.721  -3.494  -0.968  0.00  0.00     0.001 A 
ENDROOT
BRANCH   1   8
ATOM      8  C1  UNL d   1       0.724  -0.982  -0.707  0.00  0.00     0.053 C 
ATOM      9  C   UNL d   1      -0.341   0.103  -0.688  0.00  0.00     0.018 C 
ENDBRANCH   1   8
TORSDOF 1
ENDMDL
