MODEL 1
REMARK minimizedAffinity 13.3762283
REMARK minimizedRMSD -1
REMARK  1 active torsions:
REMARK  status: ('A' for Active; 'I' for Inactive)
REMARK    1  A    between atoms: C1_2  and  C2_3 
ROOT
ATOM      1  C2  UNL d   1       0.144   3.506   0.070  0.00  0.00    -0.073 A 
ATOM      2  C3  UNL d   1       1.019   4.592   0.193  0.00  0.00    -0.002 A 
ATOM      3  C4  UNL d   1       1.597   4.895   1.427  0.00  0.00     0.004 A 
ATOM      4  C5  UNL d   1       1.312   4.113   2.546  0.00  0.00    -0.004 A 
ATOM      5  C6  UNL d   1       0.449   3.017   2.440  0.00  0.00    -0.075 A 
ATOM      6  C7  UNL d   1       0.131   2.168   3.636  0.00  0.00     0.076 C 
ATOM      7  C8  UNL d   1      -0.129   2.721   1.199  0.00  0.00     0.001 A 
ENDROOT
BRANCH   1   8
ATOM      8  C1  UNL d   1      -0.477   3.172  -1.262  0.00  0.00     0.053 C 
ATOM      9  C   UNL d   1      -0.827   4.419  -2.057  0.00  0.00     0.018 C 
ENDBRANCH   1   8
TORSDOF 1
ENDMDL
