MODEL 1
REMARK minimizedAffinity -2.19549823
REMARK minimizedRMSD -1
REMARK  3 active torsions:
REMARK  status: ('A' for Active; 'I' for Inactive)
REMARK    1  A    between atoms: C3'_2  and  C2'_3 
REMARK    2  A    between atoms: C2'_3  and  C1'_4 
REMARK    3  A    between atoms: C1'_4  and  C1_5 
ROOT
ATOM      1  C1  N4B d   1       1.057  -2.532   0.037  0.00  0.00    -0.075 A 
ATOM      2  C2  N4B d   1      -0.288  -2.131  -0.121  0.00  0.00     0.002 A 
ATOM      3  C3  N4B d   1      -0.709  -0.927   0.386  0.00  0.00     0.002 A 
ATOM      4  C4  N4B d   1       0.187  -0.119   1.070  0.00  0.00    -0.004 A 
ATOM      5  C5  N4B d   1       1.490  -0.502   1.196  0.00  0.00     0.002 A 
ATOM      6  C6  N4B d   1       1.929  -1.708   0.688  0.00  0.00     0.002 A 
ENDROOT
BRANCH   1   7
ATOM      7  C1' N4B d   1       1.544  -3.878  -0.425  0.00  0.00     0.057 C 
BRANCH   7   8
ATOM      8  C2' N4B d   1       2.617  -4.380   0.536  0.00  0.00     0.009 C 
BRANCH   8   9
ATOM      9  C3' N4B d   1       3.914  -4.712  -0.181  0.00  0.00     0.004 C 
ATOM     10  C4' N4B d   1       4.570  -5.952   0.349  0.00  0.00     0.003 C 
ENDBRANCH   8   9
ENDBRANCH   7   8
ENDBRANCH   1   7
TORSDOF 3
ENDMDL
