MODEL 1
REMARK minimizedAffinity -1.73929596
REMARK minimizedRMSD -1
REMARK  3 active torsions:
REMARK  status: ('A' for Active; 'I' for Inactive)
REMARK    1  A    between atoms: C3'_2  and  C2'_3 
REMARK    2  A    between atoms: C2'_3  and  C1'_4 
REMARK    3  A    between atoms: C1'_4  and  C1_5 
ROOT
ATOM      1  C1  N4B d   1       1.704  -3.069   0.074  0.00  0.00    -0.075 A 
ATOM      2  C2  N4B d   1       2.460  -1.925   0.411  0.00  0.00     0.002 A 
ATOM      3  C3  N4B d   1       1.823  -0.756   0.749  0.00  0.00     0.002 A 
ATOM      4  C4  N4B d   1       0.437  -0.702   0.739  0.00  0.00    -0.004 A 
ATOM      5  C5  N4B d   1      -0.286  -1.819   0.437  0.00  0.00     0.002 A 
ATOM      6  C6  N4B d   1       0.341  -3.001   0.099  0.00  0.00     0.002 A 
ENDROOT
BRANCH   1   7
ATOM      7  C1' N4B d   1       2.355  -4.345  -0.386  0.00  0.00     0.057 C 
BRANCH   7   8
ATOM      8  C2' N4B d   1       3.777  -4.407   0.163  0.00  0.00     0.009 C 
BRANCH   8   9
ATOM      9  C3' N4B d   1       4.216  -5.834   0.444  0.00  0.00     0.004 C 
ATOM     10  C4' N4B d   1       5.657  -5.930   0.846  0.00  0.00     0.003 C 
ENDBRANCH   8   9
ENDBRANCH   7   8
ENDBRANCH   1   7
TORSDOF 3
ENDMDL
