MODEL 1
REMARK minimizedAffinity 5.88751221
REMARK minimizedRMSD -1
REMARK  3 active torsions:
REMARK  status: ('A' for Active; 'I' for Inactive)
REMARK    1  A    between atoms: C3'_2  and  C2'_3 
REMARK    2  A    between atoms: C2'_3  and  C1'_4 
REMARK    3  A    between atoms: C1'_4  and  C1_5 
ROOT
ATOM      1  C1  N4B d   1       3.426  -3.660   0.294  0.00  0.00    -0.075 A 
ATOM      2  C2  N4B d   1       4.780  -3.462  -0.056  0.00  0.00     0.002 A 
ATOM      3  C3  N4B d   1       5.654  -4.521  -0.043  0.00  0.00     0.002 A 
ATOM      4  C4  N4B d   1       5.204  -5.778   0.333  0.00  0.00    -0.004 A 
ATOM      5  C5  N4B d   1       3.889  -5.966   0.646  0.00  0.00     0.002 A 
ATOM      6  C6  N4B d   1       2.998  -4.911   0.633  0.00  0.00     0.002 A 
ENDROOT
BRANCH   1   7
ATOM      7  C1' N4B d   1       2.452  -2.517   0.378  0.00  0.00     0.057 C 
BRANCH   7   8
ATOM      8  C2' N4B d   1       1.061  -3.065   0.680  0.00  0.00     0.009 C 
BRANCH   8   9
ATOM      9  C3' N4B d   1       0.159  -3.034  -0.542  0.00  0.00     0.004 C 
ATOM     10  C4' N4B d   1      -1.021  -2.125  -0.370  0.00  0.00     0.003 C 
ENDBRANCH   8   9
ENDBRANCH   7   8
ENDBRANCH   1   7
TORSDOF 3
ENDMDL
