MODEL 1
REMARK minimizedAffinity 0.362858504
REMARK minimizedRMSD -1
REMARK  3 active torsions:
REMARK  status: ('A' for Active; 'I' for Inactive)
REMARK    1  A    between atoms: C3'_2  and  C2'_3 
REMARK    2  A    between atoms: C2'_3  and  C1'_4 
REMARK    3  A    between atoms: C1'_4  and  C1_5 
ROOT
ATOM      1  C1  N4B d   1       1.496  -2.733   0.631  0.00  0.00    -0.075 A 
ATOM      2  C2  N4B d   1       0.126  -2.418   0.765  0.00  0.00     0.002 A 
ATOM      3  C3  N4B d   1      -0.257  -1.137   1.079  0.00  0.00     0.002 A 
ATOM      4  C4  N4B d   1       0.709  -0.163   1.281  0.00  0.00    -0.004 A 
ATOM      5  C5  N4B d   1       2.030  -0.469   1.125  0.00  0.00     0.002 A 
ATOM      6  C6  N4B d   1       2.428  -1.752   0.806  0.00  0.00     0.002 A 
ENDROOT
BRANCH   1   7
ATOM      7  C1' N4B d   1       1.966  -4.139   0.374  0.00  0.00     0.057 C 
BRANCH   7   8
ATOM      8  C2' N4B d   1       3.492  -4.163   0.364  0.00  0.00     0.009 C 
BRANCH   8   9
ATOM      9  C3' N4B d   1       4.036  -5.546   0.055  0.00  0.00     0.004 C 
ATOM     10  C4' N4B d   1       5.068  -5.999   1.044  0.00  0.00     0.003 C 
ENDBRANCH   8   9
ENDBRANCH   7   8
ENDBRANCH   1   7
TORSDOF 3
ENDMDL
