MODEL 1
REMARK minimizedAffinity 3.05673885
REMARK minimizedRMSD -1
REMARK  3 active torsions:
REMARK  status: ('A' for Active; 'I' for Inactive)
REMARK    1  A    between atoms: C3'_2  and  C2'_3 
REMARK    2  A    between atoms: C2'_3  and  C1'_4 
REMARK    3  A    between atoms: C1'_4  and  C1_5 
ROOT
ATOM      1  C1  N4B d   1       3.025  -4.196   0.277  0.00  0.00    -0.075 A 
ATOM      2  C2  N4B d   1       3.860  -3.105  -0.050  0.00  0.00     0.002 A 
ATOM      3  C3  N4B d   1       3.327  -1.845  -0.173  0.00  0.00     0.002 A 
ATOM      4  C4  N4B d   1       1.965  -1.656   0.006  0.00  0.00    -0.004 A 
ATOM      5  C5  N4B d   1       1.169  -2.711   0.346  0.00  0.00     0.002 A 
ATOM      6  C6  N4B d   1       1.692  -3.982   0.478  0.00  0.00     0.002 A 
ENDROOT
BRANCH   1   7
ATOM      7  C1' N4B d   1       3.547  -5.605   0.339  0.00  0.00     0.057 C 
BRANCH   7   8
ATOM      8  C2' N4B d   1       4.597  -5.798  -0.751  0.00  0.00     0.009 C 
BRANCH   8   9
ATOM      9  C3' N4B d   1       5.993  -5.962  -0.173  0.00  0.00     0.004 C 
ATOM     10  C4' N4B d   1       5.999  -6.000   1.326  0.00  0.00     0.003 C 
ENDBRANCH   8   9
ENDBRANCH   7   8
ENDBRANCH   1   7
TORSDOF 3
ENDMDL
