MODEL 1
REMARK minimizedAffinity -2.32124138
REMARK minimizedRMSD -1
REMARK  3 active torsions:
REMARK  status: ('A' for Active; 'I' for Inactive)
REMARK    1  A    between atoms: C3'_2  and  C2'_3 
REMARK    2  A    between atoms: C2'_3  and  C1'_4 
REMARK    3  A    between atoms: C1'_4  and  C1_5 
ROOT
ATOM      1  C1  N4B d   1       2.794  -2.905   0.218  0.00  0.00    -0.075 A 
ATOM      2  C2  N4B d   1       2.738  -1.496   0.295  0.00  0.00     0.002 A 
ATOM      3  C3  N4B d   1       1.524  -0.861   0.396  0.00  0.00     0.002 A 
ATOM      4  C4  N4B d   1       0.357  -1.610   0.402  0.00  0.00    -0.004 A 
ATOM      5  C5  N4B d   1       0.421  -2.972   0.352  0.00  0.00     0.002 A 
ATOM      6  C6  N4B d   1       1.634  -3.624   0.255  0.00  0.00     0.002 A 
ENDROOT
BRANCH   1   7
ATOM      7  C1' N4B d   1       4.092  -3.639   0.021  0.00  0.00     0.057 C 
BRANCH   7   8
ATOM      8  C2' N4B d   1       3.899  -5.106   0.393  0.00  0.00     0.009 C 
BRANCH   8   9
ATOM      9  C3' N4B d   1       5.186  -5.901   0.253  0.00  0.00     0.004 C 
ATOM     10  C4' N4B d   1       5.951  -5.999   1.539  0.00  0.00     0.003 C 
ENDBRANCH   8   9
ENDBRANCH   7   8
ENDBRANCH   1   7
TORSDOF 3
ENDMDL
