MODEL 1
REMARK minimizedAffinity -1.26818597
REMARK minimizedRMSD -1
REMARK  3 active torsions:
REMARK  status: ('A' for Active; 'I' for Inactive)
REMARK    1  A    between atoms: C3'_2  and  C2'_3 
REMARK    2  A    between atoms: C2'_3  and  C1'_4 
REMARK    3  A    between atoms: C1'_4  and  C1_5 
ROOT
ATOM      1  C1  N4B d   1       1.187  -2.660   0.304  0.00  0.00    -0.075 A 
ATOM      2  C2  N4B d   1      -0.203  -2.452   0.172  0.00  0.00     0.002 A 
ATOM      3  C3  N4B d   1      -0.786  -1.334   0.717  0.00  0.00     0.002 A 
ATOM      4  C4  N4B d   1      -0.004  -0.424   1.412  0.00  0.00    -0.004 A 
ATOM      5  C5  N4B d   1       1.342  -0.619   1.514  0.00  0.00     0.002 A 
ATOM      6  C6  N4B d   1       1.942  -1.736   0.968  0.00  0.00     0.002 A 
ENDROOT
BRANCH   1   7
ATOM      7  C1' N4B d   1       1.855  -3.910  -0.201  0.00  0.00     0.057 C 
BRANCH   7   8
ATOM      8  C2' N4B d   1       3.309  -3.923   0.263  0.00  0.00     0.009 C 
BRANCH   8   9
ATOM      9  C3' N4B d   1       4.086  -5.082  -0.337  0.00  0.00     0.004 C 
ATOM     10  C4' N4B d   1       4.656  -5.999   0.704  0.00  0.00     0.003 C 
ENDBRANCH   8   9
ENDBRANCH   7   8
ENDBRANCH   1   7
TORSDOF 3
ENDMDL
