MODEL 1
REMARK minimizedAffinity 0.538892984
REMARK minimizedRMSD -1
REMARK  3 active torsions:
REMARK  status: ('A' for Active; 'I' for Inactive)
REMARK    1  A    between atoms: C3'_2  and  C2'_3 
REMARK    2  A    between atoms: C2'_3  and  C1'_4 
REMARK    3  A    between atoms: C1'_4  and  C1_5 
ROOT
ATOM      1  C1  N4B d   1       2.571  -3.208  -0.117  0.00  0.00    -0.075 A 
ATOM      2  C2  N4B d   1       1.368  -3.924  -0.300  0.00  0.00     0.002 A 
ATOM      3  C3  N4B d   1       0.164  -3.328  -0.016  0.00  0.00     0.002 A 
ATOM      4  C4  N4B d   1       0.140  -2.029   0.469  0.00  0.00    -0.004 A 
ATOM      5  C5  N4B d   1       1.305  -1.335   0.619  0.00  0.00     0.002 A 
ATOM      6  C6  N4B d   1       2.522  -1.921   0.333  0.00  0.00     0.002 A 
ENDROOT
BRANCH   1   7
ATOM      7  C1' N4B d   1       3.916  -3.847  -0.333  0.00  0.00     0.057 C 
BRANCH   7   8
ATOM      8  C2' N4B d   1       3.842  -5.317   0.067  0.00  0.00     0.009 C 
BRANCH   8   9
ATOM      9  C3' N4B d   1       5.197  -5.999  -0.020  0.00  0.00     0.004 C 
ATOM     10  C4' N4B d   1       6.000  -5.859   1.240  0.00  0.00     0.003 C 
ENDBRANCH   8   9
ENDBRANCH   7   8
ENDBRANCH   1   7
TORSDOF 3
ENDMDL
