MODEL 1
REMARK minimizedAffinity -2.82792044
REMARK minimizedRMSD -1
REMARK  3 active torsions:
REMARK  status: ('A' for Active; 'I' for Inactive)
REMARK    1  A    between atoms: C3'_2  and  C2'_3 
REMARK    2  A    between atoms: C2'_3  and  C1'_4 
REMARK    3  A    between atoms: C1'_4  and  C1_5 
ROOT
ATOM      1  C1  N4B d   1       2.387  -3.038  -0.031  0.00  0.00    -0.075 A 
ATOM      2  C2  N4B d   1       1.213  -3.741   0.320  0.00  0.00     0.002 A 
ATOM      3  C3  N4B d   1       0.080  -3.051   0.675  0.00  0.00     0.002 A 
ATOM      4  C4  N4B d   1       0.101  -1.665   0.704  0.00  0.00    -0.004 A 
ATOM      5  C5  N4B d   1       1.231  -0.993   0.338  0.00  0.00     0.002 A 
ATOM      6  C6  N4B d   1       2.376  -1.673  -0.024  0.00  0.00     0.002 A 
ENDROOT
BRANCH   1   7
ATOM      7  C1' N4B d   1       3.675  -3.748  -0.343  0.00  0.00     0.057 C 
BRANCH   7   8
ATOM      8  C2' N4B d   1       3.783  -4.995   0.530  0.00  0.00     0.009 C 
BRANCH   8   9
ATOM      9  C3' N4B d   1       4.975  -5.856   0.147  0.00  0.00     0.004 C 
ATOM     10  C4' N4B d   1       6.000  -5.947   1.237  0.00  0.00     0.003 C 
ENDBRANCH   8   9
ENDBRANCH   7   8
ENDBRANCH   1   7
TORSDOF 3
ENDMDL
