MODEL 1
REMARK minimizedAffinity 4.99901295
REMARK minimizedRMSD -1
REMARK  3 active torsions:
REMARK  status: ('A' for Active; 'I' for Inactive)
REMARK    1  A    between atoms: C3'_2  and  C2'_3 
REMARK    2  A    between atoms: C2'_3  and  C1'_4 
REMARK    3  A    between atoms: C1'_4  and  C1_5 
ROOT
ATOM      1  C1  N4B d   1      -2.626   2.640   0.752  0.00  0.00    -0.075 A 
ATOM      2  C2  N4B d   1      -3.402   1.798  -0.075  0.00  0.00     0.002 A 
ATOM      3  C3  N4B d   1      -3.388   0.439   0.124  0.00  0.00     0.002 A 
ATOM      4  C4  N4B d   1      -2.595  -0.099   1.126  0.00  0.00    -0.004 A 
ATOM      5  C5  N4B d   1      -1.869   0.723   1.936  0.00  0.00     0.002 A 
ATOM      6  C6  N4B d   1      -1.876   2.091   1.751  0.00  0.00     0.002 A 
ENDROOT
BRANCH   1   7
ATOM      7  C1' N4B d   1      -2.542   4.124   0.519  0.00  0.00     0.057 C 
BRANCH   7   8
ATOM      8  C2' N4B d   1      -1.127   4.601   0.830  0.00  0.00     0.009 C 
BRANCH   8   9
ATOM      9  C3' N4B d   1      -0.860   5.990   0.276  0.00  0.00     0.004 C 
ATOM     10  C4' N4B d   1      -0.707   6.000  -1.216  0.00  0.00     0.003 C 
ENDBRANCH   8   9
ENDBRANCH   7   8
ENDBRANCH   1   7
TORSDOF 3
ENDMDL
