MODEL 1
REMARK minimizedAffinity -2.59126878
REMARK minimizedRMSD -1
REMARK  3 active torsions:
REMARK  status: ('A' for Active; 'I' for Inactive)
REMARK    1  A    between atoms: C3'_2  and  C2'_3 
REMARK    2  A    between atoms: C2'_3  and  C1'_4 
REMARK    3  A    between atoms: C1'_4  and  C1_5 
ROOT
ATOM      1  C1  N4B d   1       0.947  -2.873   0.159  0.00  0.00    -0.075 A 
ATOM      2  C2  N4B d   1      -0.412  -2.773   0.530  0.00  0.00     0.002 A 
ATOM      3  C3  N4B d   1      -0.903  -1.589   1.025  0.00  0.00     0.002 A 
ATOM      4  C4  N4B d   1      -0.053  -0.503   1.173  0.00  0.00    -0.004 A 
ATOM      5  C5  N4B d   1       1.252  -0.601   0.788  0.00  0.00     0.002 A 
ATOM      6  C6  N4B d   1       1.758  -1.783   0.286  0.00  0.00     0.002 A 
ENDROOT
BRANCH   1   7
ATOM      7  C1' N4B d   1       1.549  -4.171  -0.306  0.00  0.00     0.057 C 
BRANCH   7   8
ATOM      8  C2' N4B d   1       3.049  -4.156  -0.025  0.00  0.00     0.009 C 
BRANCH   8   9
ATOM      9  C3' N4B d   1       3.782  -5.237  -0.801  0.00  0.00     0.004 C 
ATOM     10  C4' N4B d   1       4.851  -5.908   0.009  0.00  0.00     0.003 C 
ENDBRANCH   8   9
ENDBRANCH   7   8
ENDBRANCH   1   7
TORSDOF 3
ENDMDL
