MODEL 1
REMARK minimizedAffinity 9.60616684
REMARK minimizedRMSD -1
REMARK  0 active torsions:
REMARK  status: ('A' for Active; 'I' for Inactive)
ROOT
ATOM      1  C4' PXY d   1      -5.562  -3.336  -3.628  0.00  0.00     0.077 C 
ATOM      2  C1' PXY d   1      -5.992  -6.000   1.484  0.00  0.00     0.077 C 
ATOM      3  C1  PXY d   1      -5.883  -5.290   0.149  0.00  0.00    -0.082 A 
ATOM      4  C2  PXY d   1      -5.981  -5.986  -0.972  0.00  0.00     0.003 A 
ATOM      5  C3  PXY d   1      -5.852  -5.365  -2.188  0.00  0.00     0.003 A 
ATOM      6  C4  PXY d   1      -5.675  -4.009  -2.258  0.00  0.00    -0.082 A 
ATOM      7  C5  PXY d   1      -5.585  -3.290  -1.119  0.00  0.00     0.003 A 
ATOM      8  C6  PXY d   1      -5.677  -3.946   0.106  0.00  0.00     0.003 A 
ENDROOT
TORSDOF 0
ENDMDL
