MODEL 1
REMARK minimizedAffinity 6.55619192
REMARK minimizedRMSD -1
REMARK  0 active torsions:
REMARK  status: ('A' for Active; 'I' for Inactive)
ROOT
ATOM      1  C4' PXY d   1      -5.337  -5.956   3.923  0.00  0.00     0.077 C 
ATOM      2  C1' PXY d   1      -4.176  -5.632  -1.731  0.00  0.00     0.077 C 
ATOM      3  C1  PXY d   1      -4.469  -5.724  -0.247  0.00  0.00    -0.082 A 
ATOM      4  C2  PXY d   1      -5.718  -5.629   0.180  0.00  0.00     0.003 A 
ATOM      5  C3  PXY d   1      -5.998  -5.678   1.522  0.00  0.00     0.003 A 
ATOM      6  C4  PXY d   1      -4.995  -5.878   2.432  0.00  0.00    -0.082 A 
ATOM      7  C5  PXY d   1      -3.720  -5.986   2.003  0.00  0.00     0.003 A 
ATOM      8  C6  PXY d   1      -3.452  -5.893   0.641  0.00  0.00     0.003 A 
ENDROOT
TORSDOF 0
ENDMDL
