MODEL 1
REMARK minimizedAffinity -4.84054184
REMARK minimizedRMSD -1
REMARK  0 active torsions:
REMARK  status: ('A' for Active; 'I' for Inactive)
ROOT
ATOM      1  C4' PXY d   1      -5.611  -5.999   1.889  0.00  0.00     0.077 C 
ATOM      2  C1' PXY d   1      -5.569  -2.408  -2.641  0.00  0.00     0.077 C 
ATOM      3  C1  PXY d   1      -5.586  -3.359  -1.460  0.00  0.00    -0.082 A 
ATOM      4  C2  PXY d   1      -5.506  -2.876  -0.231  0.00  0.00     0.003 A 
ATOM      5  C3  PXY d   1      -5.488  -3.724   0.847  0.00  0.00     0.003 A 
ATOM      6  C4  PXY d   1      -5.607  -5.076   0.667  0.00  0.00    -0.082 A 
ATOM      7  C5  PXY d   1      -5.699  -5.575  -0.583  0.00  0.00     0.003 A 
ATOM      8  C6  PXY d   1      -5.675  -4.701  -1.666  0.00  0.00     0.003 A 
ENDROOT
TORSDOF 0
ENDMDL
