MODEL 1
REMARK minimizedAffinity 5.8158741
REMARK minimizedRMSD -1
REMARK  0 active torsions:
REMARK  status: ('A' for Active; 'I' for Inactive)
ROOT
ATOM      1  C4' PXY d   1      -1.118   3.613   3.115  0.00  0.00     0.077 C 
ATOM      2  C1' PXY d   1      -1.266  -2.149   2.682  0.00  0.00     0.077 C 
ATOM      3  C1  PXY d   1      -1.232  -0.637   2.783  0.00  0.00    -0.082 A 
ATOM      4  C2  PXY d   1      -0.425  -0.058   3.658  0.00  0.00     0.003 A 
ATOM      5  C3  PXY d   1      -0.405   1.307   3.785  0.00  0.00     0.003 A 
ATOM      6  C4  PXY d   1      -1.179   2.090   2.972  0.00  0.00    -0.082 A 
ATOM      7  C5  PXY d   1      -1.996   1.507   2.069  0.00  0.00     0.003 A 
ATOM      8  C6  PXY d   1      -2.033   0.119   1.984  0.00  0.00     0.003 A 
ENDROOT
TORSDOF 0
ENDMDL
