MODEL 1
REMARK minimizedAffinity -1.14088869
REMARK minimizedRMSD -1
REMARK  0 active torsions:
REMARK  status: ('A' for Active; 'I' for Inactive)
ROOT
ATOM      1  C4' PXY d   1      -6.000  -5.991   1.161  0.00  0.00     0.077 C 
ATOM      2  C1' PXY d   1      -5.978  -2.017  -3.036  0.00  0.00     0.077 C 
ATOM      3  C1  PXY d   1      -5.989  -3.068  -1.944  0.00  0.00    -0.082 A 
ATOM      4  C2  PXY d   1      -6.000  -2.692  -0.675  0.00  0.00     0.003 A 
ATOM      5  C3  PXY d   1      -5.978  -3.629   0.326  0.00  0.00     0.003 A 
ATOM      6  C4  PXY d   1      -5.998  -4.965   0.025  0.00  0.00    -0.082 A 
ATOM      7  C5  PXY d   1      -5.997  -5.356  -1.267  0.00  0.00     0.003 A 
ATOM      8  C6  PXY d   1      -5.978  -4.389  -2.268  0.00  0.00     0.003 A 
ENDROOT
TORSDOF 0
ENDMDL
