MODEL 1
REMARK minimizedAffinity -0.0512284562
REMARK minimizedRMSD -1
REMARK  0 active torsions:
REMARK  status: ('A' for Active; 'I' for Inactive)
ROOT
ATOM      1  C4' PXY d   1      -5.616  -2.722  -2.989  0.00  0.00     0.077 C 
ATOM      2  C1' PXY d   1      -6.000  -5.999   1.758  0.00  0.00     0.077 C 
ATOM      3  C1  PXY d   1      -5.895  -5.150   0.506  0.00  0.00    -0.082 A 
ATOM      4  C2  PXY d   1      -5.779  -3.836   0.615  0.00  0.00     0.003 A 
ATOM      5  C3  PXY d   1      -5.714  -3.050  -0.507  0.00  0.00     0.003 A 
ATOM      6  C4  PXY d   1      -5.716  -3.619  -1.752  0.00  0.00    -0.082 A 
ATOM      7  C5  PXY d   1      -5.823  -4.960  -1.871  0.00  0.00     0.003 A 
ATOM      8  C6  PXY d   1      -5.928  -5.736  -0.721  0.00  0.00     0.003 A 
ENDROOT
TORSDOF 0
ENDMDL
