MODEL 1
REMARK minimizedAffinity 3.05512404
REMARK minimizedRMSD -1
REMARK  0 active torsions:
REMARK  status: ('A' for Active; 'I' for Inactive)
ROOT
ATOM      1  C4' PXY d   1       4.784  -0.423   2.224  0.00  0.00     0.077 C 
ATOM      2  C1' PXY d   1      -0.427   2.080   2.207  0.00  0.00     0.077 C 
ATOM      3  C1  PXY d   1       0.938   1.420   2.224  0.00  0.00    -0.082 A 
ATOM      4  C2  PXY d   1       1.866   1.816   1.368  0.00  0.00     0.003 A 
ATOM      5  C3  PXY d   1       3.095   1.208   1.348  0.00  0.00     0.003 A 
ATOM      6  C4  PXY d   1       3.395   0.222   2.249  0.00  0.00    -0.082 A 
ATOM      7  C5  PXY d   1       2.457  -0.181   3.132  0.00  0.00     0.003 A 
ATOM      8  C6  PXY d   1       1.202   0.421   3.109  0.00  0.00     0.003 A 
ENDROOT
TORSDOF 0
ENDMDL
