MODEL 1
REMARK minimizedAffinity 4.49821186
REMARK minimizedRMSD -1
REMARK  0 active torsions:
REMARK  status: ('A' for Active; 'I' for Inactive)
ROOT
ATOM      1  C4' PXY d   1       3.393   0.245   2.176  0.00  0.00     0.077 C 
ATOM      2  C1' PXY d   1      -1.891  -1.098   4.098  0.00  0.00     0.077 C 
ATOM      3  C1  PXY d   1      -0.511  -0.739   3.584  0.00  0.00    -0.082 A 
ATOM      4  C2  PXY d   1       0.525  -1.496   3.908  0.00  0.00     0.003 A 
ATOM      5  C3  PXY d   1       1.785  -1.168   3.479  0.00  0.00     0.003 A 
ATOM      6  C4  PXY d   1       1.979  -0.084   2.665  0.00  0.00    -0.082 A 
ATOM      7  C5  PXY d   1       0.926   0.687   2.321  0.00  0.00     0.003 A 
ATOM      8  C6  PXY d   1      -0.339   0.360   2.801  0.00  0.00     0.003 A 
ENDROOT
TORSDOF 0
ENDMDL
