MODEL 1
REMARK minimizedAffinity 10.5620689
REMARK minimizedRMSD -1
REMARK  0 active torsions:
REMARK  status: ('A' for Active; 'I' for Inactive)
ROOT
ATOM      1  C4' PXY d   1       0.524   4.793  -5.925  0.00  0.00     0.077 C 
ATOM      2  C1' PXY d   1       6.000   3.649  -4.469  0.00  0.00     0.077 C 
ATOM      3  C1  PXY d   1       4.565   3.941  -4.861  0.00  0.00    -0.082 A 
ATOM      4  C2  PXY d   1       3.987   5.056  -4.445  0.00  0.00     0.003 A 
ATOM      5  C3  PXY d   1       2.680   5.321  -4.764  0.00  0.00     0.003 A 
ATOM      6  C4  PXY d   1       1.974   4.461  -5.561  0.00  0.00    -0.082 A 
ATOM      7  C5  PXY d   1       2.560   3.326  -5.999  0.00  0.00     0.003 A 
ATOM      8  C6  PXY d   1       3.874   3.056  -5.630  0.00  0.00     0.003 A 
ENDROOT
TORSDOF 0
ENDMDL
