MODEL 1
REMARK minimizedAffinity 9.43905735
REMARK minimizedRMSD -1
REMARK  0 active torsions:
REMARK  status: ('A' for Active; 'I' for Inactive)
ROOT
ATOM      1  C4' PXY d   1       1.352   2.444   0.190  0.00  0.00     0.077 C 
ATOM      2  C1' PXY d   1       3.561   4.522  -4.731  0.00  0.00     0.077 C 
ATOM      3  C1  PXY d   1       2.983   3.965  -3.445  0.00  0.00    -0.082 A 
ATOM      4  C2  PXY d   1       2.221   4.733  -2.684  0.00  0.00     0.003 A 
ATOM      5  C3  PXY d   1       1.716   4.256  -1.502  0.00  0.00     0.003 A 
ATOM      6  C4  PXY d   1       1.949   2.962  -1.121  0.00  0.00    -0.082 A 
ATOM      7  C5  PXY d   1       2.717   2.168  -1.898  0.00  0.00     0.003 A 
ATOM      8  C6  PXY d   1       3.254   2.684  -3.073  0.00  0.00     0.003 A 
ENDROOT
TORSDOF 0
ENDMDL
