MODEL 1
REMARK minimizedAffinity 6.65443611
REMARK minimizedRMSD -1
REMARK  0 active torsions:
REMARK  status: ('A' for Active; 'I' for Inactive)
ROOT
ATOM      1  C4' PXY d   1      -3.121   4.500   3.081  0.00  0.00     0.077 C 
ATOM      2  C1' PXY d   1      -1.398  -0.744   1.364  0.00  0.00     0.077 C 
ATOM      3  C1  PXY d   1      -1.858   0.632   1.805  0.00  0.00    -0.082 A 
ATOM      4  C2  PXY d   1      -1.034   1.410   2.487  0.00  0.00     0.003 A 
ATOM      5  C3  PXY d   1      -1.445   2.644   2.921  0.00  0.00     0.003 A 
ATOM      6  C4  PXY d   1      -2.695   3.108   2.607  0.00  0.00    -0.082 A 
ATOM      7  C5  PXY d   1      -3.538   2.324   1.902  0.00  0.00     0.003 A 
ATOM      8  C6  PXY d   1      -3.116   1.058   1.507  0.00  0.00     0.003 A 
ENDROOT
TORSDOF 0
ENDMDL
