MODEL 1
REMARK minimizedAffinity 7.20365667
REMARK minimizedRMSD -1
REMARK  0 active torsions:
REMARK  status: ('A' for Active; 'I' for Inactive)
ROOT
ATOM      1  C4' PXY d   1       6.000   3.104  -5.295  0.00  0.00     0.077 C 
ATOM      2  C1' PXY d   1       0.794   5.618  -5.275  0.00  0.00     0.077 C 
ATOM      3  C1  PXY d   1       2.154   4.947  -5.280  0.00  0.00    -0.082 A 
ATOM      4  C2  PXY d   1       3.205   5.595  -4.806  0.00  0.00     0.003 A 
ATOM      5  C3  PXY d   1       4.448   5.016  -4.833  0.00  0.00     0.003 A 
ATOM      6  C4  PXY d   1       4.606   3.739  -5.301  0.00  0.00    -0.082 A 
ATOM      7  C5  PXY d   1       3.537   3.067  -5.777  0.00  0.00     0.003 A 
ATOM      8  C6  PXY d   1       2.291   3.688  -5.779  0.00  0.00     0.003 A 
ENDROOT
TORSDOF 0
ENDMDL
