MODEL 1
REMARK minimizedAffinity 12.7523842
REMARK minimizedRMSD -1
REMARK  0 active torsions:
REMARK  status: ('A' for Active; 'I' for Inactive)
ROOT
ATOM      1  C4' PXY d   1      -0.105   5.263  -5.035  0.00  0.00     0.077 C 
ATOM      2  C1' PXY d   1       5.492   3.882  -4.608  0.00  0.00     0.077 C 
ATOM      3  C1  PXY d   1       4.022   4.241  -4.708  0.00  0.00    -0.082 A 
ATOM      4  C2  PXY d   1       3.424   4.227  -5.888  0.00  0.00     0.003 A 
ATOM      5  C3  PXY d   1       2.104   4.580  -6.000  0.00  0.00     0.003 A 
ATOM      6  C4  PXY d   1       1.375   4.899  -4.886  0.00  0.00    -0.082 A 
ATOM      7  C5  PXY d   1       1.975   4.905  -3.677  0.00  0.00     0.003 A 
ATOM      8  C6  PXY d   1       3.327   4.583  -3.589  0.00  0.00     0.003 A 
ENDROOT
TORSDOF 0
ENDMDL
