MODEL 1
REMARK minimizedAffinity 3.42775416
REMARK minimizedRMSD -1
REMARK  0 active torsions:
REMARK  status: ('A' for Active; 'I' for Inactive)
ROOT
ATOM      1  C4' PXY d   1      -1.641   0.001   1.825  0.00  0.00     0.077 C 
ATOM      2  C1' PXY d   1       2.205   3.107   4.820  0.00  0.00     0.077 C 
ATOM      3  C1  PXY d   1       1.206   2.285   4.031  0.00  0.00    -0.082 A 
ATOM      4  C2  PXY d   1       0.058   2.828   3.661  0.00  0.00     0.003 A 
ATOM      5  C3  PXY d   1      -0.870   2.089   2.974  0.00  0.00     0.003 A 
ATOM      6  C4  PXY d   1      -0.598   0.796   2.615  0.00  0.00    -0.082 A 
ATOM      7  C5  PXY d   1       0.576   0.238   2.979  0.00  0.00     0.003 A 
ATOM      8  C6  PXY d   1       1.487   0.992   3.712  0.00  0.00     0.003 A 
ENDROOT
TORSDOF 0
ENDMDL
