MODEL 1
REMARK minimizedAffinity 10.2447844
REMARK minimizedRMSD -1
REMARK  0 active torsions:
REMARK  status: ('A' for Active; 'I' for Inactive)
ROOT
ATOM      1  C4' PXY d   1       1.913   3.411  -1.574  0.00  0.00     0.077 C 
ATOM      2  C1' PXY d   1       0.660  -2.013  -3.133  0.00  0.00     0.077 C 
ATOM      3  C1  PXY d   1       0.976  -0.588  -2.721  0.00  0.00    -0.082 A 
ATOM      4  C2  PXY d   1       2.055   0.008  -3.203  0.00  0.00     0.003 A 
ATOM      5  C3  PXY d   1       2.373   1.284  -2.816  0.00  0.00     0.003 A 
ATOM      6  C4  PXY d   1       1.550   1.977  -1.969  0.00  0.00    -0.082 A 
ATOM      7  C5  PXY d   1       0.442   1.379  -1.481  0.00  0.00     0.003 A 
ATOM      8  C6  PXY d   1       0.159   0.068  -1.854  0.00  0.00     0.003 A 
ENDROOT
TORSDOF 0
ENDMDL
