MODEL 1
REMARK minimizedAffinity 1.428141
REMARK minimizedRMSD -1
REMARK  0 active torsions:
REMARK  status: ('A' for Active; 'I' for Inactive)
ROOT
ATOM      1  C4' PXY d   1      -6.000  -0.498  -3.289  0.00  0.00     0.077 C 
ATOM      2  C1' PXY d   1      -5.952  -6.000  -1.516  0.00  0.00     0.077 C 
ATOM      3  C1  PXY d   1      -5.970  -4.553  -1.970  0.00  0.00    -0.082 A 
ATOM      4  C2  PXY d   1      -5.996  -4.274  -3.263  0.00  0.00     0.003 A 
ATOM      5  C3  PXY d   1      -5.980  -2.971  -3.691  0.00  0.00     0.003 A 
ATOM      6  C4  PXY d   1      -5.991  -1.944  -2.786  0.00  0.00    -0.082 A 
ATOM      7  C5  PXY d   1      -5.975  -2.221  -1.465  0.00  0.00     0.003 A 
ATOM      8  C6  PXY d   1      -5.950  -3.550  -1.051  0.00  0.00     0.003 A 
ENDROOT
TORSDOF 0
ENDMDL
