MODEL 1
REMARK minimizedAffinity 4.45538855
REMARK minimizedRMSD -1
REMARK  0 active torsions:
REMARK  status: ('A' for Active; 'I' for Inactive)
ROOT
ATOM      1  C4' PXY d   1       3.651   0.160   2.215  0.00  0.00     0.077 C 
ATOM      2  C1' PXY d   1      -0.920   3.462   3.487  0.00  0.00     0.077 C 
ATOM      3  C1  PXY d   1       0.277   2.590   3.164  0.00  0.00    -0.082 A 
ATOM      4  C2  PXY d   1       1.219   3.045   2.354  0.00  0.00     0.003 A 
ATOM      5  C3  PXY d   1       2.292   2.257   2.027  0.00  0.00     0.003 A 
ATOM      6  C4  PXY d   1       2.429   1.010   2.576  0.00  0.00    -0.082 A 
ATOM      7  C5  PXY d   1       1.478   0.543   3.411  0.00  0.00     0.003 A 
ATOM      8  C6  PXY d   1       0.375   1.342   3.699  0.00  0.00     0.003 A 
ENDROOT
TORSDOF 0
ENDMDL
