MODEL 1
REMARK minimizedAffinity 0.632094324
REMARK minimizedRMSD -1
REMARK  0 active torsions:
REMARK  status: ('A' for Active; 'I' for Inactive)
ROOT
ATOM      1  C4' PXY d   1      -5.257  -4.874   3.344  0.00  0.00     0.077 C 
ATOM      2  C1' PXY d   1      -6.000  -4.838  -2.389  0.00  0.00     0.077 C 
ATOM      3  C1  PXY d   1      -5.801  -4.835  -0.886  0.00  0.00    -0.082 A 
ATOM      4  C2  PXY d   1      -5.636  -5.981  -0.246  0.00  0.00     0.003 A 
ATOM      5  C3  PXY d   1      -5.487  -5.999   1.117  0.00  0.00     0.003 A 
ATOM      6  C4  PXY d   1      -5.452  -4.828   1.826  0.00  0.00    -0.082 A 
ATOM      7  C5  PXY d   1      -5.609  -3.654   1.179  0.00  0.00     0.003 A 
ATOM      8  C6  PXY d   1      -5.800  -3.660  -0.200  0.00  0.00     0.003 A 
ENDROOT
TORSDOF 0
ENDMDL
