MODEL 1
REMARK minimizedAffinity -0.00774339912
REMARK minimizedRMSD -1
REMARK  0 active torsions:
REMARK  status: ('A' for Active; 'I' for Inactive)
ROOT
ATOM      1  C4' PXY d   1       1.884   3.362  -0.876  0.00  0.00     0.077 C 
ATOM      2  C1' PXY d   1       0.902  -1.852  -3.170  0.00  0.00     0.077 C 
ATOM      3  C1  PXY d   1       1.147  -0.484  -2.565  0.00  0.00    -0.082 A 
ATOM      4  C2  PXY d   1       2.186   0.232  -2.965  0.00  0.00     0.003 A 
ATOM      5  C3  PXY d   1       2.440   1.457  -2.406  0.00  0.00     0.003 A 
ATOM      6  C4  PXY d   1       1.593   1.979  -1.466  0.00  0.00    -0.082 A 
ATOM      7  C5  PXY d   1       0.525   1.260  -1.060  0.00  0.00     0.003 A 
ATOM      8  C6  PXY d   1       0.307   0.000  -1.611  0.00  0.00     0.003 A 
ENDROOT
TORSDOF 0
ENDMDL
