MODEL 1
REMARK minimizedAffinity 13.1928406
REMARK minimizedRMSD -1
REMARK  0 active torsions:
REMARK  status: ('A' for Active; 'I' for Inactive)
ROOT
ATOM      1  C4' PXY d   1       1.770   3.058   0.638  0.00  0.00     0.077 C 
ATOM      2  C1' PXY d   1       4.482   4.109  -4.358  0.00  0.00     0.077 C 
ATOM      3  C1  PXY d   1       3.770   3.820  -3.051  0.00  0.00    -0.082 A 
ATOM      4  C2  PXY d   1       3.121   4.793  -2.431  0.00  0.00     0.003 A 
ATOM      5  C3  PXY d   1       2.498   4.557  -1.232  0.00  0.00     0.003 A 
ATOM      6  C4  PXY d   1       2.495   3.301  -0.688  0.00  0.00    -0.082 A 
ATOM      7  C5  PXY d   1       3.146   2.301  -1.320  0.00  0.00     0.003 A 
ATOM      8  C6  PXY d   1       3.806   2.570  -2.515  0.00  0.00     0.003 A 
ENDROOT
TORSDOF 0
ENDMDL
