MODEL 1
REMARK minimizedAffinity 2.59268928
REMARK minimizedRMSD -1
REMARK  2 active torsions:
REMARK  status: ('A' for Active; 'I' for Inactive)
REMARK    1  A    between atoms: C2'_3  and  C1'_4 
REMARK    2  A    between atoms: C1'_4  and  C1_5 
ROOT
ATOM      1  C1  I4B d   1       3.456  -1.792   4.121  0.00  0.00    -0.075 A 
ATOM      2  C2  I4B d   1       4.559  -1.705   3.309  0.00  0.00     0.003 A 
ATOM      3  C3  I4B d   1       5.852  -1.939   3.837  0.00  0.00     0.002 A 
ATOM      4  C4  I4B d   1       6.000  -2.205   5.183  0.00  0.00    -0.004 A 
ATOM      5  C5  I4B d   1       4.878  -2.314   6.000  0.00  0.00     0.002 A 
ATOM      6  C6  I4B d   1       3.597  -2.119   5.464  0.00  0.00     0.003 A 
ENDROOT
BRANCH   1   7
ATOM      7  C1' I4B d   1       2.108  -1.506   3.538  0.00  0.00     0.060 C 
BRANCH   7   8
ATOM      8  C2' I4B d   1       2.311  -0.957   2.141  0.00  0.00    -0.013 C 
ATOM      9  C4' I4B d   1       1.045  -1.050   1.330  0.00  0.00     0.013 C 
ATOM     10  C3' I4B d   1       2.772   0.464   2.264  0.00  0.00     0.013 C 
ENDBRANCH   7   8
ENDBRANCH   1   7
TORSDOF 2
ENDMDL
