MODEL 1
REMARK minimizedAffinity 6.71740913
REMARK minimizedRMSD -1
REMARK  2 active torsions:
REMARK  status: ('A' for Active; 'I' for Inactive)
REMARK    1  A    between atoms: C2'_3  and  C1'_4 
REMARK    2  A    between atoms: C1'_4  and  C1_5 
ROOT
ATOM      1  C1  I4B d   1       0.906  -0.973   1.130  0.00  0.00    -0.075 A 
ATOM      2  C2  I4B d   1      -0.253  -0.264   1.318  0.00  0.00     0.003 A 
ATOM      3  C3  I4B d   1      -1.224  -0.198   0.290  0.00  0.00     0.002 A 
ATOM      4  C4  I4B d   1      -0.974  -0.810  -0.921  0.00  0.00    -0.004 A 
ATOM      5  C5  I4B d   1       0.193  -1.548  -1.103  0.00  0.00     0.002 A 
ATOM      6  C6  I4B d   1       1.133  -1.641  -0.067  0.00  0.00     0.003 A 
ENDROOT
BRANCH   1   7
ATOM      7  C1' I4B d   1       1.925  -0.995   2.225  0.00  0.00     0.060 C 
BRANCH   7   8
ATOM      8  C2' I4B d   1       1.593  -2.150   3.148  0.00  0.00    -0.013 C 
ATOM      9  C4' I4B d   1       2.325  -3.401   2.740  0.00  0.00     0.013 C 
ATOM     10  C3' I4B d   1       1.954  -1.743   4.546  0.00  0.00     0.013 C 
ENDBRANCH   7   8
ENDBRANCH   1   7
TORSDOF 2
ENDMDL
