MODEL 1
REMARK minimizedAffinity 1.13322365
REMARK minimizedRMSD -1
REMARK  2 active torsions:
REMARK  status: ('A' for Active; 'I' for Inactive)
REMARK    1  A    between atoms: C2'_3  and  C1'_4 
REMARK    2  A    between atoms: C1'_4  and  C1_5 
ROOT
ATOM      1  C1  I4B d   1       3.277  -0.833   3.836  0.00  0.00    -0.075 A 
ATOM      2  C2  I4B d   1       4.564  -1.260   3.622  0.00  0.00     0.003 A 
ATOM      3  C3  I4B d   1       5.217  -2.066   4.586  0.00  0.00     0.002 A 
ATOM      4  C4  I4B d   1       4.569  -2.377   5.763  0.00  0.00    -0.004 A 
ATOM      5  C5  I4B d   1       3.256  -1.963   5.968  0.00  0.00     0.002 A 
ATOM      6  C6  I4B d   1       2.601  -1.196   4.993  0.00  0.00     0.003 A 
ENDROOT
BRANCH   1   7
ATOM      7  C1' I4B d   1       2.629   0.044   2.812  0.00  0.00     0.060 C 
BRANCH   7   8
ATOM      8  C2' I4B d   1       3.362   1.370   2.803  0.00  0.00    -0.013 C 
ATOM      9  C4' I4B d   1       3.407   1.959   1.417  0.00  0.00     0.013 C 
ATOM     10  C3' I4B d   1       2.665   2.291   3.760  0.00  0.00     0.013 C 
ENDBRANCH   7   8
ENDBRANCH   1   7
TORSDOF 2
ENDMDL
