MODEL 1
REMARK minimizedAffinity 4.29050016
REMARK minimizedRMSD -1
REMARK  2 active torsions:
REMARK  status: ('A' for Active; 'I' for Inactive)
REMARK    1  A    between atoms: C2'_3  and  C1'_4 
REMARK    2  A    between atoms: C1'_4  and  C1_5 
ROOT
ATOM      1  C1  I4B d   1       2.902  -3.387  -1.430  0.00  0.00    -0.075 A 
ATOM      2  C2  I4B d   1       2.559  -4.420  -0.593  0.00  0.00     0.003 A 
ATOM      3  C3  I4B d   1       2.943  -5.747  -0.906  0.00  0.00     0.002 A 
ATOM      4  C4  I4B d   1       3.620  -6.000  -2.081  0.00  0.00    -0.004 A 
ATOM      5  C5  I4B d   1       3.986  -4.948  -2.916  0.00  0.00     0.002 A 
ATOM      6  C6  I4B d   1       3.636  -3.632  -2.583  0.00  0.00     0.003 A 
ENDROOT
BRANCH   1   7
ATOM      7  C1' I4B d   1       2.452  -2.002  -1.086  0.00  0.00     0.060 C 
BRANCH   7   8
ATOM      8  C2' I4B d   1       1.236  -2.116  -0.190  0.00  0.00    -0.013 C 
ATOM      9  C4' I4B d   1       0.892  -0.788   0.433  0.00  0.00     0.013 C 
ATOM     10  C3' I4B d   1       0.098  -2.637  -1.016  0.00  0.00     0.013 C 
ENDBRANCH   7   8
ENDBRANCH   1   7
TORSDOF 2
ENDMDL
