MODEL 1
REMARK minimizedAffinity 4.40497446
REMARK minimizedRMSD -1
REMARK  2 active torsions:
REMARK  status: ('A' for Active; 'I' for Inactive)
REMARK    1  A    between atoms: C2'_3  and  C1'_4 
REMARK    2  A    between atoms: C1'_4  and  C1_5 
ROOT
ATOM      1  C1  I4B d   1       2.407  -0.580   3.173  0.00  0.00    -0.075 A 
ATOM      2  C2  I4B d   1       1.890   0.079   4.260  0.00  0.00     0.003 A 
ATOM      3  C3  I4B d   1       2.014   1.486   4.366  0.00  0.00     0.002 A 
ATOM      4  C4  I4B d   1       2.701   2.182   3.393  0.00  0.00    -0.004 A 
ATOM      5  C5  I4B d   1       3.204   1.515   2.280  0.00  0.00     0.002 A 
ATOM      6  C6  I4B d   1       3.046   0.127   2.162  0.00  0.00     0.003 A 
ENDROOT
BRANCH   1   7
ATOM      7  C1' I4B d   1       2.288  -2.070   3.110  0.00  0.00     0.060 C 
BRANCH   7   8
ATOM      8  C2' I4B d   1       3.092  -2.652   4.255  0.00  0.00    -0.013 C 
ATOM      9  C4' I4B d   1       2.875  -4.137   4.374  0.00  0.00     0.013 C 
ATOM     10  C3' I4B d   1       4.537  -2.333   4.014  0.00  0.00     0.013 C 
ENDBRANCH   7   8
ENDBRANCH   1   7
TORSDOF 2
ENDMDL
