MODEL 1
REMARK minimizedAffinity 2.69605017
REMARK minimizedRMSD -1
REMARK  2 active torsions:
REMARK  status: ('A' for Active; 'I' for Inactive)
REMARK    1  A    between atoms: C2'_3  and  C1'_4 
REMARK    2  A    between atoms: C1'_4  and  C1_5 
ROOT
ATOM      1  C1  I4B d   1       2.260  -2.300   3.038  0.00  0.00    -0.075 A 
ATOM      2  C2  I4B d   1       1.536  -2.063   4.180  0.00  0.00     0.003 A 
ATOM      3  C3  I4B d   1       1.167  -3.138   5.026  0.00  0.00     0.002 A 
ATOM      4  C4  I4B d   1       1.498  -4.429   4.668  0.00  0.00    -0.004 A 
ATOM      5  C5  I4B d   1       2.252  -4.665   3.522  0.00  0.00     0.002 A 
ATOM      6  C6  I4B d   1       2.646  -3.593   2.708  0.00  0.00     0.003 A 
ENDROOT
BRANCH   1   7
ATOM      7  C1' I4B d   1       2.605  -1.146   2.151  0.00  0.00     0.060 C 
BRANCH   7   8
ATOM      8  C2' I4B d   1       1.449  -0.167   2.190  0.00  0.00    -0.013 C 
ATOM      9  C4' I4B d   1       1.942   1.256   2.232  0.00  0.00     0.013 C 
ATOM     10  C3' I4B d   1       0.597  -0.409   0.980  0.00  0.00     0.013 C 
ENDBRANCH   7   8
ENDBRANCH   1   7
TORSDOF 2
ENDMDL
