MODEL 1
REMARK minimizedAffinity 7.37774992
REMARK minimizedRMSD -1
REMARK  0 active torsions:
REMARK  status: ('A' for Active; 'I' for Inactive)
ROOT
ATOM      1  C   UNL d   1       2.238  -3.214  -4.315  0.00  0.00     0.023 A 
ATOM      2  C1  UNL d   1       1.165  -3.726  -3.585  0.00  0.00     0.003 A 
ATOM      3  C2  UNL d   1       0.635  -2.999  -2.517  0.00  0.00     0.048 A 
ATOM      4  C3  UNL d   1       1.182  -1.760  -2.185  0.00  0.00     0.023 A 
ATOM      5  C4  UNL d   1       2.255  -1.243  -2.913  0.00  0.00     0.048 A 
ATOM      6  C5  UNL d   1       2.782  -1.974  -3.979  0.00  0.00     0.003 A 
ATOM      7  I   UNL d   1       0.394  -0.676  -0.596  0.00  0.00    -0.146 I 
ENDROOT
TORSDOF 0
ENDMDL
