MODEL 1
REMARK minimizedAffinity 5.32340765
REMARK minimizedRMSD -1
REMARK  0 active torsions:
REMARK  status: ('A' for Active; 'I' for Inactive)
ROOT
ATOM      1  C   UNL d   1      -2.981  -4.650   0.127  0.00  0.00     0.023 A 
ATOM      2  C1  UNL d   1      -3.509  -3.405  -0.215  0.00  0.00     0.003 A 
ATOM      3  C2  UNL d   1      -2.672  -2.290  -0.303  0.00  0.00     0.048 A 
ATOM      4  C3  UNL d   1      -1.308  -2.428  -0.049  0.00  0.00     0.023 A 
ATOM      5  C4  UNL d   1      -0.775  -3.673   0.292  0.00  0.00     0.048 A 
ATOM      6  C5  UNL d   1      -1.616  -4.784   0.380  0.00  0.00     0.003 A 
ATOM      7  I   UNL d   1      -0.060  -0.771  -0.181  0.00  0.00    -0.146 I 
ENDROOT
TORSDOF 0
ENDMDL
