MODEL 1
REMARK minimizedAffinity 2.40748882
REMARK minimizedRMSD -1
REMARK  0 active torsions:
REMARK  status: ('A' for Active; 'I' for Inactive)
ROOT
ATOM      1  C   UNL d   1       3.192   3.867   1.990  0.00  0.00     0.023 A 
ATOM      2  C1  UNL d   1       3.783   5.130   2.023  0.00  0.00     0.003 A 
ATOM      3  C2  UNL d   1       4.194   5.741   0.836  0.00  0.00     0.048 A 
ATOM      4  C3  UNL d   1       4.009   5.084  -0.380  0.00  0.00     0.023 A 
ATOM      5  C4  UNL d   1       3.418   3.821  -0.418  0.00  0.00     0.048 A 
ATOM      6  C5  UNL d   1       3.009   3.213   0.771  0.00  0.00     0.003 A 
ATOM      7  I   UNL d   1       4.620   5.992  -2.147  0.00  0.00    -0.146 I 
ENDROOT
TORSDOF 0
ENDMDL
