MODEL 1
REMARK minimizedAffinity 2.3147254
REMARK minimizedRMSD -1
REMARK  0 active torsions:
REMARK  status: ('A' for Active; 'I' for Inactive)
ROOT
ATOM      1  C   UNL d   1       0.498   0.125  -0.968  0.00  0.00     0.023 A 
ATOM      2  C1  UNL d   1       0.177  -1.173  -0.571  0.00  0.00     0.003 A 
ATOM      3  C2  UNL d   1       0.488  -2.254  -1.398  0.00  0.00     0.048 A 
ATOM      4  C3  UNL d   1       1.122  -2.031  -2.619  0.00  0.00     0.023 A 
ATOM      5  C4  UNL d   1       1.446  -0.734  -3.020  0.00  0.00     0.048 A 
ATOM      6  C5  UNL d   1       1.132   0.345  -2.191  0.00  0.00     0.003 A 
ATOM      7  I   UNL d   1       1.586  -3.639  -3.852  0.00  0.00    -0.146 I 
ENDROOT
TORSDOF 0
ENDMDL
