MODEL 1
REMARK minimizedAffinity 1.73157144
REMARK minimizedRMSD -1
REMARK  0 active torsions:
REMARK  status: ('A' for Active; 'I' for Inactive)
ROOT
ATOM      1  C   UNL d   1       1.702  -1.769  -3.185  0.00  0.00     0.023 A 
ATOM      2  C1  UNL d   1       1.323  -2.539  -2.085  0.00  0.00     0.003 A 
ATOM      3  C2  UNL d   1       0.607  -1.956  -1.037  0.00  0.00     0.048 A 
ATOM      4  C3  UNL d   1       0.272  -0.603  -1.097  0.00  0.00     0.023 A 
ATOM      5  C4  UNL d   1       0.649   0.170  -2.196  0.00  0.00     0.048 A 
ATOM      6  C5  UNL d   1       1.366  -0.417  -3.240  0.00  0.00     0.003 A 
ATOM      7  I   UNL d   1      -0.794   0.266   0.461  0.00  0.00    -0.146 I 
ENDROOT
TORSDOF 0
ENDMDL
