MODEL 1
REMARK minimizedAffinity -2.04505372
REMARK minimizedRMSD -1
REMARK  0 active torsions:
REMARK  status: ('A' for Active; 'I' for Inactive)
ROOT
ATOM      1  C   UNL d   1       5.109  -3.431   4.060  0.00  0.00     0.023 A 
ATOM      2  C1  UNL d   1       5.214  -2.312   3.234  0.00  0.00     0.003 A 
ATOM      3  C2  UNL d   1       5.462  -1.054   3.789  0.00  0.00     0.048 A 
ATOM      4  C3  UNL d   1       5.604  -0.924   5.170  0.00  0.00     0.023 A 
ATOM      5  C4  UNL d   1       5.501  -2.042   6.000  0.00  0.00     0.048 A 
ATOM      6  C5  UNL d   1       5.252  -3.297   5.441  0.00  0.00     0.003 A 
ATOM      7  I   UNL d   1       5.973   0.946   5.999  0.00  0.00    -0.146 I 
ENDROOT
TORSDOF 0
ENDMDL
