MODEL 1
REMARK minimizedAffinity 2.15557742
REMARK minimizedRMSD -1
REMARK  0 active torsions:
REMARK  status: ('A' for Active; 'I' for Inactive)
ROOT
ATOM      1  C   UNL d   1      -3.298  -4.750  -1.288  0.00  0.00     0.023 A 
ATOM      2  C1  UNL d   1      -3.348  -3.380  -1.549  0.00  0.00     0.003 A 
ATOM      3  C2  UNL d   1      -2.315  -2.548  -1.116  0.00  0.00     0.048 A 
ATOM      4  C3  UNL d   1      -1.233  -3.091  -0.424  0.00  0.00     0.023 A 
ATOM      5  C4  UNL d   1      -1.177  -4.461  -0.162  0.00  0.00     0.048 A 
ATOM      6  C5  UNL d   1      -2.214  -5.290  -0.596  0.00  0.00     0.003 A 
ATOM      7  I   UNL d   1       0.307  -1.853   0.222  0.00  0.00    -0.146 I 
ENDROOT
TORSDOF 0
ENDMDL
