MODEL 1
REMARK minimizedAffinity -3.49318624
REMARK minimizedRMSD -1
REMARK  0 active torsions:
REMARK  status: ('A' for Active; 'I' for Inactive)
ROOT
ATOM      1  C   UNL d   1       5.507  -1.718   5.150  0.00  0.00     0.023 A 
ATOM      2  C1  UNL d   1       5.398  -1.529   3.772  0.00  0.00     0.003 A 
ATOM      3  C2  UNL d   1       5.491  -0.245   3.232  0.00  0.00     0.048 A 
ATOM      4  C3  UNL d   1       5.695   0.847   4.076  0.00  0.00     0.023 A 
ATOM      5  C4  UNL d   1       5.807   0.663   5.455  0.00  0.00     0.048 A 
ATOM      6  C5  UNL d   1       5.712  -0.623   5.990  0.00  0.00     0.003 A 
ATOM      7  I   UNL d   1       5.835   2.759   3.275  0.00  0.00    -0.146 I 
ENDROOT
TORSDOF 0
ENDMDL
