MODEL 1
REMARK minimizedAffinity -3.93326998
REMARK minimizedRMSD -1
REMARK  0 active torsions:
REMARK  status: ('A' for Active; 'I' for Inactive)
ROOT
ATOM      1  C   UNL d   1       4.125   4.246  -1.603  0.00  0.00     0.023 A 
ATOM      2  C1  UNL d   1       5.086   5.249  -1.479  0.00  0.00     0.003 A 
ATOM      3  C2  UNL d   1       5.412   5.754  -0.219  0.00  0.00     0.048 A 
ATOM      4  C3  UNL d   1       4.773   5.250   0.914  0.00  0.00     0.023 A 
ATOM      5  C4  UNL d   1       3.812   4.245   0.795  0.00  0.00     0.048 A 
ATOM      6  C5  UNL d   1       3.489   3.744  -0.468  0.00  0.00     0.003 A 
ATOM      7  I   UNL d   1       5.256   6.000   2.791  0.00  0.00    -0.146 I 
ENDROOT
TORSDOF 0
ENDMDL
