MODEL 1
REMARK minimizedAffinity 2.55313921
REMARK minimizedRMSD -1
REMARK  0 active torsions:
REMARK  status: ('A' for Active; 'I' for Inactive)
ROOT
ATOM      1  C   UNL d   1      -3.683  -2.841  -1.527  0.00  0.00     0.023 A 
ATOM      2  C1  UNL d   1      -2.798  -3.918  -1.465  0.00  0.00     0.003 A 
ATOM      3  C2  UNL d   1      -1.466  -3.709  -1.104  0.00  0.00     0.048 A 
ATOM      4  C3  UNL d   1      -1.024  -2.420  -0.805  0.00  0.00     0.023 A 
ATOM      5  C4  UNL d   1      -1.906  -1.340  -0.865  0.00  0.00     0.048 A 
ATOM      6  C5  UNL d   1      -3.237  -1.553  -1.228  0.00  0.00     0.003 A 
ATOM      7  I   UNL d   1       0.959  -2.107  -0.267  0.00  0.00    -0.146 I 
ENDROOT
TORSDOF 0
ENDMDL
