MODEL 1
REMARK minimizedAffinity 1.23823392
REMARK minimizedRMSD -1
REMARK  0 active torsions:
REMARK  status: ('A' for Active; 'I' for Inactive)
ROOT
ATOM      1  C   UNL d   1      -3.204  -4.613  -1.075  0.00  0.00     0.023 A 
ATOM      2  C1  UNL d   1      -2.051  -5.183  -0.535  0.00  0.00     0.003 A 
ATOM      3  C2  UNL d   1      -0.919  -4.395  -0.314  0.00  0.00     0.048 A 
ATOM      4  C3  UNL d   1      -0.948  -3.038  -0.633  0.00  0.00     0.023 A 
ATOM      5  C4  UNL d   1      -2.100  -2.464  -1.173  0.00  0.00     0.048 A 
ATOM      6  C5  UNL d   1      -3.229  -3.256  -1.393  0.00  0.00     0.003 A 
ATOM      7  I   UNL d   1       0.735  -1.864  -0.305  0.00  0.00    -0.146 I 
ENDROOT
TORSDOF 0
ENDMDL
