MODEL 1
REMARK minimizedAffinity 6.4089241
REMARK minimizedRMSD -1
REMARK  0 active torsions:
REMARK  status: ('A' for Active; 'I' for Inactive)
ROOT
ATOM      1  C   UNL d   1       3.557   4.134   0.060  0.00  0.00     0.023 A 
ATOM      2  C1  UNL d   1       3.788   3.351   1.191  0.00  0.00     0.003 A 
ATOM      3  C2  UNL d   1       4.477   3.885   2.282  0.00  0.00     0.048 A 
ATOM      4  C3  UNL d   1       4.931   5.203   2.235  0.00  0.00     0.023 A 
ATOM      5  C4  UNL d   1       4.701   5.990   1.106  0.00  0.00     0.048 A 
ATOM      6  C5  UNL d   1       4.013   5.451   0.017  0.00  0.00     0.003 A 
ATOM      7  I   UNL d   1       5.956   6.000   3.858  0.00  0.00    -0.146 I 
ENDROOT
TORSDOF 0
ENDMDL
