MODEL 1
REMARK minimizedAffinity 2.64771986
REMARK minimizedRMSD -1
REMARK  0 active torsions:
REMARK  status: ('A' for Active; 'I' for Inactive)
ROOT
ATOM      1  C   UNL d   1       3.979   4.186  -0.867  0.00  0.00     0.023 A 
ATOM      2  C1  UNL d   1       4.488   5.478  -0.732  0.00  0.00     0.003 A 
ATOM      3  C2  UNL d   1       4.743   6.000   0.537  0.00  0.00     0.048 A 
ATOM      4  C3  UNL d   1       4.488   5.225   1.668  0.00  0.00     0.023 A 
ATOM      5  C4  UNL d   1       3.980   3.931   1.538  0.00  0.00     0.048 A 
ATOM      6  C5  UNL d   1       3.725   3.414   0.266  0.00  0.00     0.003 A 
ATOM      7  I   UNL d   1       4.867   6.000   3.559  0.00  0.00    -0.146 I 
ENDROOT
TORSDOF 0
ENDMDL
