MODEL 1
REMARK minimizedAffinity 2.29300618
REMARK minimizedRMSD -1
REMARK  0 active torsions:
REMARK  status: ('A' for Active; 'I' for Inactive)
ROOT
ATOM      1  C   UNL d   1      -3.413  -1.233   1.601  0.00  0.00     0.023 A 
ATOM      2  C1  UNL d   1      -2.286  -0.985   2.385  0.00  0.00     0.003 A 
ATOM      3  C2  UNL d   1      -1.098  -0.559   1.788  0.00  0.00     0.048 A 
ATOM      4  C3  UNL d   1      -1.044  -0.383   0.406  0.00  0.00     0.023 A 
ATOM      5  C4  UNL d   1      -2.169  -0.629  -0.383  0.00  0.00     0.048 A 
ATOM      6  C5  UNL d   1      -3.355  -1.055   0.219  0.00  0.00     0.003 A 
ATOM      7  I   UNL d   1       0.723   0.251  -0.486  0.00  0.00    -0.146 I 
ENDROOT
TORSDOF 0
ENDMDL
