MODEL 1
REMARK minimizedAffinity 3.32834315
REMARK minimizedRMSD -1
REMARK  0 active torsions:
REMARK  status: ('A' for Active; 'I' for Inactive)
ROOT
ATOM      1  C   UNL d   1       5.250   5.622   3.400  0.00  0.00     0.023 A 
ATOM      2  C1  UNL d   1       4.494   4.531   2.972  0.00  0.00     0.003 A 
ATOM      3  C2  UNL d   1       4.486   3.349   3.716  0.00  0.00     0.048 A 
ATOM      4  C3  UNL d   1       5.235   3.267   4.890  0.00  0.00     0.023 A 
ATOM      5  C4  UNL d   1       5.992   4.356   5.323  0.00  0.00     0.048 A 
ATOM      6  C5  UNL d   1       5.998   5.535   4.575  0.00  0.00     0.003 A 
ATOM      7  I   UNL d   1       5.224   1.510   6.000  0.00  0.00    -0.146 I 
ENDROOT
TORSDOF 0
ENDMDL
