MODEL 1
REMARK minimizedAffinity 19.4573383
REMARK minimizedRMSD -1
REMARK  0 active torsions:
REMARK  status: ('A' for Active; 'I' for Inactive)
ROOT
ATOM      1  C   UNL d   1      -0.075   0.184   1.058  0.00  0.00     0.124 A 
ATOM      2  C1  UNL d   1       0.193   1.491   0.674  0.00  0.00     0.062 A 
ATOM      3  C2  UNL d   1       0.441   1.791  -0.662  0.00  0.00     0.162 A 
ATOM      4  C3  UNL d   1       0.421   0.783  -1.626  0.00  0.00    -0.034 A 
ATOM      5  C4  UNL d   1       0.153  -0.530  -1.232  0.00  0.00     0.162 A 
ATOM      6  C5  UNL d   1      -0.094  -0.825   0.105  0.00  0.00     0.062 A 
ATOM      7  F   UNL d   1      -0.352  -2.088   0.473  0.00  0.00    -0.097 F 
ATOM      8  F1  UNL d   1       0.127  -1.523  -2.132  0.00  0.00    -0.096 F 
ATOM      9  I   UNL d   1       0.792   1.228  -3.625  0.00  0.00    -0.060 I 
ATOM     10  F2  UNL d   1       0.696   3.063  -1.004  0.00  0.00    -0.096 F 
ATOM     11  F3  UNL d   1       0.213   2.467   1.593  0.00  0.00    -0.097 F 
ATOM     12  F4  UNL d   1      -0.312  -0.103   2.344  0.00  0.00    -0.092 F 
ENDROOT
TORSDOF 0
ENDMDL
