MODEL 1
REMARK minimizedAffinity 15.7180996
REMARK minimizedRMSD -1
REMARK  0 active torsions:
REMARK  status: ('A' for Active; 'I' for Inactive)
ROOT
ATOM      1  C   UNL d   1       0.081   0.862  -2.689  0.00  0.00     0.124 A 
ATOM      2  C1  UNL d   1      -1.026   1.182  -1.915  0.00  0.00     0.062 A 
ATOM      3  C2  UNL d   1      -0.916   1.248  -0.529  0.00  0.00     0.162 A 
ATOM      4  C3  UNL d   1       0.306   0.995   0.093  0.00  0.00    -0.034 A 
ATOM      5  C4  UNL d   1       1.415   0.672  -0.692  0.00  0.00     0.162 A 
ATOM      6  C5  UNL d   1       1.300   0.607  -2.077  0.00  0.00     0.062 A 
ATOM      7  F   UNL d   1       2.371   0.297  -2.822  0.00  0.00    -0.097 F 
ATOM      8  F1  UNL d   1       2.605   0.422  -0.127  0.00  0.00    -0.096 F 
ATOM      9  I   UNL d   1       0.475   1.092   2.165  0.00  0.00    -0.060 I 
ATOM     10  F2  UNL d   1      -2.002   1.560   0.193  0.00  0.00    -0.096 F 
ATOM     11  F3  UNL d   1      -2.205   1.428  -2.504  0.00  0.00    -0.097 F 
ATOM     12  F4  UNL d   1      -0.028   0.798  -4.022  0.00  0.00    -0.092 F 
ENDROOT
TORSDOF 0
ENDMDL
