MODEL 1
REMARK minimizedAffinity 9.77575493
REMARK minimizedRMSD -1
REMARK  0 active torsions:
REMARK  status: ('A' for Active; 'I' for Inactive)
ROOT
ATOM      1  C   UNL d   1       0.250   1.902   2.180  0.00  0.00     0.124 A 
ATOM      2  C1  UNL d   1      -0.023   0.659   1.625  0.00  0.00     0.062 A 
ATOM      3  C2  UNL d   1      -0.215   0.533   0.252  0.00  0.00     0.162 A 
ATOM      4  C3  UNL d   1      -0.133   1.652  -0.576  0.00  0.00    -0.034 A 
ATOM      5  C4  UNL d   1       0.140   2.899  -0.010  0.00  0.00     0.162 A 
ATOM      6  C5  UNL d   1       0.331   3.020   1.362  0.00  0.00     0.062 A 
ATOM      7  F   UNL d   1       0.595   4.221   1.897  0.00  0.00    -0.097 F 
ATOM      8  F1  UNL d   1       0.226   3.996  -0.778  0.00  0.00    -0.096 F 
ATOM      9  I   UNL d   1      -0.419   1.467  -2.629  0.00  0.00    -0.060 I 
ATOM     10  F2  UNL d   1      -0.477  -0.680  -0.257  0.00  0.00    -0.096 F 
ATOM     11  F3  UNL d   1      -0.103  -0.423   2.413  0.00  0.00    -0.097 F 
ATOM     12  F4  UNL d   1       0.433   2.021   3.501  0.00  0.00    -0.092 F 
ENDROOT
TORSDOF 0
ENDMDL
