MODEL 1
REMARK minimizedAffinity 12.1129808
REMARK minimizedRMSD -1
REMARK  0 active torsions:
REMARK  status: ('A' for Active; 'I' for Inactive)
ROOT
ATOM      1  C   UNL d   1      -0.034   2.075   0.655  0.00  0.00     0.124 A 
ATOM      2  C1  UNL d   1      -1.269   2.704   0.728  0.00  0.00     0.062 A 
ATOM      3  C2  UNL d   1      -2.131   2.683  -0.365  0.00  0.00     0.162 A 
ATOM      4  C3  UNL d   1      -1.761   2.030  -1.540  0.00  0.00    -0.034 A 
ATOM      5  C4  UNL d   1      -0.517   1.400  -1.607  0.00  0.00     0.162 A 
ATOM      6  C5  UNL d   1       0.340   1.423  -0.512  0.00  0.00     0.062 A 
ATOM      7  F   UNL d   1       1.533   0.815  -0.584  0.00  0.00    -0.097 F 
ATOM      8  F1  UNL d   1      -0.130   0.762  -2.722  0.00  0.00    -0.096 F 
ATOM      9  I   UNL d   1      -3.047   1.997  -3.177  0.00  0.00    -0.060 I 
ATOM     10  F2  UNL d   1      -3.318   3.300  -0.266  0.00  0.00    -0.096 F 
ATOM     11  F3  UNL d   1      -1.633   3.335   1.854  0.00  0.00    -0.097 F 
ATOM     12  F4  UNL d   1       0.794   2.097   1.707  0.00  0.00    -0.092 F 
ENDROOT
TORSDOF 0
ENDMDL
