MODEL 1
REMARK minimizedAffinity 19.2943802
REMARK minimizedRMSD -1
REMARK  0 active torsions:
REMARK  status: ('A' for Active; 'I' for Inactive)
ROOT
ATOM      1  C   UNL d   1      -4.954   2.651  -4.297  0.00  0.00     0.124 A 
ATOM      2  C1  UNL d   1      -4.951   3.745  -5.152  0.00  0.00     0.062 A 
ATOM      3  C2  UNL d   1      -3.871   4.622  -5.163  0.00  0.00     0.162 A 
ATOM      4  C3  UNL d   1      -2.783   4.410  -4.316  0.00  0.00    -0.034 A 
ATOM      5  C4  UNL d   1      -2.793   3.308  -3.458  0.00  0.00     0.162 A 
ATOM      6  C5  UNL d   1      -3.875   2.434  -3.451  0.00  0.00     0.062 A 
ATOM      7  F   UNL d   1      -3.876   1.379  -2.624  0.00  0.00    -0.097 F 
ATOM      8  F1  UNL d   1      -1.764   3.074  -2.631  0.00  0.00    -0.096 F 
ATOM      9  I   UNL d   1      -1.166   5.719  -4.329  0.00  0.00    -0.060 I 
ATOM     10  F2  UNL d   1      -3.895   5.670  -6.000  0.00  0.00    -0.096 F 
ATOM     11  F3  UNL d   1      -5.993   3.957  -5.969  0.00  0.00    -0.097 F 
ATOM     12  F4  UNL d   1      -5.995   1.809  -4.287  0.00  0.00    -0.092 F 
ENDROOT
TORSDOF 0
ENDMDL
