MODEL 1
REMARK minimizedAffinity 2.72087502
REMARK minimizedRMSD -1
REMARK  0 active torsions:
REMARK  status: ('A' for Active; 'I' for Inactive)
ROOT
ATOM      1  C   UNL d   1      -5.809   0.281  -2.374  0.00  0.00     0.124 A 
ATOM      2  C1  UNL d   1      -5.679   1.633  -2.088  0.00  0.00     0.062 A 
ATOM      3  C2  UNL d   1      -5.612   2.563  -3.121  0.00  0.00     0.162 A 
ATOM      4  C3  UNL d   1      -5.677   2.145  -4.450  0.00  0.00    -0.034 A 
ATOM      5  C4  UNL d   1      -5.807   0.784  -4.730  0.00  0.00     0.162 A 
ATOM      6  C5  UNL d   1      -5.873  -0.142  -3.694  0.00  0.00     0.062 A 
ATOM      7  F   UNL d   1      -5.999  -1.448  -3.972  0.00  0.00    -0.097 F 
ATOM      8  F1  UNL d   1      -5.872   0.347  -5.997  0.00  0.00    -0.096 F 
ATOM      9  I   UNL d   1      -5.577   3.533  -5.998  0.00  0.00    -0.060 I 
ATOM     10  F2  UNL d   1      -5.486   3.863  -2.816  0.00  0.00    -0.096 F 
ATOM     11  F3  UNL d   1      -5.616   2.044  -0.814  0.00  0.00    -0.097 F 
ATOM     12  F4  UNL d   1      -5.872  -0.613  -1.378  0.00  0.00    -0.092 F 
ENDROOT
TORSDOF 0
ENDMDL
