MODEL 1
REMARK minimizedAffinity 20.3341999
REMARK minimizedRMSD -1
REMARK  0 active torsions:
REMARK  status: ('A' for Active; 'I' for Inactive)
ROOT
ATOM      1  C   UNL d   1       0.563   3.232   1.449  0.00  0.00     0.124 A 
ATOM      2  C1  UNL d   1       0.208   2.946   0.138  0.00  0.00     0.062 A 
ATOM      3  C2  UNL d   1      -0.010   1.630  -0.257  0.00  0.00     0.162 A 
ATOM      4  C3  UNL d   1       0.125   0.588   0.661  0.00  0.00    -0.034 A 
ATOM      5  C4  UNL d   1       0.484   0.883   1.977  0.00  0.00     0.162 A 
ATOM      6  C5  UNL d   1       0.701   2.200   2.367  0.00  0.00     0.062 A 
ATOM      7  F   UNL d   1       1.044   2.474   3.634  0.00  0.00    -0.097 F 
ATOM      8  F1  UNL d   1       0.623  -0.095   2.885  0.00  0.00    -0.096 F 
ATOM      9  I   UNL d   1      -0.200  -1.382   0.074  0.00  0.00    -0.060 I 
ATOM     10  F2  UNL d   1      -0.353   1.383  -1.530  0.00  0.00    -0.096 F 
ATOM     11  F3  UNL d   1       0.075   3.941  -0.751  0.00  0.00    -0.097 F 
ATOM     12  F4  UNL d   1       0.774   4.500   1.826  0.00  0.00    -0.092 F 
ENDROOT
TORSDOF 0
ENDMDL
