MODEL 1
REMARK minimizedAffinity 11.879818
REMARK minimizedRMSD -1
REMARK  0 active torsions:
REMARK  status: ('A' for Active; 'I' for Inactive)
ROOT
ATOM      1  C   UNL d   1      -5.082   1.931  -4.432  0.00  0.00     0.124 A 
ATOM      2  C1  UNL d   1      -5.081   1.096  -3.323  0.00  0.00     0.062 A 
ATOM      3  C2  UNL d   1      -4.128   1.263  -2.322  0.00  0.00     0.162 A 
ATOM      4  C3  UNL d   1      -3.168   2.270  -2.426  0.00  0.00    -0.034 A 
ATOM      5  C4  UNL d   1      -3.175   3.105  -3.545  0.00  0.00     0.162 A 
ATOM      6  C5  UNL d   1      -4.130   2.934  -4.542  0.00  0.00     0.062 A 
ATOM      7  F   UNL d   1      -4.129   3.741  -5.613  0.00  0.00    -0.097 F 
ATOM      8  F1  UNL d   1      -2.266   4.083  -3.676  0.00  0.00    -0.096 F 
ATOM      9  I   UNL d   1      -1.741   2.523  -0.932  0.00  0.00    -0.060 I 
ATOM     10  F2  UNL d   1      -4.150   0.443  -1.262  0.00  0.00    -0.096 F 
ATOM     11  F3  UNL d   1      -6.000   0.126  -3.215  0.00  0.00    -0.097 F 
ATOM     12  F4  UNL d   1      -6.000   1.767  -5.394  0.00  0.00    -0.092 F 
ENDROOT
TORSDOF 0
ENDMDL
