MODEL 1
REMARK minimizedAffinity 8.7986412
REMARK minimizedRMSD -1
REMARK  0 active torsions:
REMARK  status: ('A' for Active; 'I' for Inactive)
ROOT
ATOM      1  C   UNL d   1      -2.398   3.993  -4.892  0.00  0.00     0.124 A 
ATOM      2  C1  UNL d   1      -2.114   2.875  -4.120  0.00  0.00     0.062 A 
ATOM      3  C2  UNL d   1      -3.140   2.031  -3.706  0.00  0.00     0.162 A 
ATOM      4  C3  UNL d   1      -4.461   2.300  -4.065  0.00  0.00    -0.034 A 
ATOM      5  C4  UNL d   1      -4.739   3.427  -4.842  0.00  0.00     0.162 A 
ATOM      6  C5  UNL d   1      -3.710   4.267  -5.252  0.00  0.00     0.062 A 
ATOM      7  F   UNL d   1      -3.986   5.347  -5.999  0.00  0.00    -0.097 F 
ATOM      8  F1  UNL d   1      -5.998   3.715  -5.205  0.00  0.00    -0.096 F 
ATOM      9  I   UNL d   1      -5.999   1.040  -3.449  0.00  0.00    -0.060 I 
ATOM     10  F2  UNL d   1      -2.837   0.958  -2.960  0.00  0.00    -0.096 F 
ATOM     11  F3  UNL d   1      -0.848   2.609  -3.769  0.00  0.00    -0.097 F 
ATOM     12  F4  UNL d   1      -1.409   4.804  -5.288  0.00  0.00    -0.092 F 
ENDROOT
TORSDOF 0
ENDMDL
