MODEL 1
REMARK minimizedAffinity 11.4266119
REMARK minimizedRMSD -1
REMARK  0 active torsions:
REMARK  status: ('A' for Active; 'I' for Inactive)
ROOT
ATOM      1  C   UNL d   1       0.537   2.311   0.003  0.00  0.00     0.124 A 
ATOM      2  C1  UNL d   1       0.711   1.698  -1.230  0.00  0.00     0.062 A 
ATOM      3  C2  UNL d   1       0.559   0.320  -1.354  0.00  0.00     0.162 A 
ATOM      4  C3  UNL d   1       0.231  -0.455  -0.241  0.00  0.00    -0.034 A 
ATOM      5  C4  UNL d   1       0.060   0.169   0.996  0.00  0.00     0.162 A 
ATOM      6  C5  UNL d   1       0.212   1.547   1.114  0.00  0.00     0.062 A 
ATOM      7  F   UNL d   1       0.045   2.138   2.306  0.00  0.00    -0.097 F 
ATOM      8  F1  UNL d   1      -0.256  -0.545   2.086  0.00  0.00    -0.096 F 
ATOM      9  I   UNL d   1       0.003  -2.515  -0.421  0.00  0.00    -0.060 I 
ATOM     10  F2  UNL d   1       0.732  -0.246  -2.557  0.00  0.00    -0.096 F 
ATOM     11  F3  UNL d   1       1.026   2.434  -2.306  0.00  0.00    -0.097 F 
ATOM     12  F4  UNL d   1       0.685   3.637   0.119  0.00  0.00    -0.092 F 
ENDROOT
TORSDOF 0
ENDMDL
