MODEL 1
REMARK minimizedAffinity 21.9361477
REMARK minimizedRMSD -1
REMARK  0 active torsions:
REMARK  status: ('A' for Active; 'I' for Inactive)
ROOT
ATOM      1  C   UNL d   1      -0.085   1.190   0.432  0.00  0.00     0.124 A 
ATOM      2  C1  UNL d   1       0.635   1.701   1.503  0.00  0.00     0.062 A 
ATOM      3  C2  UNL d   1       0.856   3.071   1.609  0.00  0.00     0.162 A 
ATOM      4  C3  UNL d   1       0.354   3.941   0.642  0.00  0.00    -0.034 A 
ATOM      5  C4  UNL d   1      -0.368   3.421  -0.434  0.00  0.00     0.162 A 
ATOM      6  C5  UNL d   1      -0.586   2.051  -0.535  0.00  0.00     0.062 A 
ATOM      7  F   UNL d   1      -1.282   1.560  -1.571  0.00  0.00    -0.097 F 
ATOM      8  F1  UNL d   1      -0.864   4.229  -1.382  0.00  0.00    -0.096 F 
ATOM      9  I   UNL d   1       0.682   5.991   0.797  0.00  0.00    -0.060 I 
ATOM     10  F2  UNL d   1       1.555   3.536   2.655  0.00  0.00    -0.096 F 
ATOM     11  F3  UNL d   1       1.121   0.872   2.438  0.00  0.00    -0.097 F 
ATOM     12  F4  UNL d   1      -0.295  -0.128   0.332  0.00  0.00    -0.092 F 
ENDROOT
TORSDOF 0
ENDMDL
