MODEL 1
REMARK minimizedAffinity 17.2119808
REMARK minimizedRMSD -1
REMARK  0 active torsions:
REMARK  status: ('A' for Active; 'I' for Inactive)
ROOT
ATOM      1  C   UNL d   1       0.503   2.746   1.504  0.00  0.00     0.124 A 
ATOM      2  C1  UNL d   1       0.661   2.492   0.149  0.00  0.00     0.062 A 
ATOM      3  C2  UNL d   1       0.739   1.181  -0.313  0.00  0.00     0.162 A 
ATOM      4  C3  UNL d   1       0.659   0.114   0.582  0.00  0.00    -0.034 A 
ATOM      5  C4  UNL d   1       0.501   0.377   1.943  0.00  0.00     0.162 A 
ATOM      6  C5  UNL d   1       0.424   1.689   2.400  0.00  0.00     0.062 A 
ATOM      7  F   UNL d   1       0.271   1.933   3.710  0.00  0.00    -0.097 F 
ATOM      8  F1  UNL d   1       0.420  -0.625   2.831  0.00  0.00    -0.096 F 
ATOM      9  I   UNL d   1       0.775  -1.848  -0.105  0.00  0.00    -0.060 I 
ATOM     10  F2  UNL d   1       0.891   0.965  -1.628  0.00  0.00    -0.096 F 
ATOM     11  F3  UNL d   1       0.739   3.511  -0.718  0.00  0.00    -0.097 F 
ATOM     12  F4  UNL d   1       0.430   4.008   1.946  0.00  0.00    -0.092 F 
ENDROOT
TORSDOF 0
ENDMDL
