MODEL 1
REMARK minimizedAffinity 5.37139225
REMARK minimizedRMSD -1
REMARK  0 active torsions:
REMARK  status: ('A' for Active; 'I' for Inactive)
ROOT
ATOM      1  C   UNL d   1      -2.339   1.959  -4.798  0.00  0.00     0.124 A 
ATOM      2  C1  UNL d   1      -3.647   1.494  -4.791  0.00  0.00     0.062 A 
ATOM      3  C2  UNL d   1      -4.694   2.345  -5.133  0.00  0.00     0.162 A 
ATOM      4  C3  UNL d   1      -4.437   3.670  -5.487  0.00  0.00    -0.034 A 
ATOM      5  C4  UNL d   1      -3.119   4.130  -5.491  0.00  0.00     0.162 A 
ATOM      6  C5  UNL d   1      -2.076   3.276  -5.148  0.00  0.00     0.062 A 
ATOM      7  F   UNL d   1      -0.813   3.726  -5.155  0.00  0.00    -0.097 F 
ATOM      8  F1  UNL d   1      -2.837   5.398  -5.826  0.00  0.00    -0.096 F 
ATOM      9  I   UNL d   1      -6.000   4.945  -5.999  0.00  0.00    -0.060 I 
ATOM     10  F2  UNL d   1      -5.948   1.869  -5.117  0.00  0.00    -0.096 F 
ATOM     11  F3  UNL d   1      -3.903   0.222  -4.452  0.00  0.00    -0.097 F 
ATOM     12  F4  UNL d   1      -1.333   1.138  -4.467  0.00  0.00    -0.092 F 
ENDROOT
TORSDOF 0
ENDMDL
