MODEL 1
REMARK minimizedAffinity 14.1028881
REMARK minimizedRMSD -1
REMARK  0 active torsions:
REMARK  status: ('A' for Active; 'I' for Inactive)
ROOT
ATOM      1  C   UNL d   1       0.658   1.544   1.931  0.00  0.00     0.124 A 
ATOM      2  C1  UNL d   1       0.858   0.303   1.343  0.00  0.00     0.062 A 
ATOM      3  C2  UNL d   1       0.782   0.164  -0.040  0.00  0.00     0.162 A 
ATOM      4  C3  UNL d   1       0.506   1.269  -0.845  0.00  0.00    -0.034 A 
ATOM      5  C4  UNL d   1       0.306   2.514  -0.245  0.00  0.00     0.162 A 
ATOM      6  C5  UNL d   1       0.382   2.648   1.137  0.00  0.00     0.062 A 
ATOM      7  F   UNL d   1       0.189   3.847   1.704  0.00  0.00    -0.097 F 
ATOM      8  F1  UNL d   1       0.039   3.598  -0.989  0.00  0.00    -0.096 F 
ATOM      9  I   UNL d   1       0.393   1.066  -2.913  0.00  0.00    -0.060 I 
ATOM     10  F2  UNL d   1       0.980  -1.047  -0.582  0.00  0.00    -0.096 F 
ATOM     11  F3  UNL d   1       1.123  -0.766   2.108  0.00  0.00    -0.097 F 
ATOM     12  F4  UNL d   1       0.730   1.674   3.262  0.00  0.00    -0.092 F 
ENDROOT
TORSDOF 0
ENDMDL
