MODEL 1
REMARK minimizedAffinity 11.9350433
REMARK minimizedRMSD -1
REMARK  0 active torsions:
REMARK  status: ('A' for Active; 'I' for Inactive)
ROOT
ATOM      1  C   UNL d   1       0.359   1.431   2.659  0.00  0.00     0.124 A 
ATOM      2  C1  UNL d   1       0.026   1.418   1.312  0.00  0.00     0.062 A 
ATOM      3  C2  UNL d   1       0.204   2.559   0.536  0.00  0.00     0.162 A 
ATOM      4  C3  UNL d   1       0.719   3.724   1.105  0.00  0.00    -0.034 A 
ATOM      5  C4  UNL d   1       1.050   3.730   2.462  0.00  0.00     0.162 A 
ATOM      6  C5  UNL d   1       0.870   2.586   3.233  0.00  0.00     0.062 A 
ATOM      7  F   UNL d   1       1.192   2.601   4.535  0.00  0.00    -0.097 F 
ATOM      8  F1  UNL d   1       1.547   4.833   3.041  0.00  0.00    -0.096 F 
ATOM      9  I   UNL d   1       0.986   5.434  -0.051  0.00  0.00    -0.060 I 
ATOM     10  F2  UNL d   1      -0.125   2.518  -0.764  0.00  0.00    -0.096 F 
ATOM     11  F3  UNL d   1      -0.469   0.303   0.756  0.00  0.00    -0.097 F 
ATOM     12  F4  UNL d   1       0.186   0.331   3.404  0.00  0.00    -0.092 F 
ENDROOT
TORSDOF 0
ENDMDL
