MODEL 1
REMARK minimizedAffinity 17.1675663
REMARK minimizedRMSD -1
REMARK  0 active torsions:
REMARK  status: ('A' for Active; 'I' for Inactive)
ROOT
ATOM      1  C   UNL d   1       0.284   1.830   2.054  0.00  0.00     0.124 A 
ATOM      2  C1  UNL d   1       0.679   2.887   1.245  0.00  0.00     0.062 A 
ATOM      3  C2  UNL d   1       0.729   2.730  -0.137  0.00  0.00     0.162 A 
ATOM      4  C3  UNL d   1       0.382   1.511  -0.720  0.00  0.00    -0.034 A 
ATOM      5  C4  UNL d   1      -0.013   0.453   0.100  0.00  0.00     0.162 A 
ATOM      6  C5  UNL d   1      -0.062   0.615   1.481  0.00  0.00     0.062 A 
ATOM      7  F   UNL d   1      -0.444  -0.408   2.260  0.00  0.00    -0.097 F 
ATOM      8  F1  UNL d   1      -0.354  -0.733  -0.428  0.00  0.00    -0.096 F 
ATOM      9  I   UNL d   1       0.455   1.273  -2.786  0.00  0.00    -0.060 I 
ATOM     10  F2  UNL d   1       1.114   3.768  -0.894  0.00  0.00    -0.096 F 
ATOM     11  F3  UNL d   1       1.014   4.062   1.796  0.00  0.00    -0.097 F 
ATOM     12  F4  UNL d   1       0.238   1.984   3.383  0.00  0.00    -0.092 F 
ENDROOT
TORSDOF 0
ENDMDL
