MODEL 1
REMARK minimizedAffinity 5.93828964
REMARK minimizedRMSD -1
REMARK  1 active torsions:
REMARK  status: ('A' for Active; 'I' for Inactive)
REMARK    1  A    between atoms: C1_2  and  C2_3 
ROOT
ATOM      1  C2  UNL d   1       3.575   0.136  -0.545  0.00  0.00    -0.077 A 
ATOM      2  C3  UNL d   1       4.743  -0.403   0.012  0.00  0.00     0.002 A 
ATOM      3  C4  UNL d   1       5.950   0.294  -0.069  0.00  0.00     0.002 A 
ATOM      4  C5  UNL d   1       6.000   1.534  -0.701  0.00  0.00    -0.004 A 
ATOM      5  C6  UNL d   1       4.844   2.078  -1.260  0.00  0.00     0.002 A 
ATOM      6  C7  UNL d   1       3.636   1.382  -1.181  0.00  0.00     0.002 A 
ENDROOT
BRANCH   1   7
ATOM      7  C1  UNL d   1       2.262  -0.592  -0.416  0.00  0.00     0.055 C 
ATOM      8  C   UNL d   1       1.089   0.378  -0.416  0.00  0.00     0.019 C 
ENDBRANCH   1   7
TORSDOF 1
ENDMDL
