MODEL 1
REMARK minimizedAffinity 13.8289251
REMARK minimizedRMSD -1
REMARK  1 active torsions:
REMARK  status: ('A' for Active; 'I' for Inactive)
REMARK    1  A    between atoms: C1_2  and  C2_3 
ROOT
ATOM      1  C2  UNL d   1       4.714   1.286  -1.130  0.00  0.00    -0.077 A 
ATOM      2  C3  UNL d   1       4.148   0.271  -1.913  0.00  0.00     0.002 A 
ATOM      3  C4  UNL d   1       3.488  -0.802  -1.311  0.00  0.00     0.002 A 
ATOM      4  C5  UNL d   1       3.384  -0.867   0.077  0.00  0.00    -0.004 A 
ATOM      5  C6  UNL d   1       3.946   0.137   0.865  0.00  0.00     0.002 A 
ATOM      6  C7  UNL d   1       4.607   1.209   0.265  0.00  0.00     0.002 A 
ENDROOT
BRANCH   1   7
ATOM      7  C1  UNL d   1       5.384   2.469  -1.780  0.00  0.00     0.055 C 
ATOM      8  C   UNL d   1       4.878   3.780  -1.197  0.00  0.00     0.019 C 
ENDBRANCH   1   7
TORSDOF 1
ENDMDL
