MODEL 1
REMARK minimizedAffinity 1.73040152
REMARK minimizedRMSD -1
REMARK  1 active torsions:
REMARK  status: ('A' for Active; 'I' for Inactive)
REMARK    1  A    between atoms: C1_2  and  C2_3 
ROOT
ATOM      1  C2  UNL d   1       2.486  -0.888  -0.687  0.00  0.00    -0.077 A 
ATOM      2  C3  UNL d   1       3.269  -2.050  -0.746  0.00  0.00     0.002 A 
ATOM      3  C4  UNL d   1       2.699  -3.267  -1.123  0.00  0.00     0.002 A 
ATOM      4  C5  UNL d   1       1.346  -3.334  -1.448  0.00  0.00    -0.004 A 
ATOM      5  C6  UNL d   1       0.558  -2.185  -1.389  0.00  0.00     0.002 A 
ATOM      6  C7  UNL d   1       1.126  -0.968  -1.012  0.00  0.00     0.002 A 
ENDROOT
BRANCH   1   7
ATOM      7  C1  UNL d   1       3.110   0.435  -0.328  0.00  0.00     0.055 C 
ATOM      8  C   UNL d   1       4.434   0.637  -1.050  0.00  0.00     0.019 C 
ENDBRANCH   1   7
TORSDOF 1
ENDMDL
