MODEL 1
REMARK minimizedAffinity 0.868075311
REMARK minimizedRMSD -1
REMARK  1 active torsions:
REMARK  status: ('A' for Active; 'I' for Inactive)
REMARK    1  A    between atoms: C1_2  and  C2_3 
ROOT
ATOM      1  C2  UNL d   1       3.205   0.131  -0.571  0.00  0.00    -0.077 A 
ATOM      2  C3  UNL d   1       3.819   1.377  -0.762  0.00  0.00     0.002 A 
ATOM      3  C4  UNL d   1       5.210   1.490  -0.737  0.00  0.00     0.002 A 
ATOM      4  C5  UNL d   1       5.999   0.361  -0.526  0.00  0.00    -0.004 A 
ATOM      5  C6  UNL d   1       5.397  -0.883  -0.333  0.00  0.00     0.002 A 
ATOM      6  C7  UNL d   1       4.007  -0.997  -0.357  0.00  0.00     0.002 A 
ENDROOT
BRANCH   1   7
ATOM      7  C1  UNL d   1       1.706  -0.001  -0.647  0.00  0.00     0.055 C 
ATOM      8  C   UNL d   1       1.012   1.130   0.098  0.00  0.00     0.019 C 
ENDBRANCH   1   7
TORSDOF 1
ENDMDL
