MODEL 1
REMARK minimizedAffinity 12.9449358
REMARK minimizedRMSD -1
REMARK  1 active torsions:
REMARK  status: ('A' for Active; 'I' for Inactive)
REMARK    1  A    between atoms: C1_2  and  C2_3 
ROOT
ATOM      1  C2  UNL d   1      -2.097  -5.292  -4.015  0.00  0.00    -0.077 A 
ATOM      2  C3  UNL d   1      -1.134  -5.779  -3.120  0.00  0.00     0.002 A 
ATOM      3  C4  UNL d   1      -0.930  -5.149  -1.890  0.00  0.00     0.002 A 
ATOM      4  C5  UNL d   1      -1.688  -4.033  -1.543  0.00  0.00    -0.004 A 
ATOM      5  C6  UNL d   1      -2.647  -3.540  -2.427  0.00  0.00     0.002 A 
ATOM      6  C7  UNL d   1      -2.851  -4.167  -3.657  0.00  0.00     0.002 A 
ENDROOT
BRANCH   1   7
ATOM      7  C1  UNL d   1      -2.352  -5.998  -5.320  0.00  0.00     0.055 C 
ATOM      8  C   UNL d   1      -3.734  -5.670  -5.867  0.00  0.00     0.019 C 
ENDBRANCH   1   7
TORSDOF 1
ENDMDL
