MODEL 1
REMARK minimizedAffinity -4.52889538
REMARK minimizedRMSD -1
REMARK  0 active torsions:
REMARK  status: ('A' for Active; 'I' for Inactive)
ROOT
ATOM      1  O1  BZF d   1       3.547   0.423  -0.640  0.00  0.00    -0.204 OA
ATOM      2  C2  BZF d   1       3.096   1.689  -0.319  0.00  0.00     0.174 A 
ATOM      3  C3  BZF d   1       1.830   1.643   0.144  0.00  0.00    -0.012 A 
ATOM      4  C3A BZF d   1       1.500   0.252   0.197  0.00  0.00    -0.107 A 
ATOM      5  C4  BZF d   1       0.386  -0.434   0.589  0.00  0.00     0.055 A 
ATOM      6  C5  BZF d   1       0.359  -1.785   0.449  0.00  0.00    -0.016 A 
ATOM      7  C6  BZF d   1       1.424  -2.481  -0.084  0.00  0.00     0.022 A 
ATOM      8  C7  BZF d   1       2.552  -1.845  -0.482  0.00  0.00     0.029 A 
ATOM      9  C7A BZF d   1       2.596  -0.483  -0.311  0.00  0.00     0.058 A 
ENDROOT
TORSDOF 0
ENDMDL
