MODEL 1
REMARK minimizedAffinity -4.28467178
REMARK minimizedRMSD -1
REMARK  0 active torsions:
REMARK  status: ('A' for Active; 'I' for Inactive)
ROOT
ATOM      1  O1  BZF d   1       0.449  -0.904  -1.920  0.00  0.00    -0.204 OA
ATOM      2  C2  BZF d   1      -0.522   0.042  -1.655  0.00  0.00     0.174 A 
ATOM      3  C3  BZF d   1      -0.370   0.548  -0.414  0.00  0.00    -0.012 A 
ATOM      4  C3A BZF d   1       0.822  -0.055   0.095  0.00  0.00    -0.107 A 
ATOM      5  C4  BZF d   1       1.503   0.060   1.274  0.00  0.00     0.055 A 
ATOM      6  C5  BZF d   1       2.593  -0.724   1.486  0.00  0.00    -0.016 A 
ATOM      7  C6  BZF d   1       3.026  -1.635   0.545  0.00  0.00     0.022 A 
ATOM      8  C7  BZF d   1       2.386  -1.782  -0.640  0.00  0.00     0.029 A 
ATOM      9  C7A BZF d   1       1.304  -0.968  -0.871  0.00  0.00     0.058 A 
ENDROOT
TORSDOF 0
ENDMDL
