MODEL 1
REMARK minimizedAffinity 2.50628066
REMARK minimizedRMSD -1
REMARK  0 active torsions:
REMARK  status: ('A' for Active; 'I' for Inactive)
ROOT
ATOM      1  O1  BZF d   1      -0.481   0.849   1.322  0.00  0.00    -0.204 OA
ATOM      2  C2  BZF d   1      -0.023   0.231   0.175  0.00  0.00     0.174 A 
ATOM      3  C3  BZF d   1      -1.051  -0.263  -0.545  0.00  0.00    -0.012 A 
ATOM      4  C3A BZF d   1      -2.231   0.149   0.152  0.00  0.00    -0.107 A 
ATOM      5  C4  BZF d   1      -3.566  -0.023  -0.080  0.00  0.00     0.055 A 
ATOM      6  C5  BZF d   1      -4.459   0.442   0.833  0.00  0.00    -0.016 A 
ATOM      7  C6  BZF d   1      -4.053   1.076   1.989  0.00  0.00     0.022 A 
ATOM      8  C7  BZF d   1      -2.740   1.274   2.259  0.00  0.00     0.029 A 
ATOM      9  C7A BZF d   1      -1.836   0.835   1.323  0.00  0.00     0.058 A 
ENDROOT
TORSDOF 0
ENDMDL
