MODEL 1
REMARK minimizedAffinity -3.72103119
REMARK minimizedRMSD -1
REMARK  0 active torsions:
REMARK  status: ('A' for Active; 'I' for Inactive)
ROOT
ATOM      1  O1  BZF d   1       0.474  -1.820  -1.006  0.00  0.00    -0.204 OA
ATOM      2  C2  BZF d   1      -0.629  -1.025  -0.759  0.00  0.00     0.174 A 
ATOM      3  C3  BZF d   1      -0.292   0.040  -0.004  0.00  0.00    -0.012 A 
ATOM      4  C3A BZF d   1       1.127  -0.048   0.160  0.00  0.00    -0.107 A 
ATOM      5  C4  BZF d   1       2.048   0.730   0.799  0.00  0.00     0.055 A 
ATOM      6  C5  BZF d   1       3.346   0.326   0.832  0.00  0.00    -0.016 A 
ATOM      7  C6  BZF d   1       3.755  -0.851   0.241  0.00  0.00     0.022 A 
ATOM      8  C7  BZF d   1       2.878  -1.654  -0.410  0.00  0.00     0.029 A 
ATOM      9  C7A BZF d   1       1.572  -1.232  -0.473  0.00  0.00     0.058 A 
ENDROOT
TORSDOF 0
ENDMDL
