MODEL 1
REMARK minimizedAffinity -0.943863153
REMARK minimizedRMSD -1
REMARK  0 active torsions:
REMARK  status: ('A' for Active; 'I' for Inactive)
ROOT
ATOM      1  O1  BZF d   1      -2.217  -0.116   0.746  0.00  0.00    -0.204 OA
ATOM      2  C2  BZF d   1      -2.879   1.097   0.770  0.00  0.00     0.174 A 
ATOM      3  C3  BZF d   1      -2.008   2.119   0.649  0.00  0.00    -0.012 A 
ATOM      4  C3A BZF d   1      -0.731   1.505   0.450  0.00  0.00    -0.107 A 
ATOM      5  C4  BZF d   1       0.527   1.997   0.251  0.00  0.00     0.055 A 
ATOM      6  C5  BZF d   1       1.569   1.130   0.165  0.00  0.00    -0.016 A 
ATOM      7  C6  BZF d   1       1.391  -0.233   0.279  0.00  0.00     0.022 A 
ATOM      8  C7  BZF d   1       0.162  -0.769   0.472  0.00  0.00     0.029 A 
ATOM      9  C7A BZF d   1      -0.899   0.103   0.526  0.00  0.00     0.058 A 
ENDROOT
TORSDOF 0
ENDMDL
