MODEL 1
REMARK minimizedAffinity 21.7922249
REMARK minimizedRMSD -1
REMARK  0 active torsions:
REMARK  status: ('A' for Active; 'I' for Inactive)
ROOT
ATOM      1  C   UNL d   1       6.000   5.752  -1.674  0.00  0.00    -0.002 A 
ATOM      2  C1  UNL d   1       5.712   5.932  -0.329  0.00  0.00     0.010 A 
ATOM      3  C2  UNL d   1       5.246   4.868   0.446  0.00  0.00     0.041 A 
ATOM      4  C3  UNL d   1       5.076   3.607  -0.159  0.00  0.00    -0.075 A 
ATOM      5  S   UNL d   1       4.519   2.159   0.593  0.00  0.00     0.015 SA
ATOM      6  C4  UNL d   1       4.651   1.268  -0.854  0.00  0.00     0.022 A 
ATOM      7  C5  UNL d   1       5.107   2.041  -1.896  0.00  0.00     0.026 A 
ATOM      8  C6  UNL d   1       5.360   3.401  -1.512  0.00  0.00    -0.082 A 
ATOM      9  C7  UNL d   1       5.829   4.501  -2.271  0.00  0.00     0.045 A 
ENDROOT
TORSDOF 0
ENDMDL
