MODEL 1
REMARK minimizedAffinity 10.1503754
REMARK minimizedRMSD -1
REMARK  0 active torsions:
REMARK  status: ('A' for Active; 'I' for Inactive)
ROOT
ATOM      1  C   UNL d   1       3.936   0.854   0.043  0.00  0.00    -0.002 A 
ATOM      2  C1  UNL d   1       4.531   1.223  -1.155  0.00  0.00     0.010 A 
ATOM      3  C2  UNL d   1       4.535   0.351  -2.245  0.00  0.00     0.041 A 
ATOM      4  C3  UNL d   1       3.923  -0.911  -2.110  0.00  0.00    -0.075 A 
ATOM      5  S   UNL d   1       3.805  -2.143  -3.310  0.00  0.00     0.015 SA
ATOM      6  C4  UNL d   1       2.960  -3.188  -2.262  0.00  0.00     0.022 A 
ATOM      7  C5  UNL d   1       2.765  -2.627  -1.022  0.00  0.00     0.026 A 
ATOM      8  C6  UNL d   1       3.316  -1.305  -0.914  0.00  0.00    -0.082 A 
ATOM      9  C7  UNL d   1       3.330  -0.398   0.173  0.00  0.00     0.045 A 
ENDROOT
TORSDOF 0
ENDMDL
