MODEL 1
REMARK minimizedAffinity 20.0044384
REMARK minimizedRMSD -1
REMARK  0 active torsions:
REMARK  status: ('A' for Active; 'I' for Inactive)
ROOT
ATOM      1  C   UNL d   1       0.875  -5.999   5.999  0.00  0.00    -0.002 A 
ATOM      2  C1  UNL d   1       2.240  -5.832   5.812  0.00  0.00     0.010 A 
ATOM      3  C2  UNL d   1       2.723  -4.847   4.949  0.00  0.00     0.041 A 
ATOM      4  C3  UNL d   1       1.802  -4.024   4.271  0.00  0.00    -0.075 A 
ATOM      5  S   UNL d   1       2.163  -2.751   3.165  0.00  0.00     0.015 SA
ATOM      6  C4  UNL d   1       0.514  -2.399   2.916  0.00  0.00     0.022 A 
ATOM      7  C5  UNL d   1      -0.306  -3.223   3.650  0.00  0.00     0.026 A 
ATOM      8  C6  UNL d   1       0.423  -4.173   4.444  0.00  0.00    -0.082 A 
ATOM      9  C7  UNL d   1      -0.035  -5.181   5.325  0.00  0.00     0.045 A 
ENDROOT
TORSDOF 0
ENDMDL
