MODEL 1
REMARK minimizedAffinity 10.7006512
REMARK minimizedRMSD -1
REMARK  0 active torsions:
REMARK  status: ('A' for Active; 'I' for Inactive)
ROOT
ATOM      1  C   UNL d   1       5.889  -1.710  -3.731  0.00  0.00    -0.002 A 
ATOM      2  C1  UNL d   1       4.683  -2.357  -3.960  0.00  0.00     0.010 A 
ATOM      3  C2  UNL d   1       3.566  -2.078  -3.171  0.00  0.00     0.041 A 
ATOM      4  C3  UNL d   1       3.681  -1.126  -2.138  0.00  0.00    -0.075 A 
ATOM      5  S   UNL d   1       2.447  -0.622  -1.046  0.00  0.00     0.015 SA
ATOM      6  C4  UNL d   1       3.491   0.465  -0.250  0.00  0.00     0.022 A 
ATOM      7  C5  UNL d   1       4.754   0.456  -0.792  0.00  0.00     0.026 A 
ATOM      8  C6  UNL d   1       4.885  -0.460  -1.889  0.00  0.00    -0.082 A 
ATOM      9  C7  UNL d   1       6.000  -0.767  -2.706  0.00  0.00     0.045 A 
ENDROOT
TORSDOF 0
ENDMDL
