MODEL 1
REMARK minimizedAffinity 12.248188
REMARK minimizedRMSD -1
REMARK  1 active torsions:
REMARK  status: ('A' for Active; 'I' for Inactive)
REMARK    1  A    between atoms: C1_2  and  C2_3 
ROOT
ATOM      1  C2  UNL d   1       4.837   1.197  -2.092  0.00  0.00    -0.077 A 
ATOM      2  C3  UNL d   1       4.058   1.169  -0.926  0.00  0.00     0.002 A 
ATOM      3  C4  UNL d   1       3.010   0.255  -0.799  0.00  0.00     0.002 A 
ATOM      4  C5  UNL d   1       2.733  -0.638  -1.832  0.00  0.00    -0.004 A 
ATOM      5  C6  UNL d   1       3.500  -0.617  -2.996  0.00  0.00     0.002 A 
ATOM      6  C7  UNL d   1       4.548   0.296  -3.125  0.00  0.00     0.002 A 
ENDROOT
BRANCH   1   7
ATOM      7  C1  UNL d   1       5.999   2.148  -2.211  0.00  0.00     0.055 C 
ATOM      8  C   UNL d   1       5.589   3.438  -2.905  0.00  0.00     0.019 C 
ENDBRANCH   1   7
TORSDOF 1
ENDMDL
