MODEL 1
REMARK minimizedAffinity 6.64814806
REMARK minimizedRMSD -1
REMARK  1 active torsions:
REMARK  status: ('A' for Active; 'I' for Inactive)
REMARK    1  A    between atoms: C1_2  and  C2_3 
ROOT
ATOM      1  C2  UNL d   1       3.112   3.782   3.855  0.00  0.00    -0.077 A 
ATOM      2  C3  UNL d   1       4.403   4.129   3.434  0.00  0.00     0.002 A 
ATOM      3  C4  UNL d   1       5.263   4.819   4.290  0.00  0.00     0.002 A 
ATOM      4  C5  UNL d   1       4.844   5.164   5.573  0.00  0.00    -0.004 A 
ATOM      5  C6  UNL d   1       3.560   4.825   6.000  0.00  0.00     0.002 A 
ATOM      6  C7  UNL d   1       2.699   4.137   5.145  0.00  0.00     0.002 A 
ENDROOT
BRANCH   1   7
ATOM      7  C1  UNL d   1       2.200   2.994   2.951  0.00  0.00     0.055 C 
ATOM      8  C   UNL d   1       1.096   2.306   3.741  0.00  0.00     0.019 C 
ENDBRANCH   1   7
TORSDOF 1
ENDMDL
