MODEL 1
REMARK minimizedAffinity 1.31367695
REMARK minimizedRMSD -1
REMARK  1 active torsions:
REMARK  status: ('A' for Active; 'I' for Inactive)
REMARK    1  A    between atoms: C1_2  and  C2_3 
ROOT
ATOM      1  C2  UNL d   1       5.193   1.743  -2.039  0.00  0.00    -0.077 A 
ATOM      2  C3  UNL d   1       5.310   1.815  -0.643  0.00  0.00     0.002 A 
ATOM      3  C4  UNL d   1       4.652   0.889   0.169  0.00  0.00     0.002 A 
ATOM      4  C5  UNL d   1       3.878  -0.117  -0.404  0.00  0.00    -0.004 A 
ATOM      5  C6  UNL d   1       3.755  -0.197  -1.791  0.00  0.00     0.002 A 
ATOM      6  C7  UNL d   1       4.410   0.729  -2.604  0.00  0.00     0.002 A 
ENDROOT
BRANCH   1   7
ATOM      7  C1  UNL d   1       5.941   2.711  -2.918  0.00  0.00     0.055 C 
ATOM      8  C   UNL d   1       5.508   4.146  -2.655  0.00  0.00     0.019 C 
ENDBRANCH   1   7
TORSDOF 1
ENDMDL
