MODEL 1
REMARK minimizedAffinity 0.126643971
REMARK minimizedRMSD -1
REMARK  1 active torsions:
REMARK  status: ('A' for Active; 'I' for Inactive)
REMARK    1  A    between atoms: C1_2  and  C2_3 
ROOT
ATOM      1  C2  UNL d   1      -1.864   2.817   2.174  0.00  0.00    -0.077 A 
ATOM      2  C3  UNL d   1      -3.203   2.403   2.224  0.00  0.00     0.002 A 
ATOM      3  C4  UNL d   1      -3.883   2.071   1.051  0.00  0.00     0.002 A 
ATOM      4  C5  UNL d   1      -3.233   2.147  -0.179  0.00  0.00    -0.004 A 
ATOM      5  C6  UNL d   1      -1.902   2.559  -0.239  0.00  0.00     0.002 A 
ATOM      6  C7  UNL d   1      -1.221   2.892   0.932  0.00  0.00     0.002 A 
ENDROOT
BRANCH   1   7
ATOM      7  C1  UNL d   1      -1.114   3.128   3.443  0.00  0.00     0.055 C 
ATOM      8  C   UNL d   1       0.213   2.385   3.497  0.00  0.00     0.019 C 
ENDBRANCH   1   7
TORSDOF 1
ENDMDL
