MODEL 1
REMARK minimizedAffinity 1.2576896
REMARK minimizedRMSD -1
REMARK  1 active torsions:
REMARK  status: ('A' for Active; 'I' for Inactive)
REMARK    1  A    between atoms: C1_2  and  C2_3 
ROOT
ATOM      1  C2  UNL d   1       1.173   0.198  -0.318  0.00  0.00    -0.077 A 
ATOM      2  C3  UNL d   1      -0.165  -0.008  -0.683  0.00  0.00     0.002 A 
ATOM      3  C4  UNL d   1      -0.639  -1.299  -0.927  0.00  0.00     0.002 A 
ATOM      4  C5  UNL d   1       0.216  -2.392  -0.803  0.00  0.00    -0.004 A 
ATOM      5  C6  UNL d   1       1.548  -2.197  -0.442  0.00  0.00     0.002 A 
ATOM      6  C7  UNL d   1       2.024  -0.907  -0.200  0.00  0.00     0.002 A 
ENDROOT
BRANCH   1   7
ATOM      7  C1  UNL d   1       1.674   1.585  -0.007  0.00  0.00     0.055 C 
ATOM      8  C   UNL d   1       3.132   1.749  -0.409  0.00  0.00     0.019 C 
ENDBRANCH   1   7
TORSDOF 1
ENDMDL
