MODEL 1
REMARK minimizedAffinity -1.45686877
REMARK minimizedRMSD -1
REMARK  0 active torsions:
REMARK  status: ('A' for Active; 'I' for Inactive)
ROOT
ATOM      1  C   UNL d   1      -0.338  -0.005   0.964  0.00  0.00    -0.002 A 
ATOM      2  C1  UNL d   1       0.023  -0.732  -0.161  0.00  0.00     0.010 A 
ATOM      3  C2  UNL d   1      -0.138  -0.191  -1.438  0.00  0.00     0.041 A 
ATOM      4  C3  UNL d   1      -0.673   1.106  -1.566  0.00  0.00    -0.075 A 
ATOM      5  S   UNL d   1      -0.960   1.973  -3.029  0.00  0.00     0.015 SA
ATOM      6  C4  UNL d   1      -1.569   3.328  -2.194  0.00  0.00     0.022 A 
ATOM      7  C5  UNL d   1      -1.560   3.141  -0.832  0.00  0.00     0.026 A 
ATOM      8  C6  UNL d   1      -1.043   1.858  -0.447  0.00  0.00    -0.082 A 
ATOM      9  C7  UNL d   1      -0.868   1.281   0.833  0.00  0.00     0.045 A 
ENDROOT
TORSDOF 0
ENDMDL
