MODEL 1
REMARK minimizedAffinity -4.05510807
REMARK minimizedRMSD -1
REMARK  0 active torsions:
REMARK  status: ('A' for Active; 'I' for Inactive)
ROOT
ATOM      1  C   UNL d   1      -0.999  -0.466   2.036  0.00  0.00    -0.002 A 
ATOM      2  C1  UNL d   1       0.366  -0.359   1.809  0.00  0.00     0.010 A 
ATOM      3  C2  UNL d   1       0.849   0.107   0.585  0.00  0.00     0.041 A 
ATOM      4  C3  UNL d   1      -0.073   0.469  -0.418  0.00  0.00    -0.075 A 
ATOM      5  S   UNL d   1       0.288   1.066  -1.994  0.00  0.00     0.015 SA
ATOM      6  C4  UNL d   1      -1.361   1.194  -2.404  0.00  0.00     0.022 A 
ATOM      7  C5  UNL d   1      -2.181   0.795  -1.375  0.00  0.00     0.026 A 
ATOM      8  C6  UNL d   1      -1.452   0.371  -0.213  0.00  0.00    -0.082 A 
ATOM      9  C7  UNL d   1      -1.910  -0.106   1.039  0.00  0.00     0.045 A 
ENDROOT
TORSDOF 0
ENDMDL
