MODEL 1
REMARK minimizedAffinity -0.916214585
REMARK minimizedRMSD -1
REMARK  0 active torsions:
REMARK  status: ('A' for Active; 'I' for Inactive)
ROOT
ATOM      1  C   UNL d   1       0.963  -1.795   2.686  0.00  0.00    -0.002 A 
ATOM      2  C1  UNL d   1       1.907  -2.441   1.900  0.00  0.00     0.010 A 
ATOM      3  C2  UNL d   1       1.945  -2.231   0.520  0.00  0.00     0.041 A 
ATOM      4  C3  UNL d   1       1.011  -1.351  -0.062  0.00  0.00    -0.075 A 
ATOM      5  S   UNL d   1       0.870  -0.941  -1.731  0.00  0.00     0.015 SA
ATOM      6  C4  UNL d   1      -0.446   0.102  -1.439  0.00  0.00     0.022 A 
ATOM      7  C5  UNL d   1      -0.783   0.148  -0.107  0.00  0.00     0.026 A 
ATOM      8  C6  UNL d   1       0.052  -0.689   0.709  0.00  0.00    -0.082 A 
ATOM      9  C7  UNL d   1       0.038  -0.923   2.105  0.00  0.00     0.045 A 
ENDROOT
TORSDOF 0
ENDMDL
