MODEL 1
REMARK minimizedAffinity 0.114212379
REMARK minimizedRMSD -1
REMARK  0 active torsions:
REMARK  status: ('A' for Active; 'I' for Inactive)
ROOT
ATOM      1  C   UNL d   1       0.971   3.605  -2.008  0.00  0.00    -0.002 A 
ATOM      2  C1  UNL d   1      -0.397   3.408  -1.891  0.00  0.00     0.010 A 
ATOM      3  C2  UNL d   1      -0.904   2.179  -1.463  0.00  0.00     0.041 A 
ATOM      4  C3  UNL d   1      -0.004   1.142  -1.151  0.00  0.00    -0.075 A 
ATOM      5  S   UNL d   1      -0.396  -0.447  -0.607  0.00  0.00     0.015 SA
ATOM      6  C4  UNL d   1       1.244  -0.901  -0.517  0.00  0.00     0.022 A 
ATOM      7  C5  UNL d   1       2.084   0.122  -0.889  0.00  0.00     0.026 A 
ATOM      8  C6  UNL d   1       1.379   1.316  -1.260  0.00  0.00    -0.082 A 
ATOM      9  C7  UNL d   1       1.862   2.573  -1.697  0.00  0.00     0.045 A 
ENDROOT
TORSDOF 0
ENDMDL
