MODEL 1
REMARK minimizedAffinity -0.936954141
REMARK minimizedRMSD -1
REMARK  0 active torsions:
REMARK  status: ('A' for Active; 'I' for Inactive)
ROOT
ATOM      1  C   UNL d   1       1.187   0.210   3.130  0.00  0.00    -0.002 A 
ATOM      2  C1  UNL d   1       0.608  -1.044   2.999  0.00  0.00     0.010 A 
ATOM      3  C2  UNL d   1      -0.093  -1.385   1.841  0.00  0.00     0.041 A 
ATOM      4  C3  UNL d   1      -0.202  -0.435   0.805  0.00  0.00    -0.075 A 
ATOM      5  S   UNL d   1      -1.012  -0.631  -0.704  0.00  0.00     0.015 SA
ATOM      6  C4  UNL d   1      -0.607   0.945  -1.210  0.00  0.00     0.022 A 
ATOM      7  C5  UNL d   1       0.128   1.618  -0.263  0.00  0.00     0.026 A 
ATOM      8  C6  UNL d   1       0.374   0.834   0.914  0.00  0.00    -0.082 A 
ATOM      9  C7  UNL d   1       1.077   1.149   2.101  0.00  0.00     0.045 A 
ENDROOT
TORSDOF 0
ENDMDL
