MODEL 1
REMARK minimizedAffinity -1.09973109
REMARK minimizedRMSD -1
REMARK  0 active torsions:
REMARK  status: ('A' for Active; 'I' for Inactive)
ROOT
ATOM      1  C   UNL d   1      -2.844   0.626   2.190  0.00  0.00    -0.002 A 
ATOM      2  C1  UNL d   1      -2.673  -0.209   1.094  0.00  0.00     0.010 A 
ATOM      3  C2  UNL d   1      -1.470  -0.892   0.903  0.00  0.00     0.041 A 
ATOM      4  C3  UNL d   1      -0.433  -0.723   1.841  0.00  0.00    -0.075 A 
ATOM      5  S   UNL d   1       1.125  -1.459   1.812  0.00  0.00     0.015 SA
ATOM      6  C4  UNL d   1       1.600  -0.684   3.254  0.00  0.00     0.022 A 
ATOM      7  C5  UNL d   1       0.607   0.121   3.758  0.00  0.00     0.026 A 
ATOM      8  C6  UNL d   1      -0.582   0.112   2.953  0.00  0.00    -0.082 A 
ATOM      9  C7  UNL d   1      -1.813   0.792   3.118  0.00  0.00     0.045 A 
ENDROOT
TORSDOF 0
ENDMDL
