MODEL 1
REMARK minimizedAffinity 9.63203812
REMARK minimizedRMSD -1
REMARK  0 active torsions:
REMARK  status: ('A' for Active; 'I' for Inactive)
ROOT
ATOM      1  C   UNL d   1      -5.999  -1.873  -2.094  0.00  0.00     0.078 C 
ATOM      2  C1  UNL d   1      -5.376  -0.941  -1.098  0.00  0.00    -0.077 A 
ATOM      3  C2  UNL d   1      -5.927   0.323  -0.850  0.00  0.00    -0.001 A 
ATOM      4  C3  UNL d   1      -5.331   1.184   0.072  0.00  0.00     0.003 A 
ATOM      5  C4  UNL d   1      -4.181   0.792   0.753  0.00  0.00    -0.005 A 
ATOM      6  C5  UNL d   1      -3.624  -0.462   0.511  0.00  0.00     0.003 A 
ATOM      7  C6  UNL d   1      -4.218  -1.325  -0.411  0.00  0.00    -0.001 A 
ENDROOT
TORSDOF 0
ENDMDL
