MODEL 1
REMARK minimizedAffinity 8.68446541
REMARK minimizedRMSD -1
REMARK  0 active torsions:
REMARK  status: ('A' for Active; 'I' for Inactive)
ROOT
ATOM      1  C   UNL d   1      -6.000  -1.486  -0.741  0.00  0.00     0.078 C 
ATOM      2  C1  UNL d   1      -4.841  -0.930   0.031  0.00  0.00    -0.077 A 
ATOM      3  C2  UNL d   1      -4.031  -1.761   0.815  0.00  0.00    -0.001 A 
ATOM      4  C3  UNL d   1      -2.961  -1.228   1.536  0.00  0.00     0.003 A 
ATOM      5  C4  UNL d   1      -2.692   0.138   1.482  0.00  0.00    -0.005 A 
ATOM      6  C5  UNL d   1      -3.494   0.974   0.706  0.00  0.00     0.003 A 
ATOM      7  C6  UNL d   1      -4.564   0.443  -0.015  0.00  0.00    -0.001 A 
ENDROOT
TORSDOF 0
ENDMDL
