MODEL 1
REMARK minimizedAffinity 2.89657164
REMARK minimizedRMSD -1
REMARK  0 active torsions:
REMARK  status: ('A' for Active; 'I' for Inactive)
ROOT
ATOM      1  C   UNL d   1       1.542  -1.498   5.997  0.00  0.00     0.078 C 
ATOM      2  C1  UNL d   1       1.047  -2.914   5.990  0.00  0.00    -0.077 A 
ATOM      3  C2  UNL d   1      -0.324  -3.199   5.995  0.00  0.00    -0.001 A 
ATOM      4  C3  UNL d   1      -0.769  -4.522   5.999  0.00  0.00     0.003 A 
ATOM      5  C4  UNL d   1       0.149  -5.570   6.000  0.00  0.00    -0.005 A 
ATOM      6  C5  UNL d   1       1.515  -5.296   5.998  0.00  0.00     0.003 A 
ATOM      7  C6  UNL d   1       1.963  -3.974   5.994  0.00  0.00    -0.001 A 
ENDROOT
TORSDOF 0
ENDMDL
