MODEL 1
REMARK minimizedAffinity -0.0982974991
REMARK minimizedRMSD -1
REMARK  0 active torsions:
REMARK  status: ('A' for Active; 'I' for Inactive)
ROOT
ATOM      1  C   UNL d   1      -0.216   0.399  -1.284  0.00  0.00     0.078 C 
ATOM      2  C1  UNL d   1       0.907  -0.004  -0.376  0.00  0.00    -0.077 A 
ATOM      3  C2  UNL d   1       1.896  -0.897  -0.805  0.00  0.00    -0.001 A 
ATOM      4  C3  UNL d   1       2.930  -1.272   0.055  0.00  0.00     0.003 A 
ATOM      5  C4  UNL d   1       2.984  -0.759   1.349  0.00  0.00    -0.005 A 
ATOM      6  C5  UNL d   1       2.003   0.129   1.786  0.00  0.00     0.003 A 
ATOM      7  C6  UNL d   1       0.968   0.505   0.928  0.00  0.00    -0.001 A 
ENDROOT
TORSDOF 0
ENDMDL
