MODEL 1
REMARK minimizedAffinity -1.49988794
REMARK minimizedRMSD -1
REMARK  0 active torsions:
REMARK  status: ('A' for Active; 'I' for Inactive)
ROOT
ATOM      1  C   UNL d   1       0.364  -0.838   6.000  0.00  0.00     0.078 C 
ATOM      2  C1  UNL d   1       0.430  -2.337   5.991  0.00  0.00    -0.077 A 
ATOM      3  C2  UNL d   1      -0.738  -3.110   5.990  0.00  0.00    -0.001 A 
ATOM      4  C3  UNL d   1      -0.661  -4.503   5.991  0.00  0.00     0.003 A 
ATOM      5  C4  UNL d   1       0.580  -5.136   5.996  0.00  0.00    -0.005 A 
ATOM      6  C5  UNL d   1       1.747  -4.375   5.999  0.00  0.00     0.003 A 
ATOM      7  C6  UNL d   1       1.673  -2.982   5.998  0.00  0.00    -0.001 A 
ENDROOT
TORSDOF 0
ENDMDL
