MODEL 1
REMARK minimizedAffinity 0.184776619
REMARK minimizedRMSD -1
REMARK  0 active torsions:
REMARK  status: ('A' for Active; 'I' for Inactive)
ROOT
ATOM      1  C   UNL d   1      -1.129  -5.321   5.982  0.00  0.00     0.078 C 
ATOM      2  C1  UNL d   1      -0.274  -4.089   5.995  0.00  0.00    -0.077 A 
ATOM      3  C2  UNL d   1      -0.848  -2.812   5.996  0.00  0.00    -0.001 A 
ATOM      4  C3  UNL d   1      -0.040  -1.675   5.999  0.00  0.00     0.003 A 
ATOM      5  C4  UNL d   1       1.347  -1.802   5.999  0.00  0.00    -0.005 A 
ATOM      6  C5  UNL d   1       1.928  -3.069   5.996  0.00  0.00     0.003 A 
ATOM      7  C6  UNL d   1       1.122  -4.208   5.993  0.00  0.00    -0.001 A 
ENDROOT
TORSDOF 0
ENDMDL
