MODEL 1
REMARK minimizedAffinity -0.842849016
REMARK minimizedRMSD -1
REMARK  0 active torsions:
REMARK  status: ('A' for Active; 'I' for Inactive)
ROOT
ATOM      1  C   UNL d   1       2.455  -4.956   5.978  0.00  0.00     0.078 C 
ATOM      2  C1  UNL d   1       1.275  -4.030   5.993  0.00  0.00    -0.077 A 
ATOM      3  C2  UNL d   1      -0.033  -4.530   5.993  0.00  0.00    -0.001 A 
ATOM      4  C3  UNL d   1      -1.122  -3.656   5.997  0.00  0.00     0.003 A 
ATOM      5  C4  UNL d   1      -0.914  -2.278   6.000  0.00  0.00    -0.005 A 
ATOM      6  C5  UNL d   1       0.385  -1.772   5.998  0.00  0.00     0.003 A 
ATOM      7  C6  UNL d   1       1.475  -2.644   5.994  0.00  0.00    -0.001 A 
ENDROOT
TORSDOF 0
ENDMDL
