MODEL 1
REMARK minimizedAffinity 1.30569685
REMARK minimizedRMSD -1
REMARK  0 active torsions:
REMARK  status: ('A' for Active; 'I' for Inactive)
ROOT
ATOM      1  C   UNL d   1       2.775  -5.936   5.997  0.00  0.00     0.078 C 
ATOM      2  C1  UNL d   1       1.588  -5.019   5.999  0.00  0.00    -0.077 A 
ATOM      3  C2  UNL d   1       0.284  -5.527   5.988  0.00  0.00    -0.001 A 
ATOM      4  C3  UNL d   1      -0.811  -4.662   5.980  0.00  0.00     0.003 A 
ATOM      5  C4  UNL d   1      -0.612  -3.282   5.982  0.00  0.00    -0.005 A 
ATOM      6  C5  UNL d   1       0.682  -2.767   5.990  0.00  0.00     0.003 A 
ATOM      7  C6  UNL d   1       1.778  -3.631   5.998  0.00  0.00    -0.001 A 
ENDROOT
TORSDOF 0
ENDMDL
