MODEL 1
REMARK minimizedAffinity 0.459190905
REMARK minimizedRMSD -1
REMARK  0 active torsions:
REMARK  status: ('A' for Active; 'I' for Inactive)
ROOT
ATOM      1  C   UNL d   1       3.035  -5.948   5.989  0.00  0.00     0.078 C 
ATOM      2  C1  UNL d   1       1.820  -5.069   6.000  0.00  0.00    -0.077 A 
ATOM      3  C2  UNL d   1       0.532  -5.619   5.997  0.00  0.00    -0.001 A 
ATOM      4  C3  UNL d   1      -0.590  -4.790   5.997  0.00  0.00     0.003 A 
ATOM      5  C4  UNL d   1      -0.436  -3.405   5.999  0.00  0.00    -0.005 A 
ATOM      6  C5  UNL d   1       0.841  -2.848   6.000  0.00  0.00     0.003 A 
ATOM      7  C6  UNL d   1       1.965  -3.676   5.999  0.00  0.00    -0.001 A 
ENDROOT
TORSDOF 0
ENDMDL
