MODEL 1
REMARK minimizedAffinity -0.475516289
REMARK minimizedRMSD -1
REMARK  0 active torsions:
REMARK  status: ('A' for Active; 'I' for Inactive)
ROOT
ATOM      1  C   UNL d   1       0.244  -1.729   6.000  0.00  0.00     0.078 C 
ATOM      2  C1  UNL d   1       0.061  -3.218   5.990  0.00  0.00    -0.077 A 
ATOM      3  C2  UNL d   1       1.164  -4.080   6.000  0.00  0.00    -0.001 A 
ATOM      4  C3  UNL d   1       0.979  -5.463   5.981  0.00  0.00     0.003 A 
ATOM      5  C4  UNL d   1      -0.308  -5.997   5.951  0.00  0.00    -0.005 A 
ATOM      6  C5  UNL d   1      -1.412  -5.146   5.939  0.00  0.00     0.003 A 
ATOM      7  C6  UNL d   1      -1.229  -3.763   5.958  0.00  0.00    -0.001 A 
ENDROOT
TORSDOF 0
ENDMDL
