MODEL 1
REMARK minimizedAffinity -0.896740675
REMARK minimizedRMSD -1
REMARK  0 active torsions:
REMARK  status: ('A' for Active; 'I' for Inactive)
ROOT
ATOM      1  C   UNL d   1       0.773  -1.087   6.000  0.00  0.00     0.078 C 
ATOM      2  C1  UNL d   1       0.518  -2.565   5.993  0.00  0.00    -0.077 A 
ATOM      3  C2  UNL d   1      -0.788  -3.072   5.995  0.00  0.00    -0.001 A 
ATOM      4  C3  UNL d   1      -1.010  -4.450   5.998  0.00  0.00     0.003 A 
ATOM      5  C4  UNL d   1       0.068  -5.332   6.000  0.00  0.00    -0.005 A 
ATOM      6  C5  UNL d   1       1.371  -4.837   5.999  0.00  0.00     0.003 A 
ATOM      7  C6  UNL d   1       1.595  -3.460   5.996  0.00  0.00    -0.001 A 
ENDROOT
TORSDOF 0
ENDMDL
