MODEL 1
REMARK minimizedAffinity 8.90172386
REMARK minimizedRMSD -1
REMARK  1 active torsions:
REMARK  status: ('A' for Active; 'I' for Inactive)
REMARK    1  A    between atoms: C1_2  and  C2_3 
ROOT
ATOM      1  C2  UNL d   1       1.885  -0.391   4.552  0.00  0.00    -0.076 A 
ATOM      2  C3  UNL d   1       1.845  -1.136   3.360  0.00  0.00     0.004 A 
ATOM      3  C4  UNL d   1       1.040  -0.739   2.293  0.00  0.00    -0.003 A 
ATOM      4  C5  UNL d   1       0.264   0.410   2.401  0.00  0.00     0.000 A 
ATOM      5  C6  UNL d   1       0.305   1.170   3.569  0.00  0.00     0.000 A 
ATOM      6  C7  UNL d   1       1.123   0.792   4.648  0.00  0.00    -0.073 A 
ATOM      7  C8  UNL d   1       1.124   1.646   5.886  0.00  0.00     0.078 C 
ENDROOT
BRANCH   1   8
ATOM      8  C1  UNL d   1       2.756  -0.886   5.685  0.00  0.00     0.053 C 
ATOM      9  C   UNL d   1       4.156  -0.294   5.646  0.00  0.00     0.018 C 
ENDBRANCH   1   8
TORSDOF 1
ENDMDL
