MODEL 1
REMARK minimizedAffinity 12.8389683
REMARK minimizedRMSD -1
REMARK  1 active torsions:
REMARK  status: ('A' for Active; 'I' for Inactive)
REMARK    1  A    between atoms: C1_2  and  C2_3 
ROOT
ATOM      1  C2  UNL d   1       4.445   3.711   2.747  0.00  0.00    -0.076 A 
ATOM      2  C3  UNL d   1       4.477   5.072   2.395  0.00  0.00     0.004 A 
ATOM      3  C4  UNL d   1       5.247   5.982   3.118  0.00  0.00    -0.003 A 
ATOM      4  C5  UNL d   1       5.999   5.545   4.203  0.00  0.00     0.000 A 
ATOM      5  C6  UNL d   1       5.994   4.196   4.554  0.00  0.00     0.000 A 
ATOM      6  C7  UNL d   1       5.235   3.263   3.827  0.00  0.00    -0.073 A 
ATOM      7  C8  UNL d   1       5.261   1.821   4.254  0.00  0.00     0.078 C 
ENDROOT
BRANCH   1   8
ATOM      8  C1  UNL d   1       3.570   2.776   1.943  0.00  0.00     0.053 C 
ATOM      9  C   UNL d   1       2.785   3.499   0.860  0.00  0.00     0.018 C 
ENDBRANCH   1   8
TORSDOF 1
ENDMDL
