MODEL 1
REMARK minimizedAffinity 7.33546066
REMARK minimizedRMSD -1
REMARK  1 active torsions:
REMARK  status: ('A' for Active; 'I' for Inactive)
REMARK    1  A    between atoms: C1_2  and  C2_3 
ROOT
ATOM      1  C2  UNL d   1       0.414  -0.253   2.941  0.00  0.00    -0.076 A 
ATOM      2  C3  UNL d   1       1.667  -0.579   3.489  0.00  0.00     0.004 A 
ATOM      3  C4  UNL d   1       1.879  -1.806   4.115  0.00  0.00    -0.003 A 
ATOM      4  C5  UNL d   1       0.842  -2.729   4.202  0.00  0.00     0.000 A 
ATOM      5  C6  UNL d   1      -0.402  -2.429   3.647  0.00  0.00     0.000 A 
ATOM      6  C7  UNL d   1      -0.628  -1.203   2.999  0.00  0.00    -0.073 A 
ATOM      7  C8  UNL d   1      -1.992  -0.931   2.425  0.00  0.00     0.078 C 
ENDROOT
BRANCH   1   8
ATOM      8  C1  UNL d   1       0.235   1.104   2.299  0.00  0.00     0.053 C 
ATOM      9  C   UNL d   1      -0.597   2.048   3.153  0.00  0.00     0.018 C 
ENDBRANCH   1   8
TORSDOF 1
ENDMDL
