MODEL 1
REMARK minimizedAffinity 6.80773258
REMARK minimizedRMSD -1
REMARK  1 active torsions:
REMARK  status: ('A' for Active; 'I' for Inactive)
REMARK    1  A    between atoms: C1_2  and  C2_3 
ROOT
ATOM      1  C2  UNL d   1      -1.099  -2.683  -4.488  0.00  0.00    -0.076 A 
ATOM      2  C3  UNL d   1      -1.308  -3.371  -5.696  0.00  0.00     0.004 A 
ATOM      3  C4  UNL d   1      -1.619  -4.730  -5.703  0.00  0.00    -0.003 A 
ATOM      4  C5  UNL d   1      -1.728  -5.422  -4.503  0.00  0.00     0.000 A 
ATOM      5  C6  UNL d   1      -1.542  -4.751  -3.294  0.00  0.00     0.000 A 
ATOM      6  C7  UNL d   1      -1.243  -3.378  -3.269  0.00  0.00    -0.073 A 
ATOM      7  C8  UNL d   1      -1.047  -2.707  -1.937  0.00  0.00     0.078 C 
ENDROOT
BRANCH   1   8
ATOM      8  C1  UNL d   1      -0.737  -1.216  -4.544  0.00  0.00     0.053 C 
ATOM      9  C   UNL d   1       0.637  -0.932  -3.957  0.00  0.00     0.018 C 
ENDBRANCH   1   8
TORSDOF 1
ENDMDL
