MODEL 1
REMARK minimizedAffinity 6.14899158
REMARK minimizedRMSD -1
REMARK  1 active torsions:
REMARK  status: ('A' for Active; 'I' for Inactive)
REMARK    1  A    between atoms: C1_2  and  C2_3 
ROOT
ATOM      1  C2  UNL d   1       0.567  -0.239   3.034  0.00  0.00    -0.076 A 
ATOM      2  C3  UNL d   1       0.440  -1.348   2.179  0.00  0.00     0.004 A 
ATOM      3  C4  UNL d   1      -0.657  -1.477   1.329  0.00  0.00    -0.003 A 
ATOM      4  C5  UNL d   1      -1.645  -0.499   1.320  0.00  0.00     0.000 A 
ATOM      5  C6  UNL d   1      -1.527   0.616   2.149  0.00  0.00     0.000 A 
ATOM      6  C7  UNL d   1      -0.420   0.770   3.000  0.00  0.00    -0.073 A 
ATOM      7  C8  UNL d   1      -0.347   1.989   3.877  0.00  0.00     0.078 C 
ENDROOT
BRANCH   1   8
ATOM      8  C1  UNL d   1       1.765  -0.167   3.953  0.00  0.00     0.053 C 
ATOM      9  C   UNL d   1       1.665  -1.138   5.119  0.00  0.00     0.018 C 
ENDBRANCH   1   8
TORSDOF 1
ENDMDL
