MODEL 1
REMARK minimizedAffinity 10.911747
REMARK minimizedRMSD -1
REMARK  1 active torsions:
REMARK  status: ('A' for Active; 'I' for Inactive)
REMARK    1  A    between atoms: C1_2  and  C2_3 
ROOT
ATOM      1  C2  UNL d   1      -1.198  -2.887  -4.621  0.00  0.00    -0.076 A 
ATOM      2  C3  UNL d   1      -1.095  -3.566  -5.847  0.00  0.00     0.004 A 
ATOM      3  C4  UNL d   1      -1.551  -4.876  -5.983  0.00  0.00    -0.003 A 
ATOM      4  C5  UNL d   1      -2.119  -5.528  -4.893  0.00  0.00     0.000 A 
ATOM      5  C6  UNL d   1      -2.245  -4.864  -3.674  0.00  0.00     0.000 A 
ATOM      6  C7  UNL d   1      -1.804  -3.538  -3.525  0.00  0.00    -0.073 A 
ATOM      7  C8  UNL d   1      -1.960  -2.872  -2.185  0.00  0.00     0.078 C 
ENDROOT
BRANCH   1   8
ATOM      8  C1  UNL d   1      -0.661  -1.477  -4.526  0.00  0.00     0.053 C 
ATOM      9  C   UNL d   1       0.716  -1.419  -3.882  0.00  0.00     0.018 C 
ENDBRANCH   1   8
TORSDOF 1
ENDMDL
