MODEL 1
REMARK minimizedAffinity 12.3136768
REMARK minimizedRMSD -1
REMARK  1 active torsions:
REMARK  status: ('A' for Active; 'I' for Inactive)
REMARK    1  A    between atoms: C1_2  and  C2_3 
ROOT
ATOM      1  C2  UNL d   1       0.133  -1.095  -3.371  0.00  0.00    -0.076 A 
ATOM      2  C3  UNL d   1      -0.259  -1.590  -2.115  0.00  0.00     0.004 A 
ATOM      3  C4  UNL d   1      -1.255  -2.560  -2.006  0.00  0.00    -0.003 A 
ATOM      4  C5  UNL d   1      -1.874  -3.050  -3.150  0.00  0.00     0.000 A 
ATOM      5  C6  UNL d   1      -1.486  -2.582  -4.405  0.00  0.00     0.000 A 
ATOM      6  C7  UNL d   1      -0.473  -1.617  -4.534  0.00  0.00    -0.073 A 
ATOM      7  C8  UNL d   1      -0.098  -1.144  -5.912  0.00  0.00     0.078 C 
ENDROOT
BRANCH   1   8
ATOM      8  C1  UNL d   1       1.199  -0.024  -3.427  0.00  0.00     0.053 C 
ATOM      9  C   UNL d   1       2.574  -0.587  -3.752  0.00  0.00     0.018 C 
ENDBRANCH   1   8
TORSDOF 1
ENDMDL
