MODEL 1
REMARK minimizedAffinity 11.6657534
REMARK minimizedRMSD -1
REMARK  1 active torsions:
REMARK  status: ('A' for Active; 'I' for Inactive)
REMARK    1  A    between atoms: C1_2  and  C2_3 
ROOT
ATOM      1  C2  UNL d   1       1.708  -1.426  -3.122  0.00  0.00    -0.076 A 
ATOM      2  C3  UNL d   1       1.607  -1.947  -1.820  0.00  0.00     0.004 A 
ATOM      3  C4  UNL d   1       0.365  -2.126  -1.213  0.00  0.00    -0.003 A 
ATOM      4  C5  UNL d   1      -0.796  -1.789  -1.899  0.00  0.00     0.000 A 
ATOM      5  C6  UNL d   1      -0.716  -1.288  -3.197  0.00  0.00     0.000 A 
ATOM      6  C7  UNL d   1       0.527  -1.116  -3.830  0.00  0.00    -0.073 A 
ATOM      7  C8  UNL d   1       0.555  -0.565  -5.229  0.00  0.00     0.078 C 
ENDROOT
BRANCH   1   8
ATOM      8  C1  UNL d   1       3.083  -1.228  -3.718  0.00  0.00     0.053 C 
ATOM      9  C   UNL d   1       3.504   0.233  -3.740  0.00  0.00     0.018 C 
ENDBRANCH   1   8
TORSDOF 1
ENDMDL
