MODEL 1
REMARK minimizedAffinity 1.73326004
REMARK minimizedRMSD -1
REMARK  0 active torsions:
REMARK  status: ('A' for Active; 'I' for Inactive)
ROOT
ATOM      1  C   UNL d   1       2.737  -0.911  -0.700  0.00  0.00     0.078 C 
ATOM      2  C1  UNL d   1       1.736  -2.027  -0.694  0.00  0.00    -0.077 A 
ATOM      3  C2  UNL d   1       1.921  -3.158   0.110  0.00  0.00    -0.001 A 
ATOM      4  C3  UNL d   1       0.986  -4.194   0.099  0.00  0.00     0.003 A 
ATOM      5  C4  UNL d   1      -0.142  -4.109  -0.716  0.00  0.00    -0.005 A 
ATOM      6  C5  UNL d   1      -0.334  -2.989  -1.521  0.00  0.00     0.003 A 
ATOM      7  C6  UNL d   1       0.601  -1.952  -1.511  0.00  0.00    -0.001 A 
ENDROOT
TORSDOF 0
ENDMDL
