MODEL 1
REMARK minimizedAffinity -3.22193384
REMARK minimizedRMSD -1
REMARK  0 active torsions:
REMARK  status: ('A' for Active; 'I' for Inactive)
ROOT
ATOM      1  C   UNL d   1      -4.030   1.294   0.376  0.00  0.00     0.078 C 
ATOM      2  C1  UNL d   1      -2.576   1.609   0.564  0.00  0.00    -0.077 A 
ATOM      3  C2  UNL d   1      -1.673   1.507  -0.501  0.00  0.00    -0.001 A 
ATOM      4  C3  UNL d   1      -0.320   1.794  -0.309  0.00  0.00     0.003 A 
ATOM      5  C4  UNL d   1       0.141   2.184   0.946  0.00  0.00    -0.005 A 
ATOM      6  C5  UNL d   1      -0.750   2.286   2.013  0.00  0.00     0.003 A 
ATOM      7  C6  UNL d   1      -2.103   2.000   1.823  0.00  0.00    -0.001 A 
ENDROOT
TORSDOF 0
ENDMDL
