MODEL 1
REMARK minimizedAffinity 3.15545082
REMARK minimizedRMSD -1
REMARK  0 active torsions:
REMARK  status: ('A' for Active; 'I' for Inactive)
ROOT
ATOM      1  C   UNL d   1      -3.469   2.816   2.123  0.00  0.00     0.078 C 
ATOM      2  C1  UNL d   1      -1.989   2.686   1.922  0.00  0.00    -0.077 A 
ATOM      3  C2  UNL d   1      -1.326   3.429   0.938  0.00  0.00    -0.001 A 
ATOM      4  C3  UNL d   1       0.051   3.291   0.756  0.00  0.00     0.003 A 
ATOM      5  C4  UNL d   1       0.777   2.409   1.554  0.00  0.00    -0.005 A 
ATOM      6  C5  UNL d   1       0.126   1.664   2.535  0.00  0.00     0.003 A 
ATOM      7  C6  UNL d   1      -1.251   1.801   2.719  0.00  0.00    -0.001 A 
ENDROOT
TORSDOF 0
ENDMDL
