MODEL 1
REMARK minimizedAffinity 1.99752498
REMARK minimizedRMSD -1
REMARK  0 active torsions:
REMARK  status: ('A' for Active; 'I' for Inactive)
ROOT
ATOM      1  C   UNL d   1       1.260   1.667   0.294  0.00  0.00     0.078 C 
ATOM      2  C1  UNL d   1       0.136   1.648   1.286  0.00  0.00    -0.077 A 
ATOM      3  C2  UNL d   1       0.311   1.102   2.563  0.00  0.00    -0.001 A 
ATOM      4  C3  UNL d   1      -0.747   1.082   3.473  0.00  0.00     0.003 A 
ATOM      5  C4  UNL d   1      -1.988   1.605   3.115  0.00  0.00    -0.005 A 
ATOM      6  C5  UNL d   1      -2.172   2.149   1.846  0.00  0.00     0.003 A 
ATOM      7  C6  UNL d   1      -1.115   2.170   0.934  0.00  0.00    -0.001 A 
ENDROOT
TORSDOF 0
ENDMDL
