MODEL 1
REMARK minimizedAffinity 3.87308455
REMARK minimizedRMSD -1
REMARK  0 active torsions:
REMARK  status: ('A' for Active; 'I' for Inactive)
ROOT
ATOM      1  C   UNL d   1       1.143   1.328  -0.244  0.00  0.00     0.078 C 
ATOM      2  C1  UNL d   1       1.231  -0.157  -0.436  0.00  0.00    -0.077 A 
ATOM      3  C2  UNL d   1       2.460  -0.823  -0.354  0.00  0.00    -0.001 A 
ATOM      4  C3  UNL d   1       2.528  -2.204  -0.544  0.00  0.00     0.003 A 
ATOM      5  C4  UNL d   1       1.371  -2.931  -0.819  0.00  0.00    -0.005 A 
ATOM      6  C5  UNL d   1       0.144  -2.276  -0.905  0.00  0.00     0.003 A 
ATOM      7  C6  UNL d   1       0.074  -0.895  -0.715  0.00  0.00    -0.001 A 
ENDROOT
TORSDOF 0
ENDMDL
