MODEL 1
REMARK minimizedAffinity 1.81225145
REMARK minimizedRMSD -1
REMARK  0 active torsions:
REMARK  status: ('A' for Active; 'I' for Inactive)
ROOT
ATOM      1  C   UNL d   1       1.334   2.419   0.160  0.00  0.00     0.078 C 
ATOM      2  C1  UNL d   1       2.130   2.315   1.426  0.00  0.00    -0.077 A 
ATOM      3  C2  UNL d   1       1.656   1.576   2.517  0.00  0.00    -0.001 A 
ATOM      4  C3  UNL d   1       2.403   1.495   3.693  0.00  0.00     0.003 A 
ATOM      5  C4  UNL d   1       3.627   2.153   3.791  0.00  0.00    -0.005 A 
ATOM      6  C5  UNL d   1       4.106   2.893   2.712  0.00  0.00     0.003 A 
ATOM      7  C6  UNL d   1       3.361   2.974   1.534  0.00  0.00    -0.001 A 
ENDROOT
TORSDOF 0
ENDMDL
