MODEL 1
REMARK minimizedAffinity 1.71098411
REMARK minimizedRMSD -1
REMARK  0 active torsions:
REMARK  status: ('A' for Active; 'I' for Inactive)
ROOT
ATOM      1  C   UNL d   1       1.508   1.917  -0.037  0.00  0.00     0.078 C 
ATOM      2  C1  UNL d   1       1.830   0.453  -0.079  0.00  0.00    -0.077 A 
ATOM      3  C2  UNL d   1       0.819  -0.511   0.004  0.00  0.00    -0.001 A 
ATOM      4  C3  UNL d   1       1.134  -1.870  -0.026  0.00  0.00     0.003 A 
ATOM      5  C4  UNL d   1       2.462  -2.278  -0.139  0.00  0.00    -0.005 A 
ATOM      6  C5  UNL d   1       3.476  -1.325  -0.220  0.00  0.00     0.003 A 
ATOM      7  C6  UNL d   1       3.162   0.034  -0.190  0.00  0.00    -0.001 A 
ENDROOT
TORSDOF 0
ENDMDL
