MODEL 1
REMARK minimizedAffinity 1.78413117
REMARK minimizedRMSD -1
REMARK  0 active torsions:
REMARK  status: ('A' for Active; 'I' for Inactive)
ROOT
ATOM      1  C   UNL d   1       3.039  -0.705  -0.022  0.00  0.00     0.078 C 
ATOM      2  C1  UNL d   1       4.058   0.291  -0.491  0.00  0.00    -0.077 A 
ATOM      3  C2  UNL d   1       5.041   0.780   0.377  0.00  0.00    -0.001 A 
ATOM      4  C3  UNL d   1       5.977   1.714  -0.071  0.00  0.00     0.003 A 
ATOM      5  C4  UNL d   1       5.937   2.168  -1.388  0.00  0.00    -0.005 A 
ATOM      6  C5  UNL d   1       4.961   1.688  -2.258  0.00  0.00     0.003 A 
ATOM      7  C6  UNL d   1       4.024   0.754  -1.812  0.00  0.00    -0.001 A 
ENDROOT
TORSDOF 0
ENDMDL
