MODEL 1
REMARK minimizedAffinity 6.04654026
REMARK minimizedRMSD -1
REMARK  1 active torsions:
REMARK  status: ('A' for Active; 'I' for Inactive)
REMARK    1  A    between atoms: C1_2  and  C2_3 
ROOT
ATOM      1  C2  UNL d   1      -5.965  -2.302   3.258  0.00  0.00    -0.077 A 
ATOM      2  C3  UNL d   1      -5.969  -0.917   3.040  0.00  0.00     0.002 A 
ATOM      3  C4  UNL d   1      -5.983  -0.408   1.740  0.00  0.00     0.002 A 
ATOM      4  C5  UNL d   1      -5.998  -1.275   0.650  0.00  0.00    -0.004 A 
ATOM      5  C6  UNL d   1      -5.993  -2.654   0.857  0.00  0.00     0.002 A 
ATOM      6  C7  UNL d   1      -5.977  -3.165   2.155  0.00  0.00     0.002 A 
ENDROOT
BRANCH   1   7
ATOM      7  C1  UNL d   1      -6.000  -2.854   4.660  0.00  0.00     0.055 C 
ATOM      8  C   UNL d   1      -5.926  -1.741   5.695  0.00  0.00     0.019 C 
ENDBRANCH   1   7
TORSDOF 1
ENDMDL
