MODEL 1
REMARK minimizedAffinity -0.771446109
REMARK minimizedRMSD -1
REMARK  1 active torsions:
REMARK  status: ('A' for Active; 'I' for Inactive)
REMARK    1  A    between atoms: C1_2  and  C2_3 
ROOT
ATOM      1  C2  UNL d   1       0.739  -0.097   1.124  0.00  0.00    -0.077 A 
ATOM      2  C3  UNL d   1       1.361  -0.963   0.213  0.00  0.00     0.002 A 
ATOM      3  C4  UNL d   1       1.111  -0.846  -1.155  0.00  0.00     0.002 A 
ATOM      4  C5  UNL d   1       0.244   0.137  -1.626  0.00  0.00    -0.004 A 
ATOM      5  C6  UNL d   1      -0.381   1.002  -0.729  0.00  0.00     0.002 A 
ATOM      6  C7  UNL d   1      -0.134   0.886   0.640  0.00  0.00     0.002 A 
ENDROOT
BRANCH   1   7
ATOM      7  C1  UNL d   1       1.044  -0.189   2.596  0.00  0.00     0.055 C 
ATOM      8  C   UNL d   1       2.272  -1.050   2.854  0.00  0.00     0.019 C 
ENDBRANCH   1   7
TORSDOF 1
ENDMDL
