MODEL 1
REMARK minimizedAffinity 7.61293888
REMARK minimizedRMSD -1
REMARK  1 active torsions:
REMARK  status: ('A' for Active; 'I' for Inactive)
REMARK    1  A    between atoms: C1_2  and  C2_3 
ROOT
ATOM      1  C2  UNL d   1      -0.943   2.165  -0.296  0.00  0.00    -0.077 A 
ATOM      2  C3  UNL d   1      -2.207   2.533   0.188  0.00  0.00     0.002 A 
ATOM      3  C4  UNL d   1      -2.373   2.898   1.525  0.00  0.00     0.002 A 
ATOM      4  C5  UNL d   1      -1.279   2.902   2.389  0.00  0.00    -0.004 A 
ATOM      5  C6  UNL d   1      -0.019   2.535   1.918  0.00  0.00     0.002 A 
ATOM      6  C7  UNL d   1       0.148   2.169   0.582  0.00  0.00     0.002 A 
ENDROOT
BRANCH   1   7
ATOM      7  C1  UNL d   1      -0.753   1.819  -1.749  0.00  0.00     0.055 C 
ATOM      8  C   UNL d   1       0.344   0.780  -1.932  0.00  0.00     0.019 C 
ENDBRANCH   1   7
TORSDOF 1
ENDMDL
