MODEL 1
REMARK minimizedAffinity 1.98349154
REMARK minimizedRMSD -1
REMARK  1 active torsions:
REMARK  status: ('A' for Active; 'I' for Inactive)
REMARK    1  A    between atoms: C1_2  and  C2_3 
ROOT
ATOM      1  C2  UNL d   1       0.730  -0.316  -1.952  0.00  0.00    -0.077 A 
ATOM      2  C3  UNL d   1       2.099  -0.241  -1.660  0.00  0.00     0.002 A 
ATOM      3  C4  UNL d   1       2.792  -1.373  -1.227  0.00  0.00     0.002 A 
ATOM      4  C5  UNL d   1       2.126  -2.588  -1.086  0.00  0.00    -0.004 A 
ATOM      5  C6  UNL d   1       0.764  -2.672  -1.372  0.00  0.00     0.002 A 
ATOM      6  C7  UNL d   1       0.069  -1.542  -1.804  0.00  0.00     0.002 A 
ENDROOT
BRANCH   1   7
ATOM      7  C1  UNL d   1      -0.008   0.893  -2.466  0.00  0.00     0.055 C 
ATOM      8  C   UNL d   1      -0.365   1.846  -1.335  0.00  0.00     0.019 C 
ENDBRANCH   1   7
TORSDOF 1
ENDMDL
