MODEL 1
REMARK minimizedAffinity 11.7801952
REMARK minimizedRMSD -1
REMARK  1 active torsions:
REMARK  status: ('A' for Active; 'I' for Inactive)
REMARK    1  A    between atoms: C1_2  and  C2_3 
ROOT
ATOM      1  C2  UNL d   1       0.124   2.112   0.965  0.00  0.00    -0.077 A 
ATOM      2  C3  UNL d   1      -1.195   2.557   1.129  0.00  0.00     0.002 A 
ATOM      3  C4  UNL d   1      -2.117   2.431   0.088  0.00  0.00     0.002 A 
ATOM      4  C5  UNL d   1      -1.731   1.856  -1.121  0.00  0.00    -0.004 A 
ATOM      5  C6  UNL d   1      -0.421   1.412  -1.294  0.00  0.00     0.002 A 
ATOM      6  C7  UNL d   1       0.502   1.539  -0.255  0.00  0.00     0.002 A 
ENDROOT
BRANCH   1   7
ATOM      7  C1  UNL d   1       1.107   2.203   2.103  0.00  0.00     0.055 C 
ATOM      8  C   UNL d   1       2.471   1.663   1.701  0.00  0.00     0.019 C 
ENDBRANCH   1   7
TORSDOF 1
ENDMDL
