MODEL 1
REMARK minimizedAffinity 2.59662628
REMARK minimizedRMSD -1
REMARK  1 active torsions:
REMARK  status: ('A' for Active; 'I' for Inactive)
REMARK    1  A    between atoms: C1_2  and  C2_3 
ROOT
ATOM      1  C2  UNL d   1       0.586   0.432   3.009  0.00  0.00    -0.077 A 
ATOM      2  C3  UNL d   1      -0.373   1.433   2.798  0.00  0.00     0.002 A 
ATOM      3  C4  UNL d   1      -0.366   2.180   1.618  0.00  0.00     0.002 A 
ATOM      4  C5  UNL d   1       0.593   1.931   0.639  0.00  0.00    -0.004 A 
ATOM      5  C6  UNL d   1       1.553   0.939   0.841  0.00  0.00     0.002 A 
ATOM      6  C7  UNL d   1       1.549   0.193   2.019  0.00  0.00     0.002 A 
ENDROOT
BRANCH   1   7
ATOM      7  C1  UNL d   1       0.551  -0.408   4.259  0.00  0.00     0.055 C 
ATOM      8  C   UNL d   1       1.267  -1.735   4.054  0.00  0.00     0.019 C 
ENDBRANCH   1   7
TORSDOF 1
ENDMDL
