MODEL 1
REMARK minimizedAffinity 7.73630857
REMARK minimizedRMSD -1
REMARK  1 active torsions:
REMARK  status: ('A' for Active; 'I' for Inactive)
REMARK    1  A    between atoms: C1_2  and  C2_3 
ROOT
ATOM      1  C2  UNL d   1       0.604  -0.474  -2.065  0.00  0.00    -0.077 A 
ATOM      2  C3  UNL d   1       1.990  -0.533  -1.862  0.00  0.00     0.002 A 
ATOM      3  C4  UNL d   1       2.574  -1.673  -1.306  0.00  0.00     0.002 A 
ATOM      4  C5  UNL d   1       1.782  -2.762  -0.952  0.00  0.00    -0.004 A 
ATOM      5  C6  UNL d   1       0.402  -2.713  -1.148  0.00  0.00     0.002 A 
ATOM      6  C7  UNL d   1      -0.184  -1.574  -1.702  0.00  0.00     0.002 A 
ENDROOT
BRANCH   1   7
ATOM      7  C1  UNL d   1      -0.023   0.734  -2.710  0.00  0.00     0.055 C 
ATOM      8  C   UNL d   1      -0.560   1.703  -1.666  0.00  0.00     0.019 C 
ENDBRANCH   1   7
TORSDOF 1
ENDMDL
