MODEL 1
REMARK minimizedAffinity -4.37868881
REMARK minimizedRMSD -1
REMARK  1 active torsions:
REMARK  status: ('A' for Active; 'I' for Inactive)
REMARK    1  A    between atoms: C1_2  and  C2_3 
ROOT
ATOM      1  C2  UNL d   1       0.249   1.201   0.188  0.00  0.00    -0.077 A 
ATOM      2  C3  UNL d   1      -0.157   2.054  -0.848  0.00  0.00     0.002 A 
ATOM      3  C4  UNL d   1      -0.432   3.398  -0.589  0.00  0.00     0.002 A 
ATOM      4  C5  UNL d   1      -0.300   3.902   0.703  0.00  0.00    -0.004 A 
ATOM      5  C6  UNL d   1       0.101   3.061   1.740  0.00  0.00     0.002 A 
ATOM      6  C7  UNL d   1       0.375   1.717   1.484  0.00  0.00     0.002 A 
ENDROOT
BRANCH   1   7
ATOM      7  C1  UNL d   1       0.593  -0.237  -0.099  0.00  0.00     0.055 C 
ATOM      8  C   UNL d   1      -0.659  -1.071  -0.329  0.00  0.00     0.019 C 
ENDBRANCH   1   7
TORSDOF 1
ENDMDL
