MODEL 1
REMARK minimizedAffinity -2.62493873
REMARK minimizedRMSD -1
REMARK  1 active torsions:
REMARK  status: ('A' for Active; 'I' for Inactive)
REMARK    1  A    between atoms: C1_2  and  C2_3 
ROOT
ATOM      1  C2  UNL d   1       0.380   3.181   0.152  0.00  0.00    -0.077 A 
ATOM      2  C3  UNL d   1       0.458   2.535   1.394  0.00  0.00     0.002 A 
ATOM      3  C4  UNL d   1       0.510   1.142   1.463  0.00  0.00     0.002 A 
ATOM      4  C5  UNL d   1       0.489   0.383   0.294  0.00  0.00    -0.004 A 
ATOM      5  C6  UNL d   1       0.409   1.016  -0.945  0.00  0.00     0.002 A 
ATOM      6  C7  UNL d   1       0.355   2.409  -1.016  0.00  0.00     0.002 A 
ENDROOT
BRANCH   1   7
ATOM      7  C1  UNL d   1       0.373   4.686   0.073  0.00  0.00     0.055 C 
ATOM      8  C   UNL d   1       1.788   5.244   0.030  0.00  0.00     0.019 C 
ENDBRANCH   1   7
TORSDOF 1
ENDMDL
