MODEL 1
REMARK minimizedAffinity -3.49448514
REMARK minimizedRMSD -1
REMARK  0 active torsions:
REMARK  status: ('A' for Active; 'I' for Inactive)
ROOT
ATOM      1  C   UNL d   1       2.374   0.439   2.637  0.00  0.00     0.077 C 
ATOM      2  C1  UNL d   1       1.179   0.034   1.825  0.00  0.00    -0.074 A 
ATOM      3  C2  UNL d   1       0.344  -1.007   2.245  0.00  0.00    -0.005 A 
ATOM      4  C3  UNL d   1      -0.769  -1.366   1.484  0.00  0.00     0.006 A 
ATOM      5  C4  UNL d   1      -1.058  -0.689   0.299  0.00  0.00    -0.005 A 
ATOM      6  C5  UNL d   1      -0.235   0.354  -0.136  0.00  0.00    -0.074 A 
ATOM      7  C6  UNL d   1      -0.536   1.099  -1.403  0.00  0.00     0.077 C 
ATOM      8  C7  UNL d   1       0.878   0.714   0.637  0.00  0.00    -0.001 A 
ENDROOT
TORSDOF 0
ENDMDL
