MODEL 1
REMARK minimizedAffinity -0.043163985
REMARK minimizedRMSD -1
REMARK  0 active torsions:
REMARK  status: ('A' for Active; 'I' for Inactive)
ROOT
ATOM      1  C   UNL d   1      -0.923  -3.097   3.474  0.00  0.00     0.077 C 
ATOM      2  C1  UNL d   1      -0.151  -2.010   2.787  0.00  0.00    -0.074 A 
ATOM      3  C2  UNL d   1       1.098  -1.602   3.267  0.00  0.00    -0.005 A 
ATOM      4  C3  UNL d   1       1.809  -0.596   2.612  0.00  0.00     0.006 A 
ATOM      5  C4  UNL d   1       1.279   0.010   1.472  0.00  0.00    -0.005 A 
ATOM      6  C5  UNL d   1       0.033  -0.385   0.977  0.00  0.00    -0.074 A 
ATOM      7  C6  UNL d   1      -0.546   0.249  -0.252  0.00  0.00     0.077 C 
ATOM      8  C7  UNL d   1      -0.672  -1.401   1.637  0.00  0.00    -0.001 A 
ENDROOT
TORSDOF 0
ENDMDL
