MODEL 1
REMARK minimizedAffinity -4.76926661
REMARK minimizedRMSD -1
REMARK  0 active torsions:
REMARK  status: ('A' for Active; 'I' for Inactive)
ROOT
ATOM      1  C   UNL d   1       1.468  -0.476   3.004  0.00  0.00     0.077 C 
ATOM      2  C1  UNL d   1       0.558  -0.292   1.826  0.00  0.00    -0.074 A 
ATOM      3  C2  UNL d   1      -0.791   0.034   2.003  0.00  0.00    -0.005 A 
ATOM      4  C3  UNL d   1      -1.622   0.212   0.898  0.00  0.00     0.006 A 
ATOM      5  C4  UNL d   1      -1.115   0.067  -0.394  0.00  0.00    -0.005 A 
ATOM      6  C5  UNL d   1       0.231  -0.258  -0.591  0.00  0.00    -0.074 A 
ATOM      7  C6  UNL d   1       0.795  -0.408  -1.973  0.00  0.00     0.077 C 
ATOM      8  C7  UNL d   1       1.062  -0.428   0.525  0.00  0.00    -0.001 A 
ENDROOT
TORSDOF 0
ENDMDL
