MODEL 1
REMARK minimizedAffinity -2.73992324
REMARK minimizedRMSD -1
REMARK  0 active torsions:
REMARK  status: ('A' for Active; 'I' for Inactive)
ROOT
ATOM      1  C   UNL d   1       1.115  -0.690  -1.730  0.00  0.00     0.077 C 
ATOM      2  C1  UNL d   1       0.663  -0.384  -0.333  0.00  0.00    -0.074 A 
ATOM      3  C2  UNL d   1      -0.569   0.233  -0.095  0.00  0.00    -0.005 A 
ATOM      4  C3  UNL d   1      -0.980   0.503   1.210  0.00  0.00     0.006 A 
ATOM      5  C4  UNL d   1      -0.164   0.159   2.289  0.00  0.00    -0.005 A 
ATOM      6  C5  UNL d   1       1.072  -0.459   2.070  0.00  0.00    -0.074 A 
ATOM      7  C6  UNL d   1       1.956  -0.844   3.218  0.00  0.00     0.077 C 
ATOM      8  C7  UNL d   1       1.474  -0.733   0.756  0.00  0.00    -0.001 A 
ENDROOT
TORSDOF 0
ENDMDL
