MODEL 1
REMARK minimizedAffinity 0.505606592
REMARK minimizedRMSD -1
REMARK  0 active torsions:
REMARK  status: ('A' for Active; 'I' for Inactive)
ROOT
ATOM      1  C   UNL d   1      -0.367   3.245  -2.756  0.00  0.00     0.077 C 
ATOM      2  C1  UNL d   1      -0.606   1.932  -2.072  0.00  0.00    -0.074 A 
ATOM      3  C2  UNL d   1      -1.645   1.088  -2.479  0.00  0.00    -0.005 A 
ATOM      4  C3  UNL d   1      -1.849  -0.135  -1.840  0.00  0.00     0.006 A 
ATOM      5  C4  UNL d   1      -1.018  -0.526  -0.789  0.00  0.00    -0.005 A 
ATOM      6  C5  UNL d   1       0.027   0.304  -0.370  0.00  0.00    -0.074 A 
ATOM      7  C6  UNL d   1       0.936  -0.106   0.751  0.00  0.00     0.077 C 
ATOM      8  C7  UNL d   1       0.230   1.528  -1.022  0.00  0.00    -0.001 A 
ENDROOT
TORSDOF 0
ENDMDL
