MODEL 1
REMARK minimizedAffinity -4.69440126
REMARK minimizedRMSD -1
REMARK  0 active torsions:
REMARK  status: ('A' for Active; 'I' for Inactive)
ROOT
ATOM      1  C   UNL d   1      -0.053   0.532  -1.434  0.00  0.00     0.077 C 
ATOM      2  C1  UNL d   1      -0.250   0.161   0.005  0.00  0.00    -0.074 A 
ATOM      3  C2  UNL d   1      -1.529   0.119   0.569  0.00  0.00    -0.005 A 
ATOM      4  C3  UNL d   1      -1.697  -0.238   1.907  0.00  0.00     0.006 A 
ATOM      5  C4  UNL d   1      -0.589  -0.556   2.693  0.00  0.00    -0.005 A 
ATOM      6  C5  UNL d   1       0.697  -0.521   2.147  0.00  0.00    -0.074 A 
ATOM      7  C6  UNL d   1       1.898  -0.870   2.976  0.00  0.00     0.077 C 
ATOM      8  C7  UNL d   1       0.857  -0.168   0.800  0.00  0.00    -0.001 A 
ENDROOT
TORSDOF 0
ENDMDL
