MODEL 1
REMARK minimizedAffinity -3.2003665
REMARK minimizedRMSD -1
REMARK  0 active torsions:
REMARK  status: ('A' for Active; 'I' for Inactive)
ROOT
ATOM      1  C   UNL d   1       2.481  -1.673  -0.061  0.00  0.00     0.077 C 
ATOM      2  C1  UNL d   1       1.212  -1.002   0.373  0.00  0.00    -0.074 A 
ATOM      3  C2  UNL d   1       0.792  -1.051   1.707  0.00  0.00    -0.005 A 
ATOM      4  C3  UNL d   1      -0.385  -0.414   2.097  0.00  0.00     0.006 A 
ATOM      5  C4  UNL d   1      -1.154   0.278   1.161  0.00  0.00    -0.005 A 
ATOM      6  C5  UNL d   1      -0.749   0.339  -0.177  0.00  0.00    -0.074 A 
ATOM      7  C6  UNL d   1      -1.558   1.087  -1.194  0.00  0.00     0.077 C 
ATOM      8  C7  UNL d   1       0.439  -0.298  -0.560  0.00  0.00    -0.001 A 
ENDROOT
TORSDOF 0
ENDMDL
