MODEL 1
REMARK minimizedAffinity -2.86520028
REMARK minimizedRMSD -1
REMARK  0 active torsions:
REMARK  status: ('A' for Active; 'I' for Inactive)
ROOT
ATOM      1  C   UNL d   1       0.183  -0.179   3.099  0.00  0.00     0.077 C 
ATOM      2  C1  UNL d   1       1.121  -0.816   2.117  0.00  0.00    -0.074 A 
ATOM      3  C2  UNL d   1       2.279  -1.471   2.549  0.00  0.00    -0.005 A 
ATOM      4  C3  UNL d   1       3.136  -2.066   1.624  0.00  0.00     0.006 A 
ATOM      5  C4  UNL d   1       2.845  -2.013   0.260  0.00  0.00    -0.005 A 
ATOM      6  C5  UNL d   1       1.692  -1.363  -0.190  0.00  0.00    -0.074 A 
ATOM      7  C6  UNL d   1       1.359  -1.305  -1.651  0.00  0.00     0.077 C 
ATOM      8  C7  UNL d   1       0.831  -0.773   0.746  0.00  0.00    -0.001 A 
ENDROOT
TORSDOF 0
ENDMDL
