MODEL 1
REMARK minimizedAffinity -3.30173635
REMARK minimizedRMSD -1
REMARK  0 active torsions:
REMARK  status: ('A' for Active; 'I' for Inactive)
ROOT
ATOM      1  C   UNL d   1       0.187   0.307   2.012  0.00  0.00     0.077 C 
ATOM      2  C1  UNL d   1       0.096   0.343   0.515  0.00  0.00    -0.074 A 
ATOM      3  C2  UNL d   1       0.257  -0.822  -0.243  0.00  0.00    -0.005 A 
ATOM      4  C3  UNL d   1       0.160  -0.775  -1.634  0.00  0.00     0.006 A 
ATOM      5  C4  UNL d   1      -0.097   0.435  -2.279  0.00  0.00    -0.005 A 
ATOM      6  C5  UNL d   1      -0.262   1.609  -1.538  0.00  0.00    -0.074 A 
ATOM      7  C6  UNL d   1      -0.549   2.916  -2.216  0.00  0.00     0.077 C 
ATOM      8  C7  UNL d   1      -0.170   1.553  -0.141  0.00  0.00    -0.001 A 
ENDROOT
TORSDOF 0
ENDMDL
