MODEL 1
REMARK minimizedAffinity -2.79082322
REMARK minimizedRMSD -1
REMARK  1 active torsions:
REMARK  status: ('A' for Active; 'I' for Inactive)
REMARK    1  A    between atoms: N_2  and  C1_3 
ROOT
ATOM      1  C1  UNL d   1      -0.461   0.429  -1.293  0.00  0.00     0.143 A 
ATOM      2  C2  UNL d   1       0.731  -0.296  -1.392  0.00  0.00    -0.057 A 
ATOM      3  C3  UNL d   1       1.321  -0.880  -0.265  0.00  0.00     0.033 A 
ATOM      4  C4  UNL d   1       0.742  -0.725   0.990  0.00  0.00    -0.042 A 
ATOM      5  C5  UNL d   1      -0.430   0.013   1.116  0.00  0.00     0.033 A 
ATOM      6  C6  UNL d   1      -1.018   0.588  -0.015  0.00  0.00    -0.057 A 
ENDROOT
BRANCH   1   7
ATOM      7  N   UNL d   1      -1.044   1.116  -2.361  0.00  0.00    -0.732 N 
ATOM      8  C   UNL d   1      -0.560   2.424  -2.748  0.00  0.00     0.284 C 
ATOM      9  H3  UNL d   1      -1.262   0.505  -3.144  0.00  0.00     0.395 HD
ENDBRANCH   1   7
TORSDOF 1
ENDMDL
