MODEL 1
REMARK minimizedAffinity -3.11429071
REMARK minimizedRMSD -1
REMARK  1 active torsions:
REMARK  status: ('A' for Active; 'I' for Inactive)
REMARK    1  A    between atoms: N_2  and  C1_3 
ROOT
ATOM      1  C1  UNL d   1      -0.193  -0.330  -0.229  0.00  0.00     0.143 A 
ATOM      2  C2  UNL d   1      -0.877  -0.186   0.982  0.00  0.00    -0.057 A 
ATOM      3  C3  UNL d   1      -0.356  -0.699   2.176  0.00  0.00     0.033 A 
ATOM      4  C4  UNL d   1       0.848  -1.395   2.174  0.00  0.00    -0.042 A 
ATOM      5  C5  UNL d   1       1.533  -1.573   0.978  0.00  0.00     0.033 A 
ATOM      6  C6  UNL d   1       1.012  -1.051  -0.210  0.00  0.00    -0.057 A 
ENDROOT
BRANCH   1   7
ATOM      7  N   UNL d   1      -0.705   0.072  -1.465  0.00  0.00    -0.732 N 
ATOM      8  C   UNL d   1      -0.724   1.471  -1.835  0.00  0.00     0.284 C 
ATOM      9  H3  UNL d   1      -0.435  -0.554  -2.220  0.00  0.00     0.395 HD
ENDBRANCH   1   7
TORSDOF 1
ENDMDL
