MODEL 1
REMARK minimizedAffinity -4.68711805
REMARK minimizedRMSD -1
REMARK  1 active torsions:
REMARK  status: ('A' for Active; 'I' for Inactive)
REMARK    1  A    between atoms: N_2  and  C1_3 
ROOT
ATOM      1  C1  UNL d   1       1.036  -0.500   0.387  0.00  0.00     0.143 A 
ATOM      2  C2  UNL d   1       0.232  -0.189   1.488  0.00  0.00    -0.057 A 
ATOM      3  C3  UNL d   1       0.525  -0.685   2.764  0.00  0.00     0.033 A 
ATOM      4  C4  UNL d   1       1.614  -1.528   2.956  0.00  0.00    -0.042 A 
ATOM      5  C5  UNL d   1       2.413  -1.871   1.871  0.00  0.00     0.033 A 
ATOM      6  C6  UNL d   1       2.119  -1.367   0.600  0.00  0.00    -0.057 A 
ENDROOT
BRANCH   1   7
ATOM      7  N   UNL d   1       0.741  -0.119  -0.925  0.00  0.00    -0.732 N 
ATOM      8  C   UNL d   1      -0.615   0.213  -1.308  0.00  0.00     0.284 C 
ATOM      9  H3  UNL d   1       1.447   0.499  -1.318  0.00  0.00     0.395 HD
ENDBRANCH   1   7
TORSDOF 1
ENDMDL
