MODEL 1
REMARK minimizedAffinity -3.91876411
REMARK minimizedRMSD -1
REMARK  1 active torsions:
REMARK  status: ('A' for Active; 'I' for Inactive)
REMARK    1  A    between atoms: N_2  and  C1_3 
ROOT
ATOM      1  C1  UNL d   1      -0.360   0.185   0.007  0.00  0.00     0.143 A 
ATOM      2  C2  UNL d   1      -1.304   0.237   1.038  0.00  0.00    -0.057 A 
ATOM      3  C3  UNL d   1      -0.956  -0.072   2.358  0.00  0.00     0.033 A 
ATOM      4  C4  UNL d   1       0.342  -0.467   2.667  0.00  0.00    -0.042 A 
ATOM      5  C5  UNL d   1       1.291  -0.549   1.654  0.00  0.00     0.033 A 
ATOM      6  C6  UNL d   1       0.938  -0.234   0.339  0.00  0.00    -0.057 A 
ENDROOT
BRANCH   1   7
ATOM      7  N   UNL d   1      -0.668   0.384  -1.341  0.00  0.00    -0.732 N 
ATOM      8  C   UNL d   1      -0.624   1.710  -1.919  0.00  0.00     0.284 C 
ATOM      9  H3  UNL d   1      -0.283  -0.343  -1.939  0.00  0.00     0.395 HD
ENDBRANCH   1   7
TORSDOF 1
ENDMDL
