MODEL 1
REMARK minimizedAffinity -0.998519063
REMARK minimizedRMSD -1
REMARK  1 active torsions:
REMARK  status: ('A' for Active; 'I' for Inactive)
REMARK    1  A    between atoms: N_2  and  C1_3 
ROOT
ATOM      1  C1  UNL d   1      -0.194   1.300  -1.406  0.00  0.00     0.143 A 
ATOM      2  C2  UNL d   1       0.706   2.350  -1.613  0.00  0.00    -0.057 A 
ATOM      3  C3  UNL d   1       0.467   3.331  -2.584  0.00  0.00     0.033 A 
ATOM      4  C4  UNL d   1      -0.666   3.261  -3.387  0.00  0.00    -0.042 A 
ATOM      5  C5  UNL d   1      -1.562   2.211  -3.216  0.00  0.00     0.033 A 
ATOM      6  C6  UNL d   1      -1.321   1.239  -2.240  0.00  0.00    -0.057 A 
ENDROOT
BRANCH   1   7
ATOM      7  N   UNL d   1       0.036   0.241  -0.524  0.00  0.00    -0.732 N 
ATOM      8  C   UNL d   1      -0.648   0.180   0.750  0.00  0.00     0.284 C 
ATOM      9  H3  UNL d   1       0.104  -0.655  -1.003  0.00  0.00     0.395 HD
ENDBRANCH   1   7
TORSDOF 1
ENDMDL
