MODEL 1
REMARK minimizedAffinity -2.34700418
REMARK minimizedRMSD -1
REMARK  1 active torsions:
REMARK  status: ('A' for Active; 'I' for Inactive)
REMARK    1  A    between atoms: N_2  and  C1_3 
ROOT
ATOM      1  C1  UNL d   1      -0.188  -0.101  -0.201  0.00  0.00     0.143 A 
ATOM      2  C2  UNL d   1      -1.129   0.108   0.813  0.00  0.00    -0.057 A 
ATOM      3  C3  UNL d   1      -0.961  -0.453   2.085  0.00  0.00     0.033 A 
ATOM      4  C4  UNL d   1       0.140  -1.258   2.357  0.00  0.00    -0.042 A 
ATOM      5  C5  UNL d   1       1.075  -1.500   1.357  0.00  0.00     0.033 A 
ATOM      6  C6  UNL d   1       0.905  -0.931   0.090  0.00  0.00    -0.057 A 
ENDROOT
BRANCH   1   7
ATOM      7  N   UNL d   1      -0.348   0.348  -1.515  0.00  0.00    -0.732 N 
ATOM      8  C   UNL d   1      -0.760   1.709  -1.784  0.00  0.00     0.284 C 
ATOM      9  H3  UNL d   1       0.383   0.005  -2.134  0.00  0.00     0.395 HD
ENDBRANCH   1   7
TORSDOF 1
ENDMDL
