MODEL 1
REMARK minimizedAffinity -2.21201563
REMARK minimizedRMSD -1
REMARK  0 active torsions:
REMARK  status: ('A' for Active; 'I' for Inactive)
ROOT
ATOM      1  C1  DEN d   1      -3.596   4.000  -1.965  0.00  0.00     0.130 A 
ATOM      2  C2  DEN d   1      -3.493   4.502  -3.332  0.00  0.00    -0.031 A 
ATOM      3  C3  DEN d   1      -2.989   3.405  -4.184  0.00  0.00     0.027 A 
ATOM      4  C4  DEN d   1      -2.368   0.991  -3.523  0.00  0.00     0.027 A 
ATOM      5  C5  DEN d   1      -2.278   0.102  -2.474  0.00  0.00    -0.003 A 
ATOM      6  C6  DEN d   1      -2.587   0.457  -1.188  0.00  0.00     0.001 A 
ATOM      7  C7  DEN d   1      -3.043   1.721  -0.923  0.00  0.00     0.017 A 
ATOM      8  C8  DEN d   1      -3.129   2.625  -1.974  0.00  0.00    -0.094 A 
ATOM      9  C9  DEN d   1      -2.824   2.244  -3.269  0.00  0.00    -0.072 A 
ENDROOT
TORSDOF 0
ENDMDL
