MODEL 1
REMARK minimizedAffinity -3.48845959
REMARK minimizedRMSD -1
REMARK  0 active torsions:
REMARK  status: ('A' for Active; 'I' for Inactive)
ROOT
ATOM      1  C1  DEN d   1      -3.349   1.926  -4.553  0.00  0.00     0.130 A 
ATOM      2  C2  DEN d   1      -3.273   1.302  -3.235  0.00  0.00    -0.031 A 
ATOM      3  C3  DEN d   1      -2.802   2.320  -2.275  0.00  0.00     0.027 A 
ATOM      4  C4  DEN d   1      -2.189   4.790  -2.699  0.00  0.00     0.027 A 
ATOM      5  C5  DEN d   1      -2.083   5.771  -3.659  0.00  0.00    -0.003 A 
ATOM      6  C6  DEN d   1      -2.357   5.533  -4.980  0.00  0.00     0.001 A 
ATOM      7  C7  DEN d   1      -2.794   4.294  -5.370  0.00  0.00     0.017 A 
ATOM      8  C8  DEN d   1      -2.896   3.298  -4.408  0.00  0.00    -0.094 A 
ATOM      9  C9  DEN d   1      -2.626   3.562  -3.076  0.00  0.00    -0.072 A 
ENDROOT
TORSDOF 0
ENDMDL
