MODEL 1
REMARK minimizedAffinity 2.7730515
REMARK minimizedRMSD -1
REMARK  0 active torsions:
REMARK  status: ('A' for Active; 'I' for Inactive)
ROOT
ATOM      1  C1  DEN d   1      -1.354   4.901  -5.999  0.00  0.00     0.130 A 
ATOM      2  C2  DEN d   1      -0.092   5.405  -5.465  0.00  0.00    -0.031 A 
ATOM      3  C3  DEN d   1      -0.009   5.013  -4.044  0.00  0.00     0.027 A 
ATOM      4  C4  DEN d   1      -1.700   3.677  -2.627  0.00  0.00     0.027 A 
ATOM      5  C5  DEN d   1      -2.924   3.046  -2.640  0.00  0.00    -0.003 A 
ATOM      6  C6  DEN d   1      -3.720   3.018  -3.755  0.00  0.00     0.001 A 
ATOM      7  C7  DEN d   1      -3.280   3.595  -4.917  0.00  0.00     0.017 A 
ATOM      8  C8  DEN d   1      -2.050   4.239  -4.910  0.00  0.00    -0.094 A 
ATOM      9  C9  DEN d   1      -1.255   4.246  -3.776  0.00  0.00    -0.072 A 
ENDROOT
TORSDOF 0
ENDMDL
