MODEL 1
REMARK minimizedAffinity -1.93205762
REMARK minimizedRMSD -1
REMARK  0 active torsions:
REMARK  status: ('A' for Active; 'I' for Inactive)
ROOT
ATOM      1  C1  DEN d   1      -1.277   3.746  -2.862  0.00  0.00     0.130 A 
ATOM      2  C2  DEN d   1      -2.015   4.827  -3.510  0.00  0.00    -0.031 A 
ATOM      3  C3  DEN d   1      -3.297   4.278  -3.994  0.00  0.00     0.027 A 
ATOM      4  C4  DEN d   1      -4.209   1.873  -3.801  0.00  0.00     0.027 A 
ATOM      5  C5  DEN d   1      -3.936   0.602  -3.345  0.00  0.00    -0.003 A 
ATOM      6  C6  DEN d   1      -2.754   0.285  -2.731  0.00  0.00     0.001 A 
ATOM      7  C7  DEN d   1      -1.817   1.261  -2.516  0.00  0.00     0.017 A 
ATOM      8  C8  DEN d   1      -2.082   2.543  -2.980  0.00  0.00    -0.094 A 
ATOM      9  C9  DEN d   1      -3.288   2.847  -3.587  0.00  0.00    -0.072 A 
ENDROOT
TORSDOF 0
ENDMDL
