MODEL 1
REMARK minimizedAffinity 10.1077595
REMARK minimizedRMSD -1
REMARK  0 active torsions:
REMARK  status: ('A' for Active; 'I' for Inactive)
ROOT
ATOM      1  C1  DEN d   1      -3.757   4.861  -0.790  0.00  0.00     0.130 A 
ATOM      2  C2  DEN d   1      -4.430   3.609  -0.453  0.00  0.00    -0.031 A 
ATOM      3  C3  DEN d   1      -4.455   2.764  -1.664  0.00  0.00     0.027 A 
ATOM      4  C4  DEN d   1      -3.517   3.268  -4.014  0.00  0.00     0.027 A 
ATOM      5  C5  DEN d   1      -2.870   4.207  -4.786  0.00  0.00    -0.003 A 
ATOM      6  C6  DEN d   1      -2.505   5.432  -4.294  0.00  0.00     0.001 A 
ATOM      7  C7  DEN d   1      -2.746   5.735  -2.980  0.00  0.00     0.017 A 
ATOM      8  C8  DEN d   1      -3.406   4.797  -2.197  0.00  0.00    -0.094 A 
ATOM      9  C9  DEN d   1      -3.755   3.559  -2.709  0.00  0.00    -0.072 A 
ENDROOT
TORSDOF 0
ENDMDL
