MODEL 1
REMARK minimizedAffinity -1.24211073
REMARK minimizedRMSD -1
REMARK  0 active torsions:
REMARK  status: ('A' for Active; 'I' for Inactive)
ROOT
ATOM      1  C1  DEN d   1      -1.687   3.795  -4.453  0.00  0.00     0.130 A 
ATOM      2  C2  DEN d   1      -2.101   5.112  -4.929  0.00  0.00    -0.031 A 
ATOM      3  C3  DEN d   1      -3.008   5.697  -3.922  0.00  0.00     0.027 A 
ATOM      4  C4  DEN d   1      -3.804   4.700  -1.680  0.00  0.00     0.027 A 
ATOM      5  C5  DEN d   1      -3.729   3.603  -0.850  0.00  0.00    -0.003 A 
ATOM      6  C6  DEN d   1      -3.003   2.489  -1.176  0.00  0.00     0.001 A 
ATOM      7  C7  DEN d   1      -2.284   2.464  -2.342  0.00  0.00     0.017 A 
ATOM      8  C8  DEN d   1      -2.360   3.563  -3.187  0.00  0.00    -0.094 A 
ATOM      9  C9  DEN d   1      -3.090   4.685  -2.834  0.00  0.00    -0.072 A 
ENDROOT
TORSDOF 0
ENDMDL
