MODEL 1
REMARK minimizedAffinity 4.47268057
REMARK minimizedRMSD -1
REMARK  0 active torsions:
REMARK  status: ('A' for Active; 'I' for Inactive)
ROOT
ATOM      1  C1  DEN d   1      -3.095   3.352  -1.017  0.00  0.00     0.130 A 
ATOM      2  C2  DEN d   1      -2.912   1.904  -1.068  0.00  0.00    -0.031 A 
ATOM      3  C3  DEN d   1      -2.946   1.489  -2.485  0.00  0.00     0.027 A 
ATOM      4  C4  DEN d   1      -3.257   2.941  -4.593  0.00  0.00     0.027 A 
ATOM      5  C5  DEN d   1      -3.461   4.223  -5.053  0.00  0.00    -0.003 A 
ATOM      6  C6  DEN d   1      -3.591   5.291  -4.205  0.00  0.00     0.001 A 
ATOM      7  C7  DEN d   1      -3.472   5.103  -2.854  0.00  0.00     0.017 A 
ATOM      8  C8  DEN d   1      -3.274   3.812  -2.382  0.00  0.00    -0.094 A 
ATOM      9  C9  DEN d   1      -3.133   2.747  -3.256  0.00  0.00    -0.072 A 
ENDROOT
TORSDOF 0
ENDMDL
