MODEL 1
REMARK minimizedAffinity 5.30323553
REMARK minimizedRMSD -1
REMARK  0 active torsions:
REMARK  status: ('A' for Active; 'I' for Inactive)
ROOT
ATOM      1  C1  DEN d   1      -2.405   5.999  -2.873  0.00  0.00     0.130 A 
ATOM      2  C2  DEN d   1      -2.026   5.921  -4.281  0.00  0.00    -0.031 A 
ATOM      3  C3  DEN d   1      -2.089   4.504  -4.692  0.00  0.00     0.027 A 
ATOM      4  C4  DEN d   1      -2.737   2.435  -3.295  0.00  0.00     0.027 A 
ATOM      5  C5  DEN d   1      -3.124   2.001  -2.046  0.00  0.00    -0.003 A 
ATOM      6  C6  DEN d   1      -3.264   2.856  -0.986  0.00  0.00     0.001 A 
ATOM      7  C7  DEN d   1      -3.060   4.199  -1.166  0.00  0.00     0.017 A 
ATOM      8  C8  DEN d   1      -2.662   4.644  -2.420  0.00  0.00    -0.094 A 
ATOM      9  C9  DEN d   1      -2.537   3.765  -3.482  0.00  0.00    -0.072 A 
ENDROOT
TORSDOF 0
ENDMDL
