MODEL 1
REMARK minimizedAffinity -3.0985899
REMARK minimizedRMSD -1
REMARK  0 active torsions:
REMARK  status: ('A' for Active; 'I' for Inactive)
ROOT
ATOM      1  C1  DEN d   1      -1.895   1.161  -2.681  0.00  0.00     0.130 A 
ATOM      2  C2  DEN d   1      -2.227   1.290  -1.264  0.00  0.00    -0.031 A 
ATOM      3  C3  DEN d   1      -2.692   2.672  -1.029  0.00  0.00     0.027 A 
ATOM      4  C4  DEN d   1      -2.936   4.611  -2.712  0.00  0.00     0.027 A 
ATOM      5  C5  DEN d   1      -2.766   4.985  -4.026  0.00  0.00    -0.003 A 
ATOM      6  C6  DEN d   1      -2.266   4.127  -4.970  0.00  0.00     0.001 A 
ATOM      7  C7  DEN d   1      -1.961   2.838  -4.622  0.00  0.00     0.017 A 
ATOM      8  C8  DEN d   1      -2.122   2.456  -3.297  0.00  0.00    -0.094 A 
ATOM      9  C9  DEN d   1      -2.641   3.334  -2.360  0.00  0.00    -0.072 A 
ENDROOT
TORSDOF 0
ENDMDL
