MODEL 1
REMARK minimizedAffinity -3.37535191
REMARK minimizedRMSD -1
REMARK  0 active torsions:
REMARK  status: ('A' for Active; 'I' for Inactive)
ROOT
ATOM      1  C1  DEN d   1      -3.354   3.082  -2.830  0.00  0.00     0.130 A 
ATOM      2  C2  DEN d   1      -2.678   2.270  -1.822  0.00  0.00    -0.031 A 
ATOM      3  C3  DEN d   1      -1.228   2.319  -2.095  0.00  0.00     0.027 A 
ATOM      4  C4  DEN d   1       0.031   3.570  -3.967  0.00  0.00     0.027 A 
ATOM      5  C5  DEN d   1      -0.116   4.382  -5.069  0.00  0.00    -0.003 A 
ATOM      6  C6  DEN d   1      -1.345   4.787  -5.519  0.00  0.00     0.001 A 
ATOM      7  C7  DEN d   1      -2.474   4.417  -4.837  0.00  0.00     0.017 A 
ATOM      8  C8  DEN d   1      -2.334   3.592  -3.728  0.00  0.00    -0.094 A 
ATOM      9  C9  DEN d   1      -1.082   3.204  -3.282  0.00  0.00    -0.072 A 
ENDROOT
TORSDOF 0
ENDMDL
