MODEL 1
REMARK minimizedAffinity -4.90964746
REMARK minimizedRMSD -1
REMARK  0 active torsions:
REMARK  status: ('A' for Active; 'I' for Inactive)
ROOT
ATOM      1  C1  DEN d   1       0.785  -0.653   0.245  0.00  0.00     0.130 A 
ATOM      2  C2  DEN d   1      -0.181  -0.255  -0.775  0.00  0.00    -0.031 A 
ATOM      3  C3  DEN d   1      -1.280   0.470  -0.105  0.00  0.00     0.027 A 
ATOM      4  C4  DEN d   1      -1.574   1.017   2.398  0.00  0.00     0.027 A 
ATOM      5  C5  DEN d   1      -1.019   0.875   3.651  0.00  0.00    -0.003 A 
ATOM      6  C6  DEN d   1       0.149   0.190   3.859  0.00  0.00     0.001 A 
ATOM      7  C7  DEN d   1       0.824  -0.340   2.792  0.00  0.00     0.017 A 
ATOM      8  C8  DEN d   1       0.267  -0.208   1.526  0.00  0.00    -0.094 A 
ATOM      9  C9  DEN d   1      -0.908   0.498   1.335  0.00  0.00    -0.072 A 
ENDROOT
TORSDOF 0
ENDMDL
