MODEL 1
REMARK minimizedAffinity -4.88060331
REMARK minimizedRMSD -1
REMARK  0 active torsions:
REMARK  status: ('A' for Active; 'I' for Inactive)
ROOT
ATOM      1  C1  DEN d   1       0.231   0.742  -0.316  0.00  0.00     0.130 A 
ATOM      2  C2  DEN d   1       0.234  -0.649   0.131  0.00  0.00    -0.031 A 
ATOM      3  C3  DEN d   1       0.572  -1.500  -1.028  0.00  0.00     0.027 A 
ATOM      4  C4  DEN d   1       1.092  -0.803  -3.456  0.00  0.00     0.027 A 
ATOM      5  C5  DEN d   1       1.200   0.265  -4.318  0.00  0.00    -0.003 A 
ATOM      6  C6  DEN d   1       0.962   1.554  -3.919  0.00  0.00     0.001 A 
ATOM      7  C7  DEN d   1       0.646   1.811  -2.611  0.00  0.00     0.017 A 
ATOM      8  C8  DEN d   1       0.528   0.738  -1.737  0.00  0.00    -0.094 A 
ATOM      9  C9  DEN d   1       0.786  -0.555  -2.157  0.00  0.00    -0.072 A 
ENDROOT
TORSDOF 0
ENDMDL
