MODEL 1
REMARK minimizedAffinity -5.50713539
REMARK minimizedRMSD -1
REMARK  0 active torsions:
REMARK  status: ('A' for Active; 'I' for Inactive)
ROOT
ATOM      1  C1  DEN d   1      -1.767   0.107  -0.189  0.00  0.00     0.130 A 
ATOM      2  C2  DEN d   1      -0.709  -0.219  -1.141  0.00  0.00    -0.031 A 
ATOM      3  C3  DEN d   1       0.588  -0.083  -0.448  0.00  0.00     0.027 A 
ATOM      4  C4  DEN d   1       1.057   0.592   1.997  0.00  0.00     0.027 A 
ATOM      5  C5  DEN d   1       0.479   0.974   3.187  0.00  0.00    -0.003 A 
ATOM      6  C6  DEN d   1      -0.876   1.126   3.325  0.00  0.00     0.001 A 
ATOM      7  C7  DEN d   1      -1.701   0.850   2.266  0.00  0.00     0.017 A 
ATOM      8  C8  DEN d   1      -1.124   0.472   1.061  0.00  0.00    -0.094 A 
ATOM      9  C9  DEN d   1       0.246   0.312   0.945  0.00  0.00    -0.072 A 
ENDROOT
TORSDOF 0
ENDMDL
