MODEL 1
REMARK minimizedAffinity -1.71009195
REMARK minimizedRMSD -1
REMARK  0 active torsions:
REMARK  status: ('A' for Active; 'I' for Inactive)
ROOT
ATOM      1  C1  DEN d   1       0.810  -0.464   3.633  0.00  0.00     0.130 A 
ATOM      2  C2  DEN d   1       2.036  -1.083   3.139  0.00  0.00    -0.031 A 
ATOM      3  C3  DEN d   1       1.924  -1.209   1.672  0.00  0.00     0.027 A 
ATOM      4  C4  DEN d   1      -0.016  -0.505   0.126  0.00  0.00     0.027 A 
ATOM      5  C5  DEN d   1      -1.275   0.053   0.087  0.00  0.00    -0.003 A 
ATOM      6  C6  DEN d   1      -1.936   0.443   1.222  0.00  0.00     0.001 A 
ATOM      7  C7  DEN d   1      -1.322   0.322   2.440  0.00  0.00     0.017 A 
ATOM      8  C8  DEN d   1      -0.055  -0.246   2.488  0.00  0.00    -0.094 A 
ATOM      9  C9  DEN d   1       0.601  -0.623   1.329  0.00  0.00    -0.072 A 
ENDROOT
TORSDOF 0
ENDMDL
