MODEL 1
REMARK minimizedAffinity -2.37366796
REMARK minimizedRMSD -1
REMARK  1 active torsions:
REMARK  status: ('A' for Active; 'I' for Inactive)
REMARK    1  A    between atoms: C1_2  and  C2_3 
ROOT
ATOM      1  C2  UNL d   1      -0.181   0.135   0.182  0.00  0.00    -0.076 A 
ATOM      2  C3  UNL d   1       0.812   0.897   0.822  0.00  0.00     0.004 A 
ATOM      3  C4  UNL d   1       0.557   1.532   2.036  0.00  0.00    -0.003 A 
ATOM      4  C5  UNL d   1      -0.694   1.414   2.631  0.00  0.00     0.000 A 
ATOM      5  C6  UNL d   1      -1.685   0.648   2.019  0.00  0.00     0.000 A 
ATOM      6  C7  UNL d   1      -1.440  -0.012   0.802  0.00  0.00    -0.073 A 
ATOM      7  C8  UNL d   1      -2.547  -0.820   0.183  0.00  0.00     0.078 C 
ENDROOT
BRANCH   1   8
ATOM      8  C1  UNL d   1       0.144  -0.508  -1.147  0.00  0.00     0.053 C 
ATOM      9  C   UNL d   1       0.641   0.497  -2.175  0.00  0.00     0.018 C 
ENDBRANCH   1   8
TORSDOF 1
ENDMDL
