MODEL 1
REMARK minimizedAffinity 0.273448527
REMARK minimizedRMSD -1
REMARK  1 active torsions:
REMARK  status: ('A' for Active; 'I' for Inactive)
REMARK    1  A    between atoms: C1_2  and  C2_3 
ROOT
ATOM      1  C2  UNL d   1      -0.604   0.154   0.748  0.00  0.00    -0.076 A 
ATOM      2  C3  UNL d   1      -1.570   0.058  -0.269  0.00  0.00     0.004 A 
ATOM      3  C4  UNL d   1      -1.217  -0.334  -1.560  0.00  0.00    -0.003 A 
ATOM      4  C5  UNL d   1       0.108  -0.637  -1.853  0.00  0.00     0.000 A 
ATOM      5  C6  UNL d   1       1.076  -0.564  -0.852  0.00  0.00     0.000 A 
ATOM      6  C7  UNL d   1       0.734  -0.186   0.457  0.00  0.00    -0.073 A 
ATOM      7  C8  UNL d   1       1.820  -0.119   1.496  0.00  0.00     0.078 C 
ENDROOT
BRANCH   1   8
ATOM      8  C1  UNL d   1      -1.042   0.611   2.121  0.00  0.00     0.053 C 
ATOM      9  C   UNL d   1      -1.885  -0.431   2.840  0.00  0.00     0.018 C 
ENDBRANCH   1   8
TORSDOF 1
ENDMDL
