MODEL 1
REMARK minimizedAffinity -5.93157482
REMARK minimizedRMSD -1
REMARK  1 active torsions:
REMARK  status: ('A' for Active; 'I' for Inactive)
REMARK    1  A    between atoms: C1_2  and  C2_3 
ROOT
ATOM      1  C2  UNL d   1      -1.195   0.191   2.093  0.00  0.00    -0.076 A 
ATOM      2  C3  UNL d   1      -0.666   0.822   3.232  0.00  0.00     0.004 A 
ATOM      3  C4  UNL d   1       0.698   1.091   3.335  0.00  0.00    -0.003 A 
ATOM      4  C5  UNL d   1       1.555   0.733   2.300  0.00  0.00     0.000 A 
ATOM      5  C6  UNL d   1       1.044   0.122   1.155  0.00  0.00     0.000 A 
ATOM      6  C7  UNL d   1      -0.331  -0.141   1.028  0.00  0.00    -0.073 A 
ATOM      7  C8  UNL d   1      -0.826  -0.807  -0.226  0.00  0.00     0.078 C 
ENDROOT
BRANCH   1   8
ATOM      8  C1  UNL d   1      -2.679  -0.099   2.049  0.00  0.00     0.053 C 
ATOM      9  C   UNL d   1      -3.043  -1.381   2.780  0.00  0.00     0.018 C 
ENDBRANCH   1   8
TORSDOF 1
ENDMDL
