MODEL 1
REMARK minimizedAffinity -5.22052002
REMARK minimizedRMSD -1
REMARK  1 active torsions:
REMARK  status: ('A' for Active; 'I' for Inactive)
REMARK    1  A    between atoms: C1_2  and  C2_3 
ROOT
ATOM      1  C2  UNL d   1      -0.063   0.109   0.238  0.00  0.00    -0.076 A 
ATOM      2  C3  UNL d   1       0.966   0.146   1.196  0.00  0.00     0.004 A 
ATOM      3  C4  UNL d   1       0.810   0.850   2.389  0.00  0.00    -0.003 A 
ATOM      4  C5  UNL d   1      -0.378   1.527   2.644  0.00  0.00     0.000 A 
ATOM      5  C6  UNL d   1      -1.415   1.486   1.713  0.00  0.00     0.000 A 
ATOM      6  C7  UNL d   1      -1.280   0.768   0.513  0.00  0.00    -0.073 A 
ATOM      7  C8  UNL d   1      -2.429   0.762  -0.458  0.00  0.00     0.078 C 
ENDROOT
BRANCH   1   8
ATOM      8  C1  UNL d   1       0.174  -0.648  -1.049  0.00  0.00     0.053 C 
ATOM      9  C   UNL d   1       1.041   0.127  -2.030  0.00  0.00     0.018 C 
ENDBRANCH   1   8
TORSDOF 1
ENDMDL
