MODEL 1
REMARK minimizedAffinity -3.45723081
REMARK minimizedRMSD -1
REMARK  0 active torsions:
REMARK  status: ('A' for Active; 'I' for Inactive)
ROOT
ATOM      1  C   UNL d   1       1.184   0.760   0.378  0.00  0.00     0.172 C 
ATOM      2  N   UNL d   1      -0.140   0.381  -0.054  0.00  0.00    -0.070 N 
ATOM      3  C1  UNL d   1      -1.110  -0.174   0.738  0.00  0.00    -0.004 A 
ATOM      4  C2  UNL d   1      -2.224  -0.387  -0.045  0.00  0.00    -0.047 A 
ATOM      5  C3  UNL d   1      -1.913   0.054  -1.353  0.00  0.00    -0.047 A 
ATOM      6  C4  UNL d   1      -0.617   0.525  -1.330  0.00  0.00    -0.004 A 
ENDROOT
TORSDOF 0
ENDMDL
