MODEL 1
REMARK minimizedAffinity -1.77643371
REMARK minimizedRMSD -1
REMARK  0 active torsions:
REMARK  status: ('A' for Active; 'I' for Inactive)
ROOT
ATOM      1  C   UNL d   1      -2.453  -0.987  -0.516  0.00  0.00     0.172 C 
ATOM      2  N   UNL d   1      -1.120  -0.471  -0.316  0.00  0.00    -0.070 N 
ATOM      3  C1  UNL d   1      -0.322  -0.719   0.769  0.00  0.00    -0.004 A 
ATOM      4  C2  UNL d   1       0.867  -0.048   0.581  0.00  0.00    -0.047 A 
ATOM      5  C3  UNL d   1       0.781   0.627  -0.660  0.00  0.00    -0.047 A 
ATOM      6  C4  UNL d   1      -0.459   0.348  -1.194  0.00  0.00    -0.004 A 
ENDROOT
TORSDOF 0
ENDMDL
