MODEL 1
REMARK minimizedAffinity -2.03573704
REMARK minimizedRMSD -1
REMARK  0 active torsions:
REMARK  status: ('A' for Active; 'I' for Inactive)
ROOT
ATOM      1  C   UNL d   1      -0.140  -0.089   0.776  0.00  0.00     0.172 C 
ATOM      2  N   UNL d   1       1.061   0.708   0.852  0.00  0.00    -0.070 N 
ATOM      3  C1  UNL d   1       1.275   1.750   1.714  0.00  0.00    -0.004 A 
ATOM      4  C2  UNL d   1       2.539   2.245   1.472  0.00  0.00    -0.047 A 
ATOM      5  C3  UNL d   1       3.103   1.475   0.428  0.00  0.00    -0.047 A 
ATOM      6  C4  UNL d   1       2.167   0.530   0.063  0.00  0.00    -0.004 A 
ENDROOT
TORSDOF 0
ENDMDL
