MODEL 1
REMARK minimizedAffinity -1.44196129
REMARK minimizedRMSD -1
REMARK  0 active torsions:
REMARK  status: ('A' for Active; 'I' for Inactive)
ROOT
ATOM      1  C   UNL d   1      -2.776  -0.686  -0.804  0.00  0.00     0.172 C 
ATOM      2  N   UNL d   1      -1.464  -0.333  -0.315  0.00  0.00    -0.070 N 
ATOM      3  C1  UNL d   1      -0.748   0.775  -0.682  0.00  0.00    -0.004 A 
ATOM      4  C2  UNL d   1       0.447   0.751   0.004  0.00  0.00    -0.047 A 
ATOM      5  C3  UNL d   1       0.449  -0.412   0.810  0.00  0.00    -0.047 A 
ATOM      6  C4  UNL d   1      -0.746  -1.064   0.594  0.00  0.00    -0.004 A 
ENDROOT
TORSDOF 0
ENDMDL
