MODEL 1
REMARK minimizedAffinity -0.423321187
REMARK minimizedRMSD -1
REMARK  0 active torsions:
REMARK  status: ('A' for Active; 'I' for Inactive)
ROOT
ATOM      1  C   UNL d   1       1.355   0.369  -2.007  0.00  0.00     0.172 C 
ATOM      2  N   UNL d   1       0.673   0.283  -0.737  0.00  0.00    -0.070 N 
ATOM      3  C1  UNL d   1       0.685   1.240   0.243  0.00  0.00    -0.004 A 
ATOM      4  C2  UNL d   1      -0.083   0.780   1.291  0.00  0.00    -0.047 A 
ATOM      5  C3  UNL d   1      -0.572  -0.498   0.929  0.00  0.00    -0.047 A 
ATOM      6  C4  UNL d   1      -0.089  -0.781  -0.331  0.00  0.00    -0.004 A 
ENDROOT
TORSDOF 0
ENDMDL
