MODEL 1
REMARK minimizedAffinity -2.90658402
REMARK minimizedRMSD -1
REMARK  0 active torsions:
REMARK  status: ('A' for Active; 'I' for Inactive)
ROOT
ATOM      1  C   UNL d   1       1.359   0.611   0.355  0.00  0.00     0.172 C 
ATOM      2  N   UNL d   1       0.034   0.235  -0.079  0.00  0.00    -0.070 N 
ATOM      3  C1  UNL d   1      -1.026  -0.043   0.742  0.00  0.00    -0.004 A 
ATOM      4  C2  UNL d   1      -2.106  -0.358  -0.055  0.00  0.00    -0.047 A 
ATOM      5  C3  UNL d   1      -1.679  -0.268  -1.401  0.00  0.00    -0.047 A 
ATOM      6  C4  UNL d   1      -0.351   0.100  -1.387  0.00  0.00    -0.004 A 
ENDROOT
TORSDOF 0
ENDMDL
