MODEL 1
REMARK minimizedAffinity -3.52263069
REMARK minimizedRMSD -1
REMARK  0 active torsions:
REMARK  status: ('A' for Active; 'I' for Inactive)
ROOT
ATOM      1  C   UNL d   1       1.200   0.034   0.401  0.00  0.00     0.172 C 
ATOM      2  N   UNL d   1      -0.227  -0.130   0.248  0.00  0.00    -0.070 N 
ATOM      3  C1  UNL d   1      -0.929   0.035  -0.916  0.00  0.00    -0.004 A 
ATOM      4  C2  UNL d   1      -2.258  -0.211  -0.646  0.00  0.00    -0.047 A 
ATOM      5  C3  UNL d   1      -2.358  -0.535   0.728  0.00  0.00    -0.047 A 
ATOM      6  C4  UNL d   1      -1.086  -0.477   1.257  0.00  0.00    -0.004 A 
ENDROOT
TORSDOF 0
ENDMDL
