MODEL 1
REMARK minimizedAffinity -3.43003726
REMARK minimizedRMSD -1
REMARK  0 active torsions:
REMARK  status: ('A' for Active; 'I' for Inactive)
ROOT
ATOM      1  C   UNL d   1      -2.807  -0.452  -0.074  0.00  0.00     0.172 C 
ATOM      2  N   UNL d   1      -1.370  -0.318  -0.074  0.00  0.00    -0.070 N 
ATOM      3  C1  UNL d   1      -0.526  -0.771   0.904  0.00  0.00    -0.004 A 
ATOM      4  C2  UNL d   1       0.762  -0.449   0.533  0.00  0.00    -0.047 A 
ATOM      5  C3  UNL d   1       0.689   0.221  -0.711  0.00  0.00    -0.047 A 
ATOM      6  C4  UNL d   1      -0.642   0.289  -1.064  0.00  0.00    -0.004 A 
ENDROOT
TORSDOF 0
ENDMDL
