MODEL 1
REMARK minimizedAffinity -3.80116224
REMARK minimizedRMSD -1
REMARK  0 active torsions:
REMARK  status: ('A' for Active; 'I' for Inactive)
ROOT
ATOM      1  C   UNL d   1       0.862  -0.064   0.054  0.00  0.00     0.172 C 
ATOM      2  N   UNL d   1      -0.561  -0.269  -0.082  0.00  0.00    -0.070 N 
ATOM      3  C1  UNL d   1      -1.330  -1.083   0.706  0.00  0.00    -0.004 A 
ATOM      4  C2  UNL d   1      -2.629  -1.002   0.255  0.00  0.00    -0.047 A 
ATOM      5  C3  UNL d   1      -2.642  -0.110  -0.843  0.00  0.00    -0.047 A 
ATOM      6  C4  UNL d   1      -1.348   0.330  -1.030  0.00  0.00    -0.004 A 
ENDROOT
TORSDOF 0
ENDMDL
