MODEL 1
REMARK minimizedAffinity -3.22917843
REMARK minimizedRMSD -1
REMARK  0 active torsions:
REMARK  status: ('A' for Active; 'I' for Inactive)
ROOT
ATOM      1  C   UNL d   1       1.178   0.016   0.410  0.00  0.00     0.172 C 
ATOM      2  N   UNL d   1      -0.116  -0.302  -0.147  0.00  0.00    -0.070 N 
ATOM      3  C1  UNL d   1      -1.146  -0.906   0.523  0.00  0.00    -0.004 A 
ATOM      4  C2  UNL d   1      -2.203  -1.033  -0.353  0.00  0.00    -0.047 A 
ATOM      5  C3  UNL d   1      -1.793  -0.486  -1.593  0.00  0.00    -0.047 A 
ATOM      6  C4  UNL d   1      -0.497  -0.041  -1.437  0.00  0.00    -0.004 A 
ENDROOT
TORSDOF 0
ENDMDL
