MODEL 1
REMARK minimizedAffinity -1.87757695
REMARK minimizedRMSD -1
REMARK  0 active torsions:
REMARK  status: ('A' for Active; 'I' for Inactive)
ROOT
ATOM      1  C   UNL d   1      -2.481  -0.904  -0.658  0.00  0.00     0.172 C 
ATOM      2  N   UNL d   1      -1.173  -0.745  -0.066  0.00  0.00    -0.070 N 
ATOM      3  C1  UNL d   1      -0.616  -1.571   0.874  0.00  0.00    -0.004 A 
ATOM      4  C2  UNL d   1       0.635  -1.080   1.179  0.00  0.00    -0.047 A 
ATOM      5  C3  UNL d   1       0.836   0.082   0.397  0.00  0.00    -0.047 A 
ATOM      6  C4  UNL d   1      -0.299   0.267  -0.364  0.00  0.00    -0.004 A 
ENDROOT
TORSDOF 0
ENDMDL
