MODEL 1
REMARK minimizedAffinity -3.90052915
REMARK minimizedRMSD -1
REMARK  0 active torsions:
REMARK  status: ('A' for Active; 'I' for Inactive)
ROOT
ATOM      1  C   UNL d   1       0.630   0.132   0.193  0.00  0.00     0.172 C 
ATOM      2  N   UNL d   1      -0.759  -0.255   0.116  0.00  0.00    -0.070 N 
ATOM      3  C1  UNL d   1      -1.667   0.209  -0.798  0.00  0.00    -0.004 A 
ATOM      4  C2  UNL d   1      -2.876  -0.399  -0.538  0.00  0.00    -0.047 A 
ATOM      5  C3  UNL d   1      -2.688  -1.258   0.571  0.00  0.00    -0.047 A 
ATOM      6  C4  UNL d   1      -1.368  -1.149   0.956  0.00  0.00    -0.004 A 
ENDROOT
TORSDOF 0
ENDMDL
