MODEL 1
REMARK minimizedAffinity -3.91421437
REMARK minimizedRMSD -1
REMARK  0 active torsions:
REMARK  status: ('A' for Active; 'I' for Inactive)
ROOT
ATOM      1  C   UNL d   1       0.323  -0.518   0.787  0.00  0.00     0.172 C 
ATOM      2  N   UNL d   1      -0.923  -0.717   0.085  0.00  0.00    -0.070 N 
ATOM      3  C1  UNL d   1      -1.192  -0.312  -1.195  0.00  0.00    -0.004 A 
ATOM      4  C2  UNL d   1      -2.483  -0.689  -1.495  0.00  0.00    -0.047 A 
ATOM      5  C3  UNL d   1      -3.009  -1.343  -0.356  0.00  0.00    -0.047 A 
ATOM      6  C4  UNL d   1      -2.022  -1.347   0.607  0.00  0.00    -0.004 A 
ENDROOT
TORSDOF 0
ENDMDL
