MODEL 1
REMARK minimizedAffinity -2.25438952
REMARK minimizedRMSD -1
REMARK  0 active torsions:
REMARK  status: ('A' for Active; 'I' for Inactive)
ROOT
ATOM      1  C   UNL d   1      -2.820  -0.841   0.356  0.00  0.00     0.172 C 
ATOM      2  N   UNL d   1      -1.394  -0.689   0.532  0.00  0.00    -0.070 N 
ATOM      3  C1  UNL d   1      -0.601   0.215  -0.124  0.00  0.00    -0.004 A 
ATOM      4  C2  UNL d   1       0.692   0.042   0.321  0.00  0.00    -0.047 A 
ATOM      5  C3  UNL d   1       0.675  -1.003   1.276  0.00  0.00    -0.047 A 
ATOM      6  C4  UNL d   1      -0.629  -1.437   1.387  0.00  0.00    -0.004 A 
ENDROOT
TORSDOF 0
ENDMDL
