MODEL 1
REMARK minimizedAffinity -0.742303371
REMARK minimizedRMSD -1
REMARK  0 active torsions:
REMARK  status: ('A' for Active; 'I' for Inactive)
ROOT
ATOM      1  C   UNL d   1       1.017   0.335  -0.576  0.00  0.00     0.172 C 
ATOM      2  N   UNL d   1       0.173  -0.399   0.337  0.00  0.00    -0.070 N 
ATOM      3  C1  UNL d   1      -1.160  -0.170   0.552  0.00  0.00    -0.004 A 
ATOM      4  C2  UNL d   1      -1.598  -1.079   1.491  0.00  0.00    -0.047 A 
ATOM      5  C3  UNL d   1      -0.489  -1.881   1.854  0.00  0.00    -0.047 A 
ATOM      6  C4  UNL d   1       0.594  -1.438   1.124  0.00  0.00    -0.004 A 
ENDROOT
TORSDOF 0
ENDMDL
