MODEL 1
REMARK minimizedAffinity 13.5234261
REMARK minimizedRMSD -1
REMARK  0 active torsions:
REMARK  status: ('A' for Active; 'I' for Inactive)
ROOT
ATOM      1  C   UNL d   1       1.967  -0.945   4.944  0.00  0.00    -0.002 A 
ATOM      2  C1  UNL d   1       2.277  -1.792   5.999  0.00  0.00     0.010 A 
ATOM      3  C2  UNL d   1       3.432  -2.576   5.965  0.00  0.00     0.041 A 
ATOM      4  C3  UNL d   1       4.280  -2.492   4.842  0.00  0.00    -0.075 A 
ATOM      5  S   UNL d   1       5.748  -3.357   4.582  0.00  0.00     0.015 SA
ATOM      6  C4  UNL d   1       5.999  -2.622   3.065  0.00  0.00     0.022 A 
ATOM      7  C5  UNL d   1       4.997  -1.735   2.749  0.00  0.00     0.026 A 
ATOM      8  C6  UNL d   1       3.989  -1.646   3.768  0.00  0.00    -0.082 A 
ATOM      9  C7  UNL d   1       2.810  -0.865   3.833  0.00  0.00     0.045 A 
ENDROOT
TORSDOF 0
ENDMDL
