MODEL 1
REMARK minimizedAffinity 6.43498135
REMARK minimizedRMSD -1
REMARK  0 active torsions:
REMARK  status: ('A' for Active; 'I' for Inactive)
ROOT
ATOM      1  C   UNL d   1      -2.799   2.880  -5.982  0.00  0.00    -0.002 A 
ATOM      2  C1  UNL d   1      -2.793   4.105  -5.331  0.00  0.00     0.010 A 
ATOM      3  C2  UNL d   1      -1.979   4.313  -4.216  0.00  0.00     0.041 A 
ATOM      4  C3  UNL d   1      -1.163   3.259  -3.762  0.00  0.00    -0.075 A 
ATOM      5  S   UNL d   1      -0.085   3.284  -2.416  0.00  0.00     0.015 SA
ATOM      6  C4  UNL d   1       0.394   1.669  -2.674  0.00  0.00     0.022 A 
ATOM      7  C5  UNL d   1      -0.243   1.109  -3.756  0.00  0.00     0.026 A 
ATOM      8  C6  UNL d   1      -1.151   2.016  -4.401  0.00  0.00    -0.082 A 
ATOM      9  C7  UNL d   1      -1.987   1.836  -5.529  0.00  0.00     0.045 A 
ENDROOT
TORSDOF 0
ENDMDL
