MODEL 1
REMARK minimizedAffinity 11.9800558
REMARK minimizedRMSD -1
REMARK  0 active torsions:
REMARK  status: ('A' for Active; 'I' for Inactive)
ROOT
ATOM      1  C   UNL d   1       1.751   5.539  -1.530  0.00  0.00    -0.002 A 
ATOM      2  C1  UNL d   1       0.509   5.997  -1.946  0.00  0.00     0.010 A 
ATOM      3  C2  UNL d   1      -0.649   5.275  -1.652  0.00  0.00     0.041 A 
ATOM      4  C3  UNL d   1      -0.537   4.075  -0.923  0.00  0.00    -0.075 A 
ATOM      5  S   UNL d   1      -1.819   3.025  -0.446  0.00  0.00     0.015 SA
ATOM      6  C4  UNL d   1      -0.748   1.944   0.323  0.00  0.00     0.022 A 
ATOM      7  C5  UNL d   1       0.560   2.359   0.227  0.00  0.00     0.026 A 
ATOM      8  C6  UNL d   1       0.703   3.594  -0.492  0.00  0.00    -0.082 A 
ATOM      9  C7  UNL d   1       1.859   4.348  -0.807  0.00  0.00     0.045 A 
ENDROOT
TORSDOF 0
ENDMDL
