MODEL 1
REMARK minimizedAffinity 15.386342
REMARK minimizedRMSD -1
REMARK  0 active torsions:
REMARK  status: ('A' for Active; 'I' for Inactive)
ROOT
ATOM      1  C   UNL d   1       2.277  -6.000   0.773  0.00  0.00    -0.002 A 
ATOM      2  C1  UNL d   1       3.120  -4.898   0.721  0.00  0.00     0.010 A 
ATOM      3  C2  UNL d   1       2.776  -3.777  -0.038  0.00  0.00     0.041 A 
ATOM      4  C3  UNL d   1       1.560  -3.781  -0.747  0.00  0.00    -0.075 A 
ATOM      5  S   UNL d   1       0.932  -2.519  -1.741  0.00  0.00     0.015 SA
ATOM      6  C4  UNL d   1      -0.470  -3.412  -2.118  0.00  0.00     0.022 A 
ATOM      7  C5  UNL d   1      -0.475  -4.645  -1.510  0.00  0.00     0.026 A 
ATOM      8  C6  UNL d   1       0.694  -4.878  -0.709  0.00  0.00    -0.082 A 
ATOM      9  C7  UNL d   1       1.071  -6.000   0.067  0.00  0.00     0.045 A 
ENDROOT
TORSDOF 0
ENDMDL
