MODEL 1
REMARK minimizedAffinity 8.24111843
REMARK minimizedRMSD -1
REMARK  0 active torsions:
REMARK  status: ('A' for Active; 'I' for Inactive)
ROOT
ATOM      1  C   UNL d   1       0.449   5.910  -1.611  0.00  0.00    -0.002 A 
ATOM      2  C1  UNL d   1       1.654   5.306  -1.278  0.00  0.00     0.010 A 
ATOM      3  C2  UNL d   1       1.675   4.057  -0.655  0.00  0.00     0.041 A 
ATOM      4  C3  UNL d   1       0.452   3.416  -0.372  0.00  0.00    -0.075 A 
ATOM      5  S   UNL d   1       0.233   1.882   0.383  0.00  0.00     0.015 SA
ATOM      6  C4  UNL d   1      -1.465   1.991   0.281  0.00  0.00     0.022 A 
ATOM      7  C5  UNL d   1      -1.872   3.162  -0.312  0.00  0.00     0.026 A 
ATOM      8  C6  UNL d   1      -0.774   4.003  -0.699  0.00  0.00    -0.082 A 
ATOM      9  C7  UNL d   1      -0.761   5.271  -1.328  0.00  0.00     0.045 A 
ENDROOT
TORSDOF 0
ENDMDL
