MODEL 1
REMARK minimizedAffinity 9.27450275
REMARK minimizedRMSD -1
REMARK  0 active torsions:
REMARK  status: ('A' for Active; 'I' for Inactive)
ROOT
ATOM      1  C   UNL d   1       1.390  -0.528  -0.872  0.00  0.00    -0.002 A 
ATOM      2  C1  UNL d   1       0.999  -0.878   0.413  0.00  0.00     0.010 A 
ATOM      3  C2  UNL d   1       0.009  -0.150   1.077  0.00  0.00     0.041 A 
ATOM      4  C3  UNL d   1      -0.589   0.943   0.421  0.00  0.00    -0.075 A 
ATOM      5  S   UNL d   1      -1.822   1.978   1.038  0.00  0.00     0.015 SA
ATOM      6  C4  UNL d   1      -1.860   2.908  -0.390  0.00  0.00     0.022 A 
ATOM      7  C5  UNL d   1      -0.960   2.454  -1.325  0.00  0.00     0.026 A 
ATOM      8  C6  UNL d   1      -0.213   1.314  -0.873  0.00  0.00    -0.082 A 
ATOM      9  C7  UNL d   1       0.794   0.557  -1.519  0.00  0.00     0.045 A 
ENDROOT
TORSDOF 0
ENDMDL
