MODEL 1
REMARK minimizedAffinity 5.07968664
REMARK minimizedRMSD -1
REMARK  0 active torsions:
REMARK  status: ('A' for Active; 'I' for Inactive)
ROOT
ATOM      1  C   UNL d   1       5.675  -2.856   3.559  0.00  0.00    -0.002 A 
ATOM      2  C1  UNL d   1       5.813  -3.207   2.223  0.00  0.00     0.010 A 
ATOM      3  C2  UNL d   1       4.906  -2.741   1.269  0.00  0.00     0.041 A 
ATOM      4  C3  UNL d   1       3.850  -1.906   1.684  0.00  0.00    -0.075 A 
ATOM      5  S   UNL d   1       2.620  -1.215   0.693  0.00  0.00     0.015 SA
ATOM      6  C4  UNL d   1       1.884  -0.437   2.019  0.00  0.00     0.022 A 
ATOM      7  C5  UNL d   1       2.547  -0.688   3.197  0.00  0.00     0.026 A 
ATOM      8  C6  UNL d   1       3.691  -1.538   3.023  0.00  0.00    -0.082 A 
ATOM      9  C7  UNL d   1       4.626  -2.028   3.967  0.00  0.00     0.045 A 
ENDROOT
TORSDOF 0
ENDMDL
