MODEL 1
REMARK minimizedAffinity 13.0740471
REMARK minimizedRMSD -1
REMARK  0 active torsions:
REMARK  status: ('A' for Active; 'I' for Inactive)
ROOT
ATOM      1  C   UNL d   1      -1.433   3.761  -0.692  0.00  0.00    -0.002 A 
ATOM      2  C1  UNL d   1      -0.301   3.169  -0.149  0.00  0.00     0.010 A 
ATOM      3  C2  UNL d   1       0.299   2.076  -0.778  0.00  0.00     0.041 A 
ATOM      4  C3  UNL d   1      -0.261   1.585  -1.974  0.00  0.00    -0.075 A 
ATOM      5  S   UNL d   1       0.304   0.258  -2.918  0.00  0.00     0.015 SA
ATOM      6  C4  UNL d   1      -0.943   0.447  -4.065  0.00  0.00     0.022 A 
ATOM      7  C5  UNL d   1      -1.779   1.491  -3.750  0.00  0.00     0.026 A 
ATOM      8  C6  UNL d   1      -1.400   2.165  -2.540  0.00  0.00    -0.082 A 
ATOM      9  C7  UNL d   1      -1.986   3.271  -1.878  0.00  0.00     0.045 A 
ENDROOT
TORSDOF 0
ENDMDL
