MODEL 1
REMARK minimizedAffinity -0.457826614
REMARK minimizedRMSD -1
REMARK  0 active torsions:
REMARK  status: ('A' for Active; 'I' for Inactive)
ROOT
ATOM      1  C1  BNZ d   1       1.199  -0.075   0.092  0.00  0.00     0.000 A 
ATOM      2  C2  BNZ d   1       1.028  -1.064  -0.839  0.00  0.00     0.000 A 
ATOM      3  C3  BNZ d   1      -0.179  -1.690  -0.982  0.00  0.00     0.000 A 
ATOM      4  C4  BNZ d   1      -1.200  -1.354  -0.168  0.00  0.00     0.000 A 
ATOM      5  C5  BNZ d   1      -1.041  -0.365   0.782  0.00  0.00     0.000 A 
ATOM      6  C6  BNZ d   1       0.164   0.290   0.896  0.00  0.00     0.000 A 
ENDROOT
TORSDOF 0
ENDMDL
