MODEL 1
REMARK minimizedAffinity -2.06495047
REMARK minimizedRMSD -1
REMARK  0 active torsions:
REMARK  status: ('A' for Active; 'I' for Inactive)
ROOT
ATOM      1  C1  BNZ d   1      -0.270   0.428  -0.584  0.00  0.00     0.000 A 
ATOM      2  C2  BNZ d   1       0.457  -0.562   0.020  0.00  0.00     0.000 A 
ATOM      3  C3  BNZ d   1       0.734  -0.512   1.358  0.00  0.00     0.000 A 
ATOM      4  C4  BNZ d   1       0.317   0.548   2.081  0.00  0.00     0.000 A 
ATOM      5  C5  BNZ d   1      -0.409   1.560   1.484  0.00  0.00     0.000 A 
ATOM      6  C6  BNZ d   1      -0.718   1.486   0.145  0.00  0.00     0.000 A 
ENDROOT
TORSDOF 0
ENDMDL
