MODEL 1
REMARK minimizedAffinity -4.42454004
REMARK minimizedRMSD -1
REMARK  0 active torsions:
REMARK  status: ('A' for Active; 'I' for Inactive)
ROOT
ATOM      1  C1  BNZ d   1      -0.680   3.361   1.410  0.00  0.00     0.000 A 
ATOM      2  C2  BNZ d   1      -0.778   3.433   0.046  0.00  0.00     0.000 A 
ATOM      3  C3  BNZ d   1      -0.640   2.314  -0.726  0.00  0.00     0.000 A 
ATOM      4  C4  BNZ d   1      -0.364   1.132  -0.136  0.00  0.00     0.000 A 
ATOM      5  C5  BNZ d   1      -0.253   1.045   1.237  0.00  0.00     0.000 A 
ATOM      6  C6  BNZ d   1      -0.432   2.167   2.013  0.00  0.00     0.000 A 
ENDROOT
TORSDOF 0
ENDMDL
