MODEL 1
REMARK minimizedAffinity -3.87595606
REMARK minimizedRMSD -1
REMARK  0 active torsions:
REMARK  status: ('A' for Active; 'I' for Inactive)
ROOT
ATOM      1  C1  BNZ d   1      -0.352   1.868  -0.785  0.00  0.00     0.000 A 
ATOM      2  C2  BNZ d   1       0.398   0.741  -0.990  0.00  0.00     0.000 A 
ATOM      3  C3  BNZ d   1       0.688  -0.105   0.044  0.00  0.00     0.000 A 
ATOM      4  C4  BNZ d   1       0.264   0.199   1.287  0.00  0.00     0.000 A 
ATOM      5  C5  BNZ d   1      -0.485   1.337   1.512  0.00  0.00     0.000 A 
ATOM      6  C6  BNZ d   1      -0.808   2.165   0.462  0.00  0.00     0.000 A 
ENDROOT
TORSDOF 0
ENDMDL
