MODEL 1
REMARK minimizedAffinity -4.63038588
REMARK minimizedRMSD -1
REMARK  0 active torsions:
REMARK  status: ('A' for Active; 'I' for Inactive)
ROOT
ATOM      1  C1  BNZ d   1      -1.132   3.182   1.381  0.00  0.00     0.000 A 
ATOM      2  C2  BNZ d   1      -0.693   1.984   1.875  0.00  0.00     0.000 A 
ATOM      3  C3  BNZ d   1      -0.292   0.984   1.034  0.00  0.00     0.000 A 
ATOM      4  C4  BNZ d   1      -0.368   1.169  -0.300  0.00  0.00     0.000 A 
ATOM      5  C5  BNZ d   1      -0.818   2.369  -0.814  0.00  0.00     0.000 A 
ATOM      6  C6  BNZ d   1      -1.184   3.387   0.036  0.00  0.00     0.000 A 
ENDROOT
TORSDOF 0
ENDMDL
