MODEL 1
REMARK minimizedAffinity -1.62294269
REMARK minimizedRMSD -1
REMARK  0 active torsions:
REMARK  status: ('A' for Active; 'I' for Inactive)
ROOT
ATOM      1  C1  BNZ d   1      -0.838  -2.452  -2.239  0.00  0.00     0.000 A 
ATOM      2  C2  BNZ d   1      -1.588  -3.595  -2.307  0.00  0.00     0.000 A 
ATOM      3  C3  BNZ d   1      -1.263  -4.691  -1.558  0.00  0.00     0.000 A 
ATOM      4  C4  BNZ d   1      -0.166  -4.656  -0.774  0.00  0.00     0.000 A 
ATOM      5  C5  BNZ d   1       0.606  -3.514  -0.702  0.00  0.00     0.000 A 
ATOM      6  C6  BNZ d   1       0.253  -2.399  -1.427  0.00  0.00     0.000 A 
ENDROOT
TORSDOF 0
ENDMDL
