MODEL 1
REMARK minimizedAffinity 9.31363869
REMARK minimizedRMSD -1
REMARK  0 active torsions:
REMARK  status: ('A' for Active; 'I' for Inactive)
ROOT
ATOM      1  C4' PXY d   1      -2.187  -1.134   1.310  0.00  0.00     0.077 C 
ATOM      2  C1' PXY d   1      -2.305   0.265  -4.298  0.00  0.00     0.077 C 
ATOM      3  C1  PXY d   1      -2.268  -0.091  -2.825  0.00  0.00    -0.082 A 
ATOM      4  C2  PXY d   1      -2.378  -1.356  -2.454  0.00  0.00     0.003 A 
ATOM      5  C3  PXY d   1      -2.378  -1.693  -1.125  0.00  0.00     0.003 A 
ATOM      6  C4  PXY d   1      -2.210  -0.729  -0.167  0.00  0.00    -0.082 A 
ATOM      7  C5  PXY d   1      -2.087   0.563  -0.537  0.00  0.00     0.003 A 
ATOM      8  C6  PXY d   1      -2.130   0.888  -1.890  0.00  0.00     0.003 A 
ENDROOT
TORSDOF 0
ENDMDL
