MODEL 1
REMARK minimizedAffinity 5.69543362
REMARK minimizedRMSD -1
REMARK  0 active torsions:
REMARK  status: ('A' for Active; 'I' for Inactive)
ROOT
ATOM      1  C4' PXY d   1      -3.942   3.907  -2.544  0.00  0.00     0.077 C 
ATOM      2  C1' PXY d   1      -1.777  -1.451  -2.687  0.00  0.00     0.077 C 
ATOM      3  C1  PXY d   1      -2.350  -0.048  -2.638  0.00  0.00    -0.082 A 
ATOM      4  C2  PXY d   1      -2.588   0.601  -3.766  0.00  0.00     0.003 A 
ATOM      5  C3  PXY d   1      -3.076   1.883  -3.739  0.00  0.00     0.003 A 
ATOM      6  C4  PXY d   1      -3.373   2.486  -2.546  0.00  0.00    -0.082 A 
ATOM      7  C5  PXY d   1      -3.143   1.826  -1.391  0.00  0.00     0.003 A 
ATOM      8  C6  PXY d   1      -2.608   0.542  -1.439  0.00  0.00     0.003 A 
ENDROOT
TORSDOF 0
ENDMDL
