MODEL 1
REMARK minimizedAffinity 10.2132607
REMARK minimizedRMSD -1
REMARK  0 active torsions:
REMARK  status: ('A' for Active; 'I' for Inactive)
ROOT
ATOM      1  C4' PXY d   1       2.252   0.015   6.000  0.00  0.00     0.077 C 
ATOM      2  C1' PXY d   1       0.274  -3.605   1.951  0.00  0.00     0.077 C 
ATOM      3  C1  PXY d   1       0.788  -2.663   3.022  0.00  0.00    -0.082 A 
ATOM      4  C2  PXY d   1       1.005  -1.392   2.726  0.00  0.00     0.003 A 
ATOM      5  C3  PXY d   1       1.500  -0.534   3.674  0.00  0.00     0.003 A 
ATOM      6  C4  PXY d   1       1.725  -0.969   4.953  0.00  0.00    -0.082 A 
ATOM      7  C5  PXY d   1       1.496  -2.262   5.265  0.00  0.00     0.003 A 
ATOM      8  C6  PXY d   1       1.033  -3.127   4.277  0.00  0.00     0.003 A 
ENDROOT
TORSDOF 0
ENDMDL
