MODEL 1
REMARK minimizedAffinity 5.75958014
REMARK minimizedRMSD -1
REMARK  0 active torsions:
REMARK  status: ('A' for Active; 'I' for Inactive)
ROOT
ATOM      1  C4' PXY d   1      -1.998   0.243   0.939  0.00  0.00     0.077 C 
ATOM      2  C1' PXY d   1      -2.684  -0.495  -4.753  0.00  0.00     0.077 C 
ATOM      3  C1  PXY d   1      -2.503  -0.289  -3.262  0.00  0.00    -0.082 A 
ATOM      4  C2  PXY d   1      -2.036  -1.277  -2.517  0.00  0.00     0.003 A 
ATOM      5  C3  PXY d   1      -1.896  -1.118  -1.162  0.00  0.00     0.003 A 
ATOM      6  C4  PXY d   1      -2.188   0.083  -0.572  0.00  0.00    -0.082 A 
ATOM      7  C5  PXY d   1      -2.655   1.099  -1.327  0.00  0.00     0.003 A 
ATOM      8  C6  PXY d   1      -2.829   0.904  -2.694  0.00  0.00     0.003 A 
ENDROOT
TORSDOF 0
ENDMDL
