MODEL 1
REMARK minimizedAffinity 14.1316814
REMARK minimizedRMSD -1
REMARK  0 active torsions:
REMARK  status: ('A' for Active; 'I' for Inactive)
ROOT
ATOM      1  C4' PXY d   1      -3.561   3.884  -3.008  0.00  0.00     0.077 C 
ATOM      2  C1' PXY d   1      -1.493  -1.510  -2.808  0.00  0.00     0.077 C 
ATOM      3  C1  PXY d   1      -2.042  -0.097  -2.849  0.00  0.00    -0.082 A 
ATOM      4  C2  PXY d   1      -2.165   0.523  -4.011  0.00  0.00     0.003 A 
ATOM      5  C3  PXY d   1      -2.629   1.812  -4.064  0.00  0.00     0.003 A 
ATOM      6  C4  PXY d   1      -3.021   2.454  -2.920  0.00  0.00    -0.082 A 
ATOM      7  C5  PXY d   1      -2.909   1.824  -1.731  0.00  0.00     0.003 A 
ATOM      8  C6  PXY d   1      -2.397   0.530  -1.695  0.00  0.00     0.003 A 
ENDROOT
TORSDOF 0
ENDMDL
