MODEL 1
REMARK minimizedAffinity 11.4236794
REMARK minimizedRMSD -1
REMARK  0 active torsions:
REMARK  status: ('A' for Active; 'I' for Inactive)
ROOT
ATOM      1  C4' PXY d   1      -2.657   2.825  -3.804  0.00  0.00     0.077 C 
ATOM      2  C1' PXY d   1      -2.755  -2.919  -3.162  0.00  0.00     0.077 C 
ATOM      3  C1  PXY d   1      -2.727  -1.411  -3.318  0.00  0.00    -0.082 A 
ATOM      4  C2  PXY d   1      -3.323  -0.850  -4.357  0.00  0.00     0.003 A 
ATOM      5  C3  PXY d   1      -3.280   0.510  -4.530  0.00  0.00     0.003 A 
ATOM      6  C4  PXY d   1      -2.667   1.307  -3.601  0.00  0.00    -0.082 A 
ATOM      7  C5  PXY d   1      -2.067   0.743  -2.532  0.00  0.00     0.003 A 
ATOM      8  C6  PXY d   1      -2.086  -0.642  -2.396  0.00  0.00     0.003 A 
ENDROOT
TORSDOF 0
ENDMDL
