MODEL 1
REMARK minimizedAffinity 4.93787766
REMARK minimizedRMSD -1
REMARK  0 active torsions:
REMARK  status: ('A' for Active; 'I' for Inactive)
ROOT
ATOM      1  C4' PXY d   1      -3.222   2.848  -2.564  0.00  0.00     0.077 C 
ATOM      2  C1' PXY d   1      -0.697  -2.027  -4.374  0.00  0.00     0.077 C 
ATOM      3  C1  PXY d   1      -1.371  -0.753  -3.904  0.00  0.00    -0.082 A 
ATOM      4  C2  PXY d   1      -0.652   0.346  -3.744  0.00  0.00     0.003 A 
ATOM      5  C3  PXY d   1      -1.239   1.499  -3.289  0.00  0.00     0.003 A 
ATOM      6  C4  PXY d   1      -2.586   1.541  -3.046  0.00  0.00    -0.082 A 
ATOM      7  C5  PXY d   1      -3.328   0.426  -3.216  0.00  0.00     0.003 A 
ATOM      8  C6  PXY d   1      -2.705  -0.745  -3.639  0.00  0.00     0.003 A 
ENDROOT
TORSDOF 0
ENDMDL
