MODEL 1
REMARK minimizedAffinity -3.98409605
REMARK minimizedRMSD -1
REMARK  0 active torsions:
REMARK  status: ('A' for Active; 'I' for Inactive)
ROOT
ATOM      1  C   UNL d   1       1.046  -0.619   3.367  0.00  0.00     0.020 A 
ATOM      2  C1  UNL d   1       1.946  -0.133   2.420  0.00  0.00     0.020 A 
ATOM      3  C2  UNL d   1       1.518   0.121   1.116  0.00  0.00     0.034 A 
ATOM      4  C3  UNL d   1       0.186  -0.111   0.754  0.00  0.00     0.017 A 
ATOM      5  C4  UNL d   1      -0.717  -0.600   1.705  0.00  0.00     0.017 A 
ATOM      6  C5  UNL d   1      -0.283  -0.852   3.010  0.00  0.00     0.034 A 
ATOM      7 Cl   UNL d   1      -2.376  -0.911   1.334  0.00  0.00    -0.070 Cl
ATOM      8 Cl1  UNL d   1      -0.274   0.225  -0.877  0.00  0.00    -0.070 Cl
ENDROOT
TORSDOF 0
ENDMDL
