MODEL 1
REMARK minimizedAffinity -5.11771345
REMARK minimizedRMSD -1
REMARK  0 active torsions:
REMARK  status: ('A' for Active; 'I' for Inactive)
ROOT
ATOM      1  C   UNL d   1       2.301  -1.268   1.778  0.00  0.00     0.020 A 
ATOM      2  C1  UNL d   1       1.792  -0.891   3.020  0.00  0.00     0.020 A 
ATOM      3  C2  UNL d   1       0.532  -0.294   3.106  0.00  0.00     0.034 A 
ATOM      4  C3  UNL d   1      -0.223  -0.073   1.949  0.00  0.00     0.017 A 
ATOM      5  C4  UNL d   1       0.289  -0.452   0.703  0.00  0.00     0.017 A 
ATOM      6  C5  UNL d   1       1.551  -1.049   0.622  0.00  0.00     0.034 A 
ATOM      7 Cl   UNL d   1      -0.584  -0.211  -0.770  0.00  0.00    -0.070 Cl
ATOM      8 Cl1  UNL d   1      -1.773   0.668   2.130  0.00  0.00    -0.070 Cl
ENDROOT
TORSDOF 0
ENDMDL
