MODEL 1
REMARK minimizedAffinity -3.85936141
REMARK minimizedRMSD -1
REMARK  0 active torsions:
REMARK  status: ('A' for Active; 'I' for Inactive)
ROOT
ATOM      1  C   UNL d   1      -0.010  -0.363   2.628  0.00  0.00     0.020 A 
ATOM      2  C1  UNL d   1      -1.113   0.335   2.137  0.00  0.00     0.020 A 
ATOM      3  C2  UNL d   1      -1.265   0.523   0.762  0.00  0.00     0.034 A 
ATOM      4  C3  UNL d   1      -0.312   0.012  -0.128  0.00  0.00     0.017 A 
ATOM      5  C4  UNL d   1       0.794  -0.688   0.366  0.00  0.00     0.017 A 
ATOM      6  C5  UNL d   1       0.941  -0.874   1.744  0.00  0.00     0.034 A 
ATOM      7 Cl   UNL d   1       2.011  -1.348  -0.670  0.00  0.00    -0.070 Cl
ATOM      8 Cl1  UNL d   1      -0.564   0.282  -1.816  0.00  0.00    -0.070 Cl
ENDROOT
TORSDOF 0
ENDMDL
