MODEL 1
REMARK minimizedAffinity -2.60771585
REMARK minimizedRMSD -1
REMARK  0 active torsions:
REMARK  status: ('A' for Active; 'I' for Inactive)
ROOT
ATOM      1  C   UNL d   1       1.939   0.215   1.184  0.00  0.00     0.020 A 
ATOM      2  C1  UNL d   1       1.283  -0.305   2.300  0.00  0.00     0.020 A 
ATOM      3  C2  UNL d   1      -0.087  -0.570   2.244  0.00  0.00     0.034 A 
ATOM      4  C3  UNL d   1      -0.805  -0.315   1.070  0.00  0.00     0.017 A 
ATOM      5  C4  UNL d   1      -0.146   0.206  -0.049  0.00  0.00     0.017 A 
ATOM      6  C5  UNL d   1       1.226   0.470   0.012  0.00  0.00     0.034 A 
ATOM      7 Cl   UNL d   1      -0.965   0.546  -1.533  0.00  0.00    -0.070 Cl
ATOM      8 Cl1  UNL d   1      -2.497  -0.667   1.071  0.00  0.00    -0.070 Cl
ENDROOT
TORSDOF 0
ENDMDL
