MODEL 1
REMARK minimizedAffinity -3.48331237
REMARK minimizedRMSD -1
REMARK  0 active torsions:
REMARK  status: ('A' for Active; 'I' for Inactive)
ROOT
ATOM      1  C   UNL d   1       2.611  -1.780   1.491  0.00  0.00     0.020 A 
ATOM      2  C1  UNL d   1       2.007  -0.776   2.246  0.00  0.00     0.020 A 
ATOM      3  C2  UNL d   1       1.024   0.033   1.672  0.00  0.00     0.034 A 
ATOM      4  C3  UNL d   1       0.643  -0.160   0.339  0.00  0.00     0.017 A 
ATOM      5  C4  UNL d   1       1.250  -1.169  -0.418  0.00  0.00     0.017 A 
ATOM      6  C5  UNL d   1       2.234  -1.976   0.162  0.00  0.00     0.034 A 
ATOM      7 Cl   UNL d   1       0.833  -1.468  -2.069  0.00  0.00    -0.070 Cl
ATOM      8 Cl1  UNL d   1      -0.579   0.877  -0.306  0.00  0.00    -0.070 Cl
ENDROOT
TORSDOF 0
ENDMDL
