MODEL 1
REMARK minimizedAffinity -2.68212795
REMARK minimizedRMSD -1
REMARK  0 active torsions:
REMARK  status: ('A' for Active; 'I' for Inactive)
ROOT
ATOM      1  C   UNL d   1      -1.405   0.456   0.225  0.00  0.00     0.020 A 
ATOM      2  C1  UNL d   1      -0.781   0.226  -1.001  0.00  0.00     0.020 A 
ATOM      3  C2  UNL d   1       0.470  -0.393  -1.042  0.00  0.00     0.034 A 
ATOM      4  C3  UNL d   1       1.102  -0.783   0.145  0.00  0.00     0.017 A 
ATOM      5  C4  UNL d   1       0.475  -0.552   1.374  0.00  0.00     0.017 A 
ATOM      6  C5  UNL d   1      -0.778   0.068   1.410  0.00  0.00     0.034 A 
ATOM      7 Cl   UNL d   1       1.192  -1.006   2.880  0.00  0.00    -0.070 Cl
ATOM      8 Cl1  UNL d   1       2.649  -1.543   0.019  0.00  0.00    -0.070 Cl
ENDROOT
TORSDOF 0
ENDMDL
