MODEL 1
REMARK minimizedAffinity -2.86494851
REMARK minimizedRMSD -1
REMARK  0 active torsions:
REMARK  status: ('A' for Active; 'I' for Inactive)
ROOT
ATOM      1  C   UNL d   1       2.678  -0.749   1.400  0.00  0.00     0.020 A 
ATOM      2  C1  UNL d   1       2.295  -0.462   0.090  0.00  0.00     0.020 A 
ATOM      3  C2  UNL d   1       0.946  -0.508  -0.269  0.00  0.00     0.034 A 
ATOM      4  C3  UNL d   1      -0.025  -0.840   0.683  0.00  0.00     0.017 A 
ATOM      5  C4  UNL d   1       0.360  -1.128   1.998  0.00  0.00     0.017 A 
ATOM      6  C5  UNL d   1       1.712  -1.081   2.352  0.00  0.00     0.034 A 
ATOM      7 Cl   UNL d   1      -0.780  -1.546   3.227  0.00  0.00    -0.070 Cl
ATOM      8 Cl1  UNL d   1      -1.674  -0.877   0.169  0.00  0.00    -0.070 Cl
ENDROOT
TORSDOF 0
ENDMDL
