MODEL 1
REMARK minimizedAffinity -4.68408585
REMARK minimizedRMSD -1
REMARK  0 active torsions:
REMARK  status: ('A' for Active; 'I' for Inactive)
ROOT
ATOM      1  C   UNL d   1       1.002  -1.670   1.842  0.00  0.00     0.020 A 
ATOM      2  C1  UNL d   1      -0.049  -0.783   2.072  0.00  0.00     0.020 A 
ATOM      3  C2  UNL d   1      -0.585  -0.047   1.014  0.00  0.00     0.034 A 
ATOM      4  C3  UNL d   1      -0.071  -0.196  -0.279  0.00  0.00     0.017 A 
ATOM      5  C4  UNL d   1       0.984  -1.087  -0.509  0.00  0.00     0.017 A 
ATOM      6  C5  UNL d   1       1.517  -1.821   0.555  0.00  0.00     0.034 A 
ATOM      7 Cl   UNL d   1       1.672  -1.325  -2.077  0.00  0.00    -0.070 Cl
ATOM      8 Cl1  UNL d   1      -0.782   0.746  -1.541  0.00  0.00    -0.070 Cl
ENDROOT
TORSDOF 0
ENDMDL
