MODEL 1
REMARK minimizedAffinity -0.952843249
REMARK minimizedRMSD -1
REMARK  0 active torsions:
REMARK  status: ('A' for Active; 'I' for Inactive)
ROOT
ATOM      1  N1  IND d   1       0.430  -0.047   0.988  0.00  0.00    -0.196 N 
ATOM      2  C2  IND d   1      -0.766  -0.309   1.597  0.00  0.00     0.054 A 
ATOM      3  C3  IND d   1      -1.782   0.242   0.896  0.00  0.00    -0.031 A 
ATOM      4  C4  IND d   1      -1.721   1.530  -1.332  0.00  0.00     0.051 A 
ATOM      5  C5  IND d   1      -0.855   2.050  -2.252  0.00  0.00    -0.031 A 
ATOM      6  C6  IND d   1       0.511   1.893  -2.139  0.00  0.00     0.015 A 
ATOM      7  C7  IND d   1       1.064   1.196  -1.101  0.00  0.00    -0.016 A 
ATOM      8  C8  IND d   1       0.188   0.672  -0.161  0.00  0.00    -0.047 A 
ATOM      9  C9  IND d   1      -1.197   0.865  -0.249  0.00  0.00    -0.096 A 
ATOM     10  HN1 IND d   1       1.203  -0.291   1.275  0.00  0.00     0.298 HD
ENDROOT
TORSDOF 0
ENDMDL
