MODEL 1
REMARK minimizedAffinity -0.465076059
REMARK minimizedRMSD -1
REMARK  0 active torsions:
REMARK  status: ('A' for Active; 'I' for Inactive)
ROOT
ATOM      1  N1  IND d   1       0.243  -0.389  -1.756  0.00  0.00    -0.196 N 
ATOM      2  C2  IND d   1      -0.753   0.447  -2.178  0.00  0.00     0.054 A 
ATOM      3  C3  IND d   1      -1.473   0.890  -1.123  0.00  0.00    -0.031 A 
ATOM      4  C4  IND d   1      -1.133   0.451   1.390  0.00  0.00     0.051 A 
ATOM      5  C5  IND d   1      -0.377  -0.280   2.263  0.00  0.00    -0.031 A 
ATOM      6  C6  IND d   1       0.647  -1.099   1.833  0.00  0.00     0.015 A 
ATOM      7  C7  IND d   1       0.962  -1.209   0.508  0.00  0.00    -0.016 A 
ATOM      8  C8  IND d   1       0.191  -0.474  -0.382  0.00  0.00    -0.047 A 
ATOM      9  C9  IND d   1      -0.877   0.325   0.045  0.00  0.00    -0.096 A 
ATOM     10  HN1 IND d   1       0.806  -0.795  -2.264  0.00  0.00     0.298 HD
ENDROOT
TORSDOF 0
ENDMDL
