MODEL 1
REMARK minimizedAffinity -4.25795794
REMARK minimizedRMSD -1
REMARK  0 active torsions:
REMARK  status: ('A' for Active; 'I' for Inactive)
ROOT
ATOM      1  N1  IND d   1      -0.849   0.042  -0.805  0.00  0.00    -0.196 N 
ATOM      2  C2  IND d   1       0.199  -0.105  -1.670  0.00  0.00     0.054 A 
ATOM      3  C3  IND d   1       1.352  -0.286  -0.987  0.00  0.00    -0.031 A 
ATOM      4  C4  IND d   1       1.735  -0.479   1.551  0.00  0.00     0.051 A 
ATOM      5  C5  IND d   1       1.087  -0.374   2.750  0.00  0.00    -0.031 A 
ATOM      6  C6  IND d   1      -0.268  -0.123   2.826  0.00  0.00     0.015 A 
ATOM      7  C7  IND d   1      -1.030   0.022   1.702  0.00  0.00    -0.016 A 
ATOM      8  C8  IND d   1      -0.374  -0.077   0.483  0.00  0.00    -0.047 A 
ATOM      9  C9  IND d   1       1.009  -0.289   0.400  0.00  0.00    -0.096 A 
ATOM     10  HN1 IND d   1      -1.667   0.184  -1.027  0.00  0.00     0.298 HD
ENDROOT
TORSDOF 0
ENDMDL
