MODEL 1
REMARK minimizedAffinity -0.137275115
REMARK minimizedRMSD -1
REMARK  0 active torsions:
REMARK  status: ('A' for Active; 'I' for Inactive)
ROOT
ATOM      1  N1  IND d   1       1.117  -0.376  -0.995  0.00  0.00    -0.196 N 
ATOM      2  C2  IND d   1       0.217   0.254  -1.809  0.00  0.00     0.054 A 
ATOM      3  C3  IND d   1      -0.878   0.619  -1.105  0.00  0.00    -0.031 A 
ATOM      4  C4  IND d   1      -1.361   0.375   1.412  0.00  0.00     0.051 A 
ATOM      5  C5  IND d   1      -0.854  -0.169   2.558  0.00  0.00    -0.031 A 
ATOM      6  C6  IND d   1       0.363  -0.819   2.580  0.00  0.00     0.015 A 
ATOM      7  C7  IND d   1       1.126  -0.942   1.453  0.00  0.00    -0.016 A 
ATOM      8  C8  IND d   1       0.610  -0.397   0.286  0.00  0.00    -0.047 A 
ATOM      9  C9  IND d   1      -0.644   0.227   0.249  0.00  0.00    -0.096 A 
ATOM     10  HN1 IND d   1       1.873  -0.703  -1.241  0.00  0.00     0.298 HD
ENDROOT
TORSDOF 0
ENDMDL
