MODEL 1
REMARK minimizedAffinity -1.91162455
REMARK minimizedRMSD -1
REMARK  0 active torsions:
REMARK  status: ('A' for Active; 'I' for Inactive)
ROOT
ATOM      1  N1  IND d   1       1.122   0.470  -1.211  0.00  0.00    -0.196 N 
ATOM      2  C2  IND d   1       0.030   0.781  -1.974  0.00  0.00     0.054 A 
ATOM      3  C3  IND d   1      -1.108   0.561  -1.278  0.00  0.00    -0.031 A 
ATOM      4  C4  IND d   1      -1.411  -0.210   1.159  0.00  0.00     0.051 A 
ATOM      5  C5  IND d   1      -0.708  -0.651   2.245  0.00  0.00    -0.031 A 
ATOM      6  C6  IND d   1       0.669  -0.740   2.235  0.00  0.00     0.015 A 
ATOM      7  C7  IND d   1       1.398  -0.379   1.137  0.00  0.00    -0.016 A 
ATOM      8  C8  IND d   1       0.687   0.063   0.031  0.00  0.00    -0.047 A 
ATOM      9  C9  IND d   1      -0.713   0.114   0.020  0.00  0.00    -0.096 A 
ATOM     10  HN1 IND d   1       1.942   0.521  -1.465  0.00  0.00     0.298 HD
ENDROOT
TORSDOF 0
ENDMDL
