MODEL 1
REMARK minimizedAffinity -2.09045291
REMARK minimizedRMSD -1
REMARK  0 active torsions:
REMARK  status: ('A' for Active; 'I' for Inactive)
ROOT
ATOM      1  N1  IND d   1       0.239   0.392  -0.903  0.00  0.00    -0.196 N 
ATOM      2  C2  IND d   1      -1.111   0.607  -0.949  0.00  0.00     0.054 A 
ATOM      3  C3  IND d   1      -1.686   0.233   0.217  0.00  0.00    -0.031 A 
ATOM      4  C4  IND d   1      -0.590  -0.659   2.369  0.00  0.00     0.051 A 
ATOM      5  C5  IND d   1       0.613  -1.058   2.879  0.00  0.00    -0.031 A 
ATOM      6  C6  IND d   1       1.777  -0.990   2.141  0.00  0.00     0.015 A 
ATOM      7  C7  IND d   1       1.783  -0.508   0.863  0.00  0.00    -0.016 A 
ATOM      8  C8  IND d   1       0.562  -0.108   0.339  0.00  0.00    -0.047 A 
ATOM      9  C9  IND d   1      -0.630  -0.214   1.068  0.00  0.00    -0.096 A 
ATOM     10  HN1 IND d   1       0.792   0.545  -1.543  0.00  0.00     0.298 HD
ENDROOT
TORSDOF 0
ENDMDL
