MODEL 1
REMARK minimizedAffinity -2.29470825
REMARK minimizedRMSD -1
REMARK  0 active torsions:
REMARK  status: ('A' for Active; 'I' for Inactive)
ROOT
ATOM      1  N1  IND d   1       1.094  -1.132  -1.436  0.00  0.00    -0.196 N 
ATOM      2  C2  IND d   1       2.455  -1.188  -1.325  0.00  0.00     0.054 A 
ATOM      3  C3  IND d   1       2.855  -0.628  -0.161  0.00  0.00    -0.031 A 
ATOM      4  C4  IND d   1       1.441   0.351   1.754  0.00  0.00     0.051 A 
ATOM      5  C5  IND d   1       0.153   0.657   2.095  0.00  0.00    -0.031 A 
ATOM      6  C6  IND d   1      -0.909   0.374   1.261  0.00  0.00     0.015 A 
ATOM      7  C7  IND d   1      -0.722  -0.239   0.054  0.00  0.00    -0.016 A 
ATOM      8  C8  IND d   1       0.585  -0.544  -0.299  0.00  0.00    -0.047 A 
ATOM      9  C9  IND d   1       1.670  -0.221   0.525  0.00  0.00    -0.096 A 
ATOM     10  HN1 IND d   1       0.633  -1.416  -2.104  0.00  0.00     0.298 HD
ENDROOT
TORSDOF 0
ENDMDL
