MODEL 1
REMARK minimizedAffinity -3.75831556
REMARK minimizedRMSD -1
REMARK  0 active torsions:
REMARK  status: ('A' for Active; 'I' for Inactive)
ROOT
ATOM      1  N1  IND d   1       0.213   0.707  -0.052  0.00  0.00    -0.196 N 
ATOM      2  C2  IND d   1      -1.149   0.807   0.004  0.00  0.00     0.054 A 
ATOM      3  C3  IND d   1      -1.612   0.283   1.161  0.00  0.00    -0.031 A 
ATOM      4  C4  IND d   1      -0.306  -0.698   3.151  0.00  0.00     0.051 A 
ATOM      5  C5  IND d   1       0.957  -1.035   3.549  0.00  0.00    -0.031 A 
ATOM      6  C6  IND d   1       2.060  -0.801   2.752  0.00  0.00     0.015 A 
ATOM      7  C7  IND d   1       1.940  -0.209   1.527  0.00  0.00    -0.016 A 
ATOM      8  C8  IND d   1       0.658   0.128   1.116  0.00  0.00    -0.047 A 
ATOM      9  C9  IND d   1      -0.469  -0.145   1.902  0.00  0.00    -0.096 A 
ATOM     10  HN1 IND d   1       0.708   0.963  -0.706  0.00  0.00     0.298 HD
ENDROOT
TORSDOF 0
ENDMDL
