MODEL 1
REMARK minimizedAffinity -1.44937539
REMARK minimizedRMSD -1
REMARK  2 active torsions:
REMARK  status: ('A' for Active; 'I' for Inactive)
REMARK    1  A    between atoms: C1_2  and  C2_3 
REMARK    2  A    between atoms: C2_3  and  C3_4 
ROOT
ATOM      1  C3  UNL d   1      -0.365  -0.853   3.052  0.00  0.00    -0.075 A 
ATOM      2  C4  UNL d   1      -0.299  -1.373   4.352  0.00  0.00     0.002 A 
ATOM      3  C5  UNL d   1       0.922  -1.779   4.892  0.00  0.00     0.002 A 
ATOM      4  C6  UNL d   1       2.089  -1.679   4.136  0.00  0.00    -0.004 A 
ATOM      5  C7  UNL d   1       2.032  -1.179   2.837  0.00  0.00     0.002 A 
ATOM      6  C8  UNL d   1       0.813  -0.769   2.296  0.00  0.00     0.002 A 
ENDROOT
BRANCH   1   7
ATOM      7  C2  UNL d   1      -1.678  -0.385   2.473  0.00  0.00     0.056 C 
BRANCH   7   8
ATOM      8  C1  UNL d   1      -1.585   0.091   1.019  0.00  0.00     0.007 C 
ATOM      9  C   UNL d   1      -2.014  -0.967   0.012  0.00  0.00     0.009 C 
ENDBRANCH   7   8
ENDBRANCH   1   7
TORSDOF 2
ENDMDL
