MODEL 1
REMARK minimizedAffinity 6.9064002
REMARK minimizedRMSD -1
REMARK  2 active torsions:
REMARK  status: ('A' for Active; 'I' for Inactive)
REMARK    1  A    between atoms: C1_2  and  C2_3 
REMARK    2  A    between atoms: C2_3  and  C3_4 
ROOT
ATOM      1  C3  UNL d   1      -0.137  -0.741   2.341  0.00  0.00    -0.075 A 
ATOM      2  C4  UNL d   1      -0.096  -0.758   0.939  0.00  0.00     0.002 A 
ATOM      3  C5  UNL d   1      -1.246  -0.493   0.194  0.00  0.00     0.002 A 
ATOM      4  C6  UNL d   1      -2.449  -0.218   0.839  0.00  0.00    -0.004 A 
ATOM      5  C7  UNL d   1      -2.505  -0.214   2.231  0.00  0.00     0.002 A 
ATOM      6  C8  UNL d   1      -1.355  -0.474   2.979  0.00  0.00     0.002 A 
ENDROOT
BRANCH   1   7
ATOM      7  C2  UNL d   1       1.110  -0.997   3.153  0.00  0.00     0.056 C 
BRANCH   7   8
ATOM      8  C1  UNL d   1       0.836  -1.435   4.596  0.00  0.00     0.007 C 
ATOM      9  C   UNL d   1       2.085  -1.905   5.328  0.00  0.00     0.009 C 
ENDBRANCH   7   8
ENDBRANCH   1   7
TORSDOF 2
ENDMDL
