MODEL 1
REMARK minimizedAffinity 6.25597858
REMARK minimizedRMSD -1
REMARK  2 active torsions:
REMARK  status: ('A' for Active; 'I' for Inactive)
REMARK    1  A    between atoms: C1_2  and  C2_3 
REMARK    2  A    between atoms: C2_3  and  C3_4 
ROOT
ATOM      1  C3  UNL d   1      -0.299  -0.678   3.273  0.00  0.00    -0.075 A 
ATOM      2  C4  UNL d   1       0.693  -0.547   2.291  0.00  0.00     0.002 A 
ATOM      3  C5  UNL d   1       2.025  -0.837   2.587  0.00  0.00     0.002 A 
ATOM      4  C6  UNL d   1       2.383  -1.251   3.868  0.00  0.00    -0.004 A 
ATOM      5  C7  UNL d   1       1.408  -1.369   4.856  0.00  0.00     0.002 A 
ATOM      6  C8  UNL d   1       0.074  -1.084   4.561  0.00  0.00     0.002 A 
ENDROOT
BRANCH   1   7
ATOM      7  C2  UNL d   1      -1.747  -0.394   2.951  0.00  0.00     0.056 C 
BRANCH   7   8
ATOM      8  C1  UNL d   1      -1.947   0.618   1.818  0.00  0.00     0.007 C 
ATOM      9  C   UNL d   1      -2.316  -0.031   0.491  0.00  0.00     0.009 C 
ENDBRANCH   7   8
ENDBRANCH   1   7
TORSDOF 2
ENDMDL
