MODEL 1
REMARK minimizedAffinity 5.54762459
REMARK minimizedRMSD -1
REMARK  2 active torsions:
REMARK  status: ('A' for Active; 'I' for Inactive)
REMARK    1  A    between atoms: C1_2  and  C2_3 
REMARK    2  A    between atoms: C2_3  and  C3_4 
ROOT
ATOM      1  C3  UNL d   1      -0.238  -0.302   0.803  0.00  0.00    -0.075 A 
ATOM      2  C4  UNL d   1      -1.137   0.459   1.564  0.00  0.00     0.002 A 
ATOM      3  C5  UNL d   1      -2.500   0.451   1.265  0.00  0.00     0.002 A 
ATOM      4  C6  UNL d   1      -2.979  -0.307   0.199  0.00  0.00    -0.004 A 
ATOM      5  C7  UNL d   1      -2.092  -1.054  -0.574  0.00  0.00     0.002 A 
ATOM      6  C8  UNL d   1      -0.728  -1.051  -0.275  0.00  0.00     0.002 A 
ENDROOT
BRANCH   1   7
ATOM      7  C2  UNL d   1       1.235  -0.321   1.139  0.00  0.00     0.056 C 
BRANCH   7   8
ATOM      8  C1  UNL d   1       2.118   0.392   0.110  0.00  0.00     0.007 C 
ATOM      9  C   UNL d   1       3.024   1.450   0.726  0.00  0.00     0.009 C 
ENDBRANCH   7   8
ENDBRANCH   1   7
TORSDOF 2
ENDMDL
