MODEL 1
REMARK minimizedAffinity 18.0166397
REMARK minimizedRMSD -1
REMARK  0 active torsions:
REMARK  status: ('A' for Active; 'I' for Inactive)
ROOT
ATOM      1  C   UNL d   1      -4.392  -0.419  -0.084  0.00  0.00     0.077 C 
ATOM      2  C1  UNL d   1      -3.564   0.500  -0.932  0.00  0.00    -0.074 A 
ATOM      3  C2  UNL d   1      -4.057   1.002  -2.141  0.00  0.00    -0.005 A 
ATOM      4  C3  UNL d   1      -3.280   1.863  -2.915  0.00  0.00     0.006 A 
ATOM      5  C4  UNL d   1      -2.003   2.231  -2.489  0.00  0.00    -0.005 A 
ATOM      6  C5  UNL d   1      -1.493   1.739  -1.283  0.00  0.00    -0.074 A 
ATOM      7  C6  UNL d   1      -0.126   2.132  -0.806  0.00  0.00     0.077 C 
ATOM      8  C7  UNL d   1      -2.283   0.880  -0.507  0.00  0.00    -0.001 A 
ENDROOT
TORSDOF 0
ENDMDL
