MODEL 1
REMARK minimizedAffinity 15.6325693
REMARK minimizedRMSD -1
REMARK  0 active torsions:
REMARK  status: ('A' for Active; 'I' for Inactive)
ROOT
ATOM      1  C   UNL d   1       2.368   2.385   2.380  0.00  0.00     0.077 C 
ATOM      2  C1  UNL d   1       1.190   2.689   1.504  0.00  0.00    -0.074 A 
ATOM      3  C2  UNL d   1      -0.115   2.446   1.944  0.00  0.00    -0.005 A 
ATOM      4  C3  UNL d   1      -1.202   2.742   1.121  0.00  0.00     0.006 A 
ATOM      5  C4  UNL d   1      -0.995   3.284  -0.148  0.00  0.00    -0.005 A 
ATOM      6  C5  UNL d   1       0.303   3.535  -0.605  0.00  0.00    -0.074 A 
ATOM      7  C6  UNL d   1       0.543   4.127  -1.962  0.00  0.00     0.077 C 
ATOM      8  C7  UNL d   1       1.389   3.241   0.230  0.00  0.00    -0.001 A 
ENDROOT
TORSDOF 0
ENDMDL
