MODEL 1
REMARK minimizedAffinity 2.44918871
REMARK minimizedRMSD -1
REMARK  0 active torsions:
REMARK  status: ('A' for Active; 'I' for Inactive)
ROOT
ATOM      1  C   UNL d   1       6.000  -5.378  -2.506  0.00  0.00     0.077 C 
ATOM      2  C1  UNL d   1       5.503  -4.146  -3.202  0.00  0.00    -0.074 A 
ATOM      3  C2  UNL d   1       5.997  -3.783  -4.459  0.00  0.00    -0.005 A 
ATOM      4  C3  UNL d   1       5.519  -2.639  -5.099  0.00  0.00     0.006 A 
ATOM      5  C4  UNL d   1       4.544  -1.849  -4.489  0.00  0.00    -0.005 A 
ATOM      6  C5  UNL d   1       4.037  -2.197  -3.233  0.00  0.00    -0.074 A 
ATOM      7  C6  UNL d   1       2.982  -1.364  -2.568  0.00  0.00     0.077 C 
ATOM      8  C7  UNL d   1       4.518  -3.352  -2.600  0.00  0.00    -0.001 A 
ENDROOT
TORSDOF 0
ENDMDL
