MODEL 1
REMARK minimizedAffinity 2.72654581
REMARK minimizedRMSD -1
REMARK  0 active torsions:
REMARK  status: ('A' for Active; 'I' for Inactive)
ROOT
ATOM      1  C   UNL d   1       0.448   3.864  -1.708  0.00  0.00     0.077 C 
ATOM      2  C1  UNL d   1       0.846   3.326  -0.366  0.00  0.00    -0.074 A 
ATOM      3  C2  UNL d   1       1.613   4.093   0.518  0.00  0.00    -0.005 A 
ATOM      4  C3  UNL d   1       1.967   3.583   1.766  0.00  0.00     0.006 A 
ATOM      5  C4  UNL d   1       1.559   2.303   2.144  0.00  0.00    -0.005 A 
ATOM      6  C5  UNL d   1       0.791   1.522   1.275  0.00  0.00    -0.074 A 
ATOM      7  C6  UNL d   1       0.336   0.148   1.669  0.00  0.00     0.077 C 
ATOM      8  C7  UNL d   1       0.433   2.044   0.024  0.00  0.00    -0.001 A 
ENDROOT
TORSDOF 0
ENDMDL
