MODEL 1
REMARK minimizedAffinity -2.69796348
REMARK minimizedRMSD -1
REMARK  0 active torsions:
REMARK  status: ('A' for Active; 'I' for Inactive)
ROOT
ATOM      1  C   UNL d   1       0.029   4.641  -0.077  0.00  0.00     0.077 C 
ATOM      2  C1  UNL d   1       0.103   3.150   0.066  0.00  0.00    -0.074 A 
ATOM      3  C2  UNL d   1       0.215   2.325  -1.058  0.00  0.00    -0.005 A 
ATOM      4  C3  UNL d   1       0.293   0.941  -0.909  0.00  0.00     0.006 A 
ATOM      5  C4  UNL d   1       0.259   0.368   0.363  0.00  0.00    -0.005 A 
ATOM      6  C5  UNL d   1       0.149   1.177   1.499  0.00  0.00    -0.074 A 
ATOM      7  C6  UNL d   1       0.122   0.578   2.874  0.00  0.00     0.077 C 
ATOM      8  C7  UNL d   1       0.078   2.568   1.341  0.00  0.00    -0.001 A 
ENDROOT
TORSDOF 0
ENDMDL
