MODEL 1
REMARK minimizedAffinity 9.29891205
REMARK minimizedRMSD -1
REMARK  0 active torsions:
REMARK  status: ('A' for Active; 'I' for Inactive)
ROOT
ATOM      1  C   UNL d   1       3.181  -1.479   0.194  0.00  0.00     0.077 C 
ATOM      2  C1  UNL d   1       2.064  -2.269  -0.421  0.00  0.00    -0.074 A 
ATOM      3  C2  UNL d   1       0.947  -1.628  -0.966  0.00  0.00    -0.005 A 
ATOM      4  C3  UNL d   1      -0.080  -2.376  -1.544  0.00  0.00     0.006 A 
ATOM      5  C4  UNL d   1       0.000  -3.768  -1.582  0.00  0.00    -0.005 A 
ATOM      6  C5  UNL d   1       1.110  -4.426  -1.043  0.00  0.00    -0.074 A 
ATOM      7  C6  UNL d   1       1.217  -5.921  -1.084  0.00  0.00     0.077 C 
ATOM      8  C7  UNL d   1       2.141  -3.668  -0.471  0.00  0.00    -0.001 A 
ENDROOT
TORSDOF 0
ENDMDL
