MODEL 1
REMARK minimizedAffinity 15.9035177
REMARK minimizedRMSD -1
REMARK  0 active torsions:
REMARK  status: ('A' for Active; 'I' for Inactive)
ROOT
ATOM      1  C   UNL d   1      -0.900  -5.995  -5.991  0.00  0.00     0.077 C 
ATOM      2  C1  UNL d   1      -2.192  -5.491  -5.422  0.00  0.00    -0.074 A 
ATOM      3  C2  UNL d   1      -2.204  -4.550  -4.388  0.00  0.00    -0.005 A 
ATOM      4  C3  UNL d   1      -3.414  -4.083  -3.875  0.00  0.00     0.006 A 
ATOM      5  C4  UNL d   1      -4.623  -4.552  -4.390  0.00  0.00    -0.005 A 
ATOM      6  C5  UNL d   1      -4.631  -5.492  -5.425  0.00  0.00    -0.074 A 
ATOM      7  C6  UNL d   1      -5.922  -5.999  -5.997  0.00  0.00     0.077 C 
ATOM      8  C7  UNL d   1      -3.411  -5.951  -5.940  0.00  0.00    -0.001 A 
ENDROOT
TORSDOF 0
ENDMDL
