MODEL 1
REMARK minimizedAffinity 9.41331959
REMARK minimizedRMSD -1
REMARK  0 active torsions:
REMARK  status: ('A' for Active; 'I' for Inactive)
ROOT
ATOM      1  N1  IND d   1       1.274  -0.774   2.544  0.00  0.00    -0.196 N 
ATOM      2  C2  IND d   1       0.917  -1.133   3.814  0.00  0.00     0.054 A 
ATOM      3  C3  IND d   1      -0.411  -0.955   3.997  0.00  0.00    -0.031 A 
ATOM      4  C4  IND d   1      -2.205  -0.184   2.319  0.00  0.00     0.051 A 
ATOM      5  C5  IND d   1      -2.356   0.290   1.047  0.00  0.00    -0.031 A 
ATOM      6  C6  IND d   1      -1.285   0.434   0.190  0.00  0.00     0.015 A 
ATOM      7  C7  IND d   1      -0.017   0.097   0.572  0.00  0.00    -0.016 A 
ATOM      8  C8  IND d   1       0.142  -0.378   1.866  0.00  0.00    -0.047 A 
ATOM      9  C9  IND d   1      -0.936  -0.487   2.754  0.00  0.00    -0.096 A 
ATOM     10  HN1 IND d   1       2.071  -0.793   2.223  0.00  0.00     0.298 HD
ENDROOT
TORSDOF 0
ENDMDL
