MODEL 1
REMARK minimizedAffinity 10.1362934
REMARK minimizedRMSD -1
REMARK  0 active torsions:
REMARK  status: ('A' for Active; 'I' for Inactive)
ROOT
ATOM      1  N1  IND d   1       0.556  -0.169   2.021  0.00  0.00    -0.196 N 
ATOM      2  C2  IND d   1       1.161  -0.781   3.084  0.00  0.00     0.054 A 
ATOM      3  C3  IND d   1       0.232  -1.277   3.931  0.00  0.00    -0.031 A 
ATOM      4  C4  IND d   1      -2.334  -1.290   3.720  0.00  0.00     0.051 A 
ATOM      5  C5  IND d   1      -3.353  -0.819   2.941  0.00  0.00    -0.031 A 
ATOM      6  C6  IND d   1      -3.116  -0.096   1.790  0.00  0.00     0.015 A 
ATOM      7  C7  IND d   1      -1.846   0.176   1.368  0.00  0.00    -0.016 A 
ATOM      8  C8  IND d   1      -0.808  -0.294   2.161  0.00  0.00    -0.047 A 
ATOM      9  C9  IND d   1      -1.043  -0.993   3.352  0.00  0.00    -0.096 A 
ATOM     10  HN1 IND d   1       0.961   0.227   1.374  0.00  0.00     0.298 HD
ENDROOT
TORSDOF 0
ENDMDL
