MODEL 1
REMARK minimizedAffinity -0.362545729
REMARK minimizedRMSD -1
REMARK  0 active torsions:
REMARK  status: ('A' for Active; 'I' for Inactive)
ROOT
ATOM      1  N1  IND d   1       0.393  -1.531   3.560  0.00  0.00    -0.196 N 
ATOM      2  C2  IND d   1      -0.614  -1.409   4.476  0.00  0.00     0.054 A 
ATOM      3  C3  IND d   1      -1.658  -0.737   3.940  0.00  0.00    -0.031 A 
ATOM      4  C4  IND d   1      -1.969   0.164   1.549  0.00  0.00     0.051 A 
ATOM      5  C5  IND d   1      -1.308   0.324   0.363  0.00  0.00    -0.031 A 
ATOM      6  C6  IND d   1      -0.021  -0.138   0.178  0.00  0.00     0.015 A 
ATOM      7  C7  IND d   1       0.652  -0.790   1.173  0.00  0.00    -0.016 A 
ATOM      8  C8  IND d   1      -0.014  -0.948   2.380  0.00  0.00    -0.047 A 
ATOM      9  C9  IND d   1      -1.304  -0.444   2.587  0.00  0.00    -0.096 A 
ATOM     10  HN1 IND d   1       1.153  -1.908   3.698  0.00  0.00     0.298 HD
ENDROOT
TORSDOF 0
ENDMDL
