MODEL 1
REMARK minimizedAffinity 0.559901655
REMARK minimizedRMSD -1
REMARK  0 active torsions:
REMARK  status: ('A' for Active; 'I' for Inactive)
ROOT
ATOM      1  N1  IND d   1      -0.625  -0.711   3.310  0.00  0.00    -0.196 N 
ATOM      2  C2  IND d   1      -1.924  -0.573   3.713  0.00  0.00     0.054 A 
ATOM      3  C3  IND d   1      -2.730  -0.384   2.644  0.00  0.00    -0.031 A 
ATOM      4  C4  IND d   1      -2.145  -0.368   0.137  0.00  0.00     0.051 A 
ATOM      5  C5  IND d   1      -1.083  -0.417  -0.722  0.00  0.00    -0.031 A 
ATOM      6  C6  IND d   1       0.212  -0.573  -0.272  0.00  0.00     0.015 A 
ATOM      7  C7  IND d   1       0.493  -0.697   1.060  0.00  0.00    -0.016 A 
ATOM      8  C8  IND d   1      -0.582  -0.640   1.935  0.00  0.00    -0.047 A 
ATOM      9  C9  IND d   1      -1.894  -0.440   1.487  0.00  0.00    -0.096 A 
ATOM     10  HN1 IND d   1       0.052  -0.823   3.828  0.00  0.00     0.298 HD
ENDROOT
TORSDOF 0
ENDMDL
