MODEL 1
REMARK minimizedAffinity 0.35691011
REMARK minimizedRMSD -1
REMARK  0 active torsions:
REMARK  status: ('A' for Active; 'I' for Inactive)
ROOT
ATOM      1  N1  IND d   1       0.954  -1.142   3.208  0.00  0.00    -0.196 N 
ATOM      2  C2  IND d   1       0.405  -1.074   4.459  0.00  0.00     0.054 A 
ATOM      3  C3  IND d   1      -0.857  -0.594   4.393  0.00  0.00    -0.031 A 
ATOM      4  C4  IND d   1      -2.258   0.047   2.330  0.00  0.00     0.051 A 
ATOM      5  C5  IND d   1      -2.175   0.189   0.974  0.00  0.00    -0.031 A 
ATOM      6  C6  IND d   1      -1.022  -0.114   0.278  0.00  0.00     0.015 A 
ATOM      7  C7  IND d   1       0.091  -0.584   0.915  0.00  0.00    -0.016 A 
ATOM      8  C8  IND d   1       0.013  -0.722   2.293  0.00  0.00    -0.047 A 
ATOM      9  C9  IND d   1      -1.140  -0.375   3.010  0.00  0.00    -0.096 A 
ATOM     10  HN1 IND d   1       1.752  -1.403   3.024  0.00  0.00     0.298 HD
ENDROOT
TORSDOF 0
ENDMDL
