MODEL 1
REMARK minimizedAffinity 1.4589783
REMARK minimizedRMSD -1
REMARK  0 active torsions:
REMARK  status: ('A' for Active; 'I' for Inactive)
ROOT
ATOM      1  N1  IND d   1      -1.289  -0.753   3.186  0.00  0.00    -0.196 N 
ATOM      2  C2  IND d   1      -2.624  -0.696   3.474  0.00  0.00     0.054 A 
ATOM      3  C3  IND d   1      -3.332  -0.387   2.364  0.00  0.00    -0.031 A 
ATOM      4  C4  IND d   1      -2.515  -0.033  -0.051  0.00  0.00     0.051 A 
ATOM      5  C5  IND d   1      -1.376   0.053  -0.801  0.00  0.00    -0.031 A 
ATOM      6  C6  IND d   1      -0.124  -0.133  -0.250  0.00  0.00     0.015 A 
ATOM      7  C7  IND d   1       0.034  -0.423   1.075  0.00  0.00    -0.016 A 
ATOM      8  C8  IND d   1      -1.120  -0.503   1.842  0.00  0.00    -0.047 A 
ATOM      9  C9  IND d   1      -2.390  -0.274   1.296  0.00  0.00    -0.096 A 
ATOM     10  HN1 IND d   1      -0.661  -0.917   3.749  0.00  0.00     0.298 HD
ENDROOT
TORSDOF 0
ENDMDL
