MODEL 1
REMARK minimizedAffinity 4.24240446
REMARK minimizedRMSD -1
REMARK  0 active torsions:
REMARK  status: ('A' for Active; 'I' for Inactive)
ROOT
ATOM      1  N1  IND d   1       0.624   0.056  -0.127  0.00  0.00    -0.196 N 
ATOM      2  C2  IND d   1      -0.308   0.560  -0.991  0.00  0.00     0.054 A 
ATOM      3  C3  IND d   1      -1.549   0.439  -0.468  0.00  0.00    -0.031 A 
ATOM      4  C4  IND d   1      -2.273  -0.463   1.832  0.00  0.00     0.051 A 
ATOM      5  C5  IND d   1      -1.782  -1.069   2.954  0.00  0.00    -0.031 A 
ATOM      6  C6  IND d   1      -0.437  -1.334   3.111  0.00  0.00     0.015 A 
ATOM      7  C7  IND d   1       0.473  -0.991   2.152  0.00  0.00    -0.016 A 
ATOM      8  C8  IND d   1      -0.022  -0.382   1.008  0.00  0.00    -0.047 A 
ATOM      9  C9  IND d   1      -1.391  -0.148   0.825  0.00  0.00    -0.096 A 
ATOM     10  HN1 IND d   1       1.471   0.018  -0.269  0.00  0.00     0.298 HD
ENDROOT
TORSDOF 0
ENDMDL
