MODEL 1
REMARK minimizedAffinity -0.722739637
REMARK minimizedRMSD -1
REMARK  0 active torsions:
REMARK  status: ('A' for Active; 'I' for Inactive)
ROOT
ATOM      1  N1  IND d   1       5.366   5.997   4.135  0.00  0.00    -0.196 N 
ATOM      2  C2  IND d   1       5.927   5.023   4.914  0.00  0.00     0.054 A 
ATOM      3  C3  IND d   1       5.308   3.839   4.705  0.00  0.00    -0.031 A 
ATOM      4  C4  IND d   1       3.419   3.249   3.059  0.00  0.00     0.051 A 
ATOM      5  C5  IND d   1       2.556   3.814   2.162  0.00  0.00    -0.031 A 
ATOM      6  C6  IND d   1       2.589   5.162   1.869  0.00  0.00     0.015 A 
ATOM      7  C7  IND d   1       3.497   5.997   2.456  0.00  0.00    -0.016 A 
ATOM      8  C8  IND d   1       4.369   5.428   3.373  0.00  0.00    -0.047 A 
ATOM      9  C9  IND d   1       4.313   4.069   3.706  0.00  0.00    -0.096 A 
ATOM     10  HN1 IND d   1       5.596   6.825   4.124  0.00  0.00     0.298 HD
ENDROOT
TORSDOF 0
ENDMDL
