MODEL 1
REMARK minimizedAffinity 0.239154309
REMARK minimizedRMSD -1
REMARK  0 active torsions:
REMARK  status: ('A' for Active; 'I' for Inactive)
ROOT
ATOM      1  C1  BNZ d   1      -0.386  -1.305   3.208  0.00  0.00     0.000 A 
ATOM      2  C2  BNZ d   1      -1.461  -2.086   3.541  0.00  0.00     0.000 A 
ATOM      3  C3  BNZ d   1      -2.405  -2.411   2.609  0.00  0.00     0.000 A 
ATOM      4  C4  BNZ d   1      -2.296  -1.923   1.356  0.00  0.00     0.000 A 
ATOM      5  C5  BNZ d   1      -1.223  -1.127   1.007  0.00  0.00     0.000 A 
ATOM      6  C6  BNZ d   1      -0.254  -0.834   1.938  0.00  0.00     0.000 A 
ENDROOT
TORSDOF 0
ENDMDL
