MODEL 1
REMARK minimizedAffinity -3.02621627
REMARK minimizedRMSD -1
REMARK  0 active torsions:
REMARK  status: ('A' for Active; 'I' for Inactive)
ROOT
ATOM      1  C1  BNZ d   1      -2.231  -4.868  -6.000  0.00  0.00     0.000 A 
ATOM      2  C2  BNZ d   1      -2.632  -3.719  -5.372  0.00  0.00     0.000 A 
ATOM      3  C3  BNZ d   1      -3.776  -3.691  -4.625  0.00  0.00     0.000 A 
ATOM      4  C4  BNZ d   1      -4.538  -4.801  -4.540  0.00  0.00     0.000 A 
ATOM      5  C5  BNZ d   1      -4.153  -5.965  -5.174  0.00  0.00     0.000 A 
ATOM      6  C6  BNZ d   1      -2.980  -5.999  -5.893  0.00  0.00     0.000 A 
ENDROOT
TORSDOF 0
ENDMDL
