MODEL 1
REMARK minimizedAffinity -3.69542193
REMARK minimizedRMSD -1
REMARK  0 active torsions:
REMARK  status: ('A' for Active; 'I' for Inactive)
ROOT
ATOM      1  C1  BNZ d   1      -4.462  -4.301  -3.749  0.00  0.00     0.000 A 
ATOM      2  C2  BNZ d   1      -3.477  -3.905  -4.614  0.00  0.00     0.000 A 
ATOM      3  C3  BNZ d   1      -3.737  -3.002  -5.606  0.00  0.00     0.000 A 
ATOM      4  C4  BNZ d   1      -4.991  -2.527  -5.757  0.00  0.00     0.000 A 
ATOM      5  C5  BNZ d   1      -5.997  -2.924  -4.900  0.00  0.00     0.000 A 
ATOM      6  C6  BNZ d   1      -5.722  -3.804  -3.878  0.00  0.00     0.000 A 
ENDROOT
TORSDOF 0
ENDMDL
