MODEL 1
REMARK minimizedAffinity -3.31614232
REMARK minimizedRMSD -1
REMARK  0 active torsions:
REMARK  status: ('A' for Active; 'I' for Inactive)
ROOT
ATOM      1  C1  BNZ d   1      -5.293  -3.109  -5.735  0.00  0.00     0.000 A 
ATOM      2  C2  BNZ d   1      -4.107  -3.792  -5.693  0.00  0.00     0.000 A 
ATOM      3  C3  BNZ d   1      -3.607  -4.256  -4.508  0.00  0.00     0.000 A 
ATOM      4  C4  BNZ d   1      -4.273  -4.002  -3.364  0.00  0.00     0.000 A 
ATOM      5  C5  BNZ d   1      -5.466  -3.307  -3.388  0.00  0.00     0.000 A 
ATOM      6  C6  BNZ d   1      -5.985  -2.875  -4.587  0.00  0.00     0.000 A 
ENDROOT
TORSDOF 0
ENDMDL
