MODEL 1
REMARK minimizedAffinity -3.24788475
REMARK minimizedRMSD -1
REMARK  0 active torsions:
REMARK  status: ('A' for Active; 'I' for Inactive)
ROOT
ATOM      1  C1  BNZ d   1      -3.651  -3.075  -5.111  0.00  0.00     0.000 A 
ATOM      2  C2  BNZ d   1      -3.483  -4.332  -4.595  0.00  0.00     0.000 A 
ATOM      3  C3  BNZ d   1      -4.560  -5.085  -4.220  0.00  0.00     0.000 A 
ATOM      4  C4  BNZ d   1      -5.800  -4.566  -4.323  0.00  0.00     0.000 A 
ATOM      5  C5  BNZ d   1      -5.986  -3.296  -4.833  0.00  0.00     0.000 A 
ATOM      6  C6  BNZ d   1      -4.902  -2.556  -5.246  0.00  0.00     0.000 A 
ENDROOT
TORSDOF 0
ENDMDL
