MODEL 1
REMARK minimizedAffinity -3.2390883
REMARK minimizedRMSD -1
REMARK  0 active torsions:
REMARK  status: ('A' for Active; 'I' for Inactive)
ROOT
ATOM      1  C1  BNZ d   1      -5.820  -3.652  -3.378  0.00  0.00     0.000 A 
ATOM      2  C2  BNZ d   1      -5.999  -4.968  -3.711  0.00  0.00     0.000 A 
ATOM      3  C3  BNZ d   1      -5.084  -5.626  -4.484  0.00  0.00     0.000 A 
ATOM      4  C4  BNZ d   1      -4.012  -4.957  -4.956  0.00  0.00     0.000 A 
ATOM      5  C5  BNZ d   1      -3.822  -3.627  -4.637  0.00  0.00     0.000 A 
ATOM      6  C6  BNZ d   1      -4.725  -2.979  -3.827  0.00  0.00     0.000 A 
ENDROOT
TORSDOF 0
ENDMDL
