MODEL 1
REMARK minimizedAffinity -3.51593161
REMARK minimizedRMSD -1
REMARK  0 active torsions:
REMARK  status: ('A' for Active; 'I' for Inactive)
ROOT
ATOM      1  C1  BNZ d   1      -4.143  -4.859  -3.913  0.00  0.00     0.000 A 
ATOM      2  C2  BNZ d   1      -3.363  -4.034  -4.678  0.00  0.00     0.000 A 
ATOM      3  C3  BNZ d   1      -3.880  -2.895  -5.230  0.00  0.00     0.000 A 
ATOM      4  C4  BNZ d   1      -5.185  -2.605  -5.050  0.00  0.00     0.000 A 
ATOM      5  C5  BNZ d   1      -5.987  -3.432  -4.288  0.00  0.00     0.000 A 
ATOM      6  C6  BNZ d   1      -5.453  -4.556  -3.702  0.00  0.00     0.000 A 
ENDROOT
TORSDOF 0
ENDMDL
