MODEL 1
REMARK minimizedAffinity -3.55596828
REMARK minimizedRMSD -1
REMARK  0 active torsions:
REMARK  status: ('A' for Active; 'I' for Inactive)
ROOT
ATOM      1  C1  BNZ d   1      -5.586  -2.982  -4.487  0.00  0.00     0.000 A 
ATOM      2  C2  BNZ d   1      -5.034  -4.023  -3.789  0.00  0.00     0.000 A 
ATOM      3  C3  BNZ d   1      -3.826  -4.548  -4.154  0.00  0.00     0.000 A 
ATOM      4  C4  BNZ d   1      -3.192  -4.060  -5.239  0.00  0.00     0.000 A 
ATOM      5  C5  BNZ d   1      -3.739  -3.017  -5.959  0.00  0.00     0.000 A 
ATOM      6  C6  BNZ d   1      -4.937  -2.464  -5.565  0.00  0.00     0.000 A 
ENDROOT
TORSDOF 0
ENDMDL
