MODEL 1
REMARK minimizedAffinity -3.22716117
REMARK minimizedRMSD -1
REMARK  0 active torsions:
REMARK  status: ('A' for Active; 'I' for Inactive)
ROOT
ATOM      1  C1  BNZ d   1      -6.000  -3.808  -4.926  0.00  0.00     0.000 A 
ATOM      2  C2  BNZ d   1      -5.159  -3.967  -5.995  0.00  0.00     0.000 A 
ATOM      3  C3  BNZ d   1      -3.817  -4.149  -5.809  0.00  0.00     0.000 A 
ATOM      4  C4  BNZ d   1      -3.313  -4.131  -4.558  0.00  0.00     0.000 A 
ATOM      5  C5  BNZ d   1      -4.146  -3.962  -3.470  0.00  0.00     0.000 A 
ATOM      6  C6  BNZ d   1      -5.502  -3.818  -3.660  0.00  0.00     0.000 A 
ENDROOT
TORSDOF 0
ENDMDL
