MODEL 1
REMARK minimizedAffinity -3.12922001
REMARK minimizedRMSD -1
REMARK  0 active torsions:
REMARK  status: ('A' for Active; 'I' for Inactive)
ROOT
ATOM      1  C1  BNZ d   1      -5.978  -3.251  -5.245  0.00  0.00     0.000 A 
ATOM      2  C2  BNZ d   1      -5.997  -4.620  -5.235  0.00  0.00     0.000 A 
ATOM      3  C3  BNZ d   1      -4.875  -5.333  -4.917  0.00  0.00     0.000 A 
ATOM      4  C4  BNZ d   1      -3.727  -4.678  -4.648  0.00  0.00     0.000 A 
ATOM      5  C5  BNZ d   1      -3.690  -3.298  -4.663  0.00  0.00     0.000 A 
ATOM      6  C6  BNZ d   1      -4.831  -2.583  -4.946  0.00  0.00     0.000 A 
ENDROOT
TORSDOF 0
ENDMDL
