MODEL 1
REMARK minimizedAffinity -3.47771883
REMARK minimizedRMSD -1
REMARK  0 active torsions:
REMARK  status: ('A' for Active; 'I' for Inactive)
ROOT
ATOM      1  C1  BNZ d   1      -4.477  -5.861  -5.981  0.00  0.00     0.000 A 
ATOM      2  C2  BNZ d   1      -5.633  -5.285  -5.527  0.00  0.00     0.000 A 
ATOM      3  C3  BNZ d   1      -5.597  -4.273  -4.609  0.00  0.00     0.000 A 
ATOM      4  C4  BNZ d   1      -4.410  -3.867  -4.117  0.00  0.00     0.000 A 
ATOM      5  C5  BNZ d   1      -3.235  -4.444  -4.557  0.00  0.00     0.000 A 
ATOM      6  C6  BNZ d   1      -3.273  -5.436  -5.510  0.00  0.00     0.000 A 
ENDROOT
TORSDOF 0
ENDMDL
