MODEL 1
REMARK minimizedAffinity -3.19869161
REMARK minimizedRMSD -1
REMARK  0 active torsions:
REMARK  status: ('A' for Active; 'I' for Inactive)
ROOT
ATOM      1  C1  BNZ d   1      -5.176  -2.302  -5.500  0.00  0.00     0.000 A 
ATOM      2  C2  BNZ d   1      -3.991  -2.859  -5.902  0.00  0.00     0.000 A 
ATOM      3  C3  BNZ d   1      -3.621  -4.103  -5.474  0.00  0.00     0.000 A 
ATOM      4  C4  BNZ d   1      -4.416  -4.772  -4.613  0.00  0.00     0.000 A 
ATOM      5  C5  BNZ d   1      -5.609  -4.220  -4.191  0.00  0.00     0.000 A 
ATOM      6  C6  BNZ d   1      -5.996  -2.984  -4.654  0.00  0.00     0.000 A 
ENDROOT
TORSDOF 0
ENDMDL
