MODEL 1
REMARK minimizedAffinity -2.78916621
REMARK minimizedRMSD -1
REMARK  0 active torsions:
REMARK  status: ('A' for Active; 'I' for Inactive)
ROOT
ATOM      1  C1  BNZ d   1      -4.915  -3.766  -4.608  0.00  0.00     0.000 A 
ATOM      2  C2  BNZ d   1      -3.614  -4.191  -4.606  0.00  0.00     0.000 A 
ATOM      3  C3  BNZ d   1      -3.237  -5.296  -5.317  0.00  0.00     0.000 A 
ATOM      4  C4  BNZ d   1      -4.169  -5.997  -5.995  0.00  0.00     0.000 A 
ATOM      5  C5  BNZ d   1      -5.487  -5.587  -5.999  0.00  0.00     0.000 A 
ATOM      6  C6  BNZ d   1      -5.855  -4.451  -5.314  0.00  0.00     0.000 A 
ENDROOT
TORSDOF 0
ENDMDL
