MODEL 1
REMARK minimizedAffinity -2.97252059
REMARK minimizedRMSD -1
REMARK  0 active torsions:
REMARK  status: ('A' for Active; 'I' for Inactive)
ROOT
ATOM      1  C1  BNZ d   1      -2.171  -4.540  -5.907  0.00  0.00     0.000 A 
ATOM      2  C2  BNZ d   1      -2.906  -3.405  -5.690  0.00  0.00     0.000 A 
ATOM      3  C3  BNZ d   1      -4.045  -3.442  -4.936  0.00  0.00     0.000 A 
ATOM      4  C4  BNZ d   1      -4.469  -4.619  -4.433  0.00  0.00     0.000 A 
ATOM      5  C5  BNZ d   1      -3.745  -5.774  -4.651  0.00  0.00     0.000 A 
ATOM      6  C6  BNZ d   1      -2.578  -5.726  -5.378  0.00  0.00     0.000 A 
ENDROOT
TORSDOF 0
ENDMDL
