MODEL 1
REMARK minimizedAffinity -4.1247921
REMARK minimizedRMSD -1
REMARK  0 active torsions:
REMARK  status: ('A' for Active; 'I' for Inactive)
ROOT
ATOM      1  C1  BNZ d   1      -5.978  -3.240  -4.867  0.00  0.00     0.000 A 
ATOM      2  C2  BNZ d   1      -5.224  -3.424  -5.996  0.00  0.00     0.000 A 
ATOM      3  C3  BNZ d   1      -3.925  -3.840  -5.909  0.00  0.00     0.000 A 
ATOM      4  C4  BNZ d   1      -3.370  -4.032  -4.696  0.00  0.00     0.000 A 
ATOM      5  C5  BNZ d   1      -4.114  -3.842  -3.548  0.00  0.00     0.000 A 
ATOM      6  C6  BNZ d   1      -5.433  -3.461  -3.640  0.00  0.00     0.000 A 
ENDROOT
TORSDOF 0
ENDMDL
