MODEL 1
REMARK minimizedAffinity -3.32769251
REMARK minimizedRMSD -1
REMARK  0 active torsions:
REMARK  status: ('A' for Active; 'I' for Inactive)
ROOT
ATOM      1  C1  BNZ d   1      -3.697  -3.003  -6.000  0.00  0.00     0.000 A 
ATOM      2  C2  BNZ d   1      -4.962  -2.480  -5.971  0.00  0.00     0.000 A 
ATOM      3  C3  BNZ d   1      -5.924  -3.018  -5.163  0.00  0.00     0.000 A 
ATOM      4  C4  BNZ d   1      -5.631  -4.103  -4.416  0.00  0.00     0.000 A 
ATOM      5  C5  BNZ d   1      -4.363  -4.648  -4.442  0.00  0.00     0.000 A 
ATOM      6  C6  BNZ d   1      -3.386  -4.079  -5.227  0.00  0.00     0.000 A 
ENDROOT
TORSDOF 0
ENDMDL
