MODEL 1
REMARK minimizedAffinity -3.05774283
REMARK minimizedRMSD -1
REMARK  0 active torsions:
REMARK  status: ('A' for Active; 'I' for Inactive)
ROOT
ATOM      1  C1  BNZ d   1      -3.001  -2.987  -6.000  0.00  0.00     0.000 A 
ATOM      2  C2  BNZ d   1      -4.212  -2.715  -5.421  0.00  0.00     0.000 A 
ATOM      3  C3  BNZ d   1      -4.787  -3.601  -4.553  0.00  0.00     0.000 A 
ATOM      4  C4  BNZ d   1      -4.171  -4.772  -4.295  0.00  0.00     0.000 A 
ATOM      5  C5  BNZ d   1      -2.954  -5.065  -4.879  0.00  0.00     0.000 A 
ATOM      6  C6  BNZ d   1      -2.360  -4.154  -5.722  0.00  0.00     0.000 A 
ENDROOT
TORSDOF 0
ENDMDL
