MODEL 1
REMARK minimizedAffinity -3.16415143
REMARK minimizedRMSD -1
REMARK  0 active torsions:
REMARK  status: ('A' for Active; 'I' for Inactive)
ROOT
ATOM      1  C1  BNZ d   1      -3.590  -2.997  -5.979  0.00  0.00     0.000 A 
ATOM      2  C2  BNZ d   1      -2.769  -4.092  -6.000  0.00  0.00     0.000 A 
ATOM      3  C3  BNZ d   1      -3.061  -5.200  -5.255  0.00  0.00     0.000 A 
ATOM      4  C4  BNZ d   1      -4.151  -5.196  -4.460  0.00  0.00     0.000 A 
ATOM      5  C5  BNZ d   1      -4.984  -4.095  -4.422  0.00  0.00     0.000 A 
ATOM      6  C6  BNZ d   1      -4.707  -2.997  -5.203  0.00  0.00     0.000 A 
ENDROOT
TORSDOF 0
ENDMDL
