MODEL 1
REMARK minimizedAffinity -3.7286191
REMARK minimizedRMSD -1
REMARK  0 active torsions:
REMARK  status: ('A' for Active; 'I' for Inactive)
ROOT
ATOM      1  C1  BNZ d   1      -5.593  -3.093  -4.361  0.00  0.00     0.000 A 
ATOM      2  C2  BNZ d   1      -4.706  -2.483  -5.208  0.00  0.00     0.000 A 
ATOM      3  C3  BNZ d   1      -3.450  -2.990  -5.390  0.00  0.00     0.000 A 
ATOM      4  C4  BNZ d   1      -3.068  -4.081  -4.695  0.00  0.00     0.000 A 
ATOM      5  C5  BNZ d   1      -3.947  -4.702  -3.831  0.00  0.00     0.000 A 
ATOM      6  C6  BNZ d   1      -5.224  -4.212  -3.680  0.00  0.00     0.000 A 
ENDROOT
TORSDOF 0
ENDMDL
