MODEL 1
REMARK minimizedAffinity -3.48358631
REMARK minimizedRMSD -1
REMARK  2 active torsions:
REMARK  status: ('A' for Active; 'I' for Inactive)
REMARK    1  A    between atoms: C1_2  and  C2_3 
REMARK    2  A    between atoms: C2_3  and  C3_4 
ROOT
ATOM      1  C3  UNL d   1      -0.484   1.442   0.649  0.00  0.00    -0.075 A 
ATOM      2  C4  UNL d   1      -1.181   0.285   1.027  0.00  0.00     0.002 A 
ATOM      3  C5  UNL d   1      -1.085  -0.881   0.266  0.00  0.00     0.002 A 
ATOM      4  C6  UNL d   1      -0.301  -0.902  -0.885  0.00  0.00    -0.004 A 
ATOM      5  C7  UNL d   1       0.382   0.247  -1.280  0.00  0.00     0.002 A 
ATOM      6  C8  UNL d   1       0.291   1.413  -0.518  0.00  0.00     0.002 A 
ENDROOT
BRANCH   1   7
ATOM      7  C2  UNL d   1      -0.561   2.697   1.484  0.00  0.00     0.056 C 
BRANCH   7   8
ATOM      8  C1  UNL d   1      -1.566   2.619   2.638  0.00  0.00     0.007 C 
ATOM      9  C   UNL d   1      -1.040   3.220   3.934  0.00  0.00     0.009 C 
ENDBRANCH   7   8
ENDBRANCH   1   7
TORSDOF 2
ENDMDL
