MODEL 1
REMARK minimizedAffinity -2.90498972
REMARK minimizedRMSD -1
REMARK  2 active torsions:
REMARK  status: ('A' for Active; 'I' for Inactive)
REMARK    1  A    between atoms: C1_2  and  C2_3 
REMARK    2  A    between atoms: C2_3  and  C3_4 
ROOT
ATOM      1  C3  UNL d   1       0.319   2.202  -0.272  0.00  0.00    -0.075 A 
ATOM      2  C4  UNL d   1      -0.040   3.297   0.527  0.00  0.00     0.002 A 
ATOM      3  C5  UNL d   1      -1.238   3.289   1.243  0.00  0.00     0.002 A 
ATOM      4  C6  UNL d   1      -2.095   2.194   1.161  0.00  0.00    -0.004 A 
ATOM      5  C7  UNL d   1      -1.756   1.108   0.357  0.00  0.00     0.002 A 
ATOM      6  C8  UNL d   1      -0.556   1.111  -0.357  0.00  0.00     0.002 A 
ENDROOT
BRANCH   1   7
ATOM      7  C2  UNL d   1       1.627   2.192  -1.026  0.00  0.00     0.056 C 
BRANCH   7   8
ATOM      8  C1  UNL d   1       2.486   0.949  -0.768  0.00  0.00     0.007 C 
ATOM      9  C   UNL d   1       2.192   0.283   0.569  0.00  0.00     0.009 C 
ENDBRANCH   7   8
ENDBRANCH   1   7
TORSDOF 2
ENDMDL
