MODEL 1
REMARK minimizedAffinity -6.00364971
REMARK minimizedRMSD -1
REMARK  2 active torsions:
REMARK  status: ('A' for Active; 'I' for Inactive)
REMARK    1  A    between atoms: C1_2  and  C2_3 
REMARK    2  A    between atoms: C2_3  and  C3_4 
ROOT
ATOM      1  C3  UNL d   1      -0.892   0.844  -0.601  0.00  0.00    -0.075 A 
ATOM      2  C4  UNL d   1      -1.655   1.374   0.450  0.00  0.00     0.002 A 
ATOM      3  C5  UNL d   1      -1.215   2.500   1.147  0.00  0.00     0.002 A 
ATOM      4  C6  UNL d   1      -0.006   3.104   0.809  0.00  0.00    -0.004 A 
ATOM      5  C7  UNL d   1       0.767   2.576  -0.223  0.00  0.00     0.002 A 
ATOM      6  C8  UNL d   1       0.328   1.452  -0.925  0.00  0.00     0.002 A 
ENDROOT
BRANCH   1   7
ATOM      7  C2  UNL d   1      -1.377  -0.356  -1.378  0.00  0.00     0.056 C 
BRANCH   7   8
ATOM      8  C1  UNL d   1      -0.373  -1.513  -1.429  0.00  0.00     0.007 C 
ATOM      9  C   UNL d   1      -0.809  -2.647  -2.348  0.00  0.00     0.009 C 
ENDBRANCH   7   8
ENDBRANCH   1   7
TORSDOF 2
ENDMDL
