MODEL 1
REMARK minimizedAffinity -5.38886976
REMARK minimizedRMSD -1
REMARK  2 active torsions:
REMARK  status: ('A' for Active; 'I' for Inactive)
REMARK    1  A    between atoms: C1_2  and  C2_3 
REMARK    2  A    between atoms: C2_3  and  C3_4 
ROOT
ATOM      1  C3  UNL d   1       0.042   0.579  -0.800  0.00  0.00    -0.075 A 
ATOM      2  C4  UNL d   1       0.510   1.898  -0.897  0.00  0.00     0.002 A 
ATOM      3  C5  UNL d   1       0.124   2.857   0.040  0.00  0.00     0.002 A 
ATOM      4  C6  UNL d   1      -0.740   2.513   1.077  0.00  0.00    -0.004 A 
ATOM      5  C7  UNL d   1      -1.224   1.211   1.174  0.00  0.00     0.002 A 
ATOM      6  C8  UNL d   1      -0.836   0.248   0.240  0.00  0.00     0.002 A 
ENDROOT
BRANCH   1   7
ATOM      7  C2  UNL d   1       0.479  -0.471  -1.794  0.00  0.00     0.056 C 
BRANCH   7   8
ATOM      8  C1  UNL d   1      -0.621  -1.468  -2.171  0.00  0.00     0.007 C 
ATOM      9  C   UNL d   1      -0.185  -2.470  -3.233  0.00  0.00     0.009 C 
ENDBRANCH   7   8
ENDBRANCH   1   7
TORSDOF 2
ENDMDL
