MODEL 1
REMARK minimizedAffinity -5.08019924
REMARK minimizedRMSD -1
REMARK  2 active torsions:
REMARK  status: ('A' for Active; 'I' for Inactive)
REMARK    1  A    between atoms: C1_2  and  C2_3 
REMARK    2  A    between atoms: C2_3  and  C3_4 
ROOT
ATOM      1  C3  UNL d   1       0.101  -0.006   0.251  0.00  0.00    -0.075 A 
ATOM      2  C4  UNL d   1       0.959   0.996  -0.225  0.00  0.00     0.002 A 
ATOM      3  C5  UNL d   1       0.592   2.340  -0.148  0.00  0.00     0.002 A 
ATOM      4  C6  UNL d   1      -0.640   2.698   0.396  0.00  0.00    -0.004 A 
ATOM      5  C7  UNL d   1      -1.507   1.710   0.857  0.00  0.00     0.002 A 
ATOM      6  C8  UNL d   1      -1.140   0.365   0.785  0.00  0.00     0.002 A 
ENDROOT
BRANCH   1   7
ATOM      7  C2  UNL d   1       0.505  -1.460   0.197  0.00  0.00     0.056 C 
BRANCH   7   8
ATOM      8  C1  UNL d   1      -0.586  -2.391  -0.341  0.00  0.00     0.007 C 
ATOM      9  C   UNL d   1      -0.279  -2.937  -1.729  0.00  0.00     0.009 C 
ENDBRANCH   7   8
ENDBRANCH   1   7
TORSDOF 2
ENDMDL
