MODEL 1
REMARK minimizedAffinity 0.526189268
REMARK minimizedRMSD -1
REMARK  2 active torsions:
REMARK  status: ('A' for Active; 'I' for Inactive)
REMARK    1  A    between atoms: C1_2  and  C2_3 
REMARK    2  A    between atoms: C2_3  and  C3_4 
ROOT
ATOM      1  C3  UNL d   1      -0.957   2.222   1.210  0.00  0.00    -0.075 A 
ATOM      2  C4  UNL d   1      -0.784   0.831   1.237  0.00  0.00     0.002 A 
ATOM      3  C5  UNL d   1       0.257   0.232   0.527  0.00  0.00     0.002 A 
ATOM      4  C6  UNL d   1       1.130   1.014  -0.226  0.00  0.00    -0.004 A 
ATOM      5  C7  UNL d   1       0.958   2.395  -0.274  0.00  0.00     0.002 A 
ATOM      6  C8  UNL d   1      -0.080   2.997   0.440  0.00  0.00     0.002 A 
ENDROOT
BRANCH   1   7
ATOM      7  C2  UNL d   1      -2.063   2.879   2.000  0.00  0.00     0.056 C 
BRANCH   7   8
ATOM      8  C1  UNL d   1      -1.568   3.837   3.089  0.00  0.00     0.007 C 
ATOM      9  C   UNL d   1      -0.709   3.154   4.145  0.00  0.00     0.009 C 
ENDBRANCH   7   8
ENDBRANCH   1   7
TORSDOF 2
ENDMDL
