MODEL 1
REMARK minimizedAffinity -5.46541405
REMARK minimizedRMSD -1
REMARK  2 active torsions:
REMARK  status: ('A' for Active; 'I' for Inactive)
REMARK    1  A    between atoms: C1_2  and  C2_3 
REMARK    2  A    between atoms: C2_3  and  C3_4 
ROOT
ATOM      1  C3  UNL d   1       0.492   0.927  -0.186  0.00  0.00    -0.075 A 
ATOM      2  C4  UNL d   1      -0.565   0.010  -0.091  0.00  0.00     0.002 A 
ATOM      3  C5  UNL d   1      -0.347  -1.273   0.412  0.00  0.00     0.002 A 
ATOM      4  C6  UNL d   1       0.930  -1.658   0.815  0.00  0.00    -0.004 A 
ATOM      5  C7  UNL d   1       1.990  -0.761   0.709  0.00  0.00     0.002 A 
ATOM      6  C8  UNL d   1       1.774   0.525   0.211  0.00  0.00     0.002 A 
ENDROOT
BRANCH   1   7
ATOM      7  C2  UNL d   1       0.256   2.327  -0.702  0.00  0.00     0.056 C 
BRANCH   7   8
ATOM      8  C1  UNL d   1       0.324   3.410   0.380  0.00  0.00     0.007 C 
ATOM      9  C   UNL d   1      -0.383   3.014   1.670  0.00  0.00     0.009 C 
ENDBRANCH   7   8
ENDBRANCH   1   7
TORSDOF 2
ENDMDL
