MODEL 1
REMARK minimizedAffinity -4.79638529
REMARK minimizedRMSD -1
REMARK  2 active torsions:
REMARK  status: ('A' for Active; 'I' for Inactive)
REMARK    1  A    between atoms: C1_2  and  C2_3 
REMARK    2  A    between atoms: C2_3  and  C3_4 
ROOT
ATOM      1  C3  UNL d   1      -0.196  -0.939  -0.194  0.00  0.00    -0.075 A 
ATOM      2  C4  UNL d   1      -0.619   0.252  -0.804  0.00  0.00     0.002 A 
ATOM      3  C5  UNL d   1       0.053   1.450  -0.559  0.00  0.00     0.002 A 
ATOM      4  C6  UNL d   1       1.146   1.475   0.304  0.00  0.00    -0.004 A 
ATOM      5  C7  UNL d   1       1.564   0.302   0.928  0.00  0.00     0.002 A 
ATOM      6  C8  UNL d   1       0.897  -0.899   0.682  0.00  0.00     0.002 A 
ENDROOT
BRANCH   1   7
ATOM      7  C2  UNL d   1      -0.900  -2.244  -0.478  0.00  0.00     0.056 C 
BRANCH   7   8
ATOM      8  C1  UNL d   1      -0.524  -2.876  -1.823  0.00  0.00     0.007 C 
ATOM      9  C   UNL d   1      -1.734  -3.256  -2.667  0.00  0.00     0.009 C 
ENDBRANCH   7   8
ENDBRANCH   1   7
TORSDOF 2
ENDMDL
