MODEL 1
REMARK minimizedAffinity -4.19182968
REMARK minimizedRMSD -1
REMARK  2 active torsions:
REMARK  status: ('A' for Active; 'I' for Inactive)
REMARK    1  A    between atoms: C1_2  and  C2_3 
REMARK    2  A    between atoms: C2_3  and  C3_4 
ROOT
ATOM      1  C3  UNL d   1      -0.652   1.569   0.315  0.00  0.00    -0.075 A 
ATOM      2  C4  UNL d   1       0.150   2.696   0.083  0.00  0.00     0.002 A 
ATOM      3  C5  UNL d   1       0.155   3.760   0.987  0.00  0.00     0.002 A 
ATOM      4  C6  UNL d   1      -0.647   3.714   2.125  0.00  0.00    -0.004 A 
ATOM      5  C7  UNL d   1      -1.459   2.607   2.357  0.00  0.00     0.002 A 
ATOM      6  C8  UNL d   1      -1.463   1.540   1.457  0.00  0.00     0.002 A 
ENDROOT
BRANCH   1   7
ATOM      7  C2  UNL d   1      -0.639   0.402  -0.644  0.00  0.00     0.056 C 
BRANCH   7   8
ATOM      8  C1  UNL d   1       0.149  -0.811  -0.139  0.00  0.00     0.007 C 
ATOM      9  C   UNL d   1       1.573  -0.469   0.281  0.00  0.00     0.009 C 
ENDBRANCH   7   8
ENDBRANCH   1   7
TORSDOF 2
ENDMDL
