MODEL 1
REMARK minimizedAffinity -3.63465071
REMARK minimizedRMSD -1
REMARK  2 active torsions:
REMARK  status: ('A' for Active; 'I' for Inactive)
REMARK    1  A    between atoms: C1_2  and  C2_3 
REMARK    2  A    between atoms: C2_3  and  C3_4 
ROOT
ATOM      1  C3  UNL d   1       0.007  -0.191  -0.092  0.00  0.00    -0.075 A 
ATOM      2  C4  UNL d   1       0.938   0.856  -0.159  0.00  0.00     0.002 A 
ATOM      3  C5  UNL d   1       0.587   2.143   0.247  0.00  0.00     0.002 A 
ATOM      4  C6  UNL d   1      -0.699   2.403   0.715  0.00  0.00    -0.004 A 
ATOM      5  C7  UNL d   1      -1.637   1.375   0.770  0.00  0.00     0.002 A 
ATOM      6  C8  UNL d   1      -1.287   0.084   0.368  0.00  0.00     0.002 A 
ENDROOT
BRANCH   1   7
ATOM      7  C2  UNL d   1       0.390  -1.593  -0.503  0.00  0.00     0.056 C 
BRANCH   7   8
ATOM      8  C1  UNL d   1      -0.747  -2.382  -1.161  0.00  0.00     0.007 C 
ATOM      9  C   UNL d   1      -0.299  -3.178  -2.379  0.00  0.00     0.009 C 
ENDBRANCH   7   8
ENDBRANCH   1   7
TORSDOF 2
ENDMDL
