MODEL 1
REMARK minimizedAffinity -2.63461971
REMARK minimizedRMSD -1
REMARK  2 active torsions:
REMARK  status: ('A' for Active; 'I' for Inactive)
REMARK    1  A    between atoms: C1_2  and  C2_3 
REMARK    2  A    between atoms: C2_3  and  C3_4 
ROOT
ATOM      1  C3  UNL d   1      -0.402   0.205   0.051  0.00  0.00    -0.075 A 
ATOM      2  C4  UNL d   1      -1.146   0.978   0.954  0.00  0.00     0.002 A 
ATOM      3  C5  UNL d   1      -0.894   2.344   1.091  0.00  0.00     0.002 A 
ATOM      4  C6  UNL d   1       0.108   2.950   0.337  0.00  0.00    -0.004 A 
ATOM      5  C7  UNL d   1       0.865   2.187  -0.551  0.00  0.00     0.002 A 
ATOM      6  C8  UNL d   1       0.613   0.822  -0.693  0.00  0.00     0.002 A 
ENDROOT
BRANCH   1   7
ATOM      7  C2  UNL d   1      -0.688  -1.268  -0.123  0.00  0.00     0.056 C 
BRANCH   7   8
ATOM      8  C1  UNL d   1      -0.368  -1.804  -1.523  0.00  0.00     0.007 C 
ATOM      9  C   UNL d   1      -1.443  -2.732  -2.071  0.00  0.00     0.009 C 
ENDBRANCH   7   8
ENDBRANCH   1   7
TORSDOF 2
ENDMDL
