MODEL 1
REMARK minimizedAffinity -3.98263788
REMARK minimizedRMSD -1
REMARK  2 active torsions:
REMARK  status: ('A' for Active; 'I' for Inactive)
REMARK    1  A    between atoms: C1_2  and  C2_3 
REMARK    2  A    between atoms: C2_3  and  C3_4 
ROOT
ATOM      1  C3  UNL d   1       0.143  -0.604   0.402  0.00  0.00    -0.075 A 
ATOM      2  C4  UNL d   1       0.215   0.647  -0.228  0.00  0.00     0.002 A 
ATOM      3  C5  UNL d   1       1.412   1.363  -0.247  0.00  0.00     0.002 A 
ATOM      4  C6  UNL d   1       2.548   0.843   0.370  0.00  0.00    -0.004 A 
ATOM      5  C7  UNL d   1       2.484  -0.391   1.013  0.00  0.00     0.002 A 
ATOM      6  C8  UNL d   1       1.288  -1.111   1.030  0.00  0.00     0.002 A 
ENDROOT
BRANCH   1   7
ATOM      7  C2  UNL d   1      -1.142  -1.396   0.401  0.00  0.00     0.056 C 
BRANCH   7   8
ATOM      8  C1  UNL d   1      -1.028  -2.768  -0.271  0.00  0.00     0.007 C 
ATOM      9  C   UNL d   1      -0.642  -2.686  -1.742  0.00  0.00     0.009 C 
ENDBRANCH   7   8
ENDBRANCH   1   7
TORSDOF 2
ENDMDL
