MODEL 1
REMARK minimizedAffinity -3.22526979
REMARK minimizedRMSD -1
REMARK  2 active torsions:
REMARK  status: ('A' for Active; 'I' for Inactive)
REMARK    1  A    between atoms: C1_2  and  C2_3 
REMARK    2  A    between atoms: C2_3  and  C3_4 
ROOT
ATOM      1  C3  UNL d   1      -0.070  -0.777  -0.174  0.00  0.00    -0.075 A 
ATOM      2  C4  UNL d   1       1.216  -0.590   0.353  0.00  0.00     0.002 A 
ATOM      3  C5  UNL d   1       1.629   0.672   0.781  0.00  0.00     0.002 A 
ATOM      4  C6  UNL d   1       0.769   1.763   0.677  0.00  0.00    -0.004 A 
ATOM      5  C7  UNL d   1      -0.505   1.592   0.139  0.00  0.00     0.002 A 
ATOM      6  C8  UNL d   1      -0.923   0.329  -0.285  0.00  0.00     0.002 A 
ENDROOT
BRANCH   1   7
ATOM      7  C2  UNL d   1      -0.534  -2.146  -0.612  0.00  0.00     0.056 C 
BRANCH   7   8
ATOM      8  C1  UNL d   1      -1.172  -2.172  -2.004  0.00  0.00     0.007 C 
ATOM      9  C   UNL d   1      -0.269  -2.783  -3.068  0.00  0.00     0.009 C 
ENDBRANCH   7   8
ENDBRANCH   1   7
TORSDOF 2
ENDMDL
