MODEL 1
REMARK minimizedAffinity 5.94177341
REMARK minimizedRMSD -1
REMARK  0 active torsions:
REMARK  status: ('A' for Active; 'I' for Inactive)
ROOT
ATOM      1  C   UNL d   1       5.256   2.677  -1.874  0.00  0.00     0.078 C 
ATOM      2  C1  UNL d   1       5.001   1.376  -1.173  0.00  0.00    -0.077 A 
ATOM      3  C2  UNL d   1       6.000   0.762  -0.407  0.00  0.00    -0.001 A 
ATOM      4  C3  UNL d   1       5.752  -0.454   0.232  0.00  0.00     0.003 A 
ATOM      5  C4  UNL d   1       4.506  -1.067   0.111  0.00  0.00    -0.005 A 
ATOM      6  C5  UNL d   1       3.507  -0.464  -0.651  0.00  0.00     0.003 A 
ATOM      7  C6  UNL d   1       3.753   0.751  -1.291  0.00  0.00    -0.001 A 
ENDROOT
TORSDOF 0
ENDMDL
