MODEL 1
REMARK minimizedAffinity 4.87227392
REMARK minimizedRMSD -1
REMARK  0 active torsions:
REMARK  status: ('A' for Active; 'I' for Inactive)
ROOT
ATOM      1  C   UNL d   1       5.999  -1.406   1.284  0.00  0.00     0.078 C 
ATOM      2  C1  UNL d   1       5.249  -0.515   0.339  0.00  0.00    -0.077 A 
ATOM      3  C2  UNL d   1       3.883  -0.704   0.101  0.00  0.00    -0.001 A 
ATOM      4  C3  UNL d   1       3.200   0.127  -0.789  0.00  0.00     0.003 A 
ATOM      5  C4  UNL d   1       3.876   1.152  -1.449  0.00  0.00    -0.005 A 
ATOM      6  C5  UNL d   1       5.237   1.346  -1.219  0.00  0.00     0.003 A 
ATOM      7  C6  UNL d   1       5.921   0.516  -0.330  0.00  0.00    -0.001 A 
ENDROOT
TORSDOF 0
ENDMDL
