MODEL 1
REMARK minimizedAffinity 4.93168688
REMARK minimizedRMSD -1
REMARK  0 active torsions:
REMARK  status: ('A' for Active; 'I' for Inactive)
ROOT
ATOM      1  C   UNL d   1       2.996  -2.563  -1.472  0.00  0.00     0.078 C 
ATOM      2  C1  UNL d   1       3.514  -1.173  -1.255  0.00  0.00    -0.077 A 
ATOM      3  C2  UNL d   1       4.326  -0.549  -2.210  0.00  0.00    -0.001 A 
ATOM      4  C3  UNL d   1       4.809   0.742  -1.990  0.00  0.00     0.003 A 
ATOM      5  C4  UNL d   1       4.488   1.419  -0.815  0.00  0.00    -0.005 A 
ATOM      6  C5  UNL d   1       3.683   0.805   0.142  0.00  0.00     0.003 A 
ATOM      7  C6  UNL d   1       3.199  -0.486  -0.076  0.00  0.00    -0.001 A 
ENDROOT
TORSDOF 0
ENDMDL
