MODEL 1
REMARK minimizedAffinity 7.78244591
REMARK minimizedRMSD -1
REMARK  0 active torsions:
REMARK  status: ('A' for Active; 'I' for Inactive)
ROOT
ATOM      1  C   UNL d   1       6.000  -2.315   1.565  0.00  0.00     0.078 C 
ATOM      2  C1  UNL d   1       5.161  -1.490   0.635  0.00  0.00    -0.077 A 
ATOM      3  C2  UNL d   1       5.693  -0.370  -0.015  0.00  0.00    -0.001 A 
ATOM      4  C3  UNL d   1       4.898   0.394  -0.870  0.00  0.00     0.003 A 
ATOM      5  C4  UNL d   1       3.565   0.047  -1.083  0.00  0.00    -0.005 A 
ATOM      6  C5  UNL d   1       3.026  -1.064  -0.438  0.00  0.00     0.003 A 
ATOM      7  C6  UNL d   1       3.820  -1.830   0.418  0.00  0.00    -0.001 A 
ENDROOT
TORSDOF 0
ENDMDL
