MODEL 1
REMARK minimizedAffinity 3.00843358
REMARK minimizedRMSD -1
REMARK  2 active torsions:
REMARK  status: ('A' for Active; 'I' for Inactive)
REMARK    1  A    between atoms: C1_2  and  C2_3 
REMARK    2  A    between atoms: C2_3  and  C3_4 
ROOT
ATOM      1  C3  UNL d   1      -4.024   5.978   3.315  0.00  0.00    -0.075 A 
ATOM      2  C4  UNL d   1      -2.651   6.000   3.599  0.00  0.00     0.002 A 
ATOM      3  C5  UNL d   1      -2.201   6.000   4.920  0.00  0.00     0.002 A 
ATOM      4  C6  UNL d   1      -3.116   5.989   5.970  0.00  0.00    -0.004 A 
ATOM      5  C7  UNL d   1      -4.483   5.984   5.700  0.00  0.00     0.002 A 
ATOM      6  C8  UNL d   1      -4.935   5.980   4.379  0.00  0.00     0.002 A 
ENDROOT
BRANCH   1   7
ATOM      7  C2  UNL d   1      -4.517   5.949   1.888  0.00  0.00     0.056 C 
BRANCH   7   8
ATOM      8  C1  UNL d   1      -5.911   5.333   1.722  0.00  0.00     0.007 C 
ATOM      9  C   UNL d   1      -6.000   3.902   2.235  0.00  0.00     0.009 C 
ENDBRANCH   7   8
ENDBRANCH   1   7
TORSDOF 2
ENDMDL
