MODEL 1
REMARK minimizedAffinity 8.06568432
REMARK minimizedRMSD -1
REMARK  2 active torsions:
REMARK  status: ('A' for Active; 'I' for Inactive)
REMARK    1  A    between atoms: C1_2  and  C2_3 
REMARK    2  A    between atoms: C2_3  and  C3_4 
ROOT
ATOM      1  C3  UNL d   1      -4.043   4.951   3.796  0.00  0.00    -0.075 A 
ATOM      2  C4  UNL d   1      -3.102   3.913   3.867  0.00  0.00     0.002 A 
ATOM      3  C5  UNL d   1      -2.142   3.896   4.879  0.00  0.00     0.002 A 
ATOM      4  C6  UNL d   1      -2.103   4.918   5.824  0.00  0.00    -0.004 A 
ATOM      5  C7  UNL d   1      -3.022   5.963   5.754  0.00  0.00     0.002 A 
ATOM      6  C8  UNL d   1      -3.987   5.981   4.745  0.00  0.00     0.002 A 
ENDROOT
BRANCH   1   7
ATOM      7  C2  UNL d   1      -5.104   4.961   2.722  0.00  0.00     0.056 C 
BRANCH   7   8
ATOM      8  C1  UNL d   1      -4.774   5.863   1.528  0.00  0.00     0.007 C 
ATOM      9  C   UNL d   1      -3.279   5.996   1.270  0.00  0.00     0.009 C 
ENDBRANCH   7   8
ENDBRANCH   1   7
TORSDOF 2
ENDMDL
