MODEL 1
REMARK minimizedAffinity -2.38642597
REMARK minimizedRMSD -1
REMARK  2 active torsions:
REMARK  status: ('A' for Active; 'I' for Inactive)
REMARK    1  A    between atoms: C1_2  and  C2_3 
REMARK    2  A    between atoms: C2_3  and  C3_4 
ROOT
ATOM      1  C3  UNL d   1      -3.257   5.988   3.464  0.00  0.00    -0.075 A 
ATOM      2  C4  UNL d   1      -4.638   5.978   3.705  0.00  0.00     0.002 A 
ATOM      3  C5  UNL d   1      -5.542   5.939   2.643  0.00  0.00     0.002 A 
ATOM      4  C6  UNL d   1      -5.077   5.921   1.329  0.00  0.00    -0.004 A 
ATOM      5  C7  UNL d   1      -3.707   5.947   1.078  0.00  0.00     0.002 A 
ATOM      6  C8  UNL d   1      -2.801   5.981   2.139  0.00  0.00     0.002 A 
ENDROOT
BRANCH   1   7
ATOM      7  C2  UNL d   1      -2.273   6.000   4.610  0.00  0.00     0.056 C 
BRANCH   7   8
ATOM      8  C1  UNL d   1      -2.928   5.947   5.995  0.00  0.00     0.007 C 
ATOM      9  C   UNL d   1      -4.447   5.861   5.937  0.00  0.00     0.009 C 
ENDBRANCH   7   8
ENDBRANCH   1   7
TORSDOF 2
ENDMDL
