MODEL 1
REMARK minimizedAffinity 4.45938826
REMARK minimizedRMSD -1
REMARK  2 active torsions:
REMARK  status: ('A' for Active; 'I' for Inactive)
REMARK    1  A    between atoms: C1_2  and  C2_3 
REMARK    2  A    between atoms: C2_3  and  C3_4 
ROOT
ATOM      1  C3  UNL d   1      -3.331   5.518   3.498  0.00  0.00    -0.075 A 
ATOM      2  C4  UNL d   1      -4.681   5.871   3.633  0.00  0.00     0.002 A 
ATOM      3  C5  UNL d   1      -5.496   5.997   2.507  0.00  0.00     0.002 A 
ATOM      4  C6  UNL d   1      -4.970   5.783   1.235  0.00  0.00    -0.004 A 
ATOM      5  C7  UNL d   1      -3.626   5.448   1.089  0.00  0.00     0.002 A 
ATOM      6  C8  UNL d   1      -2.809   5.317   2.213  0.00  0.00     0.002 A 
ENDROOT
BRANCH   1   7
ATOM      7  C2  UNL d   1      -2.451   5.350   4.714  0.00  0.00     0.056 C 
BRANCH   7   8
ATOM      8  C1  UNL d   1      -3.034   5.958   5.994  0.00  0.00     0.007 C 
ATOM      9  C   UNL d   1      -4.556   6.000   6.000  0.00  0.00     0.009 C 
ENDBRANCH   7   8
ENDBRANCH   1   7
TORSDOF 2
ENDMDL
