MODEL 1
REMARK minimizedAffinity 2.27862263
REMARK minimizedRMSD -1
REMARK  2 active torsions:
REMARK  status: ('A' for Active; 'I' for Inactive)
REMARK    1  A    between atoms: C1_2  and  C2_3 
REMARK    2  A    between atoms: C2_3  and  C3_4 
ROOT
ATOM      1  C3  UNL d   1      -4.142   5.935   3.560  0.00  0.00    -0.075 A 
ATOM      2  C4  UNL d   1      -2.741   5.963   3.522  0.00  0.00     0.002 A 
ATOM      3  C5  UNL d   1      -2.001   5.989   4.705  0.00  0.00     0.002 A 
ATOM      4  C6  UNL d   1      -2.651   5.999   5.937  0.00  0.00    -0.004 A 
ATOM      5  C7  UNL d   1      -4.043   5.989   5.986  0.00  0.00     0.002 A 
ATOM      6  C8  UNL d   1      -4.786   5.958   4.804  0.00  0.00     0.002 A 
ENDROOT
BRANCH   1   7
ATOM      7  C2  UNL d   1      -4.948   5.876   2.285  0.00  0.00     0.056 C 
BRANCH   7   8
ATOM      8  C1  UNL d   1      -4.765   4.579   1.490  0.00  0.00     0.007 C 
ATOM      9  C   UNL d   1      -3.862   3.570   2.187  0.00  0.00     0.009 C 
ENDBRANCH   7   8
ENDBRANCH   1   7
TORSDOF 2
ENDMDL
