MODEL 1
REMARK minimizedAffinity -1.39102578
REMARK minimizedRMSD -1
REMARK  2 active torsions:
REMARK  status: ('A' for Active; 'I' for Inactive)
REMARK    1  A    between atoms: C1_2  and  C2_3 
REMARK    2  A    between atoms: C2_3  and  C3_4 
ROOT
ATOM      1  C3  UNL d   1      -3.684   5.059   3.132  0.00  0.00    -0.075 A 
ATOM      2  C4  UNL d   1      -2.970   5.556   2.032  0.00  0.00     0.002 A 
ATOM      3  C5  UNL d   1      -3.643   6.000   0.893  0.00  0.00     0.002 A 
ATOM      4  C6  UNL d   1      -5.034   5.944   0.836  0.00  0.00    -0.004 A 
ATOM      5  C7  UNL d   1      -5.752   5.436   1.916  0.00  0.00     0.002 A 
ATOM      6  C8  UNL d   1      -5.082   4.996   3.059  0.00  0.00     0.002 A 
ENDROOT
BRANCH   1   7
ATOM      7  C2  UNL d   1      -2.963   4.605   4.379  0.00  0.00     0.056 C 
BRANCH   7   8
ATOM      8  C1  UNL d   1      -2.998   5.621   5.525  0.00  0.00     0.007 C 
ATOM      9  C   UNL d   1      -4.411   5.977   5.969  0.00  0.00     0.009 C 
ENDBRANCH   7   8
ENDBRANCH   1   7
TORSDOF 2
ENDMDL
