MODEL 1
REMARK minimizedAffinity -2.45655704
REMARK minimizedRMSD -1
REMARK  2 active torsions:
REMARK  status: ('A' for Active; 'I' for Inactive)
REMARK    1  A    between atoms: C1_2  and  C2_3 
REMARK    2  A    between atoms: C2_3  and  C3_4 
ROOT
ATOM      1  C3  UNL d   1       3.797   4.940   0.439  0.00  0.00    -0.075 A 
ATOM      2  C4  UNL d   1       3.910   4.138   1.584  0.00  0.00     0.002 A 
ATOM      3  C5  UNL d   1       5.003   4.275   2.440  0.00  0.00     0.002 A 
ATOM      4  C6  UNL d   1       6.000   5.207   2.158  0.00  0.00    -0.004 A 
ATOM      5  C7  UNL d   1       5.907   5.997   1.015  0.00  0.00     0.002 A 
ATOM      6  C8  UNL d   1       4.812   5.865   0.159  0.00  0.00     0.002 A 
ENDROOT
BRANCH   1   7
ATOM      7  C2  UNL d   1       2.602   4.817  -0.476  0.00  0.00     0.056 C 
BRANCH   7   8
ATOM      8  C1  UNL d   1       2.814   5.428  -1.865  0.00  0.00     0.007 C 
ATOM      9  C   UNL d   1       2.662   4.418  -2.994  0.00  0.00     0.009 C 
ENDBRANCH   7   8
ENDBRANCH   1   7
TORSDOF 2
ENDMDL
