MODEL 1
REMARK minimizedAffinity -0.242896929
REMARK minimizedRMSD -1
REMARK  2 active torsions:
REMARK  status: ('A' for Active; 'I' for Inactive)
REMARK    1  A    between atoms: C1_2  and  C2_3 
REMARK    2  A    between atoms: C2_3  and  C3_4 
ROOT
ATOM      1  C3  UNL d   1       1.691   2.913  -4.587  0.00  0.00    -0.075 A 
ATOM      2  C4  UNL d   1       0.845   3.459  -5.563  0.00  0.00     0.002 A 
ATOM      3  C5  UNL d   1       1.022   4.773  -6.000  0.00  0.00     0.002 A 
ATOM      4  C6  UNL d   1       2.038   5.558  -5.460  0.00  0.00    -0.004 A 
ATOM      5  C7  UNL d   1       2.873   5.031  -4.477  0.00  0.00     0.002 A 
ATOM      6  C8  UNL d   1       2.701   3.716  -4.042  0.00  0.00     0.002 A 
ENDROOT
BRANCH   1   7
ATOM      7  C2  UNL d   1       1.523   1.483  -4.132  0.00  0.00     0.056 C 
BRANCH   7   8
ATOM      8  C1  UNL d   1       1.507   1.311  -2.609  0.00  0.00     0.007 C 
ATOM      9  C   UNL d   1       1.941  -0.077  -2.157  0.00  0.00     0.009 C 
ENDBRANCH   7   8
ENDBRANCH   1   7
TORSDOF 2
ENDMDL
