MODEL 1
REMARK minimizedAffinity 1.7977984
REMARK minimizedRMSD -1
REMARK  2 active torsions:
REMARK  status: ('A' for Active; 'I' for Inactive)
REMARK    1  A    between atoms: C1_2  and  C2_3 
REMARK    2  A    between atoms: C2_3  and  C3_4 
ROOT
ATOM      1  C3  UNL d   1      -3.025   3.338   2.354  0.00  0.00    -0.075 A 
ATOM      2  C4  UNL d   1      -3.350   4.398   1.495  0.00  0.00     0.002 A 
ATOM      3  C5  UNL d   1      -3.275   5.719   1.940  0.00  0.00     0.002 A 
ATOM      4  C6  UNL d   1      -2.885   5.995   3.249  0.00  0.00    -0.004 A 
ATOM      5  C7  UNL d   1      -2.576   4.948   4.115  0.00  0.00     0.002 A 
ATOM      6  C8  UNL d   1      -2.645   3.627   3.671  0.00  0.00     0.002 A 
ENDROOT
BRANCH   1   7
ATOM      7  C2  UNL d   1      -3.076   1.909   1.869  0.00  0.00     0.056 C 
BRANCH   7   8
ATOM      8  C1  UNL d   1      -2.353   0.914   2.784  0.00  0.00     0.007 C 
ATOM      9  C   UNL d   1      -3.238  -0.242   3.231  0.00  0.00     0.009 C 
ENDBRANCH   7   8
ENDBRANCH   1   7
TORSDOF 2
ENDMDL
