MODEL 1
REMARK minimizedAffinity 7.32420349
REMARK minimizedRMSD -1
REMARK  0 active torsions:
REMARK  status: ('A' for Active; 'I' for Inactive)
ROOT
ATOM      1  C2' OXE d   1       5.938   1.429  -2.356  0.00  0.00     0.078 C 
ATOM      2  C1' OXE d   1       5.900  -1.360  -2.039  0.00  0.00     0.078 C 
ATOM      3  C1  OXE d   1       5.915  -0.811  -3.444  0.00  0.00    -0.078 A 
ATOM      4  C2  OXE d   1       5.886   0.555  -3.590  0.00  0.00    -0.078 A 
ATOM      5  C3  OXE d   1       5.954   1.114  -4.863  0.00  0.00     0.003 A 
ATOM      6  C4  OXE d   1       5.895   0.298  -5.999  0.00  0.00    -0.002 A 
ATOM      7  C5  OXE d   1       5.884  -1.095  -5.873  0.00  0.00    -0.002 A 
ATOM      8  C6  OXE d   1       5.936  -1.665  -4.606  0.00  0.00     0.003 A 
ENDROOT
TORSDOF 0
ENDMDL
