MODEL 1
REMARK minimizedAffinity 5.65493822
REMARK minimizedRMSD -1
REMARK  0 active torsions:
REMARK  status: ('A' for Active; 'I' for Inactive)
ROOT
ATOM      1  C2' OXE d   1       1.109  -5.422   1.757  0.00  0.00     0.078 C 
ATOM      2  C1' OXE d   1      -1.540  -4.715   1.154  0.00  0.00     0.078 C 
ATOM      3  C1  OXE d   1      -0.446  -3.762   0.740  0.00  0.00    -0.078 A 
ATOM      4  C2  OXE d   1       0.843  -4.094   1.081  0.00  0.00    -0.078 A 
ATOM      5  C3  OXE d   1       1.896  -3.278   0.676  0.00  0.00     0.003 A 
ATOM      6  C4  OXE d   1       1.641  -2.047   0.060  0.00  0.00    -0.002 A 
ATOM      7  C5  OXE d   1       0.332  -1.671  -0.261  0.00  0.00    -0.002 A 
ATOM      8  C6  OXE d   1      -0.717  -2.535   0.034  0.00  0.00     0.003 A 
ENDROOT
TORSDOF 0
ENDMDL
