MODEL 1
REMARK minimizedAffinity 7.06204939
REMARK minimizedRMSD -1
REMARK  0 active torsions:
REMARK  status: ('A' for Active; 'I' for Inactive)
ROOT
ATOM      1  C2' OXE d   1       5.272   0.955  -2.476  0.00  0.00     0.078 C 
ATOM      2  C1' OXE d   1       3.882   1.679  -4.805  0.00  0.00     0.078 C 
ATOM      3  C1  OXE d   1       4.600   0.353  -4.798  0.00  0.00    -0.078 A 
ATOM      4  C2  OXE d   1       5.316   0.028  -3.672  0.00  0.00    -0.078 A 
ATOM      5  C3  OXE d   1       5.952  -1.208  -3.592  0.00  0.00     0.003 A 
ATOM      6  C4  OXE d   1       5.997  -2.055  -4.706  0.00  0.00    -0.002 A 
ATOM      7  C5  OXE d   1       5.307  -1.725  -5.877  0.00  0.00    -0.002 A 
ATOM      8  C6  OXE d   1       4.571  -0.547  -5.925  0.00  0.00     0.003 A 
ENDROOT
TORSDOF 0
ENDMDL
