MODEL 1
REMARK minimizedAffinity 5.91978312
REMARK minimizedRMSD -1
REMARK  0 active torsions:
REMARK  status: ('A' for Active; 'I' for Inactive)
ROOT
ATOM      1  C2' OXE d   1       1.646  -3.026  -3.051  0.00  0.00     0.078 C 
ATOM      2  C1' OXE d   1       1.701  -0.839  -4.809  0.00  0.00     0.078 C 
ATOM      3  C1  OXE d   1       1.319  -0.578  -3.374  0.00  0.00    -0.078 A 
ATOM      4  C2  OXE d   1       1.249  -1.661  -2.531  0.00  0.00    -0.078 A 
ATOM      5  C3  OXE d   1       0.954  -1.469  -1.184  0.00  0.00     0.003 A 
ATOM      6  C4  OXE d   1       0.578  -0.205  -0.714  0.00  0.00    -0.002 A 
ATOM      7  C5  OXE d   1       0.604   0.905  -1.565  0.00  0.00    -0.002 A 
ATOM      8  C6  OXE d   1       1.012   0.743  -2.884  0.00  0.00     0.003 A 
ENDROOT
TORSDOF 0
ENDMDL
