MODEL 1
REMARK minimizedAffinity 7.59896231
REMARK minimizedRMSD -1
REMARK  0 active torsions:
REMARK  status: ('A' for Active; 'I' for Inactive)
ROOT
ATOM      1  C2' OXE d   1       3.810   1.862   2.033  0.00  0.00     0.078 C 
ATOM      2  C1' OXE d   1       5.693   3.192   3.635  0.00  0.00     0.078 C 
ATOM      3  C1  OXE d   1       5.365   1.760   3.977  0.00  0.00    -0.078 A 
ATOM      4  C2  OXE d   1       4.408   1.131   3.216  0.00  0.00    -0.078 A 
ATOM      5  C3  OXE d   1       4.107  -0.207   3.454  0.00  0.00     0.003 A 
ATOM      6  C4  OXE d   1       4.658  -0.872   4.556  0.00  0.00    -0.002 A 
ATOM      7  C5  OXE d   1       5.604  -0.238   5.368  0.00  0.00    -0.002 A 
ATOM      8  C6  OXE d   1       6.000   1.061   5.067  0.00  0.00     0.003 A 
ENDROOT
TORSDOF 0
ENDMDL
