MODEL 1
REMARK minimizedAffinity 6.53307819
REMARK minimizedRMSD -1
REMARK  0 active torsions:
REMARK  status: ('A' for Active; 'I' for Inactive)
ROOT
ATOM      1  C2' OXE d   1       1.910  -0.471  -4.687  0.00  0.00     0.078 C 
ATOM      2  C1' OXE d   1       1.141  -2.435  -2.834  0.00  0.00     0.078 C 
ATOM      3  C1  OXE d   1       0.990  -0.990  -2.431  0.00  0.00    -0.078 A 
ATOM      4  C2  OXE d   1       1.412  -0.036  -3.325  0.00  0.00    -0.078 A 
ATOM      5  C3  OXE d   1       1.244   1.313  -3.026  0.00  0.00     0.003 A 
ATOM      6  C4  OXE d   1       0.792   1.707  -1.761  0.00  0.00    -0.002 A 
ATOM      7  C5  OXE d   1       0.394   0.752  -0.820  0.00  0.00    -0.002 A 
ATOM      8  C6  OXE d   1       0.446  -0.597  -1.154  0.00  0.00     0.003 A 
ENDROOT
TORSDOF 0
ENDMDL
