MODEL 1
REMARK minimizedAffinity 0.0236401409
REMARK minimizedRMSD -1
REMARK  0 active torsions:
REMARK  status: ('A' for Active; 'I' for Inactive)
ROOT
ATOM      1  C2' OXE d   1       0.847   1.535  -1.381  0.00  0.00     0.078 C 
ATOM      2  C1' OXE d   1       0.943  -1.032  -0.249  0.00  0.00     0.078 C 
ATOM      3  C1  OXE d   1       0.905  -0.927  -1.753  0.00  0.00    -0.078 A 
ATOM      4  C2  OXE d   1       0.811   0.331  -2.297  0.00  0.00    -0.078 A 
ATOM      5  C3  OXE d   1       0.827   0.488  -3.680  0.00  0.00     0.003 A 
ATOM      6  C4  OXE d   1       0.784  -0.632  -4.521  0.00  0.00    -0.002 A 
ATOM      7  C5  OXE d   1       0.838  -1.923  -3.986  0.00  0.00    -0.002 A 
ATOM      8  C6  OXE d   1       0.942  -2.087  -2.609  0.00  0.00     0.003 A 
ENDROOT
TORSDOF 0
ENDMDL
