MODEL 1
REMARK minimizedAffinity 1.30041087
REMARK minimizedRMSD -1
REMARK  0 active torsions:
REMARK  status: ('A' for Active; 'I' for Inactive)
ROOT
ATOM      1  C2' OXE d   1       1.307  -2.233  -2.752  0.00  0.00     0.078 C 
ATOM      2  C1' OXE d   1       0.699  -1.035  -0.287  0.00  0.00     0.078 C 
ATOM      3  C1  OXE d   1       0.835  -0.137  -1.492  0.00  0.00    -0.078 A 
ATOM      4  C2  OXE d   1       1.179  -0.727  -2.684  0.00  0.00    -0.078 A 
ATOM      5  C3  OXE d   1       1.264   0.049  -3.837  0.00  0.00     0.003 A 
ATOM      6  C4  OXE d   1       1.153   1.442  -3.764  0.00  0.00    -0.002 A 
ATOM      7  C5  OXE d   1       0.843   2.067  -2.552  0.00  0.00    -0.002 A 
ATOM      8  C6  OXE d   1       0.639   1.290  -1.417  0.00  0.00     0.003 A 
ENDROOT
TORSDOF 0
ENDMDL
