MODEL 1
REMARK minimizedAffinity 3.02186775
REMARK minimizedRMSD -1
REMARK  0 active torsions:
REMARK  status: ('A' for Active; 'I' for Inactive)
ROOT
ATOM      1  C2' OXE d   1      -6.000   3.771   1.133  0.00  0.00     0.078 C 
ATOM      2  C1' OXE d   1      -3.294   4.461   0.851  0.00  0.00     0.078 C 
ATOM      3  C1  OXE d   1      -3.987   4.844   2.135  0.00  0.00    -0.078 A 
ATOM      4  C2  OXE d   1      -5.324   4.543   2.245  0.00  0.00    -0.078 A 
ATOM      5  C3  OXE d   1      -5.998   4.825   3.430  0.00  0.00     0.003 A 
ATOM      6  C4  OXE d   1      -5.368   5.548   4.449  0.00  0.00    -0.002 A 
ATOM      7  C5  OXE d   1      -4.018   5.899   4.341  0.00  0.00    -0.002 A 
ATOM      8  C6  OXE d   1      -3.303   5.517   3.211  0.00  0.00     0.003 A 
ENDROOT
TORSDOF 0
ENDMDL
