MODEL 1
REMARK minimizedAffinity 6.70829916
REMARK minimizedRMSD -1
REMARK  0 active torsions:
REMARK  status: ('A' for Active; 'I' for Inactive)
ROOT
ATOM      1  C2' OXE d   1      -1.540  -1.249   4.026  0.00  0.00     0.078 C 
ATOM      2  C1' OXE d   1      -3.911  -2.375   5.020  0.00  0.00     0.078 C 
ATOM      3  C1  OXE d   1      -3.712  -0.890   5.191  0.00  0.00    -0.078 A 
ATOM      4  C2  OXE d   1      -2.528  -0.355   4.743  0.00  0.00    -0.078 A 
ATOM      5  C3  OXE d   1      -2.317   1.018   4.826  0.00  0.00     0.003 A 
ATOM      6  C4  OXE d   1      -3.231   1.836   5.500  0.00  0.00    -0.002 A 
ATOM      7  C5  OXE d   1      -4.425   1.305   5.999  0.00  0.00    -0.002 A 
ATOM      8  C6  OXE d   1      -4.700  -0.045   5.815  0.00  0.00     0.003 A 
ENDROOT
TORSDOF 0
ENDMDL
