MODEL 1
REMARK minimizedAffinity 0.991967499
REMARK minimizedRMSD -1
REMARK  0 active torsions:
REMARK  status: ('A' for Active; 'I' for Inactive)
ROOT
ATOM      1  C2' OXE d   1       0.834  -2.913  -2.415  0.00  0.00     0.078 C 
ATOM      2  C1' OXE d   1      -0.384  -1.740  -0.174  0.00  0.00     0.078 C 
ATOM      3  C1  OXE d   1       0.324  -0.830  -1.146  0.00  0.00    -0.078 A 
ATOM      4  C2  OXE d   1       0.957  -1.418  -2.215  0.00  0.00    -0.078 A 
ATOM      5  C3  OXE d   1       1.579  -0.620  -3.171  0.00  0.00     0.003 A 
ATOM      6  C4  OXE d   1       1.697   0.761  -2.974  0.00  0.00    -0.002 A 
ATOM      7  C5  OXE d   1       1.094   1.375  -1.871  0.00  0.00    -0.002 A 
ATOM      8  C6  OXE d   1       0.369   0.600  -0.972  0.00  0.00     0.003 A 
ENDROOT
TORSDOF 0
ENDMDL
