MODEL 1
REMARK minimizedAffinity 0.445994079
REMARK minimizedRMSD -1
REMARK  0 active torsions:
REMARK  status: ('A' for Active; 'I' for Inactive)
ROOT
ATOM      1  C2' OXE d   1       1.444  -3.181  -2.907  0.00  0.00     0.078 C 
ATOM      2  C1' OXE d   1       1.649  -1.198  -4.882  0.00  0.00     0.078 C 
ATOM      3  C1  OXE d   1       1.271  -0.765  -3.488  0.00  0.00    -0.078 A 
ATOM      4  C2  OXE d   1       1.127  -1.748  -2.538  0.00  0.00    -0.078 A 
ATOM      5  C3  OXE d   1       0.833  -1.398  -1.223  0.00  0.00     0.003 A 
ATOM      6  C4  OXE d   1       0.532  -0.071  -0.893  0.00  0.00    -0.002 A 
ATOM      7  C5  OXE d   1       0.634   0.940  -1.855  0.00  0.00    -0.002 A 
ATOM      8  C6  OXE d   1       1.043   0.616  -3.144  0.00  0.00     0.003 A 
ENDROOT
TORSDOF 0
ENDMDL
