MODEL 1
REMARK minimizedAffinity 7.27360296
REMARK minimizedRMSD -1
REMARK  0 active torsions:
REMARK  status: ('A' for Active; 'I' for Inactive)
ROOT
ATOM      1  C2' OXE d   1       5.037   4.750  -3.824  0.00  0.00     0.078 C 
ATOM      2  C1' OXE d   1       3.304   4.125  -5.942  0.00  0.00     0.078 C 
ATOM      3  C1  OXE d   1       4.226   3.040  -5.444  0.00  0.00    -0.078 A 
ATOM      4  C2  OXE d   1       5.103   3.368  -4.438  0.00  0.00    -0.078 A 
ATOM      5  C3  OXE d   1       5.938   2.390  -3.905  0.00  0.00     0.003 A 
ATOM      6  C4  OXE d   1       6.000   1.118  -4.485  0.00  0.00    -0.002 A 
ATOM      7  C5  OXE d   1       5.143   0.774  -5.537  0.00  0.00    -0.002 A 
ATOM      8  C6  OXE d   1       4.222   1.709  -5.998  0.00  0.00     0.003 A 
ENDROOT
TORSDOF 0
ENDMDL
