MODEL 1
REMARK minimizedAffinity 0.619732976
REMARK minimizedRMSD -1
REMARK  0 active torsions:
REMARK  status: ('A' for Active; 'I' for Inactive)
ROOT
ATOM      1  C2' OXE d   1       1.122   2.148  -3.665  0.00  0.00     0.078 C 
ATOM      2  C1' OXE d   1       0.256   1.182  -1.176  0.00  0.00     0.078 C 
ATOM      3  C1  OXE d   1       0.821   0.187  -2.159  0.00  0.00    -0.078 A 
ATOM      4  C2  OXE d   1       1.200   0.662  -3.392  0.00  0.00    -0.078 A 
ATOM      5  C3  OXE d   1       1.778  -0.204  -4.315  0.00  0.00     0.003 A 
ATOM      6  C4  OXE d   1       1.837  -1.579  -4.058  0.00  0.00    -0.002 A 
ATOM      7  C5  OXE d   1       1.420  -2.089  -2.824  0.00  0.00    -0.002 A 
ATOM      8  C6  OXE d   1       0.950  -1.215  -1.849  0.00  0.00     0.003 A 
ENDROOT
TORSDOF 0
ENDMDL
