MODEL 1
REMARK minimizedAffinity 4.09604788
REMARK minimizedRMSD -1
REMARK  0 active torsions:
REMARK  status: ('A' for Active; 'I' for Inactive)
ROOT
ATOM      1  C2' OXE d   1      -2.030  -1.238   3.260  0.00  0.00     0.078 C 
ATOM      2  C1' OXE d   1      -3.739  -2.513   5.086  0.00  0.00     0.078 C 
ATOM      3  C1  OXE d   1      -3.694  -1.005   5.099  0.00  0.00    -0.078 A 
ATOM      4  C2  OXE d   1      -2.821  -0.391   4.234  0.00  0.00    -0.078 A 
ATOM      5  C3  OXE d   1      -2.780   0.999   4.167  0.00  0.00     0.003 A 
ATOM      6  C4  OXE d   1      -3.506   1.774   5.078  0.00  0.00    -0.002 A 
ATOM      7  C5  OXE d   1      -4.372   1.167   5.995  0.00  0.00    -0.002 A 
ATOM      8  C6  OXE d   1      -4.509  -0.216   5.989  0.00  0.00     0.003 A 
ENDROOT
TORSDOF 0
ENDMDL
