MODEL 1
REMARK minimizedAffinity 4.17475224
REMARK minimizedRMSD -1
REMARK  0 active torsions:
REMARK  status: ('A' for Active; 'I' for Inactive)
ROOT
ATOM      1  C2' OXE d   1       1.358  -3.057  -3.109  0.00  0.00     0.078 C 
ATOM      2  C1' OXE d   1       1.339  -0.699  -4.632  0.00  0.00     0.078 C 
ATOM      3  C1  OXE d   1       1.071  -0.583  -3.152  0.00  0.00    -0.078 A 
ATOM      4  C2  OXE d   1       1.036  -1.747  -2.423  0.00  0.00    -0.078 A 
ATOM      5  C3  OXE d   1       0.846  -1.692  -1.045  0.00  0.00     0.003 A 
ATOM      6  C4  OXE d   1       0.539  -0.478  -0.420  0.00  0.00    -0.002 A 
ATOM      7  C5  OXE d   1       0.531   0.715  -1.151  0.00  0.00    -0.002 A 
ATOM      8  C6  OXE d   1       0.836   0.685  -2.507  0.00  0.00     0.003 A 
ENDROOT
TORSDOF 0
ENDMDL
