MODEL 1
REMARK minimizedAffinity 0.50168705
REMARK minimizedRMSD -1
REMARK  0 active torsions:
REMARK  status: ('A' for Active; 'I' for Inactive)
ROOT
ATOM      1  C2' OXE d   1       0.643  -2.243  -0.507  0.00  0.00     0.078 C 
ATOM      2  C1' OXE d   1       0.860  -2.802  -3.250  0.00  0.00     0.078 C 
ATOM      3  C1  OXE d   1       0.992  -1.365  -2.812  0.00  0.00    -0.078 A 
ATOM      4  C2  OXE d   1       0.838  -1.095  -1.473  0.00  0.00    -0.078 A 
ATOM      5  C3  OXE d   1       1.005   0.207  -1.009  0.00  0.00     0.003 A 
ATOM      6  C4  OXE d   1       1.176   1.265  -1.910  0.00  0.00    -0.002 A 
ATOM      7  C5  OXE d   1       1.295   1.016  -3.282  0.00  0.00    -0.002 A 
ATOM      8  C6  OXE d   1       1.249  -0.294  -3.744  0.00  0.00     0.003 A 
ENDROOT
TORSDOF 0
ENDMDL
