MODEL 1
REMARK minimizedAffinity 4.12596607
REMARK minimizedRMSD -1
REMARK  0 active torsions:
REMARK  status: ('A' for Active; 'I' for Inactive)
ROOT
ATOM      1  C2' OXE d   1       1.415  -2.843  -3.275  0.00  0.00     0.078 C 
ATOM      2  C1' OXE d   1       2.518  -0.406  -4.125  0.00  0.00     0.078 C 
ATOM      3  C1  OXE d   1       1.631  -0.389  -2.905  0.00  0.00    -0.078 A 
ATOM      4  C2  OXE d   1       1.058  -1.579  -2.524  0.00  0.00    -0.078 A 
ATOM      5  C3  OXE d   1       0.275  -1.629  -1.374  0.00  0.00     0.003 A 
ATOM      6  C4  OXE d   1      -0.058  -0.453  -0.691  0.00  0.00    -0.002 A 
ATOM      7  C5  OXE d   1       0.483   0.775  -1.086  0.00  0.00    -0.002 A 
ATOM      8  C6  OXE d   1       1.361   0.818  -2.163  0.00  0.00     0.003 A 
ENDROOT
TORSDOF 0
ENDMDL
