MODEL 1
REMARK minimizedAffinity -1.35074317
REMARK minimizedRMSD -1
REMARK  0 active torsions:
REMARK  status: ('A' for Active; 'I' for Inactive)
ROOT
ATOM      1  C2' OXE d   1       2.418   3.608  -5.589  0.00  0.00     0.078 C 
ATOM      2  C1' OXE d   1       4.577   4.665  -4.140  0.00  0.00     0.078 C 
ATOM      3  C1  OXE d   1       4.732   3.284  -4.725  0.00  0.00    -0.078 A 
ATOM      4  C2  OXE d   1       3.654   2.756  -5.393  0.00  0.00    -0.078 A 
ATOM      5  C3  OXE d   1       3.762   1.508  -6.000  0.00  0.00     0.003 A 
ATOM      6  C4  OXE d   1       4.904   0.722  -5.805  0.00  0.00    -0.002 A 
ATOM      7  C5  OXE d   1       5.999   1.225  -5.094  0.00  0.00    -0.002 A 
ATOM      8  C6  OXE d   1       5.946   2.518  -4.585  0.00  0.00     0.003 A 
ENDROOT
TORSDOF 0
ENDMDL
