MODEL 1
REMARK minimizedAffinity -3.87409639
REMARK minimizedRMSD -1
REMARK  0 active torsions:
REMARK  status: ('A' for Active; 'I' for Inactive)
ROOT
ATOM      1  C   UNL d   1       0.787   0.275   0.369  0.00  0.00     0.172 C 
ATOM      2  N   UNL d   1      -0.515  -0.046  -0.167  0.00  0.00    -0.070 N 
ATOM      3  C1  UNL d   1      -1.591  -0.484   0.559  0.00  0.00    -0.004 A 
ATOM      4  C2  UNL d   1      -2.639  -0.676  -0.315  0.00  0.00    -0.047 A 
ATOM      5  C3  UNL d   1      -2.177  -0.344  -1.611  0.00  0.00    -0.047 A 
ATOM      6  C4  UNL d   1      -0.859   0.042  -1.490  0.00  0.00    -0.004 A 
ENDROOT
TORSDOF 0
ENDMDL
