MODEL 1
REMARK minimizedAffinity -3.65558982
REMARK minimizedRMSD -1
REMARK  0 active torsions:
REMARK  status: ('A' for Active; 'I' for Inactive)
ROOT
ATOM      1  C   UNL d   1       1.449   0.349   0.452  0.00  0.00     0.172 C 
ATOM      2  N   UNL d   1       0.074  -0.014   0.708  0.00  0.00    -0.070 N 
ATOM      3  C1  UNL d   1      -1.027   0.691   0.301  0.00  0.00    -0.004 A 
ATOM      4  C2  UNL d   1      -2.145   0.018   0.741  0.00  0.00    -0.047 A 
ATOM      5  C3  UNL d   1      -1.701  -1.131   1.438  0.00  0.00    -0.047 A 
ATOM      6  C4  UNL d   1      -0.323  -1.126   1.402  0.00  0.00    -0.004 A 
ENDROOT
TORSDOF 0
ENDMDL
