MODEL 1
REMARK minimizedAffinity -3.18505573
REMARK minimizedRMSD -1
REMARK  0 active torsions:
REMARK  status: ('A' for Active; 'I' for Inactive)
ROOT
ATOM      1  C   UNL d   1       0.718   0.566   0.396  0.00  0.00     0.172 C 
ATOM      2  N   UNL d   1      -0.599   0.003   0.211  0.00  0.00    -0.070 N 
ATOM      3  C1  UNL d   1      -1.122  -0.430  -0.978  0.00  0.00    -0.004 A 
ATOM      4  C2  UNL d   1      -2.396  -0.897  -0.733  0.00  0.00    -0.047 A 
ATOM      5  C3  UNL d   1      -2.646  -0.739   0.650  0.00  0.00    -0.047 A 
ATOM      6  C4  UNL d   1      -1.517  -0.180   1.211  0.00  0.00    -0.004 A 
ENDROOT
TORSDOF 0
ENDMDL
