MODEL 1
REMARK minimizedAffinity -3.65871048
REMARK minimizedRMSD -1
REMARK  0 active torsions:
REMARK  status: ('A' for Active; 'I' for Inactive)
ROOT
ATOM      1  C   UNL d   1      -3.026  -0.602   0.077  0.00  0.00     0.172 C 
ATOM      2  N   UNL d   1      -1.617  -0.286   0.067  0.00  0.00    -0.070 N 
ATOM      3  C1  UNL d   1      -0.957   0.392  -0.923  0.00  0.00    -0.004 A 
ATOM      4  C2  UNL d   1       0.368   0.488  -0.558  0.00  0.00    -0.047 A 
ATOM      5  C3  UNL d   1       0.510  -0.155   0.694  0.00  0.00    -0.047 A 
ATOM      6  C4  UNL d   1      -0.734  -0.625   1.058  0.00  0.00    -0.004 A 
ENDROOT
TORSDOF 0
ENDMDL
