MODEL 1
REMARK minimizedAffinity -3.32869577
REMARK minimizedRMSD -1
REMARK  0 active torsions:
REMARK  status: ('A' for Active; 'I' for Inactive)
ROOT
ATOM      1  C   UNL d   1       0.627   0.239  -0.105  0.00  0.00     0.172 C 
ATOM      2  N   UNL d   1      -0.696  -0.065  -0.598  0.00  0.00    -0.070 N 
ATOM      3  C1  UNL d   1      -1.089  -0.020  -1.909  0.00  0.00    -0.004 A 
ATOM      4  C2  UNL d   1      -2.419  -0.377  -1.964  0.00  0.00    -0.047 A 
ATOM      5  C3  UNL d   1      -2.840  -0.646  -0.640  0.00  0.00    -0.047 A 
ATOM      6  C4  UNL d   1      -1.753  -0.445   0.185  0.00  0.00    -0.004 A 
ENDROOT
TORSDOF 0
ENDMDL
