MODEL 1
REMARK minimizedAffinity -3.87150311
REMARK minimizedRMSD -1
REMARK  0 active torsions:
REMARK  status: ('A' for Active; 'I' for Inactive)
ROOT
ATOM      1  C   UNL d   1       0.271   0.421  -0.032  0.00  0.00     0.172 C 
ATOM      2  N   UNL d   1      -1.030  -0.084  -0.405  0.00  0.00    -0.070 N 
ATOM      3  C1  UNL d   1      -1.631   0.082  -1.624  0.00  0.00    -0.004 A 
ATOM      4  C2  UNL d   1      -2.857  -0.546  -1.578  0.00  0.00    -0.047 A 
ATOM      5  C3  UNL d   1      -2.997  -1.109  -0.287  0.00  0.00    -0.047 A 
ATOM      6  C4  UNL d   1      -1.852  -0.807   0.418  0.00  0.00    -0.004 A 
ENDROOT
TORSDOF 0
ENDMDL
