MODEL 1
REMARK minimizedAffinity -0.908352375
REMARK minimizedRMSD -1
REMARK  0 active torsions:
REMARK  status: ('A' for Active; 'I' for Inactive)
ROOT
ATOM      1  C   UNL d   1      -2.585  -1.082  -0.024  0.00  0.00     0.172 C 
ATOM      2  N   UNL d   1      -1.183  -0.890   0.266  0.00  0.00    -0.070 N 
ATOM      3  C1  UNL d   1      -0.469  -1.556   1.226  0.00  0.00    -0.004 A 
ATOM      4  C2  UNL d   1       0.828  -1.089   1.187  0.00  0.00    -0.047 A 
ATOM      5  C3  UNL d   1       0.894  -0.108   0.169  0.00  0.00    -0.047 A 
ATOM      6  C4  UNL d   1      -0.365  -0.005  -0.384  0.00  0.00    -0.004 A 
ENDROOT
TORSDOF 0
ENDMDL
