MODEL 1
REMARK minimizedAffinity 1.46057796
REMARK minimizedRMSD -1
REMARK  0 active torsions:
REMARK  status: ('A' for Active; 'I' for Inactive)
ROOT
ATOM      1  C   UNL d   1      -5.596   5.994   1.368  0.00  0.00     0.172 C 
ATOM      2  N   UNL d   1      -5.086   5.347   2.554  0.00  0.00    -0.070 N 
ATOM      3  C1  UNL d   1      -4.814   4.011   2.681  0.00  0.00    -0.004 A 
ATOM      4  C2  UNL d   1      -4.346   3.794   3.959  0.00  0.00    -0.047 A 
ATOM      5  C3  UNL d   1      -4.337   5.043   4.624  0.00  0.00    -0.047 A 
ATOM      6  C4  UNL d   1      -4.799   5.987   3.731  0.00  0.00    -0.004 A 
ENDROOT
TORSDOF 0
ENDMDL
