MODEL 1
REMARK minimizedAffinity -3.5672729
REMARK minimizedRMSD -1
REMARK  0 active torsions:
REMARK  status: ('A' for Active; 'I' for Inactive)
ROOT
ATOM      1  C   UNL d   1       0.323   0.339   0.090  0.00  0.00     0.172 C 
ATOM      2  N   UNL d   1      -0.972  -0.050  -0.416  0.00  0.00    -0.070 N 
ATOM      3  C1  UNL d   1      -2.133  -0.089   0.309  0.00  0.00    -0.004 A 
ATOM      4  C2  UNL d   1      -3.142  -0.509  -0.531  0.00  0.00    -0.047 A 
ATOM      5  C3  UNL d   1      -2.566  -0.732  -1.804  0.00  0.00    -0.047 A 
ATOM      6  C4  UNL d   1      -1.222  -0.440  -1.705  0.00  0.00    -0.004 A 
ENDROOT
TORSDOF 0
ENDMDL
