MODEL 1
REMARK minimizedAffinity -0.378505647
REMARK minimizedRMSD -1
REMARK  0 active torsions:
REMARK  status: ('A' for Active; 'I' for Inactive)
ROOT
ATOM      1  C   UNL d   1       1.869   0.289  -0.354  0.00  0.00     0.172 C 
ATOM      2  N   UNL d   1       0.816  -0.333   0.414  0.00  0.00    -0.070 N 
ATOM      3  C1  UNL d   1      -0.496  -0.436   0.034  0.00  0.00    -0.004 A 
ATOM      4  C2  UNL d   1      -1.176  -1.093   1.037  0.00  0.00    -0.047 A 
ATOM      5  C3  UNL d   1      -0.241  -1.394   2.055  0.00  0.00    -0.047 A 
ATOM      6  C4  UNL d   1       0.984  -0.912   1.644  0.00  0.00    -0.004 A 
ENDROOT
TORSDOF 0
ENDMDL
