MODEL 1
REMARK minimizedAffinity -2.1474123
REMARK minimizedRMSD -1
REMARK  0 active torsions:
REMARK  status: ('A' for Active; 'I' for Inactive)
ROOT
ATOM      1  C   UNL d   1       1.873  -0.008   0.017  0.00  0.00     0.172 C 
ATOM      2  N   UNL d   1       0.529  -0.230   0.496  0.00  0.00    -0.070 N 
ATOM      3  C1  UNL d   1       0.174  -1.073   1.516  0.00  0.00    -0.004 A 
ATOM      4  C2  UNL d   1      -1.194  -1.001   1.665  0.00  0.00    -0.047 A 
ATOM      5  C3  UNL d   1      -1.678  -0.084   0.702  0.00  0.00    -0.047 A 
ATOM      6  C4  UNL d   1      -0.590   0.378  -0.008  0.00  0.00    -0.004 A 
ENDROOT
TORSDOF 0
ENDMDL
