MODEL 1
REMARK minimizedAffinity -3.38506365
REMARK minimizedRMSD -1
REMARK  0 active torsions:
REMARK  status: ('A' for Active; 'I' for Inactive)
ROOT
ATOM      1  C   UNL d   1       1.915  -0.366   1.119  0.00  0.00     0.172 C 
ATOM      2  N   UNL d   1       2.337   1.015   1.112  0.00  0.00    -0.070 N 
ATOM      3  C1  UNL d   1       2.667   1.755   2.216  0.00  0.00    -0.004 A 
ATOM      4  C2  UNL d   1       3.015   3.018   1.789  0.00  0.00    -0.047 A 
ATOM      5  C3  UNL d   1       2.887   3.039   0.380  0.00  0.00    -0.047 A 
ATOM      6  C4  UNL d   1       2.466   1.787  -0.013  0.00  0.00    -0.004 A 
ENDROOT
TORSDOF 0
ENDMDL
