MODEL 1
REMARK minimizedAffinity -2.98128366
REMARK minimizedRMSD -1
REMARK  0 active torsions:
REMARK  status: ('A' for Active; 'I' for Inactive)
ROOT
ATOM      1  C   UNL d   1       0.088   0.715   0.025  0.00  0.00     0.172 C 
ATOM      2  N   UNL d   1      -1.104   0.105  -0.515  0.00  0.00    -0.070 N 
ATOM      3  C1  UNL d   1      -2.227  -0.222   0.197  0.00  0.00    -0.004 A 
ATOM      4  C2  UNL d   1      -3.134  -0.781  -0.677  0.00  0.00    -0.047 A 
ATOM      5  C3  UNL d   1      -2.535  -0.790  -1.960  0.00  0.00    -0.047 A 
ATOM      6  C4  UNL d   1      -1.279  -0.237  -1.830  0.00  0.00    -0.004 A 
ENDROOT
TORSDOF 0
ENDMDL
