MODEL 1
REMARK minimizedAffinity -2.22455668
REMARK minimizedRMSD -1
REMARK  0 active torsions:
REMARK  status: ('A' for Active; 'I' for Inactive)
ROOT
ATOM      1  C   UNL d   1       1.867   3.439   1.355  0.00  0.00     0.172 C 
ATOM      2  N   UNL d   1       1.575   2.078   0.971  0.00  0.00    -0.070 N 
ATOM      3  C1  UNL d   1       0.325   1.545   0.807  0.00  0.00    -0.004 A 
ATOM      4  C2  UNL d   1       0.473   0.225   0.439  0.00  0.00    -0.047 A 
ATOM      5  C3  UNL d   1       1.861  -0.045   0.380  0.00  0.00    -0.047 A 
ATOM      6  C4  UNL d   1       2.520   1.119   0.714  0.00  0.00    -0.004 A 
ENDROOT
TORSDOF 0
ENDMDL
