MODEL 1
REMARK minimizedAffinity -3.1819737
REMARK minimizedRMSD -1
REMARK  0 active torsions:
REMARK  status: ('A' for Active; 'I' for Inactive)
ROOT
ATOM      1  C   UNL d   1       1.740  -0.118   0.492  0.00  0.00     0.172 C 
ATOM      2  N   UNL d   1       2.276   1.195   0.762  0.00  0.00    -0.070 N 
ATOM      3  C1  UNL d   1       1.982   1.969   1.853  0.00  0.00    -0.004 A 
ATOM      4  C2  UNL d   1       2.694   3.144   1.741  0.00  0.00    -0.047 A 
ATOM      5  C3  UNL d   1       3.440   3.074   0.541  0.00  0.00    -0.047 A 
ATOM      6  C4  UNL d   1       3.163   1.858  -0.045  0.00  0.00    -0.004 A 
ENDROOT
TORSDOF 0
ENDMDL
