MODEL 1
REMARK minimizedAffinity 8.83839893
REMARK minimizedRMSD -1
REMARK  0 active torsions:
REMARK  status: ('A' for Active; 'I' for Inactive)
ROOT
ATOM      1  C1  DEN d   1       1.450   2.721  -2.276  0.00  0.00     0.130 A 
ATOM      2  C2  DEN d   1       1.333   1.471  -1.530  0.00  0.00    -0.031 A 
ATOM      3  C3  DEN d   1       1.265   1.802  -0.092  0.00  0.00     0.027 A 
ATOM      4  C4  DEN d   1       1.324   4.116   1.045  0.00  0.00     0.027 A 
ATOM      5  C5  DEN d   1       1.427   5.472   0.826  0.00  0.00    -0.003 A 
ATOM      6  C6  DEN d   1       1.577   6.000  -0.429  0.00  0.00     0.001 A 
ATOM      7  C7  DEN d   1       1.584   5.169  -1.519  0.00  0.00     0.017 A 
ATOM      8  C8  DEN d   1       1.489   3.800  -1.305  0.00  0.00    -0.094 A 
ATOM      9  C9  DEN d   1       1.325   3.287  -0.029  0.00  0.00    -0.072 A 
ENDROOT
TORSDOF 0
ENDMDL
