MODEL 1
REMARK minimizedAffinity 0.839077055
REMARK minimizedRMSD -1
REMARK  0 active torsions:
REMARK  status: ('A' for Active; 'I' for Inactive)
ROOT
ATOM      1  C1  DEN d   1       1.792   3.744   0.391  0.00  0.00     0.130 A 
ATOM      2  C2  DEN d   1       1.437   4.872  -0.465  0.00  0.00    -0.031 A 
ATOM      3  C3  DEN d   1       1.033   4.337  -1.781  0.00  0.00     0.027 A 
ATOM      4  C4  DEN d   1       0.920   1.884  -2.571  0.00  0.00     0.027 A 
ATOM      5  C5  DEN d   1       1.136   0.575  -2.201  0.00  0.00    -0.003 A 
ATOM      6  C6  DEN d   1       1.614   0.235  -0.963  0.00  0.00     0.001 A 
ATOM      7  C7  DEN d   1       1.849   1.214  -0.034  0.00  0.00     0.017 A 
ATOM      8  C8  DEN d   1       1.641   2.537  -0.402  0.00  0.00    -0.094 A 
ATOM      9  C9  DEN d   1       1.145   2.859  -1.654  0.00  0.00    -0.072 A 
ENDROOT
TORSDOF 0
ENDMDL
