MODEL 1
REMARK minimizedAffinity -2.59163332
REMARK minimizedRMSD -1
REMARK  0 active torsions:
REMARK  status: ('A' for Active; 'I' for Inactive)
ROOT
ATOM      1  C1  DEN d   1       1.306   1.459  -2.367  0.00  0.00     0.130 A 
ATOM      2  C2  DEN d   1       1.533   0.138  -1.787  0.00  0.00    -0.031 A 
ATOM      3  C3  DEN d   1       1.673   0.300  -0.326  0.00  0.00     0.027 A 
ATOM      4  C4  DEN d   1       1.556   2.454   1.088  0.00  0.00     0.027 A 
ATOM      5  C5  DEN d   1       1.393   3.821   1.039  0.00  0.00    -0.003 A 
ATOM      6  C6  DEN d   1       1.225   4.495  -0.142  0.00  0.00     0.001 A 
ATOM      7  C7  DEN d   1       1.171   3.797  -1.319  0.00  0.00     0.017 A 
ATOM      8  C8  DEN d   1       1.342   2.420  -1.279  0.00  0.00    -0.094 A 
ATOM      9  C9  DEN d   1       1.498   1.756  -0.075  0.00  0.00    -0.072 A 
ENDROOT
TORSDOF 0
ENDMDL
