MODEL 1
REMARK minimizedAffinity 4.29526377
REMARK minimizedRMSD -1
REMARK  0 active torsions:
REMARK  status: ('A' for Active; 'I' for Inactive)
ROOT
ATOM      1  C1  DEN d   1      -3.343   0.449   2.552  0.00  0.00     0.130 A 
ATOM      2  C2  DEN d   1      -3.235   1.830   3.013  0.00  0.00    -0.031 A 
ATOM      3  C3  DEN d   1      -2.207   1.880   4.071  0.00  0.00     0.027 A 
ATOM      4  C4  DEN d   1      -0.774  -0.038   5.032  0.00  0.00     0.027 A 
ATOM      5  C5  DEN d   1      -0.518  -1.390   4.965  0.00  0.00    -0.003 A 
ATOM      6  C6  DEN d   1      -1.203  -2.222   4.121  0.00  0.00     0.001 A 
ATOM      7  C7  DEN d   1      -2.148  -1.703   3.275  0.00  0.00     0.017 A 
ATOM      8  C8  DEN d   1      -2.418  -0.343   3.342  0.00  0.00    -0.094 A 
ATOM      9  C9  DEN d   1      -1.706   0.484   4.195  0.00  0.00    -0.072 A 
ENDROOT
TORSDOF 0
ENDMDL
