MODEL 1
REMARK minimizedAffinity 3.01972151
REMARK minimizedRMSD -1
REMARK  0 active torsions:
REMARK  status: ('A' for Active; 'I' for Inactive)
ROOT
ATOM      1  C1  DEN d   1      -3.065  -5.070   3.920  0.00  0.00     0.130 A 
ATOM      2  C2  DEN d   1      -3.847  -4.867   5.136  0.00  0.00    -0.031 A 
ATOM      3  C3  DEN d   1      -3.411  -3.598   5.753  0.00  0.00     0.027 A 
ATOM      4  C4  DEN d   1      -1.614  -1.934   4.944  0.00  0.00     0.027 A 
ATOM      5  C5  DEN d   1      -0.676  -1.683   3.968  0.00  0.00    -0.003 A 
ATOM      6  C6  DEN d   1      -0.445  -2.552   2.934  0.00  0.00     0.001 A 
ATOM      7  C7  DEN d   1      -1.195  -3.693   2.828  0.00  0.00     0.017 A 
ATOM      8  C8  DEN d   1      -2.138  -3.958   3.812  0.00  0.00    -0.094 A 
ATOM      9  C9  DEN d   1      -2.365  -3.060   4.842  0.00  0.00    -0.072 A 
ENDROOT
TORSDOF 0
ENDMDL
