MODEL 1
REMARK minimizedAffinity 3.39691234
REMARK minimizedRMSD -1
REMARK  0 active torsions:
REMARK  status: ('A' for Active; 'I' for Inactive)
ROOT
ATOM      1  C1  DEN d   1       1.179  -0.065   1.418  0.00  0.00     0.130 A 
ATOM      2  C2  DEN d   1       1.214   1.244   2.063  0.00  0.00    -0.031 A 
ATOM      3  C3  DEN d   1       1.376   2.267   1.010  0.00  0.00     0.027 A 
ATOM      4  C4  DEN d   1       1.569   1.951  -1.543  0.00  0.00     0.027 A 
ATOM      5  C5  DEN d   1       1.603   1.023  -2.559  0.00  0.00    -0.003 A 
ATOM      6  C6  DEN d   1       1.533  -0.324  -2.321  0.00  0.00     0.001 A 
ATOM      7  C7  DEN d   1       1.379  -0.779  -1.038  0.00  0.00     0.017 A 
ATOM      8  C8  DEN d   1       1.352   0.151  -0.007  0.00  0.00    -0.094 A 
ATOM      9  C9  DEN d   1       1.412   1.509  -0.269  0.00  0.00    -0.072 A 
ENDROOT
TORSDOF 0
ENDMDL
