MODEL 1
REMARK minimizedAffinity 5.27161217
REMARK minimizedRMSD -1
REMARK  0 active torsions:
REMARK  status: ('A' for Active; 'I' for Inactive)
ROOT
ATOM      1  C1  DEN d   1       1.446  -3.582   0.923  0.00  0.00     0.130 A 
ATOM      2  C2  DEN d   1       2.579  -2.686   0.711  0.00  0.00    -0.031 A 
ATOM      3  C3  DEN d   1       2.402  -2.029  -0.600  0.00  0.00     0.027 A 
ATOM      4  C4  DEN d   1       0.492  -2.307  -2.310  0.00  0.00     0.027 A 
ATOM      5  C5  DEN d   1      -0.688  -2.965  -2.578  0.00  0.00    -0.003 A 
ATOM      6  C6  DEN d   1      -1.218  -3.893  -1.720  0.00  0.00     0.001 A 
ATOM      7  C7  DEN d   1      -0.589  -4.155  -0.532  0.00  0.00     0.017 A 
ATOM      8  C8  DEN d   1       0.605  -3.501  -0.258  0.00  0.00    -0.094 A 
ATOM      9  C9  DEN d   1       1.118  -2.558  -1.132  0.00  0.00    -0.072 A 
ENDROOT
TORSDOF 0
ENDMDL
