MODEL 1
REMARK minimizedAffinity -3.21824837
REMARK minimizedRMSD -1
REMARK  0 active torsions:
REMARK  status: ('A' for Active; 'I' for Inactive)
ROOT
ATOM      1  C1  DEN d   1       1.248  -0.681   0.381  0.00  0.00     0.130 A 
ATOM      2  C2  DEN d   1       1.426  -1.411  -0.871  0.00  0.00    -0.031 A 
ATOM      3  C3  DEN d   1       1.531  -0.423  -1.964  0.00  0.00     0.027 A 
ATOM      4  C4  DEN d   1       1.440   2.152  -1.839  0.00  0.00     0.027 A 
ATOM      5  C5  DEN d   1       1.291   3.230  -0.995  0.00  0.00    -0.003 A 
ATOM      6  C6  DEN d   1       1.084   3.080   0.351  0.00  0.00     0.001 A 
ATOM      7  C7  DEN d   1       1.066   1.825   0.900  0.00  0.00     0.017 A 
ATOM      8  C8  DEN d   1       1.209   0.733   0.054  0.00  0.00    -0.094 A 
ATOM      9  C9  DEN d   1       1.429   0.905  -1.302  0.00  0.00    -0.072 A 
ENDROOT
TORSDOF 0
ENDMDL
