MODEL 1
REMARK minimizedAffinity 2.78693962
REMARK minimizedRMSD -1
REMARK  0 active torsions:
REMARK  status: ('A' for Active; 'I' for Inactive)
ROOT
ATOM      1  C1  DEN d   1       1.983   2.403  -0.797  0.00  0.00     0.130 A 
ATOM      2  C2  DEN d   1       1.192   2.789  -1.962  0.00  0.00    -0.031 A 
ATOM      3  C3  DEN d   1       0.472   1.593  -2.442  0.00  0.00     0.027 A 
ATOM      4  C4  DEN d   1       0.501  -0.807  -1.497  0.00  0.00     0.027 A 
ATOM      5  C5  DEN d   1       1.033  -1.623  -0.523  0.00  0.00    -0.003 A 
ATOM      6  C6  DEN d   1       1.937  -1.167   0.399  0.00  0.00     0.001 A 
ATOM      7  C7  DEN d   1       2.303   0.153   0.395  0.00  0.00     0.017 A 
ATOM      8  C8  DEN d   1       1.777   0.981  -0.588  0.00  0.00    -0.094 A 
ATOM      9  C9  DEN d   1       0.855   0.503  -1.504  0.00  0.00    -0.072 A 
ENDROOT
TORSDOF 0
ENDMDL
