MODEL 1
REMARK minimizedAffinity -3.12201595
REMARK minimizedRMSD -1
REMARK  0 active torsions:
REMARK  status: ('A' for Active; 'I' for Inactive)
ROOT
ATOM      1  C1  DEN d   1       1.539   3.777  -1.459  0.00  0.00     0.130 A 
ATOM      2  C2  DEN d   1       1.642   4.629  -0.277  0.00  0.00    -0.031 A 
ATOM      3  C3  DEN d   1       1.609   3.759   0.916  0.00  0.00     0.027 A 
ATOM      4  C4  DEN d   1       1.416   1.191   1.048  0.00  0.00     0.027 A 
ATOM      5  C5  DEN d   1       1.291   0.035   0.309  0.00  0.00    -0.003 A 
ATOM      6  C6  DEN d   1       1.207   0.048  -1.058  0.00  0.00     0.001 A 
ATOM      7  C7  DEN d   1       1.292   1.238  -1.732  0.00  0.00     0.017 A 
ATOM      8  C8  DEN d   1       1.410   2.408  -0.993  0.00  0.00    -0.094 A 
ATOM      9  C9  DEN d   1       1.506   2.373   0.387  0.00  0.00    -0.072 A 
ENDROOT
TORSDOF 0
ENDMDL
