MODEL 1
REMARK minimizedAffinity -0.997205079
REMARK minimizedRMSD -1
REMARK  0 active torsions:
REMARK  status: ('A' for Active; 'I' for Inactive)
ROOT
ATOM      1  C1  DEN d   1      -2.320   1.871   1.875  0.00  0.00     0.130 A 
ATOM      2  C2  DEN d   1      -3.767   2.016   1.734  0.00  0.00    -0.031 A 
ATOM      3  C3  DEN d   1      -4.359   2.013   3.087  0.00  0.00     0.027 A 
ATOM      4  C4  DEN d   1      -3.183   1.805   5.373  0.00  0.00     0.027 A 
ATOM      5  C5  DEN d   1      -1.967   1.649   5.999  0.00  0.00    -0.003 A 
ATOM      6  C6  DEN d   1      -0.796   1.523   5.300  0.00  0.00     0.001 A 
ATOM      7  C7  DEN d   1      -0.812   1.596   3.932  0.00  0.00     0.017 A 
ATOM      8  C8  DEN d   1      -2.035   1.746   3.293  0.00  0.00    -0.094 A 
ATOM      9  C9  DEN d   1      -3.206   1.883   4.019  0.00  0.00    -0.072 A 
ENDROOT
TORSDOF 0
ENDMDL
