MODEL 1
REMARK minimizedAffinity 0.0266746618
REMARK minimizedRMSD -1
REMARK  0 active torsions:
REMARK  status: ('A' for Active; 'I' for Inactive)
ROOT
ATOM      1  C1  DEN d   1       1.716   3.751   0.686  0.00  0.00     0.130 A 
ATOM      2  C2  DEN d   1       1.400   4.867  -0.202  0.00  0.00    -0.031 A 
ATOM      3  C3  DEN d   1       1.230   4.331  -1.567  0.00  0.00     0.027 A 
ATOM      4  C4  DEN d   1       1.420   1.893  -2.388  0.00  0.00     0.027 A 
ATOM      5  C5  DEN d   1       1.683   0.596  -2.004  0.00  0.00    -0.003 A 
ATOM      6  C6  DEN d   1       2.005   0.268  -0.714  0.00  0.00     0.001 A 
ATOM      7  C7  DEN d   1       2.030   1.242   0.249  0.00  0.00     0.017 A 
ATOM      8  C8  DEN d   1       1.774   2.553  -0.132  0.00  0.00    -0.094 A 
ATOM      9  C9  DEN d   1       1.437   2.863  -1.439  0.00  0.00    -0.072 A 
ENDROOT
TORSDOF 0
ENDMDL
