MODEL 1
REMARK minimizedAffinity 0.21686092
REMARK minimizedRMSD -1
REMARK  0 active torsions:
REMARK  status: ('A' for Active; 'I' for Inactive)
ROOT
ATOM      1  C1  DEN d   1       1.567   4.258   0.094  0.00  0.00     0.130 A 
ATOM      2  C2  DEN d   1       1.443   4.395  -1.355  0.00  0.00    -0.031 A 
ATOM      3  C3  DEN d   1       1.271   3.046  -1.928  0.00  0.00     0.027 A 
ATOM      4  C4  DEN d   1       1.180   0.769  -0.720  0.00  0.00     0.027 A 
ATOM      5  C5  DEN d   1       1.252   0.145   0.506  0.00  0.00    -0.003 A 
ATOM      6  C6  DEN d   1       1.466   0.839   1.667  0.00  0.00     0.001 A 
ATOM      7  C7  DEN d   1       1.571   2.204   1.632  0.00  0.00     0.017 A 
ATOM      8  C8  DEN d   1       1.507   2.840   0.399  0.00  0.00    -0.094 A 
ATOM      9  C9  DEN d   1       1.278   2.121  -0.762  0.00  0.00    -0.072 A 
ENDROOT
TORSDOF 0
ENDMDL
