MODEL 1
REMARK minimizedAffinity 2.89306974
REMARK minimizedRMSD -1
REMARK  0 active torsions:
REMARK  status: ('A' for Active; 'I' for Inactive)
ROOT
ATOM      1  C1  DEN d   1       1.659   4.369  -1.601  0.00  0.00     0.130 A 
ATOM      2  C2  DEN d   1       1.794   5.067  -0.325  0.00  0.00    -0.031 A 
ATOM      3  C3  DEN d   1       1.586   4.085   0.757  0.00  0.00     0.027 A 
ATOM      4  C4  DEN d   1       1.075   1.563   0.584  0.00  0.00     0.027 A 
ATOM      5  C5  DEN d   1       0.855   0.519  -0.288  0.00  0.00    -0.003 A 
ATOM      6  C6  DEN d   1       0.854   0.691  -1.647  0.00  0.00     0.001 A 
ATOM      7  C7  DEN d   1       1.122   1.926  -2.175  0.00  0.00     0.017 A 
ATOM      8  C8  DEN d   1       1.337   2.985  -1.302  0.00  0.00    -0.094 A 
ATOM      9  C9  DEN d   1       1.346   2.788   0.068  0.00  0.00    -0.072 A 
ENDROOT
TORSDOF 0
ENDMDL
