MODEL 1
REMARK minimizedAffinity 3.3567245
REMARK minimizedRMSD -1
REMARK  0 active torsions:
REMARK  status: ('A' for Active; 'I' for Inactive)
ROOT
ATOM      1  C1  DEN d   1      -4.507  -1.143   2.556  0.00  0.00     0.130 A 
ATOM      2  C2  DEN d   1      -5.558  -1.661   3.426  0.00  0.00    -0.031 A 
ATOM      3  C3  DEN d   1      -5.994  -0.567   4.317  0.00  0.00     0.027 A 
ATOM      4  C4  DEN d   1      -5.150   1.868   4.430  0.00  0.00     0.027 A 
ATOM      5  C5  DEN d   1      -4.259   2.772   3.896  0.00  0.00    -0.003 A 
ATOM      6  C6  DEN d   1      -3.372   2.430   2.911  0.00  0.00     0.001 A 
ATOM      7  C7  DEN d   1      -3.387   1.160   2.396  0.00  0.00     0.017 A 
ATOM      8  C8  DEN d   1      -4.278   0.240   2.933  0.00  0.00    -0.094 A 
ATOM      9  C9  DEN d   1      -5.175   0.610   3.921  0.00  0.00    -0.072 A 
ENDROOT
TORSDOF 0
ENDMDL
