MODEL 1
REMARK minimizedAffinity -4.06034756
REMARK minimizedRMSD -1
REMARK  0 active torsions:
REMARK  status: ('A' for Active; 'I' for Inactive)
ROOT
ATOM      1  C1  DEN d   1       1.183   0.679   1.048  0.00  0.00     0.130 A 
ATOM      2  C2  DEN d   1       0.977  -0.431   0.122  0.00  0.00    -0.031 A 
ATOM      3  C3  DEN d   1       0.949   0.117  -1.249  0.00  0.00     0.027 A 
ATOM      4  C4  DEN d   1       1.207   2.564  -2.024  0.00  0.00     0.027 A 
ATOM      5  C5  DEN d   1       1.389   3.862  -1.601  0.00  0.00    -0.003 A 
ATOM      6  C6  DEN d   1       1.481   4.192  -0.275  0.00  0.00     0.001 A 
ATOM      7  C7  DEN d   1       1.436   3.205   0.675  0.00  0.00     0.017 A 
ATOM      8  C8  DEN d   1       1.245   1.895   0.256  0.00  0.00    -0.094 A 
ATOM      9  C9  DEN d   1       1.166   1.580  -1.090  0.00  0.00    -0.072 A 
ENDROOT
TORSDOF 0
ENDMDL
