MODEL 1
REMARK minimizedAffinity 6.66276264
REMARK minimizedRMSD -1
REMARK  1 active torsions:
REMARK  status: ('A' for Active; 'I' for Inactive)
REMARK    1  A    between atoms: C1_2  and  C2_3 
ROOT
ATOM      1  C2  UNL d   1      -0.316  -0.597   0.767  0.00  0.00    -0.076 A 
ATOM      2  C3  UNL d   1      -0.866  -0.430   2.050  0.00  0.00     0.004 A 
ATOM      3  C4  UNL d   1      -2.018   0.331   2.243  0.00  0.00    -0.003 A 
ATOM      4  C5  UNL d   1      -2.638   0.938   1.156  0.00  0.00     0.000 A 
ATOM      5  C6  UNL d   1      -2.115   0.768  -0.126  0.00  0.00     0.000 A 
ATOM      6  C7  UNL d   1      -0.964  -0.010  -0.340  0.00  0.00    -0.073 A 
ATOM      7  C8  UNL d   1      -0.441  -0.154  -1.743  0.00  0.00     0.078 C 
ENDROOT
BRANCH   1   8
ATOM      8  C1  UNL d   1       0.950  -1.412   0.623  0.00  0.00     0.053 C 
ATOM      9  C   UNL d   1       2.117  -0.817   1.396  0.00  0.00     0.018 C 
ENDBRANCH   1   8
TORSDOF 1
ENDMDL
