MODEL 1
REMARK minimizedAffinity -3.5381546
REMARK minimizedRMSD -1
REMARK  1 active torsions:
REMARK  status: ('A' for Active; 'I' for Inactive)
REMARK    1  A    between atoms: C1_2  and  C2_3 
ROOT
ATOM      1  C2  UNL d   1      -0.231  -0.098   1.348  0.00  0.00    -0.076 A 
ATOM      2  C3  UNL d   1      -1.631  -0.096   1.228  0.00  0.00     0.004 A 
ATOM      3  C4  UNL d   1      -2.254  -0.593   0.083  0.00  0.00    -0.003 A 
ATOM      4  C5  UNL d   1      -1.486  -1.099  -0.959  0.00  0.00     0.000 A 
ATOM      5  C6  UNL d   1      -0.096  -1.125  -0.850  0.00  0.00     0.000 A 
ATOM      6  C7  UNL d   1       0.547  -0.643   0.304  0.00  0.00    -0.073 A 
ATOM      7  C8  UNL d   1       2.049  -0.689   0.366  0.00  0.00     0.078 C 
ENDROOT
BRANCH   1   8
ATOM      8  C1  UNL d   1       0.390   0.478   2.600  0.00  0.00     0.053 C 
ATOM      9  C   UNL d   1      -0.581   0.506   3.771  0.00  0.00     0.018 C 
ENDBRANCH   1   8
TORSDOF 1
ENDMDL
