MODEL 1
REMARK minimizedAffinity -2.42036939
REMARK minimizedRMSD -1
REMARK  1 active torsions:
REMARK  status: ('A' for Active; 'I' for Inactive)
REMARK    1  A    between atoms: C1_2  and  C2_3 
ROOT
ATOM      1  C2  UNL d   1       0.427   0.262   1.789  0.00  0.00    -0.076 A 
ATOM      2  C3  UNL d   1       0.217  -0.170   0.468  0.00  0.00     0.004 A 
ATOM      3  C4  UNL d   1      -1.017   0.005  -0.156  0.00  0.00    -0.003 A 
ATOM      4  C5  UNL d   1      -2.061   0.615   0.531  0.00  0.00     0.000 A 
ATOM      5  C6  UNL d   1      -1.865   1.066   1.836  0.00  0.00     0.000 A 
ATOM      6  C7  UNL d   1      -0.622   0.912   2.474  0.00  0.00    -0.073 A 
ATOM      7  C8  UNL d   1      -0.468   1.410   3.885  0.00  0.00     0.078 C 
ENDROOT
BRANCH   1   8
ATOM      8  C1  UNL d   1       1.778   0.020   2.423  0.00  0.00     0.053 C 
ATOM      9  C   UNL d   1       2.566  -1.072   1.718  0.00  0.00     0.018 C 
ENDBRANCH   1   8
TORSDOF 1
ENDMDL
