MODEL 1
REMARK minimizedAffinity -0.734591782
REMARK minimizedRMSD -1
REMARK  1 active torsions:
REMARK  status: ('A' for Active; 'I' for Inactive)
REMARK    1  A    between atoms: C1_2  and  C2_3 
ROOT
ATOM      1  C2  UNL d   1       0.294  -0.311  -0.931  0.00  0.00    -0.076 A 
ATOM      2  C3  UNL d   1      -1.046   0.001  -1.215  0.00  0.00     0.004 A 
ATOM      3  C4  UNL d   1      -1.963   0.228  -0.190  0.00  0.00    -0.003 A 
ATOM      4  C5  UNL d   1      -1.553   0.148   1.137  0.00  0.00     0.000 A 
ATOM      5  C6  UNL d   1      -0.223  -0.144   1.437  0.00  0.00     0.000 A 
ATOM      6  C7  UNL d   1       0.717  -0.360   0.415  0.00  0.00    -0.073 A 
ATOM      7  C8  UNL d   1       2.137  -0.676   0.796  0.00  0.00     0.078 C 
ENDROOT
BRANCH   1   8
ATOM      8  C1  UNL d   1       1.237  -0.575  -2.083  0.00  0.00     0.053 C 
ATOM      9  C   UNL d   1       0.564  -0.406  -3.436  0.00  0.00     0.018 C 
ENDBRANCH   1   8
TORSDOF 1
ENDMDL
