MODEL 1
REMARK minimizedAffinity -3.28278089
REMARK minimizedRMSD -1
REMARK  1 active torsions:
REMARK  status: ('A' for Active; 'I' for Inactive)
REMARK    1  A    between atoms: C1_2  and  C2_3 
ROOT
ATOM      1  C2  UNL d   1      -0.622   0.279   1.132  0.00  0.00    -0.076 A 
ATOM      2  C3  UNL d   1       0.760   0.162   1.364  0.00  0.00     0.004 A 
ATOM      3  C4  UNL d   1       1.613  -0.332   0.378  0.00  0.00    -0.003 A 
ATOM      4  C5  UNL d   1       1.098  -0.717  -0.855  0.00  0.00     0.000 A 
ATOM      5  C6  UNL d   1      -0.267  -0.591  -1.108  0.00  0.00     0.000 A 
ATOM      6  C7  UNL d   1      -1.139  -0.079  -0.131  0.00  0.00    -0.073 A 
ATOM      7  C8  UNL d   1      -2.603   0.029  -0.456  0.00  0.00     0.078 C 
ENDROOT
BRANCH   1   8
ATOM      8  C1  UNL d   1      -1.502   0.795   2.248  0.00  0.00     0.053 C 
ATOM      9  C   UNL d   1      -0.707   1.188   3.483  0.00  0.00     0.018 C 
ENDBRANCH   1   8
TORSDOF 1
ENDMDL
