MODEL 1
REMARK minimizedAffinity -0.0668770447
REMARK minimizedRMSD -1
REMARK  1 active torsions:
REMARK  status: ('A' for Active; 'I' for Inactive)
REMARK    1  A    between atoms: C1_2  and  C2_3 
ROOT
ATOM      1  C2  UNL d   1      -0.311  -0.144  -0.797  0.00  0.00    -0.076 A 
ATOM      2  C3  UNL d   1      -1.703   0.038  -0.870  0.00  0.00     0.004 A 
ATOM      3  C4  UNL d   1      -2.447   0.347   0.268  0.00  0.00    -0.003 A 
ATOM      4  C5  UNL d   1      -1.810   0.480   1.497  0.00  0.00     0.000 A 
ATOM      5  C6  UNL d   1      -0.428   0.320   1.585  0.00  0.00     0.000 A 
ATOM      6  C7  UNL d   1       0.339   0.024   0.445  0.00  0.00    -0.073 A 
ATOM      7  C8  UNL d   1       1.826  -0.143   0.598  0.00  0.00     0.078 C 
ENDROOT
BRANCH   1   8
ATOM      8  C1  UNL d   1       0.440  -0.504  -2.059  0.00  0.00     0.053 C 
ATOM      9  C   UNL d   1       0.403   0.607  -3.097  0.00  0.00     0.018 C 
ENDBRANCH   1   8
TORSDOF 1
ENDMDL
