MODEL 1
REMARK minimizedAffinity -3.63970041
REMARK minimizedRMSD -1
REMARK  1 active torsions:
REMARK  status: ('A' for Active; 'I' for Inactive)
REMARK    1  A    between atoms: C1_2  and  C2_3 
ROOT
ATOM      1  C2  UNL d   1       0.258   0.538   1.168  0.00  0.00    -0.076 A 
ATOM      2  C3  UNL d   1      -0.297   0.277  -0.097  0.00  0.00     0.004 A 
ATOM      3  C4  UNL d   1      -1.677   0.302  -0.294  0.00  0.00    -0.003 A 
ATOM      4  C5  UNL d   1      -2.524   0.589   0.771  0.00  0.00     0.000 A 
ATOM      5  C6  UNL d   1      -1.989   0.868   2.029  0.00  0.00     0.000 A 
ATOM      6  C7  UNL d   1      -0.600   0.863   2.240  0.00  0.00    -0.073 A 
ATOM      7  C8  UNL d   1      -0.079   1.165   3.618  0.00  0.00     0.078 C 
ENDROOT
BRANCH   1   8
ATOM      8  C1  UNL d   1       1.760   0.471   1.327  0.00  0.00     0.053 C 
ATOM      9  C   UNL d   1       2.207  -0.748   2.120  0.00  0.00     0.018 C 
ENDBRANCH   1   8
TORSDOF 1
ENDMDL
