MODEL 1
REMARK minimizedAffinity 3.67167807
REMARK minimizedRMSD -1
REMARK  1 active torsions:
REMARK  status: ('A' for Active; 'I' for Inactive)
REMARK    1  A    between atoms: C1_2  and  C2_3 
ROOT
ATOM      1  C2  UNL d   1       0.520   1.134  -1.489  0.00  0.00    -0.076 A 
ATOM      2  C3  UNL d   1      -0.138   0.812  -2.688  0.00  0.00     0.004 A 
ATOM      3  C4  UNL d   1       0.416   1.147  -3.923  0.00  0.00    -0.003 A 
ATOM      4  C5  UNL d   1       1.638   1.808  -3.977  0.00  0.00     0.000 A 
ATOM      5  C6  UNL d   1       2.313   2.119  -2.797  0.00  0.00     0.000 A 
ATOM      6  C7  UNL d   1       1.776   1.774  -1.545  0.00  0.00    -0.073 A 
ATOM      7  C8  UNL d   1       2.544   2.139  -0.305  0.00  0.00     0.078 C 
ENDROOT
BRANCH   1   8
ATOM      8  C1  UNL d   1      -0.143   0.770  -0.179  0.00  0.00     0.053 C 
ATOM      9  C   UNL d   1      -1.157  -0.353  -0.332  0.00  0.00     0.018 C 
ENDBRANCH   1   8
TORSDOF 1
ENDMDL
