MODEL 1
REMARK minimizedAffinity -0.920415819
REMARK minimizedRMSD -1
REMARK  1 active torsions:
REMARK  status: ('A' for Active; 'I' for Inactive)
REMARK    1  A    between atoms: C1_2  and  C2_3 
ROOT
ATOM      1  C2  UNL d   1       1.305   0.220  -1.689  0.00  0.00    -0.076 A 
ATOM      2  C3  UNL d   1       0.179  -0.554  -2.020  0.00  0.00     0.004 A 
ATOM      3  C4  UNL d   1      -0.359  -0.523  -3.305  0.00  0.00    -0.003 A 
ATOM      4  C5  UNL d   1       0.220   0.281  -4.281  0.00  0.00     0.000 A 
ATOM      5  C6  UNL d   1       1.348   1.042  -3.975  0.00  0.00     0.000 A 
ATOM      6  C7  UNL d   1       1.913   1.010  -2.688  0.00  0.00    -0.073 A 
ATOM      7  C8  UNL d   1       3.126   1.856  -2.412  0.00  0.00     0.078 C 
ENDROOT
BRANCH   1   8
ATOM      8  C1  UNL d   1       1.829   0.168  -0.271  0.00  0.00     0.053 C 
ATOM      9  C   UNL d   1       1.380  -1.083   0.469  0.00  0.00     0.018 C 
ENDBRANCH   1   8
TORSDOF 1
ENDMDL
