MODEL 1
REMARK minimizedAffinity -3.69258857
REMARK minimizedRMSD -1
REMARK  1 active torsions:
REMARK  status: ('A' for Active; 'I' for Inactive)
REMARK    1  A    between atoms: C1_2  and  C2_3 
ROOT
ATOM      1  C2  UNL d   1      -0.534  -0.580   0.300  0.00  0.00    -0.076 A 
ATOM      2  C3  UNL d   1       0.429  -1.325  -0.402  0.00  0.00     0.004 A 
ATOM      3  C4  UNL d   1       1.701  -1.534   0.128  0.00  0.00    -0.003 A 
ATOM      4  C5  UNL d   1       2.031  -1.000   1.369  0.00  0.00     0.000 A 
ATOM      5  C6  UNL d   1       1.083  -0.272   2.087  0.00  0.00     0.000 A 
ATOM      6  C7  UNL d   1      -0.210  -0.067   1.574  0.00  0.00    -0.073 A 
ATOM      7  C8  UNL d   1      -1.191   0.731   2.389  0.00  0.00     0.078 C 
ENDROOT
BRANCH   1   8
ATOM      8  C1  UNL d   1      -1.888  -0.364  -0.337  0.00  0.00     0.053 C 
ATOM      9  C   UNL d   1      -2.648  -1.664  -0.545  0.00  0.00     0.018 C 
ENDBRANCH   1   8
TORSDOF 1
ENDMDL
