MODEL 1
REMARK minimizedAffinity 5.45459127
REMARK minimizedRMSD -1
REMARK  0 active torsions:
REMARK  status: ('A' for Active; 'I' for Inactive)
ROOT
ATOM      1  C2' OXE d   1      -3.335   0.289  -4.392  0.00  0.00     0.078 C 
ATOM      2  C1' OXE d   1      -5.811   0.958  -3.252  0.00  0.00     0.078 C 
ATOM      3  C1  OXE d   1      -4.651   0.716  -2.320  0.00  0.00    -0.078 A 
ATOM      4  C2  OXE d   1      -3.454   0.343  -2.884  0.00  0.00    -0.078 A 
ATOM      5  C3  OXE d   1      -2.337   0.161  -2.074  0.00  0.00     0.003 A 
ATOM      6  C4  OXE d   1      -2.459   0.203  -0.679  0.00  0.00    -0.002 A 
ATOM      7  C5  OXE d   1      -3.678   0.542  -0.083  0.00  0.00    -0.002 A 
ATOM      8  C6  OXE d   1      -4.770   0.843  -0.889  0.00  0.00     0.003 A 
ENDROOT
TORSDOF 0
ENDMDL
