MODEL 1
REMARK minimizedAffinity 9.55171394
REMARK minimizedRMSD -1
REMARK  0 active torsions:
REMARK  status: ('A' for Active; 'I' for Inactive)
ROOT
ATOM      1  C2' OXE d   1       4.901   3.874  -1.509  0.00  0.00     0.078 C 
ATOM      2  C1' OXE d   1       5.059   1.442  -2.903  0.00  0.00     0.078 C 
ATOM      3  C1  OXE d   1       4.214   1.484  -1.654  0.00  0.00    -0.078 A 
ATOM      4  C2  OXE d   1       4.180   2.665  -0.953  0.00  0.00    -0.078 A 
ATOM      5  C3  OXE d   1       3.373   2.774   0.176  0.00  0.00     0.003 A 
ATOM      6  C4  OXE d   1       2.716   1.649   0.689  0.00  0.00    -0.002 A 
ATOM      7  C5  OXE d   1       2.770   0.426   0.012  0.00  0.00    -0.002 A 
ATOM      8  C6  OXE d   1       3.478   0.337  -1.181  0.00  0.00     0.003 A 
ENDROOT
TORSDOF 0
ENDMDL
