MODEL 1
REMARK minimizedAffinity 8.82049274
REMARK minimizedRMSD -1
REMARK  0 active torsions:
REMARK  status: ('A' for Active; 'I' for Inactive)
ROOT
ATOM      1  C2' OXE d   1      -2.198   0.410  -2.262  0.00  0.00     0.078 C 
ATOM      2  C1' OXE d   1      -4.500  -0.301  -3.703  0.00  0.00     0.078 C 
ATOM      3  C1  OXE d   1      -4.656   0.007  -2.235  0.00  0.00    -0.078 A 
ATOM      4  C2  OXE d   1      -3.517   0.308  -1.527  0.00  0.00    -0.078 A 
ATOM      5  C3  OXE d   1      -3.612   0.654  -0.182  0.00  0.00     0.003 A 
ATOM      6  C4  OXE d   1      -4.834   0.548   0.492  0.00  0.00    -0.002 A 
ATOM      7  C5  OXE d   1      -6.000   0.204  -0.201  0.00  0.00    -0.002 A 
ATOM      8  C6  OXE d   1      -5.935  -0.028  -1.570  0.00  0.00     0.003 A 
ENDROOT
TORSDOF 0
ENDMDL
