MODEL 1
REMARK minimizedAffinity 13.0703402
REMARK minimizedRMSD -1
REMARK  0 active torsions:
REMARK  status: ('A' for Active; 'I' for Inactive)
ROOT
ATOM      1  C2' OXE d   1       5.257  -0.810   1.740  0.00  0.00     0.078 C 
ATOM      2  C1' OXE d   1       2.690  -1.946   1.725  0.00  0.00     0.078 C 
ATOM      3  C1  OXE d   1       2.982  -0.853   0.726  0.00  0.00    -0.078 A 
ATOM      4  C2  OXE d   1       4.226  -0.271   0.772  0.00  0.00    -0.078 A 
ATOM      5  C3  OXE d   1       4.566   0.703  -0.162  0.00  0.00     0.003 A 
ATOM      6  C4  OXE d   1       3.603   1.203  -1.048  0.00  0.00    -0.002 A 
ATOM      7  C5  OXE d   1       2.318   0.651  -1.084  0.00  0.00    -0.002 A 
ATOM      8  C6  OXE d   1       2.005  -0.404  -0.234  0.00  0.00     0.003 A 
ENDROOT
TORSDOF 0
ENDMDL
