MODEL 1
REMARK minimizedAffinity 13.865407
REMARK minimizedRMSD -1
REMARK  0 active torsions:
REMARK  status: ('A' for Active; 'I' for Inactive)
ROOT
ATOM      1  C2' OXE d   1      -4.310   4.393  -0.348  0.00  0.00     0.078 C 
ATOM      2  C1' OXE d   1      -5.090   2.935   1.920  0.00  0.00     0.078 C 
ATOM      3  C1  OXE d   1      -5.247   2.276   0.572  0.00  0.00    -0.078 A 
ATOM      4  C2  OXE d   1      -4.906   3.015  -0.535  0.00  0.00    -0.078 A 
ATOM      5  C3  OXE d   1      -4.980   2.435  -1.799  0.00  0.00     0.003 A 
ATOM      6  C4  OXE d   1      -5.542   1.164  -1.964  0.00  0.00    -0.002 A 
ATOM      7  C5  OXE d   1      -5.932   0.410  -0.852  0.00  0.00    -0.002 A 
ATOM      8  C6  OXE d   1      -5.752   0.934   0.423  0.00  0.00     0.003 A 
ENDROOT
TORSDOF 0
ENDMDL
