MODEL 1
REMARK minimizedAffinity 8.10086918
REMARK minimizedRMSD -1
REMARK  0 active torsions:
REMARK  status: ('A' for Active; 'I' for Inactive)
ROOT
ATOM      1  C2' OXE d   1      -4.639   3.568   2.349  0.00  0.00     0.078 C 
ATOM      2  C1' OXE d   1      -2.618   5.396   3.023  0.00  0.00     0.078 C 
ATOM      3  C1  OXE d   1      -3.783   5.255   3.970  0.00  0.00    -0.078 A 
ATOM      4  C2  OXE d   1      -4.790   4.392   3.609  0.00  0.00    -0.078 A 
ATOM      5  C3  OXE d   1      -5.862   4.184   4.473  0.00  0.00     0.003 A 
ATOM      6  C4  OXE d   1      -6.000   4.958   5.631  0.00  0.00    -0.002 A 
ATOM      7  C5  OXE d   1      -5.005   5.870   5.998  0.00  0.00    -0.002 A 
ATOM      8  C6  OXE d   1      -3.872   6.000   5.202  0.00  0.00     0.003 A 
ENDROOT
TORSDOF 0
ENDMDL
