MODEL 1
REMARK minimizedAffinity 11.8162107
REMARK minimizedRMSD -1
REMARK  0 active torsions:
REMARK  status: ('A' for Active; 'I' for Inactive)
ROOT
ATOM      1  C2' OXE d   1       4.396   1.764   0.933  0.00  0.00     0.078 C 
ATOM      2  C1' OXE d   1       3.821  -0.927   1.486  0.00  0.00     0.078 C 
ATOM      3  C1  OXE d   1       3.087  -0.272   0.342  0.00  0.00    -0.078 A 
ATOM      4  C2  OXE d   1       3.341   1.058   0.109  0.00  0.00    -0.078 A 
ATOM      5  C3  OXE d   1       2.732   1.697  -0.968  0.00  0.00     0.003 A 
ATOM      6  C4  OXE d   1       1.750   1.041  -1.719  0.00  0.00    -0.002 A 
ATOM      7  C5  OXE d   1       1.447  -0.303  -1.472  0.00  0.00    -0.002 A 
ATOM      8  C6  OXE d   1       2.137  -0.984  -0.475  0.00  0.00     0.003 A 
ENDROOT
TORSDOF 0
ENDMDL
