MODEL 1
REMARK minimizedAffinity 0.467804581
REMARK minimizedRMSD -1
REMARK  0 active torsions:
REMARK  status: ('A' for Active; 'I' for Inactive)
ROOT
ATOM      1  C   UNL d   1       5.999   4.504   2.504  0.00  0.00     0.172 C 
ATOM      2  N   UNL d   1       5.405   4.951   1.266  0.00  0.00    -0.070 N 
ATOM      3  C1  UNL d   1       4.173   4.585   0.793  0.00  0.00    -0.004 A 
ATOM      4  C2  UNL d   1       3.977   5.223  -0.412  0.00  0.00    -0.047 A 
ATOM      5  C3  UNL d   1       5.131   5.999  -0.674  0.00  0.00    -0.047 A 
ATOM      6  C4  UNL d   1       5.999   5.812   0.381  0.00  0.00    -0.004 A 
ENDROOT
TORSDOF 0
ENDMDL
