MODEL 1
REMARK minimizedAffinity 0.745713115
REMARK minimizedRMSD -1
REMARK  0 active torsions:
REMARK  status: ('A' for Active; 'I' for Inactive)
ROOT
ATOM      1  C   UNL d   1       2.412   2.886  -2.475  0.00  0.00     0.172 C 
ATOM      2  N   UNL d   1       1.962   1.563  -2.111  0.00  0.00    -0.070 N 
ATOM      3  C1  UNL d   1       0.720   1.045  -2.362  0.00  0.00    -0.004 A 
ATOM      4  C2  UNL d   1       0.688  -0.238  -1.860  0.00  0.00    -0.047 A 
ATOM      5  C3  UNL d   1       1.955  -0.500  -1.287  0.00  0.00    -0.047 A 
ATOM      6  C4  UNL d   1       2.724   0.632  -1.456  0.00  0.00    -0.004 A 
ENDROOT
TORSDOF 0
ENDMDL
