MODEL 1
REMARK minimizedAffinity 7.92841005
REMARK minimizedRMSD -1
REMARK  0 active torsions:
REMARK  status: ('A' for Active; 'I' for Inactive)
ROOT
ATOM      1  C   UNL d   1      -1.473   6.000   5.998  0.00  0.00     0.172 C 
ATOM      2  N   UNL d   1      -2.685   5.550   5.355  0.00  0.00    -0.070 N 
ATOM      3  C1  UNL d   1      -2.760   4.616   4.356  0.00  0.00    -0.004 A 
ATOM      4  C2  UNL d   1      -4.087   4.466   4.016  0.00  0.00    -0.047 A 
ATOM      5  C3  UNL d   1      -4.836   5.341   4.838  0.00  0.00    -0.047 A 
ATOM      6  C4  UNL d   1      -3.943   5.999   5.658  0.00  0.00    -0.004 A 
ENDROOT
TORSDOF 0
ENDMDL
