MODEL 1
REMARK minimizedAffinity 6.57771349
REMARK minimizedRMSD -1
REMARK  0 active torsions:
REMARK  status: ('A' for Active; 'I' for Inactive)
ROOT
ATOM      1  C   UNL d   1      -5.692   5.735   4.260  0.00  0.00     0.172 C 
ATOM      2  N   UNL d   1      -4.320   5.833   4.699  0.00  0.00    -0.070 N 
ATOM      3  C1  UNL d   1      -3.903   5.925   6.000  0.00  0.00    -0.004 A 
ATOM      4  C2  UNL d   1      -2.526   5.999   5.997  0.00  0.00    -0.047 A 
ATOM      5  C3  UNL d   1      -2.102   5.951   4.648  0.00  0.00    -0.047 A 
ATOM      6  C4  UNL d   1      -3.233   5.848   3.865  0.00  0.00    -0.004 A 
ENDROOT
TORSDOF 0
ENDMDL
