MODEL 1
REMARK minimizedAffinity 7.40908575
REMARK minimizedRMSD -1
REMARK  0 active torsions:
REMARK  status: ('A' for Active; 'I' for Inactive)
ROOT
ATOM      1  C   UNL d   1      -3.861  -0.592   3.776  0.00  0.00     0.172 C 
ATOM      2  N   UNL d   1      -3.672   0.778   3.360  0.00  0.00    -0.070 N 
ATOM      3  C1  UNL d   1      -2.524   1.508   3.515  0.00  0.00    -0.004 A 
ATOM      4  C2  UNL d   1      -2.747   2.762   2.991  0.00  0.00    -0.047 A 
ATOM      5  C3  UNL d   1      -4.076   2.788   2.504  0.00  0.00    -0.047 A 
ATOM      6  C4  UNL d   1      -4.625   1.546   2.745  0.00  0.00    -0.004 A 
ENDROOT
TORSDOF 0
ENDMDL
