MODEL 1
REMARK minimizedAffinity 8.44379044
REMARK minimizedRMSD -1
REMARK  0 active torsions:
REMARK  status: ('A' for Active; 'I' for Inactive)
ROOT
ATOM      1  C   UNL d   1      -1.418   5.973   4.107  0.00  0.00     0.172 C 
ATOM      2  N   UNL d   1      -2.609   5.418   4.705  0.00  0.00    -0.070 N 
ATOM      3  C1  UNL d   1      -3.348   6.000   5.700  0.00  0.00    -0.004 A 
ATOM      4  C2  UNL d   1      -4.400   5.158   5.992  0.00  0.00    -0.047 A 
ATOM      5  C3  UNL d   1      -4.288   4.030   5.144  0.00  0.00    -0.047 A 
ATOM      6  C4  UNL d   1      -3.170   4.217   4.358  0.00  0.00    -0.004 A 
ENDROOT
TORSDOF 0
ENDMDL
