MODEL 1
REMARK minimizedAffinity 10.8331833
REMARK minimizedRMSD -1
REMARK  0 active torsions:
REMARK  status: ('A' for Active; 'I' for Inactive)
ROOT
ATOM      1  C   UNL d   1       0.618  -3.446  -3.690  0.00  0.00     0.172 C 
ATOM      2  N   UNL d   1       1.021  -2.167  -3.152  0.00  0.00    -0.070 N 
ATOM      3  C1  UNL d   1       1.745  -1.976  -2.005  0.00  0.00    -0.004 A 
ATOM      4  C2  UNL d   1       1.922  -0.620  -1.839  0.00  0.00    -0.047 A 
ATOM      5  C3  UNL d   1       1.282   0.027  -2.923  0.00  0.00    -0.047 A 
ATOM      6  C4  UNL d   1       0.732  -0.955  -3.721  0.00  0.00    -0.004 A 
ENDROOT
TORSDOF 0
ENDMDL
