MODEL 1
REMARK minimizedAffinity -1.71898186
REMARK minimizedRMSD -1
REMARK  0 active torsions:
REMARK  status: ('A' for Active; 'I' for Inactive)
ROOT
ATOM      1  C   UNL d   1       1.584   0.539  -2.829  0.00  0.00     0.172 C 
ATOM      2  N   UNL d   1       1.214   1.310  -1.666  0.00  0.00    -0.070 N 
ATOM      3  C1  UNL d   1      -0.055   1.446  -1.168  0.00  0.00    -0.004 A 
ATOM      4  C2  UNL d   1       0.012   2.257  -0.056  0.00  0.00    -0.047 A 
ATOM      5  C3  UNL d   1       1.368   2.622   0.121  0.00  0.00    -0.047 A 
ATOM      6  C4  UNL d   1       2.090   2.022  -0.889  0.00  0.00    -0.004 A 
ENDROOT
TORSDOF 0
ENDMDL
