MODEL 1
REMARK minimizedAffinity 3.7149179
REMARK minimizedRMSD -1
REMARK  0 active torsions:
REMARK  status: ('A' for Active; 'I' for Inactive)
ROOT
ATOM      1  C   UNL d   1      -1.494   5.945   3.707  0.00  0.00     0.172 C 
ATOM      2  N   UNL d   1      -2.565   5.456   4.542  0.00  0.00    -0.070 N 
ATOM      3  C1  UNL d   1      -3.818   5.999   4.634  0.00  0.00    -0.004 A 
ATOM      4  C2  UNL d   1      -4.541   5.245   5.533  0.00  0.00    -0.047 A 
ATOM      5  C3  UNL d   1      -3.692   4.213   5.999  0.00  0.00    -0.047 A 
ATOM      6  C4  UNL d   1      -2.475   4.367   5.369  0.00  0.00    -0.004 A 
ENDROOT
TORSDOF 0
ENDMDL
