MODEL 1
REMARK minimizedAffinity 6.74578381
REMARK minimizedRMSD -1
REMARK  0 active torsions:
REMARK  status: ('A' for Active; 'I' for Inactive)
ROOT
ATOM      1  C   UNL d   1      -4.891   5.988   5.003  0.00  0.00     0.172 C 
ATOM      2  N   UNL d   1      -3.633   5.343   5.298  0.00  0.00    -0.070 N 
ATOM      3  C1  UNL d   1      -3.409   3.992   5.296  0.00  0.00    -0.004 A 
ATOM      4  C2  UNL d   1      -2.088   3.783   5.627  0.00  0.00    -0.047 A 
ATOM      5  C3  UNL d   1      -1.497   5.052   5.835  0.00  0.00    -0.047 A 
ATOM      6  C4  UNL d   1      -2.477   6.000   5.625  0.00  0.00    -0.004 A 
ENDROOT
TORSDOF 0
ENDMDL
