MODEL 1
REMARK minimizedAffinity 3.65035796
REMARK minimizedRMSD -1
REMARK  0 active torsions:
REMARK  status: ('A' for Active; 'I' for Inactive)
ROOT
ATOM      1  C   UNL d   1      -3.068   1.540   4.999  0.00  0.00     0.172 C 
ATOM      2  N   UNL d   1      -3.571   0.463   4.179  0.00  0.00    -0.070 N 
ATOM      3  C1  UNL d   1      -3.102  -0.823   4.174  0.00  0.00    -0.004 A 
ATOM      4  C2  UNL d   1      -3.844  -1.539   3.259  0.00  0.00    -0.047 A 
ATOM      5  C3  UNL d   1      -4.791  -0.652   2.694  0.00  0.00    -0.047 A 
ATOM      6  C4  UNL d   1      -4.600   0.581   3.282  0.00  0.00    -0.004 A 
ENDROOT
TORSDOF 0
ENDMDL
