MODEL 1
REMARK minimizedAffinity 1.60916805
REMARK minimizedRMSD -1
REMARK  0 active torsions:
REMARK  status: ('A' for Active; 'I' for Inactive)
ROOT
ATOM      1  C   UNL d   1       1.013   1.383  -3.111  0.00  0.00     0.172 C 
ATOM      2  N   UNL d   1       1.884   2.134  -3.984  0.00  0.00    -0.070 N 
ATOM      3  C1  UNL d   1       2.020   3.497  -3.997  0.00  0.00    -0.004 A 
ATOM      4  C2  UNL d   1       2.944   3.819  -4.967  0.00  0.00    -0.047 A 
ATOM      5  C3  UNL d   1       3.378   2.609  -5.558  0.00  0.00    -0.047 A 
ATOM      6  C4  UNL d   1       2.706   1.581  -4.930  0.00  0.00    -0.004 A 
ENDROOT
TORSDOF 0
ENDMDL
