MODEL 1
REMARK minimizedAffinity -0.407562315
REMARK minimizedRMSD -1
REMARK  0 active torsions:
REMARK  status: ('A' for Active; 'I' for Inactive)
ROOT
ATOM      1  C   UNL d   1      -5.562  -1.004   2.100  0.00  0.00     0.172 C 
ATOM      2  N   UNL d   1      -4.365  -0.689   2.845  0.00  0.00    -0.070 N 
ATOM      3  C1  UNL d   1      -3.364  -1.570   3.158  0.00  0.00    -0.004 A 
ATOM      4  C2  UNL d   1      -2.406  -0.884   3.872  0.00  0.00    -0.047 A 
ATOM      5  C3  UNL d   1      -2.847   0.456   3.993  0.00  0.00    -0.047 A 
ATOM      6  C4  UNL d   1      -4.062   0.548   3.349  0.00  0.00    -0.004 A 
ENDROOT
TORSDOF 0
ENDMDL
