MODEL 1
REMARK minimizedAffinity 3.99598384
REMARK minimizedRMSD -1
REMARK  0 active torsions:
REMARK  status: ('A' for Active; 'I' for Inactive)
ROOT
ATOM      1  C   UNL d   1       1.607   3.548  -0.496  0.00  0.00     0.172 C 
ATOM      2  N   UNL d   1       1.342   2.646  -1.592  0.00  0.00    -0.070 N 
ATOM      3  C1  UNL d   1       1.864   2.748  -2.854  0.00  0.00    -0.004 A 
ATOM      4  C2  UNL d   1       1.370   1.700  -3.601  0.00  0.00    -0.047 A 
ATOM      5  C3  UNL d   1       0.522   0.942  -2.759  0.00  0.00    -0.047 A 
ATOM      6  C4  UNL d   1       0.522   1.550  -1.521  0.00  0.00    -0.004 A 
ENDROOT
TORSDOF 0
ENDMDL
