MODEL 1
REMARK minimizedAffinity 2.18988299
REMARK minimizedRMSD -1
REMARK  0 active torsions:
REMARK  status: ('A' for Active; 'I' for Inactive)
ROOT
ATOM      1  C   UNL d   1       6.000   4.469  -1.871  0.00  0.00     0.172 C 
ATOM      2  N   UNL d   1       4.682   4.250  -2.419  0.00  0.00    -0.070 N 
ATOM      3  C1  UNL d   1       3.511   4.735  -1.901  0.00  0.00    -0.004 A 
ATOM      4  C2  UNL d   1       2.482   4.307  -2.711  0.00  0.00    -0.047 A 
ATOM      5  C3  UNL d   1       3.054   3.538  -3.752  0.00  0.00    -0.047 A 
ATOM      6  C4  UNL d   1       4.417   3.519  -3.547  0.00  0.00    -0.004 A 
ENDROOT
TORSDOF 0
ENDMDL
