MODEL 1
REMARK minimizedAffinity 1.48467851
REMARK minimizedRMSD -1
REMARK  0 active torsions:
REMARK  status: ('A' for Active; 'I' for Inactive)
ROOT
ATOM      1  C   UNL d   1       2.687   1.516  -4.398  0.00  0.00     0.172 C 
ATOM      2  N   UNL d   1       1.854   1.236  -3.252  0.00  0.00    -0.070 N 
ATOM      3  C1  UNL d   1       1.433  -0.005  -2.855  0.00  0.00    -0.004 A 
ATOM      4  C2  UNL d   1       0.662   0.153  -1.723  0.00  0.00    -0.047 A 
ATOM      5  C3  UNL d   1       0.617   1.537  -1.431  0.00  0.00    -0.047 A 
ATOM      6  C4  UNL d   1       1.364   2.184  -2.393  0.00  0.00    -0.004 A 
ENDROOT
TORSDOF 0
ENDMDL
