MODEL 1
REMARK minimizedAffinity 6.08485603
REMARK minimizedRMSD -1
REMARK  0 active torsions:
REMARK  status: ('A' for Active; 'I' for Inactive)
ROOT
ATOM      1  C   UNL d   1       0.092  -1.968  -3.099  0.00  0.00     0.172 C 
ATOM      2  N   UNL d   1       0.498  -0.585  -3.018  0.00  0.00    -0.070 N 
ATOM      3  C1  UNL d   1      -0.059   0.365  -2.205  0.00  0.00    -0.004 A 
ATOM      4  C2  UNL d   1       0.607   1.551  -2.423  0.00  0.00    -0.047 A 
ATOM      5  C3  UNL d   1       1.598   1.306  -3.402  0.00  0.00    -0.047 A 
ATOM      6  C4  UNL d   1       1.509  -0.024  -3.753  0.00  0.00    -0.004 A 
ENDROOT
TORSDOF 0
ENDMDL
