MODEL 1
REMARK minimizedAffinity 1.08007658
REMARK minimizedRMSD -1
REMARK  0 active torsions:
REMARK  status: ('A' for Active; 'I' for Inactive)
ROOT
ATOM      1  C1  DEN d   1      -2.050   2.590   1.478  0.00  0.00     0.130 A 
ATOM      2  C2  DEN d   1      -2.194   2.660   0.027  0.00  0.00    -0.031 A 
ATOM      3  C3  DEN d   1      -2.781   1.387  -0.436  0.00  0.00     0.027 A 
ATOM      4  C4  DEN d   1      -3.482  -0.674   0.948  0.00  0.00     0.027 A 
ATOM      5  C5  DEN d   1      -3.541  -1.207   2.216  0.00  0.00    -0.003 A 
ATOM      6  C6  DEN d   1      -3.080  -0.531   3.315  0.00  0.00     0.001 A 
ATOM      7  C7  DEN d   1      -2.580   0.736   3.171  0.00  0.00     0.017 A 
ATOM      8  C8  DEN d   1      -2.510   1.277   1.894  0.00  0.00    -0.094 A 
ATOM      9  C9  DEN d   1      -2.993   0.583   0.798  0.00  0.00    -0.072 A 
ENDROOT
TORSDOF 0
ENDMDL
