MODEL 1
REMARK minimizedAffinity 0.981975734
REMARK minimizedRMSD -1
REMARK  0 active torsions:
REMARK  status: ('A' for Active; 'I' for Inactive)
ROOT
ATOM      1  C1  DEN d   1      -4.339   0.556  -0.575  0.00  0.00     0.130 A 
ATOM      2  C2  DEN d   1      -3.460  -0.470  -0.020  0.00  0.00    -0.031 A 
ATOM      3  C3  DEN d   1      -2.409   0.206   0.767  0.00  0.00     0.027 A 
ATOM      4  C4  DEN d   1      -2.062   2.727   1.183  0.00  0.00     0.027 A 
ATOM      5  C5  DEN d   1      -2.546   3.987   0.909  0.00  0.00    -0.003 A 
ATOM      6  C6  DEN d   1      -3.632   4.192   0.100  0.00  0.00     0.001 A 
ATOM      7  C7  DEN d   1      -4.298   3.118  -0.427  0.00  0.00     0.017 A 
ATOM      8  C8  DEN d   1      -3.812   1.844  -0.162  0.00  0.00    -0.094 A 
ATOM      9  C9  DEN d   1      -2.719   1.657   0.668  0.00  0.00    -0.072 A 
ENDROOT
TORSDOF 0
ENDMDL
