MODEL 1
REMARK minimizedAffinity -3.00972366
REMARK minimizedRMSD -1
REMARK  0 active torsions:
REMARK  status: ('A' for Active; 'I' for Inactive)
ROOT
ATOM      1  C1  DEN d   1      -2.493   2.487   1.779  0.00  0.00     0.130 A 
ATOM      2  C2  DEN d   1      -2.256   2.543   0.339  0.00  0.00    -0.031 A 
ATOM      3  C3  DEN d   1      -2.138   1.158  -0.159  0.00  0.00     0.027 A 
ATOM      4  C4  DEN d   1      -2.304  -1.057   1.152  0.00  0.00     0.027 A 
ATOM      5  C5  DEN d   1      -2.485  -1.612   2.399  0.00  0.00    -0.003 A 
ATOM      6  C6  DEN d   1      -2.646  -0.846   3.523  0.00  0.00     0.001 A 
ATOM      7  C7  DEN d   1      -2.674   0.519   3.415  0.00  0.00     0.017 A 
ATOM      8  C8  DEN d   1      -2.485   1.086   2.162  0.00  0.00    -0.094 A 
ATOM      9  C9  DEN d   1      -2.336   0.295   1.036  0.00  0.00    -0.072 A 
ENDROOT
TORSDOF 0
ENDMDL
