MODEL 1
REMARK minimizedAffinity 11.7241373
REMARK minimizedRMSD -1
REMARK  0 active torsions:
REMARK  status: ('A' for Active; 'I' for Inactive)
ROOT
ATOM      1  C1  DEN d   1      -2.005   0.129   0.863  0.00  0.00     0.130 A 
ATOM      2  C2  DEN d   1      -2.914  -0.428  -0.136  0.00  0.00    -0.031 A 
ATOM      3  C3  DEN d   1      -3.936  -1.225   0.571  0.00  0.00     0.027 A 
ATOM      4  C4  DEN d   1      -4.201  -1.647   3.102  0.00  0.00     0.027 A 
ATOM      5  C5  DEN d   1      -3.664  -1.393   4.344  0.00  0.00    -0.003 A 
ATOM      6  C6  DEN d   1      -2.526  -0.648   4.510  0.00  0.00     0.001 A 
ATOM      7  C7  DEN d   1      -1.914  -0.093   3.417  0.00  0.00     0.017 A 
ATOM      8  C8  DEN d   1      -2.445  -0.351   2.160  0.00  0.00    -0.094 A 
ATOM      9  C9  DEN d   1      -3.603  -1.096   2.015  0.00  0.00    -0.072 A 
ENDROOT
TORSDOF 0
ENDMDL
