MODEL 1
REMARK minimizedAffinity -4.03075838
REMARK minimizedRMSD -1
REMARK  0 active torsions:
REMARK  status: ('A' for Active; 'I' for Inactive)
ROOT
ATOM      1  C1  DEN d   1      -2.658   2.766   1.452  0.00  0.00     0.130 A 
ATOM      2  C2  DEN d   1      -2.617   2.738  -0.007  0.00  0.00    -0.031 A 
ATOM      3  C3  DEN d   1      -2.628   1.325  -0.437  0.00  0.00     0.027 A 
ATOM      4  C4  DEN d   1      -2.710  -0.810   1.007  0.00  0.00     0.027 A 
ATOM      5  C5  DEN d   1      -2.744  -1.292   2.297  0.00  0.00    -0.003 A 
ATOM      6  C6  DEN d   1      -2.717  -0.463   3.387  0.00  0.00     0.001 A 
ATOM      7  C7  DEN d   1      -2.700   0.895   3.207  0.00  0.00     0.017 A 
ATOM      8  C8  DEN d   1      -2.659   1.388   1.910  0.00  0.00    -0.094 A 
ATOM      9  C9  DEN d   1      -2.699   0.534   0.821  0.00  0.00    -0.072 A 
ENDROOT
TORSDOF 0
ENDMDL
