MODEL 1
REMARK minimizedAffinity 4.24332428
REMARK minimizedRMSD -1
REMARK  0 active torsions:
REMARK  status: ('A' for Active; 'I' for Inactive)
ROOT
ATOM      1  C1  DEN d   1       4.379  -0.934   4.168  0.00  0.00     0.130 A 
ATOM      2  C2  DEN d   1       5.214  -1.387   5.277  0.00  0.00    -0.031 A 
ATOM      3  C3  DEN d   1       6.000  -0.232   5.758  0.00  0.00     0.027 A 
ATOM      4  C4  DEN d   1       6.000   2.200   4.900  0.00  0.00     0.027 A 
ATOM      5  C5  DEN d   1       5.464   3.062   3.969  0.00  0.00    -0.003 A 
ATOM      6  C6  DEN d   1       4.562   2.649   3.025  0.00  0.00     0.001 A 
ATOM      7  C7  DEN d   1       4.134   1.347   3.020  0.00  0.00     0.017 A 
ATOM      8  C8  DEN d   1       4.675   0.471   3.951  0.00  0.00    -0.094 A 
ATOM      9  C9  DEN d   1       5.577   0.911   4.905  0.00  0.00    -0.072 A 
ENDROOT
TORSDOF 0
ENDMDL
