MODEL 1
REMARK minimizedAffinity 6.13459015
REMARK minimizedRMSD -1
REMARK  0 active torsions:
REMARK  status: ('A' for Active; 'I' for Inactive)
ROOT
ATOM      1  C1  DEN d   1       4.855   1.375   2.255  0.00  0.00     0.130 A 
ATOM      2  C2  DEN d   1       4.560   2.772   2.561  0.00  0.00    -0.031 A 
ATOM      3  C3  DEN d   1       4.811   2.988   4.000  0.00  0.00     0.027 A 
ATOM      4  C4  DEN d   1       5.628   1.304   5.775  0.00  0.00     0.027 A 
ATOM      5  C5  DEN d   1       6.000  -0.004   5.994  0.00  0.00    -0.003 A 
ATOM      6  C6  DEN d   1       5.984  -0.944   4.998  0.00  0.00     0.001 A 
ATOM      7  C7  DEN d   1       5.631  -0.580   3.726  0.00  0.00     0.017 A 
ATOM      8  C8  DEN d   1       5.248   0.736   3.499  0.00  0.00    -0.094 A 
ATOM      9  C9  DEN d   1       5.282   1.674   4.516  0.00  0.00    -0.072 A 
ENDROOT
TORSDOF 0
ENDMDL
