MODEL 1
REMARK minimizedAffinity 7.22168589
REMARK minimizedRMSD -1
REMARK  0 active torsions:
REMARK  status: ('A' for Active; 'I' for Inactive)
ROOT
ATOM      1  C1  DEN d   1       4.573   0.457   3.217  0.00  0.00     0.130 A 
ATOM      2  C2  DEN d   1       5.308  -0.347   4.189  0.00  0.00    -0.031 A 
ATOM      3  C3  DEN d   1       6.000   0.574   5.114  0.00  0.00     0.027 A 
ATOM      4  C4  DEN d   1       6.000   3.153   5.136  0.00  0.00     0.027 A 
ATOM      5  C5  DEN d   1       5.531   4.281   4.501  0.00  0.00    -0.003 A 
ATOM      6  C6  DEN d   1       4.743   4.214   3.382  0.00  0.00     0.001 A 
ATOM      7  C7  DEN d   1       4.364   2.993   2.890  0.00  0.00     0.017 A 
ATOM      8  C8  DEN d   1       4.840   1.851   3.521  0.00  0.00    -0.094 A 
ATOM      9  C9  DEN d   1       5.625   1.939   4.658  0.00  0.00    -0.072 A 
ENDROOT
TORSDOF 0
ENDMDL
