MODEL 1
REMARK minimizedAffinity 9.96728992
REMARK minimizedRMSD -1
REMARK  0 active torsions:
REMARK  status: ('A' for Active; 'I' for Inactive)
ROOT
ATOM      1  C1  DEN d   1       4.776   2.991   3.375  0.00  0.00     0.130 A 
ATOM      2  C2  DEN d   1       4.094   3.008   2.084  0.00  0.00    -0.031 A 
ATOM      3  C3  DEN d   1       4.012   1.618   1.592  0.00  0.00     0.027 A 
ATOM      4  C4  DEN d   1       4.866  -0.548   2.702  0.00  0.00     0.027 A 
ATOM      5  C5  DEN d   1       5.521  -1.065   3.797  0.00  0.00    -0.003 A 
ATOM      6  C6  DEN d   1       6.000  -0.270   4.804  0.00  0.00     0.001 A 
ATOM      7  C7  DEN d   1       5.791   1.084   4.758  0.00  0.00     0.017 A 
ATOM      8  C8  DEN d   1       5.137   1.613   3.653  0.00  0.00    -0.094 A 
ATOM      9  C9  DEN d   1       4.650   0.791   2.651  0.00  0.00    -0.072 A 
ENDROOT
TORSDOF 0
ENDMDL
