MODEL 1
REMARK minimizedAffinity -1.60581779
REMARK minimizedRMSD -1
REMARK  0 active torsions:
REMARK  status: ('A' for Active; 'I' for Inactive)
ROOT
ATOM      1  C1  DEN d   1       2.253  -3.018   2.092  0.00  0.00     0.130 A 
ATOM      2  C2  DEN d   1       2.787  -1.840   1.414  0.00  0.00    -0.031 A 
ATOM      3  C3  DEN d   1       1.967  -1.596   0.210  0.00  0.00     0.027 A 
ATOM      4  C4  DEN d   1      -0.068  -2.918  -0.663  0.00  0.00     0.027 A 
ATOM      5  C5  DEN d   1      -0.885  -4.003  -0.432  0.00  0.00    -0.003 A 
ATOM      6  C6  DEN d   1      -0.694  -4.848   0.629  0.00  0.00     0.001 A 
ATOM      7  C7  DEN d   1       0.311  -4.596   1.525  0.00  0.00     0.017 A 
ATOM      8  C8  DEN d   1       1.144  -3.509   1.294  0.00  0.00    -0.094 A 
ATOM      9  C9  DEN d   1       0.927  -2.659   0.223  0.00  0.00    -0.072 A 
ENDROOT
TORSDOF 0
ENDMDL
