MODEL 1
REMARK minimizedAffinity 2.13741541
REMARK minimizedRMSD -1
REMARK  0 active torsions:
REMARK  status: ('A' for Active; 'I' for Inactive)
ROOT
ATOM      1  C1  DEN d   1       4.742   2.632   1.879  0.00  0.00     0.130 A 
ATOM      2  C2  DEN d   1       5.393   3.726   2.595  0.00  0.00    -0.031 A 
ATOM      3  C3  DEN d   1       6.000   3.171   3.821  0.00  0.00     0.027 A 
ATOM      4  C4  DEN d   1       6.000   0.737   4.674  0.00  0.00     0.027 A 
ATOM      5  C5  DEN d   1       5.565  -0.544   4.414  0.00  0.00    -0.003 A 
ATOM      6  C6  DEN d   1       4.803  -0.847   3.317  0.00  0.00     0.001 A 
ATOM      7  C7  DEN d   1       4.490   0.136   2.415  0.00  0.00     0.017 A 
ATOM      8  C8  DEN d   1       4.918   1.431   2.675  0.00  0.00    -0.094 A 
ATOM      9  C9  DEN d   1       5.698   1.715   3.783  0.00  0.00    -0.072 A 
ENDROOT
TORSDOF 0
ENDMDL
