MODEL 1
REMARK minimizedAffinity -0.018059982
REMARK minimizedRMSD -1
REMARK  0 active torsions:
REMARK  status: ('A' for Active; 'I' for Inactive)
ROOT
ATOM      1  C1  DEN d   1       4.876  -0.546   5.632  0.00  0.00     0.130 A 
ATOM      2  C2  DEN d   1       6.000   0.380   5.524  0.00  0.00    -0.031 A 
ATOM      3  C3  DEN d   1       5.992   0.951   4.162  0.00  0.00     0.027 A 
ATOM      4  C4  DEN d   1       4.355   0.496   2.221  0.00  0.00     0.027 A 
ATOM      5  C5  DEN d   1       3.246  -0.223   1.833  0.00  0.00    -0.003 A 
ATOM      6  C6  DEN d   1       2.628  -1.118   2.666  0.00  0.00     0.001 A 
ATOM      7  C7  DEN d   1       3.089  -1.285   3.945  0.00  0.00     0.017 A 
ATOM      8  C8  DEN d   1       4.210  -0.568   4.342  0.00  0.00    -0.094 A 
ATOM      9  C9  DEN d   1       4.814   0.341   3.489  0.00  0.00    -0.072 A 
ENDROOT
TORSDOF 0
ENDMDL
