MODEL 1
REMARK minimizedAffinity 14.777709
REMARK minimizedRMSD -1
REMARK  0 active torsions:
REMARK  status: ('A' for Active; 'I' for Inactive)
ROOT
ATOM      1  C1  DEN d   1       3.751   1.173   1.241  0.00  0.00     0.130 A 
ATOM      2  C2  DEN d   1       3.246   2.538   1.119  0.00  0.00    -0.031 A 
ATOM      3  C3  DEN d   1       3.774   3.323   2.252  0.00  0.00     0.027 A 
ATOM      4  C4  DEN d   1       5.319   2.564   4.173  0.00  0.00     0.027 A 
ATOM      5  C5  DEN d   1       6.000   1.494   4.709  0.00  0.00    -0.003 A 
ATOM      6  C6  DEN d   1       5.952   0.244   4.151  0.00  0.00     0.001 A 
ATOM      7  C7  DEN d   1       5.244   0.043   2.996  0.00  0.00     0.017 A 
ATOM      8  C8  DEN d   1       4.548   1.116   2.453  0.00  0.00    -0.094 A 
ATOM      9  C9  DEN d   1       4.619   2.374   3.026  0.00  0.00    -0.072 A 
ENDROOT
TORSDOF 0
ENDMDL
