MODEL 1
REMARK minimizedAffinity 3.71105242
REMARK minimizedRMSD -1
REMARK  0 active torsions:
REMARK  status: ('A' for Active; 'I' for Inactive)
ROOT
ATOM      1  C1  DEN d   1      -3.826   1.519   0.248  0.00  0.00     0.130 A 
ATOM      2  C2  DEN d   1      -2.640   0.849  -0.277  0.00  0.00    -0.031 A 
ATOM      3  C3  DEN d   1      -1.590   1.868  -0.477  0.00  0.00     0.027 A 
ATOM      4  C4  DEN d   1      -1.685   4.405  -0.022  0.00  0.00     0.027 A 
ATOM      5  C5  DEN d   1      -2.484   5.438   0.416  0.00  0.00    -0.003 A 
ATOM      6  C6  DEN d   1      -3.786   5.244   0.793  0.00  0.00     0.001 A 
ATOM      7  C7  DEN d   1      -4.315   3.981   0.783  0.00  0.00     0.017 A 
ATOM      8  C8  DEN d   1      -3.518   2.935   0.336  0.00  0.00    -0.094 A 
ATOM      9  C9  DEN d   1      -2.200   3.149  -0.030  0.00  0.00    -0.072 A 
ENDROOT
TORSDOF 0
ENDMDL
