MODEL 1
REMARK minimizedAffinity 4.40813732
REMARK minimizedRMSD -1
REMARK  0 active torsions:
REMARK  status: ('A' for Active; 'I' for Inactive)
ROOT
ATOM      1  C1  DEN d   1       3.227   1.569   2.035  0.00  0.00     0.130 A 
ATOM      2  C2  DEN d   1       3.454   2.981   1.741  0.00  0.00    -0.031 A 
ATOM      3  C3  DEN d   1       4.522   3.469   2.635  0.00  0.00     0.027 A 
ATOM      4  C4  DEN d   1       5.845   2.179   4.435  0.00  0.00     0.027 A 
ATOM      5  C5  DEN d   1       5.999   0.960   5.057  0.00  0.00    -0.003 A 
ATOM      6  C6  DEN d   1       5.223  -0.124   4.742  0.00  0.00     0.001 A 
ATOM      7  C7  DEN d   1       4.288  -0.022   3.746  0.00  0.00     0.017 A 
ATOM      8  C8  DEN d   1       4.121   1.206   3.120  0.00  0.00    -0.094 A 
ATOM      9  C9  DEN d   1       4.924   2.287   3.445  0.00  0.00    -0.072 A 
ENDROOT
TORSDOF 0
ENDMDL
