MODEL 1
REMARK minimizedAffinity -0.678116322
REMARK minimizedRMSD -1
REMARK  0 active torsions:
REMARK  status: ('A' for Active; 'I' for Inactive)
ROOT
ATOM      1  C1  DEN d   1      -2.756   3.304   1.374  0.00  0.00     0.130 A 
ATOM      2  C2  DEN d   1      -3.069   3.949   0.103  0.00  0.00    -0.031 A 
ATOM      3  C3  DEN d   1      -3.562   2.913  -0.826  0.00  0.00     0.027 A 
ATOM      4  C4  DEN d   1      -3.874   0.385  -0.419  0.00  0.00     0.027 A 
ATOM      5  C5  DEN d   1      -3.731  -0.630   0.502  0.00  0.00    -0.003 A 
ATOM      6  C6  DEN d   1      -3.226  -0.412   1.756  0.00  0.00     0.001 A 
ATOM      7  C7  DEN d   1      -2.886   0.858   2.140  0.00  0.00     0.017 A 
ATOM      8  C8  DEN d   1      -3.020   1.885   1.215  0.00  0.00    -0.094 A 
ATOM      9  C9  DEN d   1      -3.545   1.647  -0.044  0.00  0.00    -0.072 A 
ENDROOT
TORSDOF 0
ENDMDL
