MODEL 1
REMARK minimizedAffinity 0.0830124691
REMARK minimizedRMSD -1
REMARK  0 active torsions:
REMARK  status: ('A' for Active; 'I' for Inactive)
ROOT
ATOM      1  C1  DEN d   1      -0.250  -1.814  -2.226  0.00  0.00     0.130 A 
ATOM      2  C2  DEN d   1       1.037  -1.667  -2.900  0.00  0.00    -0.031 A 
ATOM      3  C3  DEN d   1       2.042  -2.435  -2.138  0.00  0.00     0.027 A 
ATOM      4  C4  DEN d   1       1.730  -3.836   0.005  0.00  0.00     0.027 A 
ATOM      5  C5  DEN d   1       0.820  -4.250   0.953  0.00  0.00    -0.003 A 
ATOM      6  C6  DEN d   1      -0.492  -3.857   0.927  0.00  0.00     0.001 A 
ATOM      7  C7  DEN d   1      -0.942  -3.061  -0.093  0.00  0.00     0.017 A 
ATOM      8  C8  DEN d   1      -0.029  -2.633  -1.048  0.00  0.00    -0.094 A 
ATOM      9  C9  DEN d   1       1.291  -3.051  -1.011  0.00  0.00    -0.072 A 
ENDROOT
TORSDOF 0
ENDMDL
