MODEL 1
REMARK minimizedAffinity -0.860972643
REMARK minimizedRMSD -1
REMARK  1 active torsions:
REMARK  status: ('A' for Active; 'I' for Inactive)
REMARK    1  A    between atoms: C1_2  and  C2_3 
ROOT
ATOM      1  C2  UNL d   1       0.593   0.757  -1.346  0.00  0.00    -0.077 A 
ATOM      2  C3  UNL d   1      -0.211   1.898  -1.221  0.00  0.00     0.002 A 
ATOM      3  C4  UNL d   1      -0.196   2.647  -0.042  0.00  0.00     0.002 A 
ATOM      4  C5  UNL d   1       0.623   2.265   1.018  0.00  0.00    -0.004 A 
ATOM      5  C6  UNL d   1       1.425   1.130   0.904  0.00  0.00     0.002 A 
ATOM      6  C7  UNL d   1       1.410   0.379  -0.273  0.00  0.00     0.002 A 
ENDROOT
BRANCH   1   7
ATOM      7  C1  UNL d   1       0.615  -0.024  -2.634  0.00  0.00     0.055 C 
ATOM      8  C   UNL d   1      -0.620   0.261  -3.475  0.00  0.00     0.019 C 
ENDBRANCH   1   7
TORSDOF 1
ENDMDL
