MODEL 1
REMARK minimizedAffinity 4.84016132
REMARK minimizedRMSD -1
REMARK  1 active torsions:
REMARK  status: ('A' for Active; 'I' for Inactive)
REMARK    1  A    between atoms: C1_2  and  C2_3 
ROOT
ATOM      1  C2  UNL d   1      -1.130   3.331  -0.820  0.00  0.00    -0.077 A 
ATOM      2  C3  UNL d   1      -1.029   4.637  -1.319  0.00  0.00     0.002 A 
ATOM      3  C4  UNL d   1       0.156   5.361  -1.167  0.00  0.00     0.002 A 
ATOM      4  C5  UNL d   1       1.248   4.786  -0.522  0.00  0.00    -0.004 A 
ATOM      5  C6  UNL d   1       1.157   3.488  -0.020  0.00  0.00     0.002 A 
ATOM      6  C7  UNL d   1      -0.027   2.763  -0.170  0.00  0.00     0.002 A 
ENDROOT
BRANCH   1   7
ATOM      7  C1  UNL d   1      -2.390   2.530  -1.026  0.00  0.00     0.055 C 
ATOM      8  C   UNL d   1      -2.362   1.785  -2.352  0.00  0.00     0.019 C 
ENDBRANCH   1   7
TORSDOF 1
ENDMDL
