MODEL 1
REMARK minimizedAffinity 9.84417629
REMARK minimizedRMSD -1
REMARK  1 active torsions:
REMARK  status: ('A' for Active; 'I' for Inactive)
REMARK    1  A    between atoms: C1_2  and  C2_3 
ROOT
ATOM      1  C2  UNL d   1       3.558  -1.506   3.398  0.00  0.00    -0.077 A 
ATOM      2  C3  UNL d   1       4.861  -1.900   3.730  0.00  0.00     0.002 A 
ATOM      3  C4  UNL d   1       5.163  -2.321   5.027  0.00  0.00     0.002 A 
ATOM      4  C5  UNL d   1       4.167  -2.356   6.000  0.00  0.00    -0.004 A 
ATOM      5  C6  UNL d   1       2.868  -1.964   5.680  0.00  0.00     0.002 A 
ATOM      6  C7  UNL d   1       2.564  -1.542   4.385  0.00  0.00     0.002 A 
ENDROOT
BRANCH   1   7
ATOM      7  C1  UNL d   1       3.219  -1.099   1.988  0.00  0.00     0.055 C 
ATOM      8  C   UNL d   1       1.714  -1.089   1.761  0.00  0.00     0.019 C 
ENDBRANCH   1   7
TORSDOF 1
ENDMDL
