MODEL 1
REMARK minimizedAffinity 6.47368383
REMARK minimizedRMSD -1
REMARK  1 active torsions:
REMARK  status: ('A' for Active; 'I' for Inactive)
REMARK    1  A    between atoms: C1_2  and  C2_3 
ROOT
ATOM      1  C2  UNL d   1       3.138   4.240   0.857  0.00  0.00    -0.077 A 
ATOM      2  C3  UNL d   1       2.574   5.160  -0.039  0.00  0.00     0.002 A 
ATOM      3  C4  UNL d   1       1.310   4.930  -0.584  0.00  0.00     0.002 A 
ATOM      4  C5  UNL d   1       0.597   3.785  -0.237  0.00  0.00    -0.004 A 
ATOM      5  C6  UNL d   1       1.149   2.864   0.652  0.00  0.00     0.002 A 
ATOM      6  C7  UNL d   1       2.413   3.091   1.197  0.00  0.00     0.002 A 
ENDROOT
BRANCH   1   7
ATOM      7  C1  UNL d   1       4.480   4.510   1.485  0.00  0.00     0.055 C 
ATOM      8  C   UNL d   1       4.697   6.000   1.710  0.00  0.00     0.019 C 
ENDBRANCH   1   7
TORSDOF 1
ENDMDL
