MODEL 1
REMARK minimizedAffinity 7.61433935
REMARK minimizedRMSD -1
REMARK  1 active torsions:
REMARK  status: ('A' for Active; 'I' for Inactive)
REMARK    1  A    between atoms: C1_2  and  C2_3 
ROOT
ATOM      1  C2  UNL d   1       0.476   3.691  -0.355  0.00  0.00    -0.077 A 
ATOM      2  C3  UNL d   1       1.420   3.502   0.664  0.00  0.00     0.002 A 
ATOM      3  C4  UNL d   1       1.691   2.220   1.146  0.00  0.00     0.002 A 
ATOM      4  C5  UNL d   1       1.025   1.118   0.613  0.00  0.00    -0.004 A 
ATOM      5  C6  UNL d   1       0.083   1.296  -0.399  0.00  0.00     0.002 A 
ATOM      6  C7  UNL d   1      -0.190   2.577  -0.881  0.00  0.00     0.002 A 
ENDROOT
BRANCH   1   7
ATOM      7  C1  UNL d   1       0.218   5.067  -0.911  0.00  0.00     0.055 C 
ATOM      8  C   UNL d   1       1.520   5.783  -1.241  0.00  0.00     0.019 C 
ENDBRANCH   1   7
TORSDOF 1
ENDMDL
