MODEL 1
REMARK minimizedAffinity 10.1744881
REMARK minimizedRMSD -1
REMARK  1 active torsions:
REMARK  status: ('A' for Active; 'I' for Inactive)
REMARK    1  A    between atoms: C1_2  and  C2_3 
ROOT
ATOM      1  C2  UNL d   1      -2.660   3.030  -5.076  0.00  0.00    -0.077 A 
ATOM      2  C3  UNL d   1      -2.409   4.354  -4.690  0.00  0.00     0.002 A 
ATOM      3  C4  UNL d   1      -3.352   5.353  -4.941  0.00  0.00     0.002 A 
ATOM      4  C5  UNL d   1      -4.553   5.038  -5.574  0.00  0.00    -0.004 A 
ATOM      5  C6  UNL d   1      -4.810   3.724  -5.963  0.00  0.00     0.002 A 
ATOM      6  C7  UNL d   1      -3.869   2.724  -5.714  0.00  0.00     0.002 A 
ENDROOT
BRANCH   1   7
ATOM      7  C1  UNL d   1      -1.666   1.942  -4.763  0.00  0.00     0.055 C 
ATOM      8  C   UNL d   1      -0.875   1.542  -6.000  0.00  0.00     0.019 C 
ENDBRANCH   1   7
TORSDOF 1
ENDMDL
