MODEL 1
REMARK minimizedAffinity -0.465993464
REMARK minimizedRMSD -1
REMARK  0 active torsions:
REMARK  status: ('A' for Active; 'I' for Inactive)
ROOT
ATOM      1  C   UNL d   1       1.615  -0.831  -1.027  0.00  0.00     0.124 A 
ATOM      2  C1  UNL d   1       0.378  -0.247  -1.260  0.00  0.00     0.062 A 
ATOM      3  C2  UNL d   1      -0.370   0.255  -0.199  0.00  0.00     0.162 A 
ATOM      4  C3  UNL d   1       0.118   0.175   1.106  0.00  0.00    -0.034 A 
ATOM      5  C4  UNL d   1       1.363  -0.415   1.332  0.00  0.00     0.162 A 
ATOM      6  C5  UNL d   1       2.106  -0.915   0.268  0.00  0.00     0.062 A 
ATOM      7  F   UNL d   1       3.301  -1.479   0.495  0.00  0.00    -0.097 F 
ATOM      8  F1  UNL d   1       1.862  -0.508   2.574  0.00  0.00    -0.096 F 
ATOM      9  I   UNL d   1      -0.997   0.924   2.695  0.00  0.00    -0.060 I 
ATOM     10  F2  UNL d   1      -1.562   0.815  -0.453  0.00  0.00    -0.096 F 
ATOM     11  F3  UNL d   1      -0.099  -0.165  -2.510  0.00  0.00    -0.097 F 
ATOM     12  F4  UNL d   1       2.332  -1.314  -2.050  0.00  0.00    -0.092 F 
ENDROOT
TORSDOF 0
ENDMDL
