MODEL 1
REMARK minimizedAffinity 1.11140573
REMARK minimizedRMSD -1
REMARK  0 active torsions:
REMARK  status: ('A' for Active; 'I' for Inactive)
ROOT
ATOM      1  C   UNL d   1      -0.059  -0.130  -4.704  0.00  0.00     0.124 A 
ATOM      2  C1  UNL d   1       0.756   0.875  -4.203  0.00  0.00     0.062 A 
ATOM      3  C2  UNL d   1       1.110   0.884  -2.857  0.00  0.00     0.162 A 
ATOM      4  C3  UNL d   1       0.649  -0.117  -2.002  0.00  0.00    -0.034 A 
ATOM      5  C4  UNL d   1      -0.172  -1.124  -2.513  0.00  0.00     0.162 A 
ATOM      6  C5  UNL d   1      -0.522  -1.128  -3.859  0.00  0.00     0.062 A 
ATOM      7  F   UNL d   1      -1.310  -2.100  -4.341  0.00  0.00    -0.097 F 
ATOM      8  F1  UNL d   1      -0.633  -2.101  -1.718  0.00  0.00    -0.096 F 
ATOM      9  I   UNL d   1       1.175  -0.107   0.012  0.00  0.00    -0.060 I 
ATOM     10  F2  UNL d   1       1.899   1.868  -2.401  0.00  0.00    -0.096 F 
ATOM     11  F3  UNL d   1       1.204   1.841  -5.018  0.00  0.00    -0.097 F 
ATOM     12  F4  UNL d   1      -0.399  -0.136  -6.000  0.00  0.00    -0.092 F 
ENDROOT
TORSDOF 0
ENDMDL
