MODEL 1
REMARK minimizedAffinity -0.351434082
REMARK minimizedRMSD -1
REMARK  0 active torsions:
REMARK  status: ('A' for Active; 'I' for Inactive)
ROOT
ATOM      1  C   UNL d   1      -1.135   0.239   1.071  0.00  0.00     0.124 A 
ATOM      2  C1  UNL d   1      -1.294  -0.612  -0.013  0.00  0.00     0.062 A 
ATOM      3  C2  UNL d   1      -0.448  -0.510  -1.113  0.00  0.00     0.162 A 
ATOM      4  C3  UNL d   1       0.566   0.447  -1.135  0.00  0.00    -0.034 A 
ATOM      5  C4  UNL d   1       0.720   1.300  -0.041  0.00  0.00     0.162 A 
ATOM      6  C5  UNL d   1      -0.128   1.194   1.057  0.00  0.00     0.062 A 
ATOM      7  F   UNL d   1       0.027   2.018   2.104  0.00  0.00    -0.097 F 
ATOM      8  F1  UNL d   1       1.685   2.232  -0.028  0.00  0.00    -0.096 F 
ATOM      9  I   UNL d   1       1.834   0.603  -2.778  0.00  0.00    -0.060 I 
ATOM     10  F2  UNL d   1      -0.625  -1.346  -2.147  0.00  0.00    -0.096 F 
ATOM     11  F3  UNL d   1      -2.267  -1.536  -0.002  0.00  0.00    -0.097 F 
ATOM     12  F4  UNL d   1      -1.951   0.139   2.128  0.00  0.00    -0.092 F 
ENDROOT
TORSDOF 0
ENDMDL
