MODEL 1
REMARK minimizedAffinity 1.302405
REMARK minimizedRMSD -1
REMARK  0 active torsions:
REMARK  status: ('A' for Active; 'I' for Inactive)
ROOT
ATOM      1  C   UNL d   1      -1.386   0.304   1.639  0.00  0.00     0.124 A 
ATOM      2  C1  UNL d   1      -1.524  -0.385   0.442  0.00  0.00     0.062 A 
ATOM      3  C2  UNL d   1      -0.574  -0.237  -0.564  0.00  0.00     0.162 A 
ATOM      4  C3  UNL d   1       0.524   0.603  -0.377  0.00  0.00    -0.034 A 
ATOM      5  C4  UNL d   1       0.655   1.293   0.829  0.00  0.00     0.162 A 
ATOM      6  C5  UNL d   1      -0.297   1.142   1.832  0.00  0.00     0.062 A 
ATOM      7  F   UNL d   1      -0.163   1.809   2.988  0.00  0.00    -0.097 F 
ATOM      8  F1  UNL d   1       1.698   2.109   1.042  0.00  0.00    -0.096 F 
ATOM      9  I   UNL d   1       1.947   0.827  -1.879  0.00  0.00    -0.060 I 
ATOM     10  F2  UNL d   1      -0.732  -0.915  -1.710  0.00  0.00    -0.096 F 
ATOM     11  F3  UNL d   1      -2.576  -1.195   0.254  0.00  0.00    -0.097 F 
ATOM     12  F4  UNL d   1      -2.303   0.160   2.605  0.00  0.00    -0.092 F 
ENDROOT
TORSDOF 0
ENDMDL
