MODEL 1
REMARK minimizedAffinity 4.23691988
REMARK minimizedRMSD -1
REMARK  0 active torsions:
REMARK  status: ('A' for Active; 'I' for Inactive)
ROOT
ATOM      1  C   UNL d   1      -0.260   0.060   1.404  0.00  0.00     0.124 A 
ATOM      2  C1  UNL d   1      -1.380   0.132   0.586  0.00  0.00     0.062 A 
ATOM      3  C2  UNL d   1      -1.257  -0.057  -0.787  0.00  0.00     0.162 A 
ATOM      4  C3  UNL d   1      -0.009  -0.320  -1.353  0.00  0.00    -0.034 A 
ATOM      5  C4  UNL d   1       1.113  -0.389  -0.524  0.00  0.00     0.162 A 
ATOM      6  C5  UNL d   1       0.985  -0.200   0.848  0.00  0.00     0.062 A 
ATOM      7  F   UNL d   1       2.067  -0.269   1.636  0.00  0.00    -0.097 F 
ATOM      8  F1  UNL d   1       2.327  -0.641  -1.035  0.00  0.00    -0.096 F 
ATOM      9  I   UNL d   1       0.179  -0.603  -3.406  0.00  0.00    -0.060 I 
ATOM     10  F2  UNL d   1      -2.355   0.017  -1.553  0.00  0.00    -0.096 F 
ATOM     11  F3  UNL d   1      -2.583   0.384   1.121  0.00  0.00    -0.097 F 
ATOM     12  F4  UNL d   1      -0.381   0.244   2.725  0.00  0.00    -0.092 F 
ENDROOT
TORSDOF 0
ENDMDL
