MODEL 1
REMARK minimizedAffinity -1.14184844
REMARK minimizedRMSD -1
REMARK  0 active torsions:
REMARK  status: ('A' for Active; 'I' for Inactive)
ROOT
ATOM      1  C   UNL d   1       0.633   0.825   1.608  0.00  0.00     0.124 A 
ATOM      2  C1  UNL d   1       1.221  -0.367   1.210  0.00  0.00     0.062 A 
ATOM      3  C2  UNL d   1       1.086  -0.810  -0.103  0.00  0.00     0.162 A 
ATOM      4  C3  UNL d   1       0.360  -0.060  -1.028  0.00  0.00    -0.034 A 
ATOM      5  C4  UNL d   1      -0.229   1.138  -0.620  0.00  0.00     0.162 A 
ATOM      6  C5  UNL d   1      -0.091   1.577   0.693  0.00  0.00     0.062 A 
ATOM      7  F   UNL d   1      -0.660   2.729   1.076  0.00  0.00    -0.097 F 
ATOM      8  F1  UNL d   1      -0.933   1.885  -1.483  0.00  0.00    -0.096 F 
ATOM      9  I   UNL d   1       0.156  -0.719  -2.991  0.00  0.00    -0.060 I 
ATOM     10  F2  UNL d   1       1.665  -1.967  -0.460  0.00  0.00    -0.096 F 
ATOM     11  F3  UNL d   1       1.920  -1.096   2.092  0.00  0.00    -0.097 F 
ATOM     12  F4  UNL d   1       0.764   1.249   2.872  0.00  0.00    -0.092 F 
ENDROOT
TORSDOF 0
ENDMDL
