MODEL 1
REMARK minimizedAffinity 5.82464743
REMARK minimizedRMSD -1
REMARK  0 active torsions:
REMARK  status: ('A' for Active; 'I' for Inactive)
ROOT
ATOM      1  C4' PXY d   1      -1.025  -5.989  -5.999  0.00  0.00     0.077 C 
ATOM      2  C1' PXY d   1       3.336  -5.843  -2.208  0.00  0.00     0.077 C 
ATOM      3  C1  PXY d   1       2.200  -5.876  -3.211  0.00  0.00    -0.082 A 
ATOM      4  C2  PXY d   1       0.948  -5.874  -2.783  0.00  0.00     0.003 A 
ATOM      5  C3  PXY d   1      -0.091  -5.936  -3.675  0.00  0.00     0.003 A 
ATOM      6  C4  PXY d   1       0.153  -5.946  -5.023  0.00  0.00    -0.082 A 
ATOM      7  C5  PXY d   1       1.427  -5.938  -5.468  0.00  0.00     0.003 A 
ATOM      8  C6  PXY d   1       2.468  -5.917  -4.545  0.00  0.00     0.003 A 
ENDROOT
TORSDOF 0
ENDMDL
