MODEL 1
REMARK minimizedAffinity 2.27802706
REMARK minimizedRMSD -1
REMARK  0 active torsions:
REMARK  status: ('A' for Active; 'I' for Inactive)
ROOT
ATOM      1  C4' PXY d   1      -1.478  -0.741  -4.807  0.00  0.00     0.077 C 
ATOM      2  C1' PXY d   1       4.297  -0.741  -5.067  0.00  0.00     0.077 C 
ATOM      3  C1  PXY d   1       2.783  -0.750  -4.991  0.00  0.00    -0.082 A 
ATOM      4  C2  PXY d   1       2.074  -0.269  -5.998  0.00  0.00     0.003 A 
ATOM      5  C3  PXY d   1       0.704  -0.241  -5.932  0.00  0.00     0.003 A 
ATOM      6  C4  PXY d   1       0.053  -0.760  -4.845  0.00  0.00    -0.082 A 
ATOM      7  C5  PXY d   1       0.769  -1.263  -3.818  0.00  0.00     0.003 A 
ATOM      8  C6  PXY d   1       2.159  -1.244  -3.887  0.00  0.00     0.003 A 
ENDROOT
TORSDOF 0
ENDMDL
