MODEL 1
REMARK minimizedAffinity 4.78576279
REMARK minimizedRMSD -1
REMARK  0 active torsions:
REMARK  status: ('A' for Active; 'I' for Inactive)
ROOT
ATOM      1  C4' PXY d   1      -1.496  -1.522  -4.900  0.00  0.00     0.077 C 
ATOM      2  C1' PXY d   1       4.193  -0.561  -5.256  0.00  0.00     0.077 C 
ATOM      3  C1  PXY d   1       2.704  -0.824  -5.157  0.00  0.00    -0.082 A 
ATOM      4  C2  PXY d   1       1.877  -0.228  -6.000  0.00  0.00     0.003 A 
ATOM      5  C3  PXY d   1       0.524  -0.430  -5.904  0.00  0.00     0.003 A 
ATOM      6  C4  PXY d   1       0.017  -1.293  -4.969  0.00  0.00    -0.082 A 
ATOM      7  C5  PXY d   1       0.855  -1.913  -4.113  0.00  0.00     0.003 A 
ATOM      8  C6  PXY d   1       2.222  -1.663  -4.200  0.00  0.00     0.003 A 
ENDROOT
TORSDOF 0
ENDMDL
