MODEL 1
REMARK minimizedAffinity 4.48888111
REMARK minimizedRMSD -1
REMARK  0 active torsions:
REMARK  status: ('A' for Active; 'I' for Inactive)
ROOT
ATOM      1  C4' PXY d   1      -0.262  -0.776  -5.119  0.00  0.00     0.077 C 
ATOM      2  C1' PXY d   1       5.485  -0.161  -5.076  0.00  0.00     0.077 C 
ATOM      3  C1  PXY d   1       3.979  -0.334  -5.081  0.00  0.00    -0.082 A 
ATOM      4  C2  PXY d   1       3.253   0.282  -6.000  0.00  0.00     0.003 A 
ATOM      5  C3  PXY d   1       1.887   0.163  -6.000  0.00  0.00     0.003 A 
ATOM      6  C4  PXY d   1       1.262  -0.638  -5.082  0.00  0.00    -0.082 A 
ATOM      7  C5  PXY d   1       1.997  -1.278  -4.147  0.00  0.00     0.003 A 
ATOM      8  C6  PXY d   1       3.379  -1.111  -4.140  0.00  0.00     0.003 A 
ENDROOT
TORSDOF 0
ENDMDL
