MODEL 1
REMARK minimizedAffinity 1.85540771
REMARK minimizedRMSD -1
REMARK  0 active torsions:
REMARK  status: ('A' for Active; 'I' for Inactive)
ROOT
ATOM      1  C4' PXY d   1       2.245   1.465   2.173  0.00  0.00     0.077 C 
ATOM      2  C1' PXY d   1      -1.873  -2.528   2.892  0.00  0.00     0.077 C 
ATOM      3  C1  PXY d   1      -0.785  -1.488   2.711  0.00  0.00    -0.082 A 
ATOM      4  C2  PXY d   1      -1.114  -0.244   2.403  0.00  0.00     0.003 A 
ATOM      5  C3  PXY d   1      -0.141   0.702   2.204  0.00  0.00     0.003 A 
ATOM      6  C4  PXY d   1       1.180   0.384   2.375  0.00  0.00    -0.082 A 
ATOM      7  C5  PXY d   1       1.523  -0.881   2.699  0.00  0.00     0.003 A 
ATOM      8  C6  PXY d   1       0.523  -1.836   2.856  0.00  0.00     0.003 A 
ENDROOT
TORSDOF 0
ENDMDL
