MODEL 1
REMARK minimizedAffinity 8.13096142
REMARK minimizedRMSD -1
REMARK  0 active torsions:
REMARK  status: ('A' for Active; 'I' for Inactive)
ROOT
ATOM      1  C4' PXY d   1       2.676  -1.370   4.365  0.00  0.00     0.077 C 
ATOM      2  C1' PXY d   1      -2.558  -1.865   1.962  0.00  0.00     0.077 C 
ATOM      3  C1  PXY d   1      -1.183  -1.724   2.585  0.00  0.00    -0.082 A 
ATOM      4  C2  PXY d   1      -0.570  -2.794   3.066  0.00  0.00     0.003 A 
ATOM      5  C3  PXY d   1       0.659  -2.680   3.661  0.00  0.00     0.003 A 
ATOM      6  C4  PXY d   1       1.291  -1.466   3.718  0.00  0.00    -0.082 A 
ATOM      7  C5  PXY d   1       0.677  -0.372   3.221  0.00  0.00     0.003 A 
ATOM      8  C6  PXY d   1      -0.589  -0.503   2.657  0.00  0.00     0.003 A 
ENDROOT
TORSDOF 0
ENDMDL
