MODEL 1
REMARK minimizedAffinity -4.83990002
REMARK minimizedRMSD -1
REMARK  0 active torsions:
REMARK  status: ('A' for Active; 'I' for Inactive)
ROOT
ATOM      1  C4' PXY d   1       2.014  -1.513   3.640  0.00  0.00     0.077 C 
ATOM      2  C1' PXY d   1      -2.186   0.512   0.223  0.00  0.00     0.077 C 
ATOM      3  C1  PXY d   1      -1.093  -0.022   1.129  0.00  0.00    -0.082 A 
ATOM      4  C2  PXY d   1       0.152   0.397   0.968  0.00  0.00     0.003 A 
ATOM      5  C3  PXY d   1       1.157  -0.099   1.757  0.00  0.00     0.003 A 
ATOM      6  C4  PXY d   1       0.877  -0.994   2.756  0.00  0.00    -0.082 A 
ATOM      7  C5  PXY d   1      -0.392  -1.418   2.932  0.00  0.00     0.003 A 
ATOM      8  C6  PXY d   1      -1.392  -0.933   2.094  0.00  0.00     0.003 A 
ENDROOT
TORSDOF 0
ENDMDL
