MODEL 1
REMARK minimizedAffinity 3.40016294
REMARK minimizedRMSD -1
REMARK  0 active torsions:
REMARK  status: ('A' for Active; 'I' for Inactive)
ROOT
ATOM      1  C4' PXY d   1       2.556   0.325  -6.000  0.00  0.00     0.077 C 
ATOM      2  C1' PXY d   1      -0.047  -3.676  -2.739  0.00  0.00     0.077 C 
ATOM      3  C1  PXY d   1       0.628  -2.630  -3.605  0.00  0.00    -0.082 A 
ATOM      4  C2  PXY d   1       1.847  -2.216  -3.299  0.00  0.00     0.003 A 
ATOM      5  C3  PXY d   1       2.460  -1.248  -4.052  0.00  0.00     0.003 A 
ATOM      6  C4  PXY d   1       1.840  -0.736  -5.160  0.00  0.00    -0.082 A 
ATOM      7  C5  PXY d   1       0.600  -1.162  -5.485  0.00  0.00     0.003 A 
ATOM      8  C6  PXY d   1      -0.021  -2.116  -4.684  0.00  0.00     0.003 A 
ENDROOT
TORSDOF 0
ENDMDL
