MODEL 1
REMARK minimizedAffinity 4.55707312
REMARK minimizedRMSD -1
REMARK  0 active torsions:
REMARK  status: ('A' for Active; 'I' for Inactive)
ROOT
ATOM      1  C4' PXY d   1      -1.815  -0.738  -5.094  0.00  0.00     0.077 C 
ATOM      2  C1' PXY d   1       3.949  -1.176  -5.115  0.00  0.00     0.077 C 
ATOM      3  C1  PXY d   1       2.436  -1.072  -5.103  0.00  0.00    -0.082 A 
ATOM      4  C2  PXY d   1       1.826  -0.315  -6.000  0.00  0.00     0.003 A 
ATOM      5  C3  PXY d   1       0.461  -0.185  -5.984  0.00  0.00     0.003 A 
ATOM      6  C4  PXY d   1      -0.291  -0.879  -5.074  0.00  0.00    -0.082 A 
ATOM      7  C5  PXY d   1       0.324  -1.662  -4.162  0.00  0.00     0.003 A 
ATOM      8  C6  PXY d   1       1.713  -1.748  -4.169  0.00  0.00     0.003 A 
ENDROOT
TORSDOF 0
ENDMDL
