MODEL 1
REMARK minimizedAffinity 5.46364212
REMARK minimizedRMSD -1
REMARK  0 active torsions:
REMARK  status: ('A' for Active; 'I' for Inactive)
ROOT
ATOM      1  C4' PXY d   1       3.847  -1.351   3.793  0.00  0.00     0.077 C 
ATOM      2  C1' PXY d   1      -1.832  -1.741   2.787  0.00  0.00     0.077 C 
ATOM      3  C1  PXY d   1      -0.341  -1.646   3.040  0.00  0.00    -0.082 A 
ATOM      4  C2  PXY d   1       0.101  -1.412   4.265  0.00  0.00     0.003 A 
ATOM      5  C3  PXY d   1       1.446  -1.291   4.506  0.00  0.00     0.003 A 
ATOM      6  C4  PXY d   1       2.349  -1.464   3.492  0.00  0.00    -0.082 A 
ATOM      7  C5  PXY d   1       1.907  -1.714   2.242  0.00  0.00     0.003 A 
ATOM      8  C6  PXY d   1       0.537  -1.792   2.010  0.00  0.00     0.003 A 
ENDROOT
TORSDOF 0
ENDMDL
