MODEL 1
REMARK minimizedAffinity -1.96524465
REMARK minimizedRMSD -1
REMARK  0 active torsions:
REMARK  status: ('A' for Active; 'I' for Inactive)
ROOT
ATOM      1  C   UNL d   1       2.257  -2.565   4.241  0.00  0.00     0.020 A 
ATOM      2  C1  UNL d   1       2.671  -3.663   3.489  0.00  0.00     0.020 A 
ATOM      3  C2  UNL d   1       2.360  -3.736   2.130  0.00  0.00     0.034 A 
ATOM      4  C3  UNL d   1       1.633  -2.709   1.518  0.00  0.00     0.017 A 
ATOM      5  C4  UNL d   1       1.218  -1.606   2.274  0.00  0.00     0.017 A 
ATOM      6  C5  UNL d   1       1.532  -1.538   3.635  0.00  0.00     0.034 A 
ATOM      7 Cl   UNL d   1       0.317  -0.299   1.589  0.00  0.00    -0.070 Cl
ATOM      8 Cl1  UNL d   1       1.283  -2.864  -0.167  0.00  0.00    -0.070 Cl
ENDROOT
TORSDOF 0
ENDMDL
