MODEL 1
REMARK minimizedAffinity 8.53109264
REMARK minimizedRMSD -1
REMARK  0 active torsions:
REMARK  status: ('A' for Active; 'I' for Inactive)
ROOT
ATOM      1  C   UNL d   1      -0.732  -1.871  -1.607  0.00  0.00     0.020 A 
ATOM      2  C1  UNL d   1       0.545  -2.319  -1.272  0.00  0.00     0.020 A 
ATOM      3  C2  UNL d   1       1.091  -2.005  -0.025  0.00  0.00     0.034 A 
ATOM      4  C3  UNL d   1       0.360  -1.240   0.891  0.00  0.00     0.017 A 
ATOM      5  C4  UNL d   1      -0.922  -0.791   0.554  0.00  0.00     0.017 A 
ATOM      6  C5  UNL d   1      -1.464  -1.109  -0.696  0.00  0.00     0.034 A 
ATOM      7 Cl   UNL d   1      -1.886   0.157   1.631  0.00  0.00    -0.070 Cl
ATOM      8 Cl1  UNL d   1       1.096  -0.890   2.414  0.00  0.00    -0.070 Cl
ENDROOT
TORSDOF 0
ENDMDL
