MODEL 1
REMARK minimizedAffinity 13.0556068
REMARK minimizedRMSD -1
REMARK  0 active torsions:
REMARK  status: ('A' for Active; 'I' for Inactive)
ROOT
ATOM      1  C   UNL d   1       2.100  -1.468   3.187  0.00  0.00     0.020 A 
ATOM      2  C1  UNL d   1       1.750  -1.053   4.472  0.00  0.00     0.020 A 
ATOM      3  C2  UNL d   1       1.812   0.301   4.809  0.00  0.00     0.034 A 
ATOM      4  C3  UNL d   1       2.223   1.244   3.860  0.00  0.00     0.017 A 
ATOM      5  C4  UNL d   1       2.574   0.826   2.571  0.00  0.00     0.017 A 
ATOM      6  C5  UNL d   1       2.510  -0.531   2.239  0.00  0.00     0.034 A 
ATOM      7 Cl   UNL d   1       3.091   1.931   1.347  0.00  0.00    -0.070 Cl
ATOM      8 Cl1  UNL d   1       2.275   2.902   4.346  0.00  0.00    -0.070 Cl
ENDROOT
TORSDOF 0
ENDMDL
