MODEL 1
REMARK minimizedAffinity 9.39419174
REMARK minimizedRMSD -1
REMARK  0 active torsions:
REMARK  status: ('A' for Active; 'I' for Inactive)
ROOT
ATOM      1  C   UNL d   1       1.294  -1.159   3.803  0.00  0.00     0.020 A 
ATOM      2  C1  UNL d   1       2.213  -2.148   4.151  0.00  0.00     0.020 A 
ATOM      3  C2  UNL d   1       3.489  -2.147   3.582  0.00  0.00     0.034 A 
ATOM      4  C3  UNL d   1       3.849  -1.154   2.663  0.00  0.00     0.017 A 
ATOM      5  C4  UNL d   1       2.925  -0.162   2.315  0.00  0.00     0.017 A 
ATOM      6  C5  UNL d   1       1.650  -0.168   2.887  0.00  0.00     0.034 A 
ATOM      7 Cl   UNL d   1       3.297   1.096   1.189  0.00  0.00    -0.070 Cl
ATOM      8 Cl1  UNL d   1       5.443  -1.213   2.000  0.00  0.00    -0.070 Cl
ENDROOT
TORSDOF 0
ENDMDL
