MODEL 1
REMARK minimizedAffinity 7.22757196
REMARK minimizedRMSD -1
REMARK  0 active torsions:
REMARK  status: ('A' for Active; 'I' for Inactive)
ROOT
ATOM      1  C   UNL d   1       1.830  -1.708   3.574  0.00  0.00     0.020 A 
ATOM      2  C1  UNL d   1       1.364  -0.799   2.624  0.00  0.00     0.020 A 
ATOM      3  C2  UNL d   1       2.262  -0.178   1.754  0.00  0.00     0.034 A 
ATOM      4  C3  UNL d   1       3.630  -0.464   1.831  0.00  0.00     0.017 A 
ATOM      5  C4  UNL d   1       4.096  -1.377   2.784  0.00  0.00     0.017 A 
ATOM      6  C5  UNL d   1       3.193  -1.996   3.653  0.00  0.00     0.034 A 
ATOM      7 Cl   UNL d   1       5.769  -1.781   2.940  0.00  0.00    -0.070 Cl
ATOM      8 Cl1  UNL d   1       4.683   0.341   0.722  0.00  0.00    -0.070 Cl
ENDROOT
TORSDOF 0
ENDMDL
