MODEL 1
REMARK minimizedAffinity 14.3448153
REMARK minimizedRMSD -1
REMARK  0 active torsions:
REMARK  status: ('A' for Active; 'I' for Inactive)
ROOT
ATOM      1  C   UNL d   1       2.547  -2.682   4.083  0.00  0.00     0.020 A 
ATOM      2  C1  UNL d   1       3.879  -2.392   3.789  0.00  0.00     0.020 A 
ATOM      3  C2  UNL d   1       4.187  -1.446   2.810  0.00  0.00     0.034 A 
ATOM      4  C3  UNL d   1       3.163  -0.787   2.120  0.00  0.00     0.017 A 
ATOM      5  C4  UNL d   1       1.827  -1.078   2.417  0.00  0.00     0.017 A 
ATOM      6  C5  UNL d   1       1.523  -2.026   3.399  0.00  0.00     0.034 A 
ATOM      7 Cl   UNL d   1       0.508  -0.306   1.609  0.00  0.00    -0.070 Cl
ATOM      8 Cl1  UNL d   1       3.617   0.372   0.922  0.00  0.00    -0.070 Cl
ENDROOT
TORSDOF 0
ENDMDL
