MODEL 1
REMARK minimizedAffinity 0.172412634
REMARK minimizedRMSD -1
REMARK  0 active torsions:
REMARK  status: ('A' for Active; 'I' for Inactive)
ROOT
ATOM      1  C   UNL d   1       2.611  -1.135   1.958  0.00  0.00     0.020 A 
ATOM      2  C1  UNL d   1       1.580  -0.592   2.724  0.00  0.00     0.020 A 
ATOM      3  C2  UNL d   1       1.269  -1.144   3.968  0.00  0.00     0.034 A 
ATOM      4  C3  UNL d   1       1.990  -2.242   4.452  0.00  0.00     0.017 A 
ATOM      5  C4  UNL d   1       3.025  -2.786   3.683  0.00  0.00     0.017 A 
ATOM      6  C5  UNL d   1       3.332  -2.230   2.437  0.00  0.00     0.034 A 
ATOM      7 Cl   UNL d   1       3.959  -4.141   4.212  0.00  0.00    -0.070 Cl
ATOM      8 Cl1  UNL d   1       1.552  -2.872   6.000  0.00  0.00    -0.070 Cl
ENDROOT
TORSDOF 0
ENDMDL
