MODEL 1
REMARK minimizedAffinity 10.1413517
REMARK minimizedRMSD -1
REMARK  0 active torsions:
REMARK  status: ('A' for Active; 'I' for Inactive)
ROOT
ATOM      1  C   UNL d   1       1.851  -1.233   2.103  0.00  0.00     0.020 A 
ATOM      2  C1  UNL d   1       2.249  -1.049   3.427  0.00  0.00     0.020 A 
ATOM      3  C2  UNL d   1       2.840   0.155   3.817  0.00  0.00     0.034 A 
ATOM      4  C3  UNL d   1       3.035   1.178   2.882  0.00  0.00     0.017 A 
ATOM      5  C4  UNL d   1       2.636   0.992   1.554  0.00  0.00     0.017 A 
ATOM      6  C5  UNL d   1       2.044  -0.215   1.169  0.00  0.00     0.034 A 
ATOM      7 Cl   UNL d   1       2.844   2.209   0.344  0.00  0.00    -0.070 Cl
ATOM      8 Cl1  UNL d   1       3.772   2.641   3.434  0.00  0.00    -0.070 Cl
ENDROOT
TORSDOF 0
ENDMDL
