MODEL 1
REMARK minimizedAffinity 2.74155736
REMARK minimizedRMSD -1
REMARK  0 active torsions:
REMARK  status: ('A' for Active; 'I' for Inactive)
ROOT
ATOM      1  C   UNL d   1      -1.867   0.506   2.323  0.00  0.00     0.023 A 
ATOM      2  C1  UNL d   1      -2.745   1.316   1.601  0.00  0.00     0.003 A 
ATOM      3  C2  UNL d   1      -2.247   2.334   0.785  0.00  0.00     0.048 A 
ATOM      4  C3  UNL d   1      -0.870   2.536   0.694  0.00  0.00     0.023 A 
ATOM      5  C4  UNL d   1       0.012   1.727   1.414  0.00  0.00     0.048 A 
ATOM      6  C5  UNL d   1      -0.491   0.712   2.229  0.00  0.00     0.003 A 
ATOM      7  I   UNL d   1      -0.126   4.050  -0.520  0.00  0.00    -0.146 I 
ENDROOT
TORSDOF 0
ENDMDL
