MODEL 1
REMARK minimizedAffinity 7.12538767
REMARK minimizedRMSD -1
REMARK  0 active torsions:
REMARK  status: ('A' for Active; 'I' for Inactive)
ROOT
ATOM      1  C   UNL d   1      -0.059   3.847   0.601  0.00  0.00     0.023 A 
ATOM      2  C1  UNL d   1      -0.362   2.590   1.124  0.00  0.00     0.003 A 
ATOM      3  C2  UNL d   1      -0.350   1.466   0.295  0.00  0.00     0.048 A 
ATOM      4  C3  UNL d   1      -0.033   1.607  -1.056  0.00  0.00     0.023 A 
ATOM      5  C4  UNL d   1       0.271   2.863  -1.583  0.00  0.00     0.048 A 
ATOM      6  C5  UNL d   1       0.257   3.983  -0.751  0.00  0.00     0.003 A 
ATOM      7  I   UNL d   1      -0.015  -0.064  -2.292  0.00  0.00    -0.146 I 
ENDROOT
TORSDOF 0
ENDMDL
