MODEL 1
REMARK minimizedAffinity 8.31027031
REMARK minimizedRMSD -1
REMARK  0 active torsions:
REMARK  status: ('A' for Active; 'I' for Inactive)
ROOT
ATOM      1  C   UNL d   1       1.005   3.129  -1.695  0.00  0.00     0.023 A 
ATOM      2  C1  UNL d   1       0.866   1.781  -1.364  0.00  0.00     0.003 A 
ATOM      3  C2  UNL d   1      -0.041   1.393  -0.376  0.00  0.00     0.048 A 
ATOM      4  C3  UNL d   1      -0.807   2.358   0.277  0.00  0.00     0.023 A 
ATOM      5  C4  UNL d   1      -0.673   3.708  -0.052  0.00  0.00     0.048 A 
ATOM      6  C5  UNL d   1       0.236   4.091  -1.040  0.00  0.00     0.003 A 
ATOM      7  I   UNL d   1      -2.158   1.782   1.747  0.00  0.00    -0.146 I 
ENDROOT
TORSDOF 0
ENDMDL
