MODEL 1
REMARK minimizedAffinity 5.86120796
REMARK minimizedRMSD -1
REMARK  0 active torsions:
REMARK  status: ('A' for Active; 'I' for Inactive)
ROOT
ATOM      1  C   UNL d   1       0.418   4.040   1.747  0.00  0.00     0.023 A 
ATOM      2  C1  UNL d   1      -0.624   4.142   0.825  0.00  0.00     0.003 A 
ATOM      3  C2  UNL d   1      -1.742   3.313   0.938  0.00  0.00     0.048 A 
ATOM      4  C3  UNL d   1      -1.811   2.384   1.976  0.00  0.00     0.023 A 
ATOM      5  C4  UNL d   1      -0.771   2.279   2.901  0.00  0.00     0.048 A 
ATOM      6  C5  UNL d   1       0.345   3.110   2.783  0.00  0.00     0.003 A 
ATOM      7  I   UNL d   1      -3.473   1.148   2.146  0.00  0.00    -0.146 I 
ENDROOT
TORSDOF 0
ENDMDL
