MODEL 1
REMARK minimizedAffinity 2.33477736
REMARK minimizedRMSD -1
REMARK  0 active torsions:
REMARK  status: ('A' for Active; 'I' for Inactive)
ROOT
ATOM      1  C   UNL d   1      -2.366   1.437   2.697  0.00  0.00     0.023 A 
ATOM      2  C1  UNL d   1      -1.024   1.106   2.504  0.00  0.00     0.003 A 
ATOM      3  C2  UNL d   1      -0.307   1.679   1.452  0.00  0.00     0.048 A 
ATOM      4  C3  UNL d   1      -0.937   2.583   0.597  0.00  0.00     0.023 A 
ATOM      5  C4  UNL d   1      -2.279   2.917   0.786  0.00  0.00     0.048 A 
ATOM      6  C5  UNL d   1      -2.992   2.341   1.839  0.00  0.00     0.003 A 
ATOM      7  I   UNL d   1       0.128   3.437  -0.970  0.00  0.00    -0.146 I 
ENDROOT
TORSDOF 0
ENDMDL
