MODEL 1
REMARK minimizedAffinity 6.25773191
REMARK minimizedRMSD -1
REMARK  0 active torsions:
REMARK  status: ('A' for Active; 'I' for Inactive)
ROOT
ATOM      1  C   UNL d   1      -1.465  -0.143   2.695  0.00  0.00     0.023 A 
ATOM      2  C1  UNL d   1      -0.165  -0.103   2.193  0.00  0.00     0.003 A 
ATOM      3  C2  UNL d   1       0.218   0.919   1.321  0.00  0.00     0.048 A 
ATOM      4  C3  UNL d   1      -0.705   1.898   0.956  0.00  0.00     0.023 A 
ATOM      5  C4  UNL d   1      -2.008   1.863   1.457  0.00  0.00     0.048 A 
ATOM      6  C5  UNL d   1      -2.386   0.839   2.327  0.00  0.00     0.003 A 
ATOM      7  I   UNL d   1      -0.138   3.420  -0.341  0.00  0.00    -0.146 I 
ENDROOT
TORSDOF 0
ENDMDL
