MODEL 1
REMARK minimizedAffinity 1.93417096
REMARK minimizedRMSD -1
REMARK  0 active torsions:
REMARK  status: ('A' for Active; 'I' for Inactive)
ROOT
ATOM      1  C   UNL d   1      -5.992  -3.466   5.122  0.00  0.00     0.023 A 
ATOM      2  C1  UNL d   1      -5.631  -3.907   3.849  0.00  0.00     0.003 A 
ATOM      3  C2  UNL d   1      -4.305  -3.806   3.424  0.00  0.00     0.048 A 
ATOM      4  C3  UNL d   1      -3.345  -3.263   4.277  0.00  0.00     0.023 A 
ATOM      5  C4  UNL d   1      -3.702  -2.820   5.552  0.00  0.00     0.048 A 
ATOM      6  C5  UNL d   1      -5.029  -2.923   5.972  0.00  0.00     0.003 A 
ATOM      7  I   UNL d   1      -1.371  -3.111   3.646  0.00  0.00    -0.146 I 
ENDROOT
TORSDOF 0
ENDMDL
