MODEL 1
REMARK minimizedAffinity 4.84638453
REMARK minimizedRMSD -1
REMARK  0 active torsions:
REMARK  status: ('A' for Active; 'I' for Inactive)
ROOT
ATOM      1  C   UNL d   1      -0.994   3.556   0.576  0.00  0.00     0.023 A 
ATOM      2  C1  UNL d   1      -1.377   2.326   1.111  0.00  0.00     0.003 A 
ATOM      3  C2  UNL d   1      -0.986   1.139   0.487  0.00  0.00     0.048 A 
ATOM      4  C3  UNL d   1      -0.212   1.190  -0.671  0.00  0.00     0.023 A 
ATOM      5  C4  UNL d   1       0.175   2.418  -1.210  0.00  0.00     0.048 A 
ATOM      6  C5  UNL d   1      -0.219   3.602  -0.583  0.00  0.00     0.003 A 
ATOM      7  I   UNL d   1       0.371  -0.575  -1.601  0.00  0.00    -0.146 I 
ENDROOT
TORSDOF 0
ENDMDL
