MODEL 1
REMARK minimizedAffinity 8.49631119
REMARK minimizedRMSD -1
REMARK  0 active torsions:
REMARK  status: ('A' for Active; 'I' for Inactive)
ROOT
ATOM      1  C   UNL d   1      -1.396  -1.397  -2.796  0.00  0.00     0.023 A 
ATOM      2  C1  UNL d   1      -0.072  -1.129  -2.448  0.00  0.00     0.003 A 
ATOM      3  C2  UNL d   1       0.225  -0.058  -1.602  0.00  0.00     0.048 A 
ATOM      4  C3  UNL d   1      -0.806   0.740  -1.108  0.00  0.00     0.023 A 
ATOM      5  C4  UNL d   1      -2.132   0.475  -1.453  0.00  0.00     0.048 A 
ATOM      6  C5  UNL d   1      -2.425  -0.596  -2.299  0.00  0.00     0.003 A 
ATOM      7  I   UNL d   1      -0.365   2.335   0.150  0.00  0.00    -0.146 I 
ENDROOT
TORSDOF 0
ENDMDL
