MODEL 1
REMARK minimizedAffinity 5.99475193
REMARK minimizedRMSD -1
REMARK  0 active torsions:
REMARK  status: ('A' for Active; 'I' for Inactive)
ROOT
ATOM      1  C   UNL d   1      -0.965  -0.629  -3.651  0.00  0.00     0.023 A 
ATOM      2  C1  UNL d   1       0.263   0.028  -3.732  0.00  0.00     0.003 A 
ATOM      3  C2  UNL d   1       0.517   1.138  -2.923  0.00  0.00     0.048 A 
ATOM      4  C3  UNL d   1      -0.461   1.584  -2.034  0.00  0.00     0.023 A 
ATOM      5  C4  UNL d   1      -1.691   0.928  -1.949  0.00  0.00     0.048 A 
ATOM      6  C5  UNL d   1      -1.940  -0.180  -2.761  0.00  0.00     0.003 A 
ATOM      7  I   UNL d   1      -0.085   3.234  -0.829  0.00  0.00    -0.146 I 
ENDROOT
TORSDOF 0
ENDMDL
