MODEL 1
REMARK minimizedAffinity 4.34480476
REMARK minimizedRMSD -1
REMARK  0 active torsions:
REMARK  status: ('A' for Active; 'I' for Inactive)
ROOT
ATOM      1  C   UNL d   1      -0.356  -0.148  -2.249  0.00  0.00     0.023 A 
ATOM      2  C1  UNL d   1       0.248   1.033  -1.819  0.00  0.00     0.003 A 
ATOM      3  C2  UNL d   1      -0.261   2.268  -2.227  0.00  0.00     0.048 A 
ATOM      4  C3  UNL d   1      -1.375   2.314  -3.063  0.00  0.00     0.023 A 
ATOM      5  C4  UNL d   1      -1.984   1.135  -3.496  0.00  0.00     0.048 A 
ATOM      6  C5  UNL d   1      -1.471  -0.098  -3.086  0.00  0.00     0.003 A 
ATOM      7  I   UNL d   1      -2.135   4.151  -3.671  0.00  0.00    -0.146 I 
ENDROOT
TORSDOF 0
ENDMDL
