MODEL 1
REMARK minimizedAffinity 12.1030598
REMARK minimizedRMSD -1
REMARK  0 active torsions:
REMARK  status: ('A' for Active; 'I' for Inactive)
ROOT
ATOM      1  C   UNL d   1      -1.392  -1.161  -2.702  0.00  0.00     0.023 A 
ATOM      2  C1  UNL d   1      -0.162  -0.886  -2.105  0.00  0.00     0.003 A 
ATOM      3  C2  UNL d   1       0.252   0.436  -1.934  0.00  0.00     0.048 A 
ATOM      4  C3  UNL d   1      -0.570   1.479  -2.361  0.00  0.00     0.023 A 
ATOM      5  C4  UNL d   1      -1.802   1.208  -2.958  0.00  0.00     0.048 A 
ATOM      6  C5  UNL d   1      -2.211  -0.116  -3.128  0.00  0.00     0.003 A 
ATOM      7  I   UNL d   1       0.044   3.448  -2.107  0.00  0.00    -0.146 I 
ENDROOT
TORSDOF 0
ENDMDL
