MODEL 1
REMARK minimizedAffinity 6.78159237
REMARK minimizedRMSD -1
REMARK  0 active torsions:
REMARK  status: ('A' for Active; 'I' for Inactive)
ROOT
ATOM      1  C   UNL d   1       0.012   3.876  -1.485  0.00  0.00     0.023 A 
ATOM      2  C1  UNL d   1      -0.499   4.522  -0.359  0.00  0.00     0.003 A 
ATOM      3  C2  UNL d   1      -0.922   3.776   0.743  0.00  0.00     0.048 A 
ATOM      4  C3  UNL d   1      -0.830   2.385   0.713  0.00  0.00     0.023 A 
ATOM      5  C4  UNL d   1      -0.319   1.735  -0.411  0.00  0.00     0.048 A 
ATOM      6  C5  UNL d   1       0.102   2.484  -1.511  0.00  0.00     0.003 A 
ATOM      7  I   UNL d   1      -1.459   1.273   2.353  0.00  0.00    -0.146 I 
ENDROOT
TORSDOF 0
ENDMDL
