MODEL 1
REMARK minimizedAffinity 7.59641409
REMARK minimizedRMSD -1
REMARK  0 active torsions:
REMARK  status: ('A' for Active; 'I' for Inactive)
ROOT
ATOM      1  C   UNL d   1      -0.348   0.556  -3.136  0.00  0.00     0.023 A 
ATOM      2  C1  UNL d   1      -1.517   0.119  -2.513  0.00  0.00     0.003 A 
ATOM      3  C2  UNL d   1      -1.804   0.516  -1.206  0.00  0.00     0.048 A 
ATOM      4  C3  UNL d   1      -0.918   1.352  -0.527  0.00  0.00     0.023 A 
ATOM      5  C4  UNL d   1       0.252   1.793  -1.146  0.00  0.00     0.048 A 
ATOM      6  C5  UNL d   1       0.536   1.392  -2.453  0.00  0.00     0.003 A 
ATOM      7  I   UNL d   1      -1.344   1.944   1.419  0.00  0.00    -0.146 I 
ENDROOT
TORSDOF 0
ENDMDL
