MODEL 1
REMARK minimizedAffinity 4.56280231
REMARK minimizedRMSD -1
REMARK  0 active torsions:
REMARK  status: ('A' for Active; 'I' for Inactive)
ROOT
ATOM      1  C   UNL d   1       0.008   4.490  -0.595  0.00  0.00     0.023 A 
ATOM      2  C1  UNL d   1       0.219   4.360  -1.968  0.00  0.00     0.003 A 
ATOM      3  C2  UNL d   1       0.217   3.095  -2.559  0.00  0.00     0.048 A 
ATOM      4  C3  UNL d   1       0.003   1.964  -1.772  0.00  0.00     0.023 A 
ATOM      5  C4  UNL d   1      -0.209   2.089  -0.398  0.00  0.00     0.048 A 
ATOM      6  C5  UNL d   1      -0.205   3.356   0.189  0.00  0.00     0.003 A 
ATOM      7  I   UNL d   1      -0.001   0.080  -2.649  0.00  0.00    -0.146 I 
ENDROOT
TORSDOF 0
ENDMDL
