MODEL 1
REMARK minimizedAffinity 8.44414234
REMARK minimizedRMSD -1
REMARK  0 active torsions:
REMARK  status: ('A' for Active; 'I' for Inactive)
ROOT
ATOM      1  C   UNL d   1      -1.067   2.412   3.652  0.00  0.00     0.023 A 
ATOM      2  C1  UNL d   1       0.229   2.216   4.130  0.00  0.00     0.003 A 
ATOM      3  C2  UNL d   1       1.095   1.345   3.466  0.00  0.00     0.048 A 
ATOM      4  C3  UNL d   1       0.659   0.673   2.325  0.00  0.00     0.023 A 
ATOM      5  C4  UNL d   1      -0.636   0.866   1.842  0.00  0.00     0.048 A 
ATOM      6  C5  UNL d   1      -1.499   1.737   2.510  0.00  0.00     0.003 A 
ATOM      7  I   UNL d   1       1.947  -0.624   1.335  0.00  0.00    -0.146 I 
ENDROOT
TORSDOF 0
ENDMDL
