MODEL 1
REMARK minimizedAffinity 6.16733932
REMARK minimizedRMSD -1
REMARK  0 active torsions:
REMARK  status: ('A' for Active; 'I' for Inactive)
ROOT
ATOM      1  C   UNL d   1       1.498  -5.262   0.040  0.00  0.00     0.023 A 
ATOM      2  C1  UNL d   1       2.675  -4.521  -0.075  0.00  0.00     0.003 A 
ATOM      3  C2  UNL d   1       3.385  -4.519  -1.277  0.00  0.00     0.048 A 
ATOM      4  C3  UNL d   1       2.912  -5.258  -2.361  0.00  0.00     0.023 A 
ATOM      5  C4  UNL d   1       1.735  -6.000  -2.251  0.00  0.00     0.048 A 
ATOM      6  C5  UNL d   1       1.029  -6.000  -1.046  0.00  0.00     0.003 A 
ATOM      7  I   UNL d   1       3.967  -5.255  -4.152  0.00  0.00    -0.146 I 
ENDROOT
TORSDOF 0
ENDMDL
