MODEL 1
REMARK minimizedAffinity 7.40776825
REMARK minimizedRMSD -1
REMARK  0 active torsions:
REMARK  status: ('A' for Active; 'I' for Inactive)
ROOT
ATOM      1  C   UNL d   1      -0.189   5.843  -0.423  0.00  0.00     0.023 A 
ATOM      2  C1  UNL d   1      -0.861   5.999   0.789  0.00  0.00     0.003 A 
ATOM      3  C2  UNL d   1      -0.898   4.949   1.708  0.00  0.00     0.048 A 
ATOM      4  C3  UNL d   1      -0.261   3.745   1.409  0.00  0.00     0.023 A 
ATOM      5  C4  UNL d   1       0.413   3.585   0.197  0.00  0.00     0.048 A 
ATOM      6  C5  UNL d   1       0.447   4.638  -0.719  0.00  0.00     0.003 A 
ATOM      7  I   UNL d   1      -0.315   2.180   2.775  0.00  0.00    -0.146 I 
ENDROOT
TORSDOF 0
ENDMDL
