MODEL 1
REMARK minimizedAffinity 15.8956747
REMARK minimizedRMSD -1
REMARK  0 active torsions:
REMARK  status: ('A' for Active; 'I' for Inactive)
ROOT
ATOM      1  C   UNL d   1       5.240  -2.056  -0.103  0.00  0.00     0.023 A 
ATOM      2  C1  UNL d   1       5.994  -1.669  -1.211  0.00  0.00     0.003 A 
ATOM      3  C2  UNL d   1       5.943  -2.417  -2.388  0.00  0.00     0.048 A 
ATOM      4  C3  UNL d   1       5.135  -3.552  -2.451  0.00  0.00     0.023 A 
ATOM      5  C4  UNL d   1       4.379  -3.944  -1.346  0.00  0.00     0.048 A 
ATOM      6  C5  UNL d   1       4.434  -3.192  -0.170  0.00  0.00     0.003 A 
ATOM      7  I   UNL d   1       5.057  -4.669  -4.203  0.00  0.00    -0.146 I 
ENDROOT
TORSDOF 0
ENDMDL
