MODEL 1
REMARK minimizedAffinity 7.41139793
REMARK minimizedRMSD -1
REMARK  0 active torsions:
REMARK  status: ('A' for Active; 'I' for Inactive)
ROOT
ATOM      1  C   UNL d   1      -0.217   1.406   3.695  0.00  0.00     0.023 A 
ATOM      2  C1  UNL d   1       1.068   1.655   3.213  0.00  0.00     0.003 A 
ATOM      3  C2  UNL d   1       1.248   2.436   2.070  0.00  0.00     0.048 A 
ATOM      4  C3  UNL d   1       0.138   2.967   1.414  0.00  0.00     0.023 A 
ATOM      5  C4  UNL d   1      -1.150   2.721   1.892  0.00  0.00     0.048 A 
ATOM      6  C5  UNL d   1      -1.325   1.939   3.035  0.00  0.00     0.003 A 
ATOM      7  I   UNL d   1       0.403   4.130  -0.288  0.00  0.00    -0.146 I 
ENDROOT
TORSDOF 0
ENDMDL
