MODEL 1
REMARK minimizedAffinity 7.72696304
REMARK minimizedRMSD -1
REMARK  0 active torsions:
REMARK  status: ('A' for Active; 'I' for Inactive)
ROOT
ATOM      1  C   UNL d   1      -0.536   5.558  -0.816  0.00  0.00     0.023 A 
ATOM      2  C1  UNL d   1      -0.093   4.263  -1.084  0.00  0.00     0.003 A 
ATOM      3  C2  UNL d   1       0.224   3.400  -0.032  0.00  0.00     0.048 A 
ATOM      4  C3  UNL d   1       0.094   3.839   1.285  0.00  0.00     0.023 A 
ATOM      5  C4  UNL d   1      -0.350   5.134   1.558  0.00  0.00     0.048 A 
ATOM      6  C5  UNL d   1      -0.664   5.993   0.503  0.00  0.00     0.003 A 
ATOM      7  I   UNL d   1       0.564   2.557   2.852  0.00  0.00    -0.146 I 
ENDROOT
TORSDOF 0
ENDMDL
