MODEL 1
REMARK minimizedAffinity 12.4610949
REMARK minimizedRMSD -1
REMARK  0 active torsions:
REMARK  status: ('A' for Active; 'I' for Inactive)
ROOT
ATOM      1  C   UNL d   1      -0.738   5.988  -1.064  0.00  0.00     0.023 A 
ATOM      2  C1  UNL d   1       0.007   4.923  -1.571  0.00  0.00     0.003 A 
ATOM      3  C2  UNL d   1       0.379   3.868  -0.735  0.00  0.00     0.048 A 
ATOM      4  C3  UNL d   1       0.002   3.884   0.608  0.00  0.00     0.023 A 
ATOM      5  C4  UNL d   1      -0.744   4.947   1.120  0.00  0.00     0.048 A 
ATOM      6  C5  UNL d   1      -1.113   6.000   0.280  0.00  0.00     0.003 A 
ATOM      7  I   UNL d   1       0.554   2.315   1.854  0.00  0.00    -0.146 I 
ENDROOT
TORSDOF 0
ENDMDL
