MODEL 1
REMARK minimizedAffinity 7.71372461
REMARK minimizedRMSD -1
REMARK  0 active torsions:
REMARK  status: ('A' for Active; 'I' for Inactive)
ROOT
ATOM      1  C   UNL d   1       4.408  -1.275   0.357  0.00  0.00     0.023 A 
ATOM      2  C1  UNL d   1       3.280  -1.393  -0.454  0.00  0.00     0.003 A 
ATOM      3  C2  UNL d   1       3.382  -1.992  -1.712  0.00  0.00     0.048 A 
ATOM      4  C3  UNL d   1       4.616  -2.471  -2.151  0.00  0.00     0.023 A 
ATOM      5  C4  UNL d   1       5.747  -2.356  -1.341  0.00  0.00     0.048 A 
ATOM      6  C5  UNL d   1       5.640  -1.756  -0.085  0.00  0.00     0.003 A 
ATOM      7  I   UNL d   1       4.771  -3.363  -4.022  0.00  0.00    -0.146 I 
ENDROOT
TORSDOF 0
ENDMDL
