MODEL 1
REMARK minimizedAffinity 4.14461231
REMARK minimizedRMSD -1
REMARK  0 active torsions:
REMARK  status: ('A' for Active; 'I' for Inactive)
ROOT
ATOM      1  C   UNL d   1      -0.766   3.609   0.774  0.00  0.00     0.023 A 
ATOM      2  C1  UNL d   1       0.505   3.163   0.409  0.00  0.00     0.003 A 
ATOM      3  C2  UNL d   1       1.146   2.182   1.168  0.00  0.00     0.048 A 
ATOM      4  C3  UNL d   1       0.512   1.650   2.290  0.00  0.00     0.023 A 
ATOM      5  C4  UNL d   1      -0.760   2.092   2.658  0.00  0.00     0.048 A 
ATOM      6  C5  UNL d   1      -1.397   3.074   1.897  0.00  0.00     0.003 A 
ATOM      7  I   UNL d   1       1.465   0.189   3.420  0.00  0.00    -0.146 I 
ENDROOT
TORSDOF 0
ENDMDL
