MODEL 1
REMARK minimizedAffinity 8.17901421
REMARK minimizedRMSD -1
REMARK  0 active torsions:
REMARK  status: ('A' for Active; 'I' for Inactive)
ROOT
ATOM      1  C   UNL d   1       0.049   1.300   3.784  0.00  0.00     0.023 A 
ATOM      2  C1  UNL d   1       1.216   1.901   3.311  0.00  0.00     0.003 A 
ATOM      3  C2  UNL d   1       1.164   2.761   2.212  0.00  0.00     0.048 A 
ATOM      4  C3  UNL d   1      -0.058   3.016   1.590  0.00  0.00     0.023 A 
ATOM      5  C4  UNL d   1      -1.228   2.417   2.060  0.00  0.00     0.048 A 
ATOM      6  C5  UNL d   1      -1.171   1.558   3.159  0.00  0.00     0.003 A 
ATOM      7  I   UNL d   1      -0.137   4.295  -0.046  0.00  0.00    -0.146 I 
ENDROOT
TORSDOF 0
ENDMDL
