MODEL 1
REMARK minimizedAffinity -4.21749401
REMARK minimizedRMSD -1
REMARK  0 active torsions:
REMARK  status: ('A' for Active; 'I' for Inactive)
ROOT
ATOM      1  C   UNL d   1       0.422   1.651  -0.007  0.00  0.00     0.077 C 
ATOM      2  C1  UNL d   1      -0.086   0.334   0.500  0.00  0.00    -0.074 A 
ATOM      3  C2  UNL d   1      -1.084   0.278   1.479  0.00  0.00    -0.005 A 
ATOM      4  C3  UNL d   1      -1.553  -0.954   1.934  0.00  0.00     0.006 A 
ATOM      5  C4  UNL d   1      -1.030  -2.140   1.417  0.00  0.00    -0.005 A 
ATOM      6  C5  UNL d   1      -0.033  -2.103   0.437  0.00  0.00    -0.074 A 
ATOM      7  C6  UNL d   1       0.533  -3.368  -0.137  0.00  0.00     0.077 C 
ATOM      8  C7  UNL d   1       0.428  -0.861  -0.021  0.00  0.00    -0.001 A 
ENDROOT
TORSDOF 0
ENDMDL
