MODEL 1
REMARK minimizedAffinity -4.43119144
REMARK minimizedRMSD -1
REMARK  0 active torsions:
REMARK  status: ('A' for Active; 'I' for Inactive)
ROOT
ATOM      1  C   UNL d   1      -2.872  -3.040   0.606  0.00  0.00     0.077 C 
ATOM      2  C1  UNL d   1      -1.469  -2.578   0.345  0.00  0.00    -0.074 A 
ATOM      3  C2  UNL d   1      -0.423  -3.497   0.213  0.00  0.00    -0.005 A 
ATOM      4  C3  UNL d   1       0.875  -3.053  -0.039  0.00  0.00     0.006 A 
ATOM      5  C4  UNL d   1       1.139  -1.688  -0.161  0.00  0.00    -0.005 A 
ATOM      6  C5  UNL d   1       0.106  -0.755  -0.032  0.00  0.00    -0.074 A 
ATOM      7  C6  UNL d   1       0.371   0.715  -0.170  0.00  0.00     0.077 C 
ATOM      8  C7  UNL d   1      -1.197  -1.209   0.214  0.00  0.00    -0.001 A 
ENDROOT
TORSDOF 0
ENDMDL
