MODEL 1
REMARK minimizedAffinity -4.53723288
REMARK minimizedRMSD -1
REMARK  0 active torsions:
REMARK  status: ('A' for Active; 'I' for Inactive)
ROOT
ATOM      1  C   UNL d   1       0.191   1.248  -0.779  0.00  0.00     0.077 C 
ATOM      2  C1  UNL d   1      -0.195   0.002  -0.039  0.00  0.00    -0.074 A 
ATOM      3  C2  UNL d   1      -1.174   0.032   0.959  0.00  0.00    -0.005 A 
ATOM      4  C3  UNL d   1      -1.529  -1.137   1.632  0.00  0.00     0.006 A 
ATOM      5  C4  UNL d   1      -0.910  -2.346   1.315  0.00  0.00    -0.005 A 
ATOM      6  C5  UNL d   1       0.071  -2.396   0.319  0.00  0.00    -0.074 A 
ATOM      7  C6  UNL d   1       0.739  -3.690  -0.042  0.00  0.00     0.077 C 
ATOM      8  C7  UNL d   1       0.417  -1.219  -0.358  0.00  0.00    -0.001 A 
ENDROOT
TORSDOF 0
ENDMDL
