MODEL 1
REMARK minimizedAffinity 0.869877458
REMARK minimizedRMSD -1
REMARK  0 active torsions:
REMARK  status: ('A' for Active; 'I' for Inactive)
ROOT
ATOM      1  C   UNL d   1       0.783   0.690  -1.279  0.00  0.00     0.077 C 
ATOM      2  C1  UNL d   1      -0.011  -0.308  -0.490  0.00  0.00    -0.074 A 
ATOM      3  C2  UNL d   1       0.030  -1.670  -0.804  0.00  0.00    -0.005 A 
ATOM      4  C3  UNL d   1      -0.707  -2.587  -0.055  0.00  0.00     0.006 A 
ATOM      5  C4  UNL d   1      -1.492  -2.153   1.014  0.00  0.00    -0.005 A 
ATOM      6  C5  UNL d   1      -1.545  -0.795   1.343  0.00  0.00    -0.074 A 
ATOM      7  C6  UNL d   1      -2.375  -0.312   2.495  0.00  0.00     0.077 C 
ATOM      8  C7  UNL d   1      -0.796   0.120   0.591  0.00  0.00    -0.001 A 
ENDROOT
TORSDOF 0
ENDMDL
