MODEL 1
REMARK minimizedAffinity -5.67867136
REMARK minimizedRMSD -1
REMARK  0 active torsions:
REMARK  status: ('A' for Active; 'I' for Inactive)
ROOT
ATOM      1  C   UNL d   1      -2.306   0.087   2.496  0.00  0.00     0.077 C 
ATOM      2  C1  UNL d   1      -1.339  -0.379   1.448  0.00  0.00    -0.074 A 
ATOM      3  C2  UNL d   1      -0.825   0.510   0.499  0.00  0.00    -0.005 A 
ATOM      4  C3  UNL d   1       0.081   0.065  -0.464  0.00  0.00     0.006 A 
ATOM      5  C4  UNL d   1       0.480  -1.272  -0.487  0.00  0.00    -0.005 A 
ATOM      6  C5  UNL d   1      -0.024  -2.176   0.454  0.00  0.00    -0.074 A 
ATOM      7  C6  UNL d   1       0.402  -3.614   0.449  0.00  0.00     0.077 C 
ATOM      8  C7  UNL d   1      -0.928  -1.719   1.423  0.00  0.00    -0.001 A 
ENDROOT
TORSDOF 0
ENDMDL
