MODEL 1
REMARK minimizedAffinity -4.26466131
REMARK minimizedRMSD -1
REMARK  0 active torsions:
REMARK  status: ('A' for Active; 'I' for Inactive)
ROOT
ATOM      1  C   UNL d   1       0.548   0.422  -3.033  0.00  0.00     0.077 C 
ATOM      2  C1  UNL d   1       0.243   0.035  -1.616  0.00  0.00    -0.074 A 
ATOM      3  C2  UNL d   1      -0.200   0.986  -0.692  0.00  0.00    -0.005 A 
ATOM      4  C3  UNL d   1      -0.489   0.610   0.620  0.00  0.00     0.006 A 
ATOM      5  C4  UNL d   1      -0.338  -0.719   1.020  0.00  0.00    -0.005 A 
ATOM      6  C5  UNL d   1       0.104  -1.683   0.109  0.00  0.00    -0.074 A 
ATOM      7  C6  UNL d   1       0.263  -3.117   0.519  0.00  0.00     0.077 C 
ATOM      8  C7  UNL d   1       0.386  -1.299  -1.209  0.00  0.00    -0.001 A 
ENDROOT
TORSDOF 0
ENDMDL
