MODEL 1
REMARK minimizedAffinity -5.60440063
REMARK minimizedRMSD -1
REMARK  0 active torsions:
REMARK  status: ('A' for Active; 'I' for Inactive)
ROOT
ATOM      1  C   UNL d   1       0.037   1.396  -0.349  0.00  0.00     0.077 C 
ATOM      2  C1  UNL d   1       0.108  -0.039  -0.779  0.00  0.00    -0.074 A 
ATOM      3  C2  UNL d   1       0.461  -0.380  -2.089  0.00  0.00    -0.005 A 
ATOM      4  C3  UNL d   1       0.533  -1.720  -2.471  0.00  0.00     0.006 A 
ATOM      5  C4  UNL d   1       0.253  -2.730  -1.550  0.00  0.00    -0.005 A 
ATOM      6  C5  UNL d   1      -0.101  -2.407  -0.236  0.00  0.00    -0.074 A 
ATOM      7  C6  UNL d   1      -0.395  -3.481   0.770  0.00  0.00     0.077 C 
ATOM      8  C7  UNL d   1      -0.164  -1.059   0.143  0.00  0.00    -0.001 A 
ENDROOT
TORSDOF 0
ENDMDL
