MODEL 1
REMARK minimizedAffinity -3.88947368
REMARK minimizedRMSD -1
REMARK  0 active torsions:
REMARK  status: ('A' for Active; 'I' for Inactive)
ROOT
ATOM      1  C   UNL d   1      -2.119  -2.287   2.757  0.00  0.00     0.077 C 
ATOM      2  C1  UNL d   1      -1.157  -1.992   1.645  0.00  0.00    -0.074 A 
ATOM      3  C2  UNL d   1      -0.628  -3.021   0.859  0.00  0.00    -0.005 A 
ATOM      4  C3  UNL d   1       0.257  -2.730  -0.178  0.00  0.00     0.006 A 
ATOM      5  C4  UNL d   1       0.623  -1.409  -0.440  0.00  0.00    -0.005 A 
ATOM      6  C5  UNL d   1       0.103  -0.366   0.334  0.00  0.00    -0.074 A 
ATOM      7  C6  UNL d   1       0.478   1.060   0.059  0.00  0.00     0.077 C 
ATOM      8  C7  UNL d   1      -0.792  -0.667   1.370  0.00  0.00    -0.001 A 
ENDROOT
TORSDOF 0
ENDMDL
