MODEL 1
REMARK minimizedAffinity -4.52644205
REMARK minimizedRMSD -1
REMARK  0 active torsions:
REMARK  status: ('A' for Active; 'I' for Inactive)
ROOT
ATOM      1  C   UNL d   1      -0.027   1.343  -0.058  0.00  0.00     0.077 C 
ATOM      2  C1  UNL d   1      -0.135  -0.152  -0.071  0.00  0.00    -0.074 A 
ATOM      3  C2  UNL d   1      -0.727  -0.840   0.993  0.00  0.00    -0.005 A 
ATOM      4  C3  UNL d   1      -0.829  -2.231   0.963  0.00  0.00     0.006 A 
ATOM      5  C4  UNL d   1      -0.341  -2.947  -0.131  0.00  0.00    -0.005 A 
ATOM      6  C5  UNL d   1       0.253  -2.277  -1.205  0.00  0.00    -0.074 A 
ATOM      7  C6  UNL d   1       0.774  -3.030  -2.393  0.00  0.00     0.077 C 
ATOM      8  C7  UNL d   1       0.346  -0.879  -1.170  0.00  0.00    -0.001 A 
ENDROOT
TORSDOF 0
ENDMDL
