MODEL 1
REMARK minimizedAffinity -3.32615256
REMARK minimizedRMSD -1
REMARK  0 active torsions:
REMARK  status: ('A' for Active; 'I' for Inactive)
ROOT
ATOM      1  C   UNL d   1       0.887  -1.793  -2.390  0.00  0.00     0.077 C 
ATOM      2  C1  UNL d   1       0.393  -1.199  -1.104  0.00  0.00    -0.074 A 
ATOM      3  C2  UNL d   1      -0.169  -2.006  -0.109  0.00  0.00    -0.005 A 
ATOM      4  C3  UNL d   1      -0.615  -1.441   1.085  0.00  0.00     0.006 A 
ATOM      5  C4  UNL d   1      -0.504  -0.066   1.297  0.00  0.00    -0.005 A 
ATOM      6  C5  UNL d   1       0.056   0.756   0.314  0.00  0.00    -0.074 A 
ATOM      7  C6  UNL d   1       0.191   2.234   0.529  0.00  0.00     0.077 C 
ATOM      8  C7  UNL d   1       0.508   0.180  -0.881  0.00  0.00    -0.001 A 
ENDROOT
TORSDOF 0
ENDMDL
