MODEL 1
REMARK minimizedAffinity -3.29328179
REMARK minimizedRMSD -1
REMARK  0 active torsions:
REMARK  status: ('A' for Active; 'I' for Inactive)
ROOT
ATOM      1  C   UNL d   1      -0.155  -4.197   0.057  0.00  0.00     0.077 C 
ATOM      2  C1  UNL d   1      -0.648  -2.840   0.463  0.00  0.00    -0.074 A 
ATOM      3  C2  UNL d   1      -1.620  -2.697   1.458  0.00  0.00    -0.005 A 
ATOM      4  C3  UNL d   1      -2.062  -1.428   1.832  0.00  0.00     0.006 A 
ATOM      5  C4  UNL d   1      -1.537  -0.291   1.216  0.00  0.00    -0.005 A 
ATOM      6  C5  UNL d   1      -0.563  -0.415   0.220  0.00  0.00    -0.074 A 
ATOM      7  C6  UNL d   1       0.019   0.797  -0.446  0.00  0.00     0.077 C 
ATOM      8  C7  UNL d   1      -0.120  -1.693  -0.146  0.00  0.00    -0.001 A 
ENDROOT
TORSDOF 0
ENDMDL
