MODEL 1
REMARK minimizedAffinity -3.32848692
REMARK minimizedRMSD -1
REMARK  0 active torsions:
REMARK  status: ('A' for Active; 'I' for Inactive)
ROOT
ATOM      1  C   UNL d   1       0.018   2.575   0.495  0.00  0.00     0.077 C 
ATOM      2  C1  UNL d   1       0.007   1.135   0.076  0.00  0.00    -0.074 A 
ATOM      3  C2  UNL d   1       0.503   0.745  -1.172  0.00  0.00    -0.005 A 
ATOM      4  C3  UNL d   1       0.495  -0.599  -1.544  0.00  0.00     0.006 A 
ATOM      5  C4  UNL d   1      -0.010  -1.566  -0.674  0.00  0.00    -0.005 A 
ATOM      6  C5  UNL d   1      -0.510  -1.196   0.579  0.00  0.00    -0.074 A 
ATOM      7  C6  UNL d   1      -1.046  -2.223   1.531  0.00  0.00     0.077 C 
ATOM      8  C7  UNL d   1      -0.491   0.156   0.948  0.00  0.00    -0.001 A 
ENDROOT
TORSDOF 0
ENDMDL
