MODEL 1
REMARK minimizedAffinity -3.31154633
REMARK minimizedRMSD -1
REMARK  0 active torsions:
REMARK  status: ('A' for Active; 'I' for Inactive)
ROOT
ATOM      1  C   UNL d   1       1.205   3.824   2.281  0.00  0.00     0.077 C 
ATOM      2  C1  UNL d   1       0.945   2.974   1.073  0.00  0.00    -0.074 A 
ATOM      3  C2  UNL d   1       1.495   3.303  -0.170  0.00  0.00    -0.005 A 
ATOM      4  C3  UNL d   1       1.252   2.498  -1.282  0.00  0.00     0.006 A 
ATOM      5  C4  UNL d   1       0.459   1.356  -1.163  0.00  0.00    -0.005 A 
ATOM      6  C5  UNL d   1      -0.098   1.010   0.072  0.00  0.00    -0.074 A 
ATOM      7  C6  UNL d   1      -0.945  -0.219   0.219  0.00  0.00     0.077 C 
ATOM      8  C7  UNL d   1       0.156   1.821   1.187  0.00  0.00    -0.001 A 
ENDROOT
TORSDOF 0
ENDMDL
