MODEL 1
REMARK minimizedAffinity -3.29063797
REMARK minimizedRMSD -1
REMARK  0 active torsions:
REMARK  status: ('A' for Active; 'I' for Inactive)
ROOT
ATOM      1  C   UNL d   1      -0.572  -2.510  -2.571  0.00  0.00     0.077 C 
ATOM      2  C1  UNL d   1      -0.553  -1.938  -1.184  0.00  0.00    -0.074 A 
ATOM      3  C2  UNL d   1      -1.037  -2.672  -0.097  0.00  0.00    -0.005 A 
ATOM      4  C3  UNL d   1      -1.004  -2.131   1.188  0.00  0.00     0.006 A 
ATOM      5  C4  UNL d   1      -0.488  -0.852   1.399  0.00  0.00    -0.005 A 
ATOM      6  C5  UNL d   1       0.002  -0.103   0.324  0.00  0.00    -0.074 A 
ATOM      7  C6  UNL d   1       0.569   1.269   0.534  0.00  0.00     0.077 C 
ATOM      8  C7  UNL d   1      -0.028  -0.657  -0.963  0.00  0.00    -0.001 A 
ENDROOT
TORSDOF 0
ENDMDL
