MODEL 1
REMARK minimizedAffinity -1.65235102
REMARK minimizedRMSD -1
REMARK  0 active torsions:
REMARK  status: ('A' for Active; 'I' for Inactive)
ROOT
ATOM      1  C   UNL d   1       2.809   3.250   1.413  0.00  0.00     0.077 C 
ATOM      2  C1  UNL d   1       1.765   2.557   0.588  0.00  0.00    -0.074 A 
ATOM      3  C2  UNL d   1       1.347   3.089  -0.636  0.00  0.00    -0.005 A 
ATOM      4  C3  UNL d   1       0.382   2.428  -1.396  0.00  0.00     0.006 A 
ATOM      5  C4  UNL d   1      -0.173   1.231  -0.941  0.00  0.00    -0.005 A 
ATOM      6  C5  UNL d   1       0.234   0.684   0.280  0.00  0.00    -0.074 A 
ATOM      7  C6  UNL d   1      -0.344  -0.607   0.779  0.00  0.00     0.077 C 
ATOM      8  C7  UNL d   1       1.209   1.350   1.035  0.00  0.00    -0.001 A 
ENDROOT
TORSDOF 0
ENDMDL
