MODEL 1
REMARK minimizedAffinity -5.25089884
REMARK minimizedRMSD -1
REMARK  0 active torsions:
REMARK  status: ('A' for Active; 'I' for Inactive)
ROOT
ATOM      1  C   UNL d   1       1.117   0.098  -2.175  0.00  0.00     0.077 C 
ATOM      2  C1  UNL d   1       0.419  -0.205  -0.882  0.00  0.00    -0.074 A 
ATOM      3  C2  UNL d   1      -0.132   0.819  -0.106  0.00  0.00    -0.005 A 
ATOM      4  C3  UNL d   1      -0.786   0.521   1.090  0.00  0.00     0.006 A 
ATOM      5  C4  UNL d   1      -0.895  -0.802   1.520  0.00  0.00    -0.005 A 
ATOM      6  C5  UNL d   1      -0.350  -1.839   0.757  0.00  0.00    -0.074 A 
ATOM      7  C6  UNL d   1      -0.467  -3.268   1.200  0.00  0.00     0.077 C 
ATOM      8  C7  UNL d   1       0.299  -1.532  -0.447  0.00  0.00    -0.001 A 
ENDROOT
TORSDOF 0
ENDMDL
