MODEL 1
REMARK minimizedAffinity -3.65136957
REMARK minimizedRMSD -1
REMARK  2 active torsions:
REMARK  status: ('A' for Active; 'I' for Inactive)
REMARK    1  A    between atoms: C1_2  and  C2_3 
REMARK    2  A    between atoms: C2_3  and  C3_4 
ROOT
ATOM      1  C3  UNL d   1      -4.901   3.950  -3.354  0.00  0.00    -0.075 A 
ATOM      2  C4  UNL d   1      -4.513   3.692  -4.677  0.00  0.00     0.002 A 
ATOM      3  C5  UNL d   1      -4.854   4.577  -5.701  0.00  0.00     0.002 A 
ATOM      4  C6  UNL d   1      -5.594   5.722  -5.417  0.00  0.00    -0.004 A 
ATOM      5  C7  UNL d   1      -6.000   5.980  -4.110  0.00  0.00     0.002 A 
ATOM      6  C8  UNL d   1      -5.656   5.099  -3.083  0.00  0.00     0.002 A 
ENDROOT
BRANCH   1   7
ATOM      7  C2  UNL d   1      -4.509   3.012  -2.238  0.00  0.00     0.056 C 
BRANCH   7   8
ATOM      8  C1  UNL d   1      -5.699   2.395  -1.496  0.00  0.00     0.007 C 
ATOM      9  C   UNL d   1      -5.285   1.514  -0.324  0.00  0.00     0.009 C 
ENDBRANCH   7   8
ENDBRANCH   1   7
TORSDOF 2
ENDMDL
