MODEL 1
REMARK minimizedAffinity -4.12313366
REMARK minimizedRMSD -1
REMARK  2 active torsions:
REMARK  status: ('A' for Active; 'I' for Inactive)
REMARK    1  A    between atoms: C1_2  and  C2_3 
REMARK    2  A    between atoms: C2_3  and  C3_4 
ROOT
ATOM      1  C3  UNL d   1      -4.805   2.834  -1.501  0.00  0.00    -0.075 A 
ATOM      2  C4  UNL d   1      -6.000   2.321  -0.976  0.00  0.00     0.002 A 
ATOM      3  C5  UNL d   1      -5.975   1.304  -0.021  0.00  0.00     0.002 A 
ATOM      4  C6  UNL d   1      -4.759   0.781   0.413  0.00  0.00    -0.004 A 
ATOM      5  C7  UNL d   1      -3.566   1.271  -0.114  0.00  0.00     0.002 A 
ATOM      6  C8  UNL d   1      -3.588   2.292  -1.067  0.00  0.00     0.002 A 
ENDROOT
BRANCH   1   7
ATOM      7  C2  UNL d   1      -4.823   3.955  -2.513  0.00  0.00     0.056 C 
BRANCH   7   8
ATOM      8  C1  UNL d   1      -5.690   3.669  -3.744  0.00  0.00     0.007 C 
ATOM      9  C   UNL d   1      -5.713   4.819  -4.742  0.00  0.00     0.009 C 
ENDBRANCH   7   8
ENDBRANCH   1   7
TORSDOF 2
ENDMDL
