MODEL 1
REMARK minimizedAffinity -1.6410501
REMARK minimizedRMSD -1
REMARK  2 active torsions:
REMARK  status: ('A' for Active; 'I' for Inactive)
REMARK    1  A    between atoms: C1_2  and  C2_3 
REMARK    2  A    between atoms: C2_3  and  C3_4 
ROOT
ATOM      1  C3  UNL d   1      -4.682   3.540  -3.610  0.00  0.00    -0.075 A 
ATOM      2  C4  UNL d   1      -5.707   4.495  -3.657  0.00  0.00     0.002 A 
ATOM      3  C5  UNL d   1      -5.999   5.163  -4.847  0.00  0.00     0.002 A 
ATOM      4  C6  UNL d   1      -5.265   4.893  -5.999  0.00  0.00    -0.004 A 
ATOM      5  C7  UNL d   1      -4.233   3.957  -5.960  0.00  0.00     0.002 A 
ATOM      6  C8  UNL d   1      -3.942   3.284  -4.772  0.00  0.00     0.002 A 
ENDROOT
BRANCH   1   7
ATOM      7  C2  UNL d   1      -4.380   2.792  -2.333  0.00  0.00     0.056 C 
BRANCH   7   8
ATOM      8  C1  UNL d   1      -5.626   2.297  -1.592  0.00  0.00     0.007 C 
ATOM      9  C   UNL d   1      -5.958   0.839  -1.881  0.00  0.00     0.009 C 
ENDBRANCH   7   8
ENDBRANCH   1   7
TORSDOF 2
ENDMDL
