MODEL 1
REMARK minimizedAffinity 3.39146733
REMARK minimizedRMSD -1
REMARK  2 active torsions:
REMARK  status: ('A' for Active; 'I' for Inactive)
REMARK    1  A    between atoms: C1_2  and  C2_3 
REMARK    2  A    between atoms: C2_3  and  C3_4 
ROOT
ATOM      1  C3  UNL d   1       0.470  -0.696  -0.999  0.00  0.00    -0.075 A 
ATOM      2  C4  UNL d   1       1.439  -1.648  -1.349  0.00  0.00     0.002 A 
ATOM      3  C5  UNL d   1       1.079  -2.978  -1.565  0.00  0.00     0.002 A 
ATOM      4  C6  UNL d   1      -0.249  -3.376  -1.424  0.00  0.00    -0.004 A 
ATOM      5  C7  UNL d   1      -1.217  -2.442  -1.061  0.00  0.00     0.002 A 
ATOM      6  C8  UNL d   1      -0.861  -1.109  -0.848  0.00  0.00     0.002 A 
ENDROOT
BRANCH   1   7
ATOM      7  C2  UNL d   1       0.848   0.751  -0.792  0.00  0.00     0.056 C 
BRANCH   7   8
ATOM      8  C1  UNL d   1      -0.226   1.581  -0.081  0.00  0.00     0.007 C 
ATOM      9  C   UNL d   1       0.171   3.039   0.112  0.00  0.00     0.009 C 
ENDBRANCH   7   8
ENDBRANCH   1   7
TORSDOF 2
ENDMDL
