MODEL 1
REMARK minimizedAffinity -1.19831419
REMARK minimizedRMSD -1
REMARK  2 active torsions:
REMARK  status: ('A' for Active; 'I' for Inactive)
REMARK    1  A    between atoms: C1_2  and  C2_3 
REMARK    2  A    between atoms: C2_3  and  C3_4 
ROOT
ATOM      1  C3  UNL d   1       0.146  -1.615  -1.927  0.00  0.00    -0.075 A 
ATOM      2  C4  UNL d   1       0.651  -2.348  -0.843  0.00  0.00     0.002 A 
ATOM      3  C5  UNL d   1       0.634  -3.743  -0.862  0.00  0.00     0.002 A 
ATOM      4  C6  UNL d   1       0.105  -4.422  -1.958  0.00  0.00    -0.004 A 
ATOM      5  C7  UNL d   1      -0.414  -3.704  -3.033  0.00  0.00     0.002 A 
ATOM      6  C8  UNL d   1      -0.395  -2.308  -3.019  0.00  0.00     0.002 A 
ENDROOT
BRANCH   1   7
ATOM      7  C2  UNL d   1       0.188  -0.106  -1.926  0.00  0.00     0.056 C 
BRANCH   7   8
ATOM      8  C1  UNL d   1       0.936   0.496  -0.732  0.00  0.00     0.007 C 
ATOM      9  C   UNL d   1       0.210   1.677  -0.101  0.00  0.00     0.009 C 
ENDBRANCH   7   8
ENDBRANCH   1   7
TORSDOF 2
ENDMDL
