MODEL 1
REMARK minimizedAffinity -3.39695978
REMARK minimizedRMSD -1
REMARK  2 active torsions:
REMARK  status: ('A' for Active; 'I' for Inactive)
REMARK    1  A    between atoms: C1_2  and  C2_3 
REMARK    2  A    between atoms: C2_3  and  C3_4 
ROOT
ATOM      1  C3  UNL d   1      -5.328   2.804  -4.262  0.00  0.00    -0.075 A 
ATOM      2  C4  UNL d   1      -4.054   2.822  -4.851  0.00  0.00     0.002 A 
ATOM      3  C5  UNL d   1      -3.450   1.636  -5.268  0.00  0.00     0.002 A 
ATOM      4  C6  UNL d   1      -4.104   0.418  -5.093  0.00  0.00    -0.004 A 
ATOM      5  C7  UNL d   1      -5.362   0.387  -4.495  0.00  0.00     0.002 A 
ATOM      6  C8  UNL d   1      -5.971   1.573  -4.081  0.00  0.00     0.002 A 
ENDROOT
BRANCH   1   7
ATOM      7  C2  UNL d   1      -6.000   4.087  -3.836  0.00  0.00     0.056 C 
BRANCH   7   8
ATOM      8  C1  UNL d   1      -5.425   5.343  -4.500  0.00  0.00     0.007 C 
ATOM      9  C   UNL d   1      -5.998   5.604  -5.886  0.00  0.00     0.009 C 
ENDBRANCH   7   8
ENDBRANCH   1   7
TORSDOF 2
ENDMDL
