MODEL 1
REMARK minimizedAffinity 4.24998474
REMARK minimizedRMSD -1
REMARK  1 active torsions:
REMARK  status: ('A' for Active; 'I' for Inactive)
REMARK    1  A    between atoms: C1_2  and  C2_3 
ROOT
ATOM      1  C2  UNL d   1       3.739   1.579  -1.201  0.00  0.00    -0.077 A 
ATOM      2  C3  UNL d   1       4.208   1.176   0.057  0.00  0.00     0.002 A 
ATOM      3  C4  UNL d   1       3.497   0.240   0.810  0.00  0.00     0.002 A 
ATOM      4  C5  UNL d   1       2.316  -0.305   0.311  0.00  0.00    -0.004 A 
ATOM      5  C6  UNL d   1       1.839   0.091  -0.938  0.00  0.00     0.002 A 
ATOM      6  C7  UNL d   1       2.548   1.028  -1.691  0.00  0.00     0.002 A 
ENDROOT
BRANCH   1   7
ATOM      7  C1  UNL d   1       4.530   2.552  -2.035  0.00  0.00     0.055 C 
ATOM      8  C   UNL d   1       5.677   3.159  -1.240  0.00  0.00     0.019 C 
ENDBRANCH   1   7
TORSDOF 1
ENDMDL
