MODEL 1
REMARK minimizedAffinity 11.5775948
REMARK minimizedRMSD -1
REMARK  1 active torsions:
REMARK  status: ('A' for Active; 'I' for Inactive)
REMARK    1  A    between atoms: C1_2  and  C2_3 
ROOT
ATOM      1  C2  UNL d   1       3.148   0.259  -0.031  0.00  0.00    -0.077 A 
ATOM      2  C3  UNL d   1       4.461   0.426   0.432  0.00  0.00     0.002 A 
ATOM      3  C4  UNL d   1       5.010  -0.479   1.342  0.00  0.00     0.002 A 
ATOM      4  C5  UNL d   1       4.255  -1.559   1.794  0.00  0.00    -0.004 A 
ATOM      5  C6  UNL d   1       2.947  -1.733   1.342  0.00  0.00     0.002 A 
ATOM      6  C7  UNL d   1       2.397  -0.828   0.432  0.00  0.00     0.002 A 
ENDROOT
BRANCH   1   7
ATOM      7  C1  UNL d   1       2.572   1.206  -1.051  0.00  0.00     0.055 C 
ATOM      8  C   UNL d   1       1.064   1.037  -1.173  0.00  0.00     0.019 C 
ENDBRANCH   1   7
TORSDOF 1
ENDMDL
