MODEL 1
REMARK minimizedAffinity 7.80757475
REMARK minimizedRMSD -1
REMARK  1 active torsions:
REMARK  status: ('A' for Active; 'I' for Inactive)
REMARK    1  A    between atoms: C1_2  and  C2_3 
ROOT
ATOM      1  C2  UNL d   1      -5.399   4.447   3.669  0.00  0.00    -0.077 A 
ATOM      2  C3  UNL d   1      -5.999   4.414   4.935  0.00  0.00     0.002 A 
ATOM      3  C4  UNL d   1      -5.472   5.167   5.986  0.00  0.00     0.002 A 
ATOM      4  C5  UNL d   1      -4.346   5.961   5.780  0.00  0.00    -0.004 A 
ATOM      5  C6  UNL d   1      -3.740   5.999   4.525  0.00  0.00     0.002 A 
ATOM      6  C7  UNL d   1      -4.265   5.246   3.473  0.00  0.00     0.002 A 
ENDROOT
BRANCH   1   7
ATOM      7  C1  UNL d   1      -5.995   3.674   2.521  0.00  0.00     0.055 C 
ATOM      8  C   UNL d   1      -4.914   3.137   1.595  0.00  0.00     0.019 C 
ENDBRANCH   1   7
TORSDOF 1
ENDMDL
