MODEL 1
REMARK minimizedAffinity 6.83770943
REMARK minimizedRMSD -1
REMARK  1 active torsions:
REMARK  status: ('A' for Active; 'I' for Inactive)
REMARK    1  A    between atoms: C1_2  and  C2_3 
ROOT
ATOM      1  C2  UNL d   1      -4.911   4.295   2.448  0.00  0.00    -0.077 A 
ATOM      2  C3  UNL d   1      -4.527   5.567   2.897  0.00  0.00     0.002 A 
ATOM      3  C4  UNL d   1      -4.878   6.000   4.177  0.00  0.00     0.002 A 
ATOM      4  C5  UNL d   1      -5.611   5.167   5.019  0.00  0.00    -0.004 A 
ATOM      5  C6  UNL d   1      -5.999   3.901   4.582  0.00  0.00     0.002 A 
ATOM      6  C7  UNL d   1      -5.650   3.467   3.302  0.00  0.00     0.002 A 
ENDROOT
BRANCH   1   7
ATOM      7  C1  UNL d   1      -4.491   3.807   1.086  0.00  0.00     0.055 C 
ATOM      8  C   UNL d   1      -4.146   2.325   1.111  0.00  0.00     0.019 C 
ENDBRANCH   1   7
TORSDOF 1
ENDMDL
