MODEL 1
REMARK minimizedAffinity -4.11202192
REMARK minimizedRMSD -1
REMARK  0 active torsions:
REMARK  status: ('A' for Active; 'I' for Inactive)
ROOT
ATOM      1  C   UNL d   1      -1.646  -0.598  -4.585  0.00  0.00     0.020 A 
ATOM      2  C1  UNL d   1      -1.047   0.406  -5.344  0.00  0.00     0.020 A 
ATOM      3  C2  UNL d   1       0.171   0.956  -4.938  0.00  0.00     0.034 A 
ATOM      4  C3  UNL d   1       0.794   0.501  -3.770  0.00  0.00     0.017 A 
ATOM      5  C4  UNL d   1       0.191  -0.507  -3.009  0.00  0.00     0.017 A 
ATOM      6  C5  UNL d   1      -1.028  -1.053  -3.419  0.00  0.00     0.034 A 
ATOM      7 Cl   UNL d   1       0.899  -1.119  -1.555  0.00  0.00    -0.070 Cl
ATOM      8 Cl1  UNL d   1       2.299   1.225  -3.328  0.00  0.00    -0.070 Cl
ENDROOT
TORSDOF 0
ENDMDL
