MODEL 1
REMARK minimizedAffinity -2.22561812
REMARK minimizedRMSD -1
REMARK  0 active torsions:
REMARK  status: ('A' for Active; 'I' for Inactive)
ROOT
ATOM      1  C   UNL d   1      -1.679   0.760   2.124  0.00  0.00     0.020 A 
ATOM      2  C1  UNL d   1      -2.202   0.334   0.904  0.00  0.00     0.020 A 
ATOM      3  C2  UNL d   1      -1.344  -0.079  -0.117  0.00  0.00     0.034 A 
ATOM      4  C3  UNL d   1       0.042  -0.068   0.080  0.00  0.00     0.017 A 
ATOM      5  C4  UNL d   1       0.566   0.360   1.306  0.00  0.00     0.017 A 
ATOM      6  C5  UNL d   1      -0.299   0.773   2.325  0.00  0.00     0.034 A 
ATOM      7 Cl   UNL d   1       2.264   0.402   1.624  0.00  0.00    -0.070 Cl
ATOM      8 Cl1  UNL d   1       1.044  -0.593  -1.225  0.00  0.00    -0.070 Cl
ENDROOT
TORSDOF 0
ENDMDL
