MODEL 1
REMARK minimizedAffinity -0.151715055
REMARK minimizedRMSD -1
REMARK  0 active torsions:
REMARK  status: ('A' for Active; 'I' for Inactive)
ROOT
ATOM      1  C   UNL d   1      -1.318   0.626   2.470  0.00  0.00     0.020 A 
ATOM      2  C1  UNL d   1      -0.371   0.334   3.451  0.00  0.00     0.020 A 
ATOM      3  C2  UNL d   1       0.883  -0.161   3.086  0.00  0.00     0.034 A 
ATOM      4  C3  UNL d   1       1.193  -0.366   1.737  0.00  0.00     0.017 A 
ATOM      5  C4  UNL d   1       0.242  -0.073   0.753  0.00  0.00     0.017 A 
ATOM      6  C5  UNL d   1      -1.012   0.423   1.124  0.00  0.00     0.034 A 
ATOM      7 Cl   UNL d   1       0.552  -0.299  -0.932  0.00  0.00    -0.070 Cl
ATOM      8 Cl1  UNL d   1       2.763  -0.980   1.358  0.00  0.00    -0.070 Cl
ENDROOT
TORSDOF 0
ENDMDL
