MODEL 1
REMARK minimizedAffinity -3.41574812
REMARK minimizedRMSD -1
REMARK  0 active torsions:
REMARK  status: ('A' for Active; 'I' for Inactive)
ROOT
ATOM      1  C   UNL d   1      -0.062   1.536   2.885  0.00  0.00     0.020 A 
ATOM      2  C1  UNL d   1      -0.791   2.109   1.843  0.00  0.00     0.020 A 
ATOM      3  C2  UNL d   1      -0.567   1.702   0.527  0.00  0.00     0.034 A 
ATOM      4  C3  UNL d   1       0.389   0.718   0.248  0.00  0.00     0.017 A 
ATOM      5  C4  UNL d   1       1.120   0.143   1.293  0.00  0.00     0.017 A 
ATOM      6  C5  UNL d   1       0.891   0.555   2.610  0.00  0.00     0.034 A 
ATOM      7 Cl   UNL d   1       2.316  -1.076   1.027  0.00  0.00    -0.070 Cl
ATOM      8 Cl1  UNL d   1       0.614   0.262  -1.404  0.00  0.00    -0.070 Cl
ENDROOT
TORSDOF 0
ENDMDL
