MODEL 1
REMARK minimizedAffinity -4.77202749
REMARK minimizedRMSD -1
REMARK  0 active torsions:
REMARK  status: ('A' for Active; 'I' for Inactive)
ROOT
ATOM      1  C   UNL d   1       1.310  -1.508   0.240  0.00  0.00     0.020 A 
ATOM      2  C1  UNL d   1       1.994  -0.944   1.316  0.00  0.00     0.020 A 
ATOM      3  C2  UNL d   1       1.368   0.013   2.117  0.00  0.00     0.034 A 
ATOM      4  C3  UNL d   1       0.054   0.409   1.844  0.00  0.00     0.017 A 
ATOM      5  C4  UNL d   1      -0.633  -0.158   0.764  0.00  0.00     0.017 A 
ATOM      6  C5  UNL d   1      -0.001  -1.116  -0.035  0.00  0.00     0.034 A 
ATOM      7 Cl   UNL d   1      -2.257   0.279   0.365  0.00  0.00    -0.070 Cl
ATOM      8 Cl1  UNL d   1      -0.659   1.597   2.877  0.00  0.00    -0.070 Cl
ENDROOT
TORSDOF 0
ENDMDL
