MODEL 1
REMARK minimizedAffinity 2.60338283
REMARK minimizedRMSD -1
REMARK  0 active torsions:
REMARK  status: ('A' for Active; 'I' for Inactive)
ROOT
ATOM      1  C   UNL d   1      -0.497   0.929   3.848  0.00  0.00     0.020 A 
ATOM      2  C1  UNL d   1       0.383  -0.075   4.253  0.00  0.00     0.020 A 
ATOM      3  C2  UNL d   1       1.100  -0.800   3.299  0.00  0.00     0.034 A 
ATOM      4  C3  UNL d   1       0.939  -0.524   1.937  0.00  0.00     0.017 A 
ATOM      5  C4  UNL d   1       0.056   0.484   1.532  0.00  0.00     0.017 A 
ATOM      6  C5  UNL d   1      -0.660   1.207   2.491  0.00  0.00     0.034 A 
ATOM      7 Cl   UNL d   1      -0.196   0.883  -0.131  0.00  0.00    -0.070 Cl
ATOM      8 Cl1  UNL d   1       1.858  -1.460   0.813  0.00  0.00    -0.070 Cl
ENDROOT
TORSDOF 0
ENDMDL
