MODEL 1
REMARK minimizedAffinity -2.32229376
REMARK minimizedRMSD -1
REMARK  0 active torsions:
REMARK  status: ('A' for Active; 'I' for Inactive)
ROOT
ATOM      1  C   UNL d   1       0.975   1.316   0.982  0.00  0.00     0.020 A 
ATOM      2  C1  UNL d   1       0.330   1.864   2.091  0.00  0.00     0.020 A 
ATOM      3  C2  UNL d   1      -0.806   1.244   2.614  0.00  0.00     0.034 A 
ATOM      4  C3  UNL d   1      -1.301   0.072   2.030  0.00  0.00     0.017 A 
ATOM      5  C4  UNL d   1      -0.652  -0.477   0.918  0.00  0.00     0.017 A 
ATOM      6  C5  UNL d   1       0.485   0.148   0.397  0.00  0.00     0.034 A 
ATOM      7 Cl   UNL d   1      -1.204  -1.920   0.143  0.00  0.00    -0.070 Cl
ATOM      8 Cl1  UNL d   1      -2.710  -0.642   2.730  0.00  0.00    -0.070 Cl
ENDROOT
TORSDOF 0
ENDMDL
