MODEL 1
REMARK minimizedAffinity -3.33819127
REMARK minimizedRMSD -1
REMARK  0 active torsions:
REMARK  status: ('A' for Active; 'I' for Inactive)
ROOT
ATOM      1  C   UNL d   1       0.663   1.553   2.973  0.00  0.00     0.020 A 
ATOM      2  C1  UNL d   1       1.666   0.889   2.269  0.00  0.00     0.020 A 
ATOM      3  C2  UNL d   1       1.337   0.077   1.182  0.00  0.00     0.034 A 
ATOM      4  C3  UNL d   1       0.000  -0.073   0.795  0.00  0.00     0.017 A 
ATOM      5  C4  UNL d   1      -1.007   0.594   1.502  0.00  0.00     0.017 A 
ATOM      6  C5  UNL d   1      -0.671   1.405   2.590  0.00  0.00     0.034 A 
ATOM      7 Cl   UNL d   1      -2.679   0.457   1.085  0.00  0.00    -0.070 Cl
ATOM      8 Cl1  UNL d   1      -0.335  -1.093  -0.559  0.00  0.00    -0.070 Cl
ENDROOT
TORSDOF 0
ENDMDL
