MODEL 1
REMARK minimizedAffinity -2.7298646
REMARK minimizedRMSD -1
REMARK  0 active torsions:
REMARK  status: ('A' for Active; 'I' for Inactive)
ROOT
ATOM      1  C   UNL d   1       1.108   0.102   1.487  0.00  0.00     0.020 A 
ATOM      2  C1  UNL d   1      -0.059  -0.244   0.807  0.00  0.00     0.020 A 
ATOM      3  C2  UNL d   1      -1.261  -0.378   1.505  0.00  0.00     0.034 A 
ATOM      4  C3  UNL d   1      -1.299  -0.164   2.887  0.00  0.00     0.017 A 
ATOM      5  C4  UNL d   1      -0.128   0.184   3.570  0.00  0.00     0.017 A 
ATOM      6  C5  UNL d   1       1.073   0.316   2.866  0.00  0.00     0.034 A 
ATOM      7 Cl   UNL d   1      -0.097   0.464   5.275  0.00  0.00    -0.070 Cl
ATOM      8 Cl1  UNL d   1      -2.821  -0.346   3.686  0.00  0.00    -0.070 Cl
ENDROOT
TORSDOF 0
ENDMDL
