MODEL 1
REMARK minimizedAffinity -3.46205258
REMARK minimizedRMSD -1
REMARK  1 active torsions:
REMARK  status: ('A' for Active; 'I' for Inactive)
REMARK    1  A    between atoms: C3_4  and  O_7 
ROOT
ATOM      1  C   UNL d   1      -0.159  -0.243   0.176  0.00  0.00    -0.033 A 
ATOM      2  C1  UNL d   1       0.505   0.792  -0.485  0.00  0.00     0.039 A 
ATOM      3  C2  UNL d   1       1.768   0.572  -1.039  0.00  0.00    -0.080 A 
ATOM      4  C3  UNL d   1       2.353  -0.686  -0.927  0.00  0.00     0.150 A 
ATOM      5  C4  UNL d   1       1.695  -1.723  -0.273  0.00  0.00    -0.007 A 
ATOM      6  C5  UNL d   1       0.435  -1.501   0.281  0.00  0.00     0.039 A 
ENDROOT
BRANCH   4   7
ATOM      7  O   UNL d   1       3.585  -0.948  -1.448  0.00  0.00    -0.526 OA
ATOM      8  H5  UNL d   1       3.932  -0.131  -1.844  0.00  0.00     0.418 HD
ENDBRANCH   4   7
TORSDOF 1
ENDMDL
