MODEL 1
REMARK minimizedAffinity -3.74716926
REMARK minimizedRMSD -1
REMARK  1 active torsions:
REMARK  status: ('A' for Active; 'I' for Inactive)
REMARK    1  A    between atoms: C3_4  and  O_7 
ROOT
ATOM      1  C   UNL d   1      -0.811   0.523   0.005  0.00  0.00    -0.033 A 
ATOM      2  C1  UNL d   1      -0.905  -0.870   0.021  0.00  0.00     0.039 A 
ATOM      3  C2  UNL d   1       0.193  -1.650  -0.345  0.00  0.00    -0.080 A 
ATOM      4  C3  UNL d   1       1.379  -1.026  -0.724  0.00  0.00     0.150 A 
ATOM      5  C4  UNL d   1       1.481   0.361  -0.738  0.00  0.00    -0.007 A 
ATOM      6  C5  UNL d   1       0.383   1.139  -0.373  0.00  0.00     0.039 A 
ENDROOT
BRANCH   4   7
ATOM      7  O   UNL d   1       2.476  -1.746  -1.094  0.00  0.00    -0.526 OA
ATOM      8  H5  UNL d   1       2.249  -2.690  -1.063  0.00  0.00     0.418 HD
ENDBRANCH   4   7
TORSDOF 1
ENDMDL
