MODEL 1
REMARK minimizedAffinity -5.00045013
REMARK minimizedRMSD -1
REMARK  1 active torsions:
REMARK  status: ('A' for Active; 'I' for Inactive)
REMARK    1  A    between atoms: C3_4  and  O_7 
ROOT
ATOM      1  C   UNL d   1      -0.605  -0.438  -0.216  0.00  0.00    -0.033 A 
ATOM      2  C1  UNL d   1       0.079   0.741  -0.517  0.00  0.00     0.039 A 
ATOM      3  C2  UNL d   1       1.444   0.705  -0.808  0.00  0.00    -0.080 A 
ATOM      4  C3  UNL d   1       2.112  -0.516  -0.796  0.00  0.00     0.150 A 
ATOM      5  C4  UNL d   1       1.437  -1.696  -0.500  0.00  0.00    -0.007 A 
ATOM      6  C5  UNL d   1       0.075  -1.657  -0.209  0.00  0.00     0.039 A 
ENDROOT
BRANCH   4   7
ATOM      7  O   UNL d   1       3.445  -0.601  -1.069  0.00  0.00    -0.526 OA
ATOM      8  H5  UNL d   1       3.785   0.296  -1.226  0.00  0.00     0.418 HD
ENDBRANCH   4   7
TORSDOF 1
ENDMDL
