MODEL 1
REMARK minimizedAffinity -5.17399168
REMARK minimizedRMSD -1
REMARK  1 active torsions:
REMARK  status: ('A' for Active; 'I' for Inactive)
REMARK    1  A    between atoms: C3_4  and  O_7 
ROOT
ATOM      1  C   UNL d   1       2.453  -0.614  -1.197  0.00  0.00    -0.033 A 
ATOM      2  C1  UNL d   1       1.784  -1.653  -0.547  0.00  0.00     0.039 A 
ATOM      3  C2  UNL d   1       0.652  -1.382   0.224  0.00  0.00    -0.080 A 
ATOM      4  C3  UNL d   1       0.199  -0.070   0.336  0.00  0.00     0.150 A 
ATOM      5  C4  UNL d   1       0.859   0.969  -0.313  0.00  0.00    -0.007 A 
ATOM      6  C5  UNL d   1       1.989   0.697  -1.082  0.00  0.00     0.039 A 
ENDROOT
BRANCH   4   7
ATOM      7  O   UNL d   1      -0.898   0.244   1.081  0.00  0.00    -0.526 OA
ATOM      8  H5  UNL d   1      -1.233  -0.569   1.494  0.00  0.00     0.418 HD
ENDBRANCH   4   7
TORSDOF 1
ENDMDL
