MODEL 1
REMARK minimizedAffinity -5.13821745
REMARK minimizedRMSD -1
REMARK  1 active torsions:
REMARK  status: ('A' for Active; 'I' for Inactive)
REMARK    1  A    between atoms: C3_4  and  O_7 
ROOT
ATOM      1  C   UNL d   1       0.106   0.205  -0.149  0.00  0.00    -0.033 A 
ATOM      2  C1  UNL d   1       0.400  -1.155  -0.262  0.00  0.00     0.039 A 
ATOM      3  C2  UNL d   1       1.659  -1.565  -0.704  0.00  0.00    -0.080 A 
ATOM      4  C3  UNL d   1       2.615  -0.605  -1.029  0.00  0.00     0.150 A 
ATOM      5  C4  UNL d   1       2.330   0.751  -0.916  0.00  0.00    -0.007 A 
ATOM      6  C5  UNL d   1       1.071   1.158  -0.475  0.00  0.00     0.039 A 
ENDROOT
BRANCH   4   7
ATOM      7  O   UNL d   1       3.856  -0.957  -1.469  0.00  0.00    -0.526 OA
ATOM      8  H5  UNL d   1       3.900  -1.926  -1.525  0.00  0.00     0.418 HD
ENDBRANCH   4   7
TORSDOF 1
ENDMDL
