MODEL 1
REMARK minimizedAffinity -4.42363882
REMARK minimizedRMSD -1
REMARK  1 active torsions:
REMARK  status: ('A' for Active; 'I' for Inactive)
REMARK    1  A    between atoms: C3_4  and  O_7 
ROOT
ATOM      1  C   UNL d   1      -0.198  -0.208  -0.233  0.00  0.00    -0.033 A 
ATOM      2  C1  UNL d   1       0.699   0.808   0.101  0.00  0.00     0.039 A 
ATOM      3  C2  UNL d   1       2.068   0.630  -0.108  0.00  0.00    -0.080 A 
ATOM      4  C3  UNL d   1       2.526  -0.568  -0.651  0.00  0.00     0.150 A 
ATOM      5  C4  UNL d   1       1.637  -1.583  -0.989  0.00  0.00    -0.007 A 
ATOM      6  C5  UNL d   1       0.271  -1.403  -0.779  0.00  0.00     0.039 A 
ENDROOT
BRANCH   4   7
ATOM      7  O   UNL d   1       3.853  -0.790  -0.869  0.00  0.00    -0.526 OA
ATOM      8  H5  UNL d   1       4.350  -0.013  -0.561  0.00  0.00     0.418 HD
ENDBRANCH   4   7
TORSDOF 1
ENDMDL
