MODEL 1
REMARK minimizedAffinity -5.47658682
REMARK minimizedRMSD -1
REMARK  1 active torsions:
REMARK  status: ('A' for Active; 'I' for Inactive)
REMARK    1  A    between atoms: C3_4  and  O_7 
ROOT
ATOM      1  C   UNL d   1       3.517   0.687  -2.766  0.00  0.00    -0.033 A 
ATOM      2  C1  UNL d   1       2.407   1.444  -3.147  0.00  0.00     0.039 A 
ATOM      3  C2  UNL d   1       1.217   1.354  -2.422  0.00  0.00    -0.080 A 
ATOM      4  C3  UNL d   1       1.150   0.505  -1.321  0.00  0.00     0.150 A 
ATOM      5  C4  UNL d   1       2.253  -0.249  -0.934  0.00  0.00    -0.007 A 
ATOM      6  C5  UNL d   1       3.440  -0.159  -1.659  0.00  0.00     0.039 A 
ENDROOT
BRANCH   4   7
ATOM      7  O   UNL d   1       0.009   0.380  -0.586  0.00  0.00    -0.526 OA
ATOM      8  H5  UNL d   1      -0.678   0.938  -0.987  0.00  0.00     0.418 HD
ENDBRANCH   4   7
TORSDOF 1
ENDMDL
