MODEL 1
REMARK minimizedAffinity -5.54371262
REMARK minimizedRMSD -1
REMARK  1 active torsions:
REMARK  status: ('A' for Active; 'I' for Inactive)
REMARK    1  A    between atoms: C3_4  and  O_7 
ROOT
ATOM      1  C   UNL d   1      -0.619  -0.034  -0.511  0.00  0.00    -0.033 A 
ATOM      2  C1  UNL d   1      -0.032  -1.301  -0.508  0.00  0.00     0.039 A 
ATOM      3  C2  UNL d   1       1.325  -1.444  -0.807  0.00  0.00    -0.080 A 
ATOM      4  C3  UNL d   1       2.082  -0.315  -1.106  0.00  0.00     0.150 A 
ATOM      5  C4  UNL d   1       1.504   0.951  -1.107  0.00  0.00    -0.007 A 
ATOM      6  C5  UNL d   1       0.149   1.092  -0.809  0.00  0.00     0.039 A 
ENDROOT
BRANCH   4   7
ATOM      7  O   UNL d   1       3.408  -0.405  -1.409  0.00  0.00    -0.526 OA
ATOM      8  H5  UNL d   1       3.663  -1.343  -1.397  0.00  0.00     0.418 HD
ENDBRANCH   4   7
TORSDOF 1
ENDMDL
