MODEL 1
REMARK minimizedAffinity -4.76046276
REMARK minimizedRMSD -1
REMARK  1 active torsions:
REMARK  status: ('A' for Active; 'I' for Inactive)
REMARK    1  A    between atoms: C3_4  and  O_7 
ROOT
ATOM      1  C   UNL d   1       2.560  -0.928  -1.386  0.00  0.00    -0.033 A 
ATOM      2  C1  UNL d   1       1.386  -1.683  -1.415  0.00  0.00     0.039 A 
ATOM      3  C2  UNL d   1       0.229  -1.201  -0.799  0.00  0.00    -0.080 A 
ATOM      4  C3  UNL d   1       0.259   0.035  -0.159  0.00  0.00     0.150 A 
ATOM      5  C4  UNL d   1       1.425   0.793  -0.130  0.00  0.00    -0.007 A 
ATOM      6  C5  UNL d   1       2.579   0.310  -0.745  0.00  0.00     0.039 A 
ENDROOT
BRANCH   4   7
ATOM      7  O   UNL d   1      -0.843   0.544   0.460  0.00  0.00    -0.526 OA
ATOM      8  H5  UNL d   1      -1.565  -0.102   0.383  0.00  0.00     0.418 HD
ENDBRANCH   4   7
TORSDOF 1
ENDMDL
