MODEL 1
REMARK minimizedAffinity -3.05548739
REMARK minimizedRMSD -1
REMARK  1 active torsions:
REMARK  status: ('A' for Active; 'I' for Inactive)
REMARK    1  A    between atoms: C3_4  and  O_7 
ROOT
ATOM      1  C   UNL d   1      -1.721  -0.401   0.871  0.00  0.00    -0.033 A 
ATOM      2  C1  UNL d   1      -1.066   0.783   0.525  0.00  0.00     0.039 A 
ATOM      3  C2  UNL d   1       0.192   0.736  -0.079  0.00  0.00    -0.080 A 
ATOM      4  C3  UNL d   1       0.783  -0.499  -0.333  0.00  0.00     0.150 A 
ATOM      5  C4  UNL d   1       0.134  -1.682   0.005  0.00  0.00    -0.007 A 
ATOM      6  C5  UNL d   1      -1.121  -1.634   0.609  0.00  0.00     0.039 A 
ENDROOT
BRANCH   4   7
ATOM      7  O   UNL d   1       2.011  -0.595  -0.917  0.00  0.00    -0.526 OA
ATOM      8  H5  UNL d   1       2.351   0.303  -1.068  0.00  0.00     0.418 HD
ENDBRANCH   4   7
TORSDOF 1
ENDMDL
