MODEL 1
REMARK minimizedAffinity -4.96109247
REMARK minimizedRMSD -1
REMARK  1 active torsions:
REMARK  status: ('A' for Active; 'I' for Inactive)
REMARK    1  A    between atoms: C3_4  and  O_7 
ROOT
ATOM      1  C   UNL d   1       2.896  -0.757  -1.361  0.00  0.00    -0.033 A 
ATOM      2  C1  UNL d   1       1.950  -1.751  -1.100  0.00  0.00     0.039 A 
ATOM      3  C2  UNL d   1       0.717  -1.413  -0.539  0.00  0.00    -0.080 A 
ATOM      4  C3  UNL d   1       0.442  -0.081  -0.244  0.00  0.00     0.150 A 
ATOM      5  C4  UNL d   1       1.378   0.915  -0.505  0.00  0.00    -0.007 A 
ATOM      6  C5  UNL d   1       2.609   0.576  -1.065  0.00  0.00     0.039 A 
ENDROOT
BRANCH   4   7
ATOM      7  O   UNL d   1      -0.746   0.296   0.309  0.00  0.00    -0.526 OA
ATOM      8  H5  UNL d   1      -1.282  -0.501   0.460  0.00  0.00     0.418 HD
ENDBRANCH   4   7
TORSDOF 1
ENDMDL
