MODEL 1
REMARK minimizedAffinity 1.67497182
REMARK minimizedRMSD -1
REMARK  0 active torsions:
REMARK  status: ('A' for Active; 'I' for Inactive)
ROOT
ATOM      1  N1  IND d   1       0.466  -0.998   4.609  0.00  0.00    -0.196 N 
ATOM      2  C2  IND d   1       1.073  -2.034   5.263  0.00  0.00     0.054 A 
ATOM      3  C3  IND d   1       0.156  -2.774   5.926  0.00  0.00    -0.031 A 
ATOM      4  C4  IND d   1      -2.405  -2.527   5.995  0.00  0.00     0.051 A 
ATOM      5  C5  IND d   1      -3.420  -1.708   5.584  0.00  0.00    -0.031 A 
ATOM      6  C6  IND d   1      -3.187  -0.590   4.809  0.00  0.00     0.015 A 
ATOM      7  C7  IND d   1      -1.926  -0.254   4.405  0.00  0.00    -0.016 A 
ATOM      8  C8  IND d   1      -0.892  -1.079   4.827  0.00  0.00    -0.047 A 
ATOM      9  C9  IND d   1      -1.118  -2.191   5.648  0.00  0.00    -0.096 A 
ATOM     10  HN1 IND d   1       0.865  -0.397   4.141  0.00  0.00     0.298 HD
ENDROOT
TORSDOF 0
ENDMDL
