MODEL 1
REMARK minimizedAffinity 2.93846536
REMARK minimizedRMSD -1
REMARK  0 active torsions:
REMARK  status: ('A' for Active; 'I' for Inactive)
ROOT
ATOM      1  N1  IND d   1       0.693  -0.577   4.206  0.00  0.00    -0.196 N 
ATOM      2  C2  IND d   1       1.447  -1.501   4.875  0.00  0.00     0.054 A 
ATOM      3  C3  IND d   1       0.666  -2.248   5.686  0.00  0.00    -0.031 A 
ATOM      4  C4  IND d   1      -1.889  -2.197   5.997  0.00  0.00     0.051 A 
ATOM      5  C5  IND d   1      -3.006  -1.500   5.628  0.00  0.00    -0.031 A 
ATOM      6  C6  IND d   1      -2.945  -0.440   4.747  0.00  0.00     0.015 A 
ATOM      7  C7  IND d   1      -1.762  -0.043   4.190  0.00  0.00    -0.016 A 
ATOM      8  C8  IND d   1      -0.626  -0.744   4.568  0.00  0.00    -0.047 A 
ATOM      9  C9  IND d   1      -0.675  -1.793   5.495  0.00  0.00    -0.096 A 
ATOM     10  HN1 IND d   1       0.992   0.009   3.653  0.00  0.00     0.298 HD
ENDROOT
TORSDOF 0
ENDMDL
