MODEL 1
REMARK minimizedAffinity -0.105591476
REMARK minimizedRMSD -1
REMARK  0 active torsions:
REMARK  status: ('A' for Active; 'I' for Inactive)
ROOT
ATOM      1  N1  IND d   1      -1.020  -1.531   1.790  0.00  0.00    -0.196 N 
ATOM      2  C2  IND d   1      -1.230  -2.765   1.239  0.00  0.00     0.054 A 
ATOM      3  C3  IND d   1      -0.786  -2.791  -0.038  0.00  0.00    -0.031 A 
ATOM      4  C4  IND d   1       0.408  -0.956  -1.392  0.00  0.00     0.051 A 
ATOM      5  C5  IND d   1       0.790   0.355  -1.327  0.00  0.00    -0.031 A 
ATOM      6  C6  IND d   1       0.586   1.118  -0.196  0.00  0.00     0.015 A 
ATOM      7  C7  IND d   1       0.001   0.594   0.921  0.00  0.00    -0.016 A 
ATOM      8  C8  IND d   1      -0.395  -0.734   0.857  0.00  0.00    -0.047 A 
ATOM      9  C9  IND d   1      -0.229  -1.502  -0.303  0.00  0.00    -0.096 A 
ATOM     10  HN1 IND d   1      -1.242  -1.293   2.586  0.00  0.00     0.298 HD
ENDROOT
TORSDOF 0
ENDMDL
