MODEL 1
REMARK minimizedAffinity -3.30907083
REMARK minimizedRMSD -1
REMARK  0 active torsions:
REMARK  status: ('A' for Active; 'I' for Inactive)
ROOT
ATOM      1  N1  IND d   1       1.005   2.217  -0.951  0.00  0.00    -0.196 N 
ATOM      2  C2  IND d   1       1.425   3.012   0.079  0.00  0.00     0.054 A 
ATOM      3  C3  IND d   1       1.381   2.332   1.247  0.00  0.00    -0.031 A 
ATOM      4  C4  IND d   1       0.751  -0.126   1.685  0.00  0.00     0.051 A 
ATOM      5  C5  IND d   1       0.265  -1.241   1.061  0.00  0.00    -0.031 A 
ATOM      6  C6  IND d   1      -0.002  -1.261  -0.292  0.00  0.00     0.015 A 
ATOM      7  C7  IND d   1       0.219  -0.166  -1.079  0.00  0.00    -0.016 A 
ATOM      8  C8  IND d   1       0.706   0.970  -0.448  0.00  0.00    -0.047 A 
ATOM      9  C9  IND d   1       0.938   1.010   0.933  0.00  0.00    -0.096 A 
ATOM     10  HN1 IND d   1       0.939   2.456  -1.774  0.00  0.00     0.298 HD
ENDROOT
TORSDOF 0
ENDMDL
