MODEL 1
REMARK minimizedAffinity -2.62554765
REMARK minimizedRMSD -1
REMARK  0 active torsions:
REMARK  status: ('A' for Active; 'I' for Inactive)
ROOT
ATOM      1  N1  IND d   1       3.487   2.098   1.242  0.00  0.00    -0.196 N 
ATOM      2  C2  IND d   1       3.342   3.417   0.915  0.00  0.00     0.054 A 
ATOM      3  C3  IND d   1       2.186   3.610   0.242  0.00  0.00    -0.031 A 
ATOM      4  C4  IND d   1       0.332   1.922  -0.342  0.00  0.00     0.051 A 
ATOM      5  C5  IND d   1       0.030   0.590  -0.284  0.00  0.00    -0.031 A 
ATOM      6  C6  IND d   1       0.881  -0.325   0.301  0.00  0.00     0.015 A 
ATOM      7  C7  IND d   1       2.066   0.061   0.861  0.00  0.00    -0.016 A 
ATOM      8  C8  IND d   1       2.379   1.411   0.797  0.00  0.00    -0.047 A 
ATOM      9  C9  IND d   1       1.539   2.338   0.168  0.00  0.00    -0.096 A 
ATOM     10  HN1 IND d   1       4.158   1.754   1.657  0.00  0.00     0.298 HD
ENDROOT
TORSDOF 0
ENDMDL
