MODEL 1
REMARK minimizedAffinity -5.29044437
REMARK minimizedRMSD -1
REMARK  0 active torsions:
REMARK  status: ('A' for Active; 'I' for Inactive)
ROOT
ATOM      1  N1  IND d   1      -0.493   0.757  -0.040  0.00  0.00    -0.196 N 
ATOM      2  C2  IND d   1      -0.245  -0.438   0.575  0.00  0.00     0.054 A 
ATOM      3  C3  IND d   1       0.912  -0.378   1.272  0.00  0.00    -0.031 A 
ATOM      4  C4  IND d   1       2.508   1.611   1.623  0.00  0.00     0.051 A 
ATOM      5  C5  IND d   1       2.723   2.902   1.231  0.00  0.00    -0.031 A 
ATOM      6  C6  IND d   1       1.858   3.559   0.380  0.00  0.00     0.015 A 
ATOM      7  C7  IND d   1       0.734   2.949  -0.104  0.00  0.00    -0.016 A 
ATOM      8  C8  IND d   1       0.517   1.636   0.287  0.00  0.00    -0.047 A 
ATOM      9  C9  IND d   1       1.414   0.950   1.116  0.00  0.00    -0.096 A 
ATOM     10  HN1 IND d   1      -1.166   0.932  -0.546  0.00  0.00     0.298 HD
ENDROOT
TORSDOF 0
ENDMDL
