MODEL 1
REMARK minimizedAffinity -3.75598288
REMARK minimizedRMSD -1
REMARK  0 active torsions:
REMARK  status: ('A' for Active; 'I' for Inactive)
ROOT
ATOM      1  N1  IND d   1       0.418  -1.627  -2.466  0.00  0.00    -0.196 N 
ATOM      2  C2  IND d   1       0.262  -2.977  -2.611  0.00  0.00     0.054 A 
ATOM      3  C3  IND d   1      -0.151  -3.530  -1.449  0.00  0.00    -0.031 A 
ATOM      4  C4  IND d   1      -0.732  -2.394   0.787  0.00  0.00     0.051 A 
ATOM      5  C5  IND d   1      -0.711  -1.182   1.417  0.00  0.00    -0.031 A 
ATOM      6  C6  IND d   1      -0.307  -0.031   0.770  0.00  0.00     0.015 A 
ATOM      7  C7  IND d   1       0.082  -0.049  -0.539  0.00  0.00    -0.016 A 
ATOM      8  C8  IND d   1       0.069  -1.280  -1.180  0.00  0.00    -0.047 A 
ATOM      9  C9  IND d   1      -0.300  -2.458  -0.516  0.00  0.00    -0.096 A 
ATOM     10  HN1 IND d   1       0.689  -1.085  -3.076  0.00  0.00     0.298 HD
ENDROOT
TORSDOF 0
ENDMDL
