MODEL 1
REMARK minimizedAffinity -3.00335741
REMARK minimizedRMSD -1
REMARK  0 active torsions:
REMARK  status: ('A' for Active; 'I' for Inactive)
ROOT
ATOM      1  N1  IND d   1       0.579  -0.703  -0.730  0.00  0.00    -0.196 N 
ATOM      2  C2  IND d   1       1.022   0.565  -0.477  0.00  0.00     0.054 A 
ATOM      3  C3  IND d   1       0.312   1.119   0.531  0.00  0.00    -0.031 A 
ATOM      4  C4  IND d   1      -1.553   0.089   1.976  0.00  0.00     0.051 A 
ATOM      5  C5  IND d   1      -2.327  -1.031   2.099  0.00  0.00    -0.031 A 
ATOM      6  C6  IND d   1      -2.166  -2.123   1.270  0.00  0.00     0.015 A 
ATOM      7  C7  IND d   1      -1.214  -2.139   0.290  0.00  0.00    -0.016 A 
ATOM      8  C8  IND d   1      -0.431  -1.000   0.158  0.00  0.00    -0.047 A 
ATOM      9  C9  IND d   1      -0.619   0.127   0.969  0.00  0.00    -0.096 A 
ATOM     10  HN1 IND d   1       0.881  -1.227  -1.341  0.00  0.00     0.298 HD
ENDROOT
TORSDOF 0
ENDMDL
