MODEL 1
REMARK minimizedAffinity -3.90825272
REMARK minimizedRMSD -1
REMARK  0 active torsions:
REMARK  status: ('A' for Active; 'I' for Inactive)
ROOT
ATOM      1  N1  IND d   1      -0.421   0.296  -0.941  0.00  0.00    -0.196 N 
ATOM      2  C2  IND d   1       0.662   0.264  -1.774  0.00  0.00     0.054 A 
ATOM      3  C3  IND d   1       1.325  -0.906  -1.639  0.00  0.00    -0.031 A 
ATOM      4  C4  IND d   1       0.751  -2.953  -0.187  0.00  0.00     0.051 A 
ATOM      5  C5  IND d   1      -0.124  -3.382   0.772  0.00  0.00    -0.031 A 
ATOM      6  C6  IND d   1      -1.165  -2.593   1.215  0.00  0.00     0.015 A 
ATOM      7  C7  IND d   1      -1.378  -1.343   0.706  0.00  0.00    -0.016 A 
ATOM      8  C8  IND d   1      -0.488  -0.901  -0.262  0.00  0.00    -0.047 A 
ATOM      9  C9  IND d   1       0.596  -1.681  -0.685  0.00  0.00    -0.096 A 
ATOM     10  HN1 IND d   1      -0.969   0.953  -0.855  0.00  0.00     0.298 HD
ENDROOT
TORSDOF 0
ENDMDL
