MODEL 1
REMARK minimizedAffinity 1.23715031
REMARK minimizedRMSD -1
REMARK  0 active torsions:
REMARK  status: ('A' for Active; 'I' for Inactive)
ROOT
ATOM      1  N1  IND d   1      -2.641  -1.873   1.629  0.00  0.00    -0.196 N 
ATOM      2  C2  IND d   1      -2.332  -3.124   1.172  0.00  0.00     0.054 A 
ATOM      3  C3  IND d   1      -1.256  -3.074   0.356  0.00  0.00    -0.031 A 
ATOM      4  C4  IND d   1       0.218  -1.064  -0.288  0.00  0.00     0.051 A 
ATOM      5  C5  IND d   1       0.311   0.292  -0.148  0.00  0.00    -0.031 A 
ATOM      6  C6  IND d   1      -0.592   1.010   0.610  0.00  0.00     0.015 A 
ATOM      7  C7  IND d   1      -1.619   0.395   1.267  0.00  0.00    -0.016 A 
ATOM      8  C8  IND d   1      -1.721  -0.982   1.121  0.00  0.00    -0.047 A 
ATOM      9  C9  IND d   1      -0.833  -1.710   0.319  0.00  0.00    -0.096 A 
ATOM     10  HN1 IND d   1      -3.298  -1.676   2.146  0.00  0.00     0.298 HD
ENDROOT
TORSDOF 0
ENDMDL
