MODEL 1
REMARK minimizedAffinity -5.29249573
REMARK minimizedRMSD -1
REMARK  0 active torsions:
REMARK  status: ('A' for Active; 'I' for Inactive)
ROOT
ATOM      1  N1  IND d   1      -0.182   0.565  -1.053  0.00  0.00    -0.196 N 
ATOM      2  C2  IND d   1      -0.854   0.959   0.071  0.00  0.00     0.054 A 
ATOM      3  C3  IND d   1      -1.028  -0.090   0.907  0.00  0.00    -0.031 A 
ATOM      4  C4  IND d   1      -0.202  -2.518   0.678  0.00  0.00     0.051 A 
ATOM      5  C5  IND d   1       0.424  -3.365  -0.192  0.00  0.00    -0.031 A 
ATOM      6  C6  IND d   1       0.893  -2.936  -1.417  0.00  0.00     0.015 A 
ATOM      7  C7  IND d   1       0.762  -1.636  -1.815  0.00  0.00    -0.016 A 
ATOM      8  C8  IND d   1       0.119  -0.774  -0.937  0.00  0.00    -0.047 A 
ATOM      9  C9  IND d   1      -0.396  -1.213   0.290  0.00  0.00    -0.096 A 
ATOM     10  HN1 IND d   1       0.019   1.069  -1.720  0.00  0.00     0.298 HD
ENDROOT
TORSDOF 0
ENDMDL
