MODEL 1
REMARK minimizedAffinity -4.1359868
REMARK minimizedRMSD -1
REMARK  0 active torsions:
REMARK  status: ('A' for Active; 'I' for Inactive)
ROOT
ATOM      1  N1  IND d   1      -0.116  -0.203   0.494  0.00  0.00    -0.196 N 
ATOM      2  C2  IND d   1      -0.642  -0.646   1.676  0.00  0.00     0.054 A 
ATOM      3  C3  IND d   1      -1.171  -1.881   1.522  0.00  0.00    -0.031 A 
ATOM      4  C4  IND d   1      -1.192  -3.403  -0.554  0.00  0.00     0.051 A 
ATOM      5  C5  IND d   1      -0.864  -3.421  -1.881  0.00  0.00    -0.031 A 
ATOM      6  C6  IND d   1      -0.255  -2.346  -2.495  0.00  0.00     0.015 A 
ATOM      7  C7  IND d   1       0.060  -1.212  -1.800  0.00  0.00    -0.016 A 
ATOM      8  C8  IND d   1      -0.278  -1.188  -0.454  0.00  0.00    -0.047 A 
ATOM      9  C9  IND d   1      -0.934  -2.260   0.165  0.00  0.00    -0.096 A 
ATOM     10  HN1 IND d   1       0.253   0.563   0.365  0.00  0.00     0.298 HD
ENDROOT
TORSDOF 0
ENDMDL
