MODEL 1
REMARK minimizedAffinity -2.81611586
REMARK minimizedRMSD -1
REMARK  0 active torsions:
REMARK  status: ('A' for Active; 'I' for Inactive)
ROOT
ATOM      1  N1  IND d   1      -0.006  -0.938  -2.115  0.00  0.00    -0.196 N 
ATOM      2  C2  IND d   1      -0.270  -2.165  -2.657  0.00  0.00     0.054 A 
ATOM      3  C3  IND d   1      -0.756  -3.002  -1.713  0.00  0.00    -0.031 A 
ATOM      4  C4  IND d   1      -1.295  -2.540   0.761  0.00  0.00     0.051 A 
ATOM      5  C5  IND d   1      -1.189  -1.577   1.725  0.00  0.00    -0.031 A 
ATOM      6  C6  IND d   1      -0.675  -0.325   1.452  0.00  0.00     0.015 A 
ATOM      7  C7  IND d   1      -0.257   0.015   0.197  0.00  0.00    -0.016 A 
ATOM      8  C8  IND d   1      -0.357  -0.963  -0.783  0.00  0.00    -0.047 A 
ATOM      9  C9  IND d   1      -0.838  -2.249  -0.502  0.00  0.00    -0.096 A 
ATOM     10  HN1 IND d   1       0.324  -0.264  -2.535  0.00  0.00     0.298 HD
ENDROOT
TORSDOF 0
ENDMDL
