MODEL 1
REMARK minimizedAffinity -3.06637073
REMARK minimizedRMSD -1
REMARK  0 active torsions:
REMARK  status: ('A' for Active; 'I' for Inactive)
ROOT
ATOM      1  N1  IND d   1       1.210   2.821  -0.367  0.00  0.00    -0.196 N 
ATOM      2  C2  IND d   1       1.868   3.538   0.593  0.00  0.00     0.054 A 
ATOM      3  C3  IND d   1       1.798   2.902   1.784  0.00  0.00    -0.031 A 
ATOM      4  C4  IND d   1       0.743   0.627   2.365  0.00  0.00     0.051 A 
ATOM      5  C5  IND d   1      -0.005  -0.383   1.826  0.00  0.00    -0.031 A 
ATOM      6  C6  IND d   1      -0.392  -0.377   0.502  0.00  0.00     0.015 A 
ATOM      7  C7  IND d   1      -0.034   0.638  -0.340  0.00  0.00    -0.016 A 
ATOM      8  C8  IND d   1       0.720   1.668   0.205  0.00  0.00    -0.047 A 
ATOM      9  C9  IND d   1       1.079   1.688   1.558  0.00  0.00    -0.096 A 
ATOM     10  HN1 IND d   1       1.117   3.052  -1.190  0.00  0.00     0.298 HD
ENDROOT
TORSDOF 0
ENDMDL
