MODEL 1
REMARK minimizedAffinity -3.470011
REMARK minimizedRMSD -1
REMARK  0 active torsions:
REMARK  status: ('A' for Active; 'I' for Inactive)
ROOT
ATOM      1  N1  IND d   1       0.447   0.399  -0.602  0.00  0.00    -0.196 N 
ATOM      2  C2  IND d   1       0.311   0.909   0.659  0.00  0.00     0.054 A 
ATOM      3  C3  IND d   1      -0.260  -0.003   1.477  0.00  0.00    -0.031 A 
ATOM      4  C4  IND d   1      -0.960  -2.431   0.983  0.00  0.00     0.051 A 
ATOM      5  C5  IND d   1      -1.066  -3.335  -0.036  0.00  0.00    -0.031 A 
ATOM      6  C6  IND d   1      -0.662  -3.036  -1.321  0.00  0.00     0.015 A 
ATOM      7  C7  IND d   1      -0.125  -1.820  -1.634  0.00  0.00    -0.016 A 
ATOM      8  C8  IND d   1      -0.022  -0.897  -0.603  0.00  0.00    -0.047 A 
ATOM      9  C9  IND d   1      -0.469  -1.179   0.694  0.00  0.00    -0.096 A 
ATOM     10  HN1 IND d   1       0.771   0.816  -1.280  0.00  0.00     0.298 HD
ENDROOT
TORSDOF 0
ENDMDL
