MODEL 1
REMARK minimizedAffinity 10.4742126
REMARK minimizedRMSD -1
REMARK  1 active torsions:
REMARK  status: ('A' for Active; 'I' for Inactive)
REMARK    1  A    between atoms: C1_2  and  C2_3 
ROOT
ATOM      1  C2  UNL d   1      -0.496   2.496   0.850  0.00  0.00    -0.077 A 
ATOM      2  C3  UNL d   1      -0.503   1.763   2.045  0.00  0.00     0.002 A 
ATOM      3  C4  UNL d   1       0.551   1.881   2.953  0.00  0.00     0.002 A 
ATOM      4  C5  UNL d   1       1.618   2.733   2.677  0.00  0.00    -0.004 A 
ATOM      5  C6  UNL d   1       1.636   3.465   1.491  0.00  0.00     0.002 A 
ATOM      6  C7  UNL d   1       0.584   3.348   0.582  0.00  0.00     0.002 A 
ENDROOT
BRANCH   1   7
ATOM      7  C1  UNL d   1      -1.655   2.408  -0.107  0.00  0.00     0.055 C 
ATOM      8  C   UNL d   1      -2.817   3.278   0.350  0.00  0.00     0.019 C 
ENDBRANCH   1   7
TORSDOF 1
ENDMDL
