MODEL 1
REMARK minimizedAffinity 5.40312958
REMARK minimizedRMSD -1
REMARK  1 active torsions:
REMARK  status: ('A' for Active; 'I' for Inactive)
REMARK    1  A    between atoms: C1_2  and  C2_3 
ROOT
ATOM      1  C2  UNL d   1      -3.566  -3.358   5.233  0.00  0.00    -0.077 A 
ATOM      2  C3  UNL d   1      -4.647  -2.890   5.993  0.00  0.00     0.002 A 
ATOM      3  C4  UNL d   1      -5.859  -3.583   6.000  0.00  0.00     0.002 A 
ATOM      4  C5  UNL d   1      -6.000  -4.750   5.252  0.00  0.00    -0.004 A 
ATOM      5  C6  UNL d   1      -4.931  -5.223   4.491  0.00  0.00     0.002 A 
ATOM      6  C7  UNL d   1      -3.720  -4.531   4.482  0.00  0.00     0.002 A 
ENDROOT
BRANCH   1   7
ATOM      7  C1  UNL d   1      -2.243  -2.639   5.263  0.00  0.00     0.055 C 
ATOM      8  C   UNL d   1      -1.080  -3.621   5.292  0.00  0.00     0.019 C 
ENDBRANCH   1   7
TORSDOF 1
ENDMDL
