MODEL 1
REMARK minimizedAffinity 22.971302
REMARK minimizedRMSD -1
REMARK  1 active torsions:
REMARK  status: ('A' for Active; 'I' for Inactive)
REMARK    1  A    between atoms: C1_2  and  C2_3 
ROOT
ATOM      1  C2  UNL d   1       3.716  -5.156  -0.755  0.00  0.00    -0.077 A 
ATOM      2  C3  UNL d   1       4.862  -5.962  -0.785  0.00  0.00     0.002 A 
ATOM      3  C4  UNL d   1       5.999  -5.600  -0.061  0.00  0.00     0.002 A 
ATOM      4  C5  UNL d   1       6.000  -4.434   0.702  0.00  0.00    -0.004 A 
ATOM      5  C6  UNL d   1       4.865  -3.625   0.737  0.00  0.00     0.002 A 
ATOM      6  C7  UNL d   1       3.728  -3.984   0.012  0.00  0.00     0.002 A 
ENDROOT
BRANCH   1   7
ATOM      7  C1  UNL d   1       2.471  -5.570  -1.496  0.00  0.00     0.055 C 
ATOM      8  C   UNL d   1       1.503  -4.406  -1.647  0.00  0.00     0.019 C 
ENDBRANCH   1   7
TORSDOF 1
ENDMDL
