MODEL 1
REMARK minimizedAffinity -3.30336094
REMARK minimizedRMSD -1
REMARK  1 active torsions:
REMARK  status: ('A' for Active; 'I' for Inactive)
REMARK    1  A    between atoms: C1_2  and  C2_3 
ROOT
ATOM      1  C2  UNL d   1      -3.757   3.031  -4.504  0.00  0.00    -0.077 A 
ATOM      2  C3  UNL d   1      -2.625   3.308  -3.724  0.00  0.00     0.002 A 
ATOM      3  C4  UNL d   1      -1.924   4.503  -3.896  0.00  0.00     0.002 A 
ATOM      4  C5  UNL d   1      -2.350   5.432  -4.842  0.00  0.00    -0.004 A 
ATOM      5  C6  UNL d   1      -3.474   5.166  -5.624  0.00  0.00     0.002 A 
ATOM      6  C7  UNL d   1      -4.175   3.971  -5.455  0.00  0.00     0.002 A 
ENDROOT
BRANCH   1   7
ATOM      7  C1  UNL d   1      -4.543   1.764  -4.286  0.00  0.00     0.055 C 
ATOM      8  C   UNL d   1      -5.516   1.514  -5.428  0.00  0.00     0.019 C 
ENDBRANCH   1   7
TORSDOF 1
ENDMDL
