MODEL 1
REMARK minimizedAffinity -1.17403221
REMARK minimizedRMSD -1
REMARK  1 active torsions:
REMARK  status: ('A' for Active; 'I' for Inactive)
REMARK    1  A    between atoms: C1_2  and  C2_3 
ROOT
ATOM      1  C2  UNL d   1      -3.487   3.365  -4.684  0.00  0.00    -0.077 A 
ATOM      2  C3  UNL d   1      -2.352   3.775  -3.970  0.00  0.00     0.002 A 
ATOM      3  C4  UNL d   1      -1.886   5.087  -4.078  0.00  0.00     0.002 A 
ATOM      4  C5  UNL d   1      -2.551   6.000  -4.895  0.00  0.00    -0.004 A 
ATOM      5  C6  UNL d   1      -3.679   5.601  -5.610  0.00  0.00     0.002 A 
ATOM      6  C7  UNL d   1      -4.146   4.290  -5.505  0.00  0.00     0.002 A 
ENDROOT
BRANCH   1   7
ATOM      7  C1  UNL d   1      -4.020   1.965  -4.531  0.00  0.00     0.055 C 
ATOM      8  C   UNL d   1      -5.480   1.879  -4.952  0.00  0.00     0.019 C 
ENDBRANCH   1   7
TORSDOF 1
ENDMDL
