MODEL 1
REMARK minimizedAffinity 12.7586412
REMARK minimizedRMSD -1
REMARK  1 active torsions:
REMARK  status: ('A' for Active; 'I' for Inactive)
REMARK    1  A    between atoms: C1_2  and  C2_3 
ROOT
ATOM      1  C2  UNL d   1      -2.523   3.653  -4.395  0.00  0.00    -0.077 A 
ATOM      2  C3  UNL d   1      -3.332   4.281  -5.352  0.00  0.00     0.002 A 
ATOM      3  C4  UNL d   1      -2.903   5.450  -5.983  0.00  0.00     0.002 A 
ATOM      4  C5  UNL d   1      -1.661   5.999  -5.668  0.00  0.00    -0.004 A 
ATOM      5  C6  UNL d   1      -0.850   5.383  -4.716  0.00  0.00     0.002 A 
ATOM      6  C7  UNL d   1      -1.278   4.215  -4.083  0.00  0.00     0.002 A 
ENDROOT
BRANCH   1   7
ATOM      7  C1  UNL d   1      -2.963   2.366  -3.749  0.00  0.00     0.055 C 
ATOM      8  C   UNL d   1      -4.006   1.650  -4.595  0.00  0.00     0.019 C 
ENDBRANCH   1   7
TORSDOF 1
ENDMDL
