MODEL 1
REMARK minimizedAffinity 8.32299232
REMARK minimizedRMSD -1
REMARK  1 active torsions:
REMARK  status: ('A' for Active; 'I' for Inactive)
REMARK    1  A    between atoms: C1_2  and  C2_3 
ROOT
ATOM      1  C2  UNL d   1      -3.034   3.346  -4.526  0.00  0.00    -0.077 A 
ATOM      2  C3  UNL d   1      -2.106   4.027  -3.726  0.00  0.00     0.002 A 
ATOM      3  C4  UNL d   1      -1.754   5.346  -4.019  0.00  0.00     0.002 A 
ATOM      4  C5  UNL d   1      -2.328   5.996  -5.110  0.00  0.00    -0.004 A 
ATOM      5  C6  UNL d   1      -3.251   5.326  -5.913  0.00  0.00     0.002 A 
ATOM      6  C7  UNL d   1      -3.602   4.007  -5.622  0.00  0.00     0.002 A 
ENDROOT
BRANCH   1   7
ATOM      7  C1  UNL d   1      -3.451   1.940  -4.182  0.00  0.00     0.055 C 
ATOM      8  C   UNL d   1      -4.895   1.677  -4.585  0.00  0.00     0.019 C 
ENDBRANCH   1   7
TORSDOF 1
ENDMDL
