MODEL 1
REMARK minimizedAffinity 3.98582792
REMARK minimizedRMSD -1
REMARK  1 active torsions:
REMARK  status: ('A' for Active; 'I' for Inactive)
REMARK    1  A    between atoms: C1_2  and  C2_3 
ROOT
ATOM      1  C2  UNL d   1      -3.365  -3.108   5.057  0.00  0.00    -0.077 A 
ATOM      2  C3  UNL d   1      -4.290  -2.640   6.000  0.00  0.00     0.002 A 
ATOM      3  C4  UNL d   1      -5.602  -3.117   6.000  0.00  0.00     0.002 A 
ATOM      4  C5  UNL d   1      -5.999  -4.068   5.062  0.00  0.00    -0.004 A 
ATOM      5  C6  UNL d   1      -5.087  -4.539   4.118  0.00  0.00     0.002 A 
ATOM      6  C7  UNL d   1      -3.776  -4.062   4.116  0.00  0.00     0.002 A 
ENDROOT
BRANCH   1   7
ATOM      7  C1  UNL d   1      -1.936  -2.632   5.087  0.00  0.00     0.055 C 
ATOM      8  C   UNL d   1      -0.963  -3.786   4.897  0.00  0.00     0.019 C 
ENDBRANCH   1   7
TORSDOF 1
ENDMDL
