MODEL 1
REMARK minimizedAffinity 0.223727033
REMARK minimizedRMSD -1
REMARK  1 active torsions:
REMARK  status: ('A' for Active; 'I' for Inactive)
REMARK    1  A    between atoms: C1_2  and  C2_3 
ROOT
ATOM      1  C2  UNL d   1      -3.511   3.374  -5.159  0.00  0.00    -0.077 A 
ATOM      2  C3  UNL d   1      -2.343   3.687  -4.449  0.00  0.00     0.002 A 
ATOM      3  C4  UNL d   1      -1.808   4.975  -4.501  0.00  0.00     0.002 A 
ATOM      4  C5  UNL d   1      -2.436   5.962  -5.257  0.00  0.00    -0.004 A 
ATOM      5  C6  UNL d   1      -3.597   5.661  -5.969  0.00  0.00     0.002 A 
ATOM      6  C7  UNL d   1      -4.132   4.373  -5.919  0.00  0.00     0.002 A 
ENDROOT
BRANCH   1   7
ATOM      7  C1  UNL d   1      -4.116   1.998  -5.065  0.00  0.00     0.055 C 
ATOM      8  C   UNL d   1      -5.367   1.884  -5.924  0.00  0.00     0.019 C 
ENDBRANCH   1   7
TORSDOF 1
ENDMDL
