MODEL 1
REMARK minimizedAffinity -0.76228267
REMARK minimizedRMSD -1
REMARK  1 active torsions:
REMARK  status: ('A' for Active; 'I' for Inactive)
REMARK    1  A    between atoms: C1_2  and  C2_3 
ROOT
ATOM      1  C2  UNL d   1      -0.824   2.632  -1.276  0.00  0.00    -0.077 A 
ATOM      2  C3  UNL d   1      -0.704   1.630  -0.303  0.00  0.00     0.002 A 
ATOM      3  C4  UNL d   1      -0.238   1.940   0.976  0.00  0.00     0.002 A 
ATOM      4  C5  UNL d   1       0.108   3.251   1.295  0.00  0.00    -0.004 A 
ATOM      5  C6  UNL d   1      -0.006   4.255   0.334  0.00  0.00     0.002 A 
ATOM      6  C7  UNL d   1      -0.471   3.947  -0.946  0.00  0.00     0.002 A 
ENDROOT
BRANCH   1   7
ATOM      7  C1  UNL d   1      -1.373   2.309  -2.641  0.00  0.00     0.055 C 
ATOM      8  C   UNL d   1      -2.527   1.321  -2.553  0.00  0.00     0.019 C 
ENDBRANCH   1   7
TORSDOF 1
ENDMDL
