MODEL 1
REMARK minimizedAffinity 17.5926189
REMARK minimizedRMSD -1
REMARK  1 active torsions:
REMARK  status: ('A' for Active; 'I' for Inactive)
REMARK    1  A    between atoms: C1_2  and  C2_3 
ROOT
ATOM      1  C2  UNL d   1       2.094  -3.257  -0.580  0.00  0.00    -0.077 A 
ATOM      2  C3  UNL d   1       0.958  -3.637  -1.309  0.00  0.00     0.002 A 
ATOM      3  C4  UNL d   1       0.983  -4.780  -2.111  0.00  0.00     0.002 A 
ATOM      4  C5  UNL d   1       2.140  -5.553  -2.189  0.00  0.00    -0.004 A 
ATOM      5  C6  UNL d   1       3.275  -5.182  -1.470  0.00  0.00     0.002 A 
ATOM      6  C7  UNL d   1       3.252  -4.040  -0.668  0.00  0.00     0.002 A 
ENDROOT
BRANCH   1   7
ATOM      7  C1  UNL d   1       2.053  -2.053   0.324  0.00  0.00     0.055 C 
ATOM      8  C   UNL d   1       3.453  -1.621   0.735  0.00  0.00     0.019 C 
ENDBRANCH   1   7
TORSDOF 1
ENDMDL
