MODEL 1
REMARK minimizedAffinity 13.8649731
REMARK minimizedRMSD -1
REMARK  1 active torsions:
REMARK  status: ('A' for Active; 'I' for Inactive)
REMARK    1  A    between atoms: C1_2  and  C2_3 
ROOT
ATOM      1  C2  UNL d   1      -1.208   1.793   2.845  0.00  0.00    -0.077 A 
ATOM      2  C3  UNL d   1      -0.190   1.846   3.808  0.00  0.00     0.002 A 
ATOM      3  C4  UNL d   1       1.004   2.517   3.538  0.00  0.00     0.002 A 
ATOM      4  C5  UNL d   1       1.190   3.143   2.308  0.00  0.00    -0.004 A 
ATOM      5  C6  UNL d   1       0.185   3.095   1.343  0.00  0.00     0.002 A 
ATOM      6  C7  UNL d   1      -1.009   2.424   1.610  0.00  0.00     0.002 A 
ENDROOT
BRANCH   1   7
ATOM      7  C1  UNL d   1      -2.516   1.112   3.152  0.00  0.00     0.055 C 
ATOM      8  C   UNL d   1      -3.509   1.281   2.012  0.00  0.00     0.019 C 
ENDBRANCH   1   7
TORSDOF 1
ENDMDL
