MODEL 1
REMARK minimizedAffinity 19.9486523
REMARK minimizedRMSD -1
REMARK  1 active torsions:
REMARK  status: ('A' for Active; 'I' for Inactive)
REMARK    1  A    between atoms: C1_2  and  C2_3 
ROOT
ATOM      1  C2  UNL d   1      -4.874   5.662   1.230  0.00  0.00    -0.077 A 
ATOM      2  C3  UNL d   1      -3.703   5.162   0.643  0.00  0.00     0.002 A 
ATOM      3  C4  UNL d   1      -3.657   4.897  -0.727  0.00  0.00     0.002 A 
ATOM      4  C5  UNL d   1      -4.776   5.133  -1.522  0.00  0.00    -0.004 A 
ATOM      5  C6  UNL d   1      -5.946   5.628  -0.948  0.00  0.00     0.002 A 
ATOM      6  C7  UNL d   1      -5.995   5.893   0.421  0.00  0.00     0.002 A 
ENDROOT
BRANCH   1   7
ATOM      7  C1  UNL d   1      -4.910   5.996   2.698  0.00  0.00     0.055 C 
ATOM      8  C   UNL d   1      -5.505   4.854   3.510  0.00  0.00     0.019 C 
ENDBRANCH   1   7
TORSDOF 1
ENDMDL
