MODEL 1
REMARK minimizedAffinity 9.58036327
REMARK minimizedRMSD -1
REMARK  1 active torsions:
REMARK  status: ('A' for Active; 'I' for Inactive)
REMARK    1  A    between atoms: C1_2  and  C2_3 
ROOT
ATOM      1  C2  UNL d   1      -0.849   0.902   2.101  0.00  0.00    -0.077 A 
ATOM      2  C3  UNL d   1      -1.705   0.354   3.067  0.00  0.00     0.002 A 
ATOM      3  C4  UNL d   1      -3.090   0.437   2.913  0.00  0.00     0.002 A 
ATOM      4  C5  UNL d   1      -3.632   1.063   1.793  0.00  0.00    -0.004 A 
ATOM      5  C6  UNL d   1      -2.789   1.613   0.827  0.00  0.00     0.002 A 
ATOM      6  C7  UNL d   1      -1.405   1.532   0.980  0.00  0.00     0.002 A 
ENDROOT
BRANCH   1   7
ATOM      7  C1  UNL d   1       0.645   0.769   2.241  0.00  0.00     0.055 C 
ATOM      8  C   UNL d   1       1.083  -0.684   2.144  0.00  0.00     0.019 C 
ENDBRANCH   1   7
TORSDOF 1
ENDMDL
