MODEL 1
REMARK minimizedAffinity 7.04973888
REMARK minimizedRMSD -1
REMARK  1 active torsions:
REMARK  status: ('A' for Active; 'I' for Inactive)
REMARK    1  A    between atoms: C1_2  and  C2_3 
ROOT
ATOM      1  C2  UNL d   1      -5.949  -3.563   1.175  0.00  0.00    -0.077 A 
ATOM      2  C3  UNL d   1      -5.978  -4.960   1.285  0.00  0.00     0.002 A 
ATOM      3  C4  UNL d   1      -5.990  -5.570   2.541  0.00  0.00     0.002 A 
ATOM      4  C5  UNL d   1      -5.976  -4.790   3.696  0.00  0.00    -0.004 A 
ATOM      5  C6  UNL d   1      -5.945  -3.400   3.597  0.00  0.00     0.002 A 
ATOM      6  C7  UNL d   1      -5.932  -2.789   2.342  0.00  0.00     0.002 A 
ENDROOT
BRANCH   1   7
ATOM      7  C1  UNL d   1      -5.986  -2.903  -0.179  0.00  0.00     0.055 C 
ATOM      8  C   UNL d   1      -5.982  -1.386  -0.055  0.00  0.00     0.019 C 
ENDBRANCH   1   7
TORSDOF 1
ENDMDL
