MODEL 1
REMARK minimizedAffinity 11.5212545
REMARK minimizedRMSD -1
REMARK  1 active torsions:
REMARK  status: ('A' for Active; 'I' for Inactive)
REMARK    1  A    between atoms: C1_2  and  C2_3 
ROOT
ATOM      1  C2  UNL d   1      -3.578  -3.089   5.181  0.00  0.00    -0.077 A 
ATOM      2  C3  UNL d   1      -4.673  -2.563   5.882  0.00  0.00     0.002 A 
ATOM      3  C4  UNL d   1      -5.877  -3.267   5.942  0.00  0.00     0.002 A 
ATOM      4  C5  UNL d   1      -5.996  -4.502   5.308  0.00  0.00    -0.004 A 
ATOM      5  C6  UNL d   1      -4.914  -5.033   4.607  0.00  0.00     0.002 A 
ATOM      6  C7  UNL d   1      -3.710  -4.329   4.545  0.00  0.00     0.002 A 
ENDROOT
BRANCH   1   7
ATOM      7  C1  UNL d   1      -2.263  -2.354   5.156  0.00  0.00     0.055 C 
ATOM      8  C   UNL d   1      -1.124  -3.272   4.738  0.00  0.00     0.019 C 
ENDBRANCH   1   7
TORSDOF 1
ENDMDL
