MODEL 1
REMARK minimizedAffinity 14.4328117
REMARK minimizedRMSD -1
REMARK  1 active torsions:
REMARK  status: ('A' for Active; 'I' for Inactive)
REMARK    1  A    between atoms: C1_2  and  C2_3 
ROOT
ATOM      1  C2  UNL d   1      -0.797   3.024  -0.270  0.00  0.00    -0.077 A 
ATOM      2  C3  UNL d   1      -1.700   4.096  -0.227  0.00  0.00     0.002 A 
ATOM      3  C4  UNL d   1      -2.922   3.964   0.434  0.00  0.00     0.002 A 
ATOM      4  C5  UNL d   1      -3.251   2.764   1.061  0.00  0.00    -0.004 A 
ATOM      5  C6  UNL d   1      -2.361   1.691   1.022  0.00  0.00     0.002 A 
ATOM      6  C7  UNL d   1      -1.139   1.821   0.361  0.00  0.00     0.002 A 
ENDROOT
BRANCH   1   7
ATOM      7  C1  UNL d   1       0.543   3.180  -0.941  0.00  0.00     0.055 C 
ATOM      8  C   UNL d   1       1.227   4.472  -0.516  0.00  0.00     0.019 C 
ENDBRANCH   1   7
TORSDOF 1
ENDMDL
