MODEL 1
REMARK minimizedAffinity -5.38998604
REMARK minimizedRMSD -1
REMARK  1 active torsions:
REMARK  status: ('A' for Active; 'I' for Inactive)
REMARK    1  A    between atoms: C1_2  and  C2_3 
ROOT
ATOM      1  C2  UNL d   1       0.799  -0.289   0.065  0.00  0.00    -0.077 A 
ATOM      2  C3  UNL d   1       1.771  -1.085  -0.558  0.00  0.00     0.002 A 
ATOM      3  C4  UNL d   1       2.628  -1.880   0.205  0.00  0.00     0.002 A 
ATOM      4  C5  UNL d   1       2.519  -1.891   1.594  0.00  0.00    -0.004 A 
ATOM      5  C6  UNL d   1       1.557  -1.101   2.224  0.00  0.00     0.002 A 
ATOM      6  C7  UNL d   1       0.701  -0.305   1.463  0.00  0.00     0.002 A 
ENDROOT
BRANCH   1   7
ATOM      7  C1  UNL d   1      -0.158   0.532  -0.758  0.00  0.00     0.055 C 
ATOM      8  C   UNL d   1      -1.519  -0.142  -0.861  0.00  0.00     0.019 C 
ENDBRANCH   1   7
TORSDOF 1
ENDMDL
