MODEL 1
REMARK minimizedAffinity -4.81704855
REMARK minimizedRMSD -1
REMARK  1 active torsions:
REMARK  status: ('A' for Active; 'I' for Inactive)
REMARK    1  A    between atoms: C1_2  and  C2_3 
ROOT
ATOM      1  C2  UNL d   1       0.951  -1.120   1.643  0.00  0.00    -0.077 A 
ATOM      2  C3  UNL d   1      -0.021  -0.932   2.636  0.00  0.00     0.002 A 
ATOM      3  C4  UNL d   1      -1.240  -0.326   2.325  0.00  0.00     0.002 A 
ATOM      4  C5  UNL d   1      -1.499   0.092   1.022  0.00  0.00    -0.004 A 
ATOM      5  C6  UNL d   1      -0.538  -0.088   0.028  0.00  0.00     0.002 A 
ATOM      6  C7  UNL d   1       0.681  -0.693   0.337  0.00  0.00     0.002 A 
ENDROOT
BRANCH   1   7
ATOM      7  C1  UNL d   1       2.247  -1.818   1.965  0.00  0.00     0.055 C 
ATOM      8  C   UNL d   1       2.969  -2.258   0.700  0.00  0.00     0.019 C 
ENDBRANCH   1   7
TORSDOF 1
ENDMDL
