MODEL 1
REMARK minimizedAffinity -1.5478071
REMARK minimizedRMSD -1
REMARK  1 active torsions:
REMARK  status: ('A' for Active; 'I' for Inactive)
REMARK    1  A    between atoms: C1_2  and  C2_3 
ROOT
ATOM      1  C2  UNL d   1      -1.794   2.557  -2.436  0.00  0.00    -0.077 A 
ATOM      2  C3  UNL d   1      -1.554   1.229  -2.054  0.00  0.00     0.002 A 
ATOM      3  C4  UNL d   1      -0.319   0.632  -2.314  0.00  0.00     0.002 A 
ATOM      4  C5  UNL d   1       0.686   1.355  -2.953  0.00  0.00    -0.004 A 
ATOM      5  C6  UNL d   1       0.456   2.675  -3.339  0.00  0.00     0.002 A 
ATOM      6  C7  UNL d   1      -0.778   3.273  -3.081  0.00  0.00     0.002 A 
ENDROOT
BRANCH   1   7
ATOM      7  C1  UNL d   1      -3.107   3.219  -2.111  0.00  0.00     0.055 C 
ATOM      8  C   UNL d   1      -4.284   2.353  -2.537  0.00  0.00     0.019 C 
ENDBRANCH   1   7
TORSDOF 1
ENDMDL
