MODEL 1
REMARK minimizedAffinity -4.12937832
REMARK minimizedRMSD -1
REMARK  1 active torsions:
REMARK  status: ('A' for Active; 'I' for Inactive)
REMARK    1  A    between atoms: C1_2  and  C2_3 
ROOT
ATOM      1  C2  UNL d   1      -0.025   0.278   0.293  0.00  0.00    -0.077 A 
ATOM      2  C3  UNL d   1       0.897  -0.514   0.992  0.00  0.00     0.002 A 
ATOM      3  C4  UNL d   1       0.533  -1.128   2.192  0.00  0.00     0.002 A 
ATOM      4  C5  UNL d   1      -0.753  -0.960   2.701  0.00  0.00    -0.004 A 
ATOM      5  C6  UNL d   1      -1.676  -0.173   2.014  0.00  0.00     0.002 A 
ATOM      6  C7  UNL d   1      -1.314   0.443   0.815  0.00  0.00     0.002 A 
ENDROOT
BRANCH   1   7
ATOM      7  C1  UNL d   1       0.350   0.901  -1.026  0.00  0.00     0.055 C 
ATOM      8  C   UNL d   1      -0.739   1.839  -1.525  0.00  0.00     0.019 C 
ENDBRANCH   1   7
TORSDOF 1
ENDMDL
