MODEL 1
REMARK minimizedAffinity -5.1971693
REMARK minimizedRMSD -1
REMARK  1 active torsions:
REMARK  status: ('A' for Active; 'I' for Inactive)
REMARK    1  A    between atoms: C1_2  and  C2_3 
ROOT
ATOM      1  C2  UNL d   1       0.184   0.070   0.174  0.00  0.00    -0.077 A 
ATOM      2  C3  UNL d   1      -0.712  -0.259   1.201  0.00  0.00     0.002 A 
ATOM      3  C4  UNL d   1      -0.249  -0.845   2.381  0.00  0.00     0.002 A 
ATOM      4  C5  UNL d   1       1.111  -1.103   2.545  0.00  0.00    -0.004 A 
ATOM      5  C6  UNL d   1       2.009  -0.782   1.528  0.00  0.00     0.002 A 
ATOM      6  C7  UNL d   1       1.548  -0.197   0.348  0.00  0.00     0.002 A 
ENDROOT
BRANCH   1   7
ATOM      7  C1  UNL d   1      -0.307   0.747  -1.079  0.00  0.00     0.055 C 
ATOM      8  C   UNL d   1      -0.253  -0.193  -2.274  0.00  0.00     0.019 C 
ENDBRANCH   1   7
TORSDOF 1
ENDMDL
