MODEL 1
REMARK minimizedAffinity -2.76618791
REMARK minimizedRMSD -1
REMARK  1 active torsions:
REMARK  status: ('A' for Active; 'I' for Inactive)
REMARK    1  A    between atoms: C1_2  and  C2_3 
ROOT
ATOM      1  C2  UNL d   1      -0.740   0.017  -0.306  0.00  0.00    -0.077 A 
ATOM      2  C3  UNL d   1       0.323  -0.054   0.604  0.00  0.00     0.002 A 
ATOM      3  C4  UNL d   1       0.114  -0.538   1.897  0.00  0.00     0.002 A 
ATOM      4  C5  UNL d   1      -1.155  -0.957   2.290  0.00  0.00    -0.004 A 
ATOM      5  C6  UNL d   1      -2.220  -0.888   1.392  0.00  0.00     0.002 A 
ATOM      6  C7  UNL d   1      -2.013  -0.404   0.099  0.00  0.00     0.002 A 
ENDROOT
BRANCH   1   7
ATOM      7  C1  UNL d   1      -0.507   0.492  -1.717  0.00  0.00     0.055 C 
ATOM      8  C   UNL d   1      -1.544   1.526  -2.132  0.00  0.00     0.019 C 
ENDBRANCH   1   7
TORSDOF 1
ENDMDL
