MODEL 1
REMARK minimizedAffinity -5.33662796
REMARK minimizedRMSD -1
REMARK  1 active torsions:
REMARK  status: ('A' for Active; 'I' for Inactive)
REMARK    1  A    between atoms: C1_2  and  C2_3 
ROOT
ATOM      1  C2  UNL d   1      -0.466  -0.278   0.247  0.00  0.00    -0.077 A 
ATOM      2  C3  UNL d   1       0.768  -0.689   0.771  0.00  0.00     0.002 A 
ATOM      3  C4  UNL d   1       0.968  -0.737   2.152  0.00  0.00     0.002 A 
ATOM      4  C5  UNL d   1      -0.062  -0.379   3.019  0.00  0.00    -0.004 A 
ATOM      5  C6  UNL d   1      -1.292   0.033   2.508  0.00  0.00     0.002 A 
ATOM      6  C7  UNL d   1      -1.493   0.083   1.128  0.00  0.00     0.002 A 
ENDROOT
BRANCH   1   7
ATOM      7  C1  UNL d   1      -0.699  -0.273  -1.242  0.00  0.00     0.055 C 
ATOM      8  C   UNL d   1      -1.056   1.120  -1.741  0.00  0.00     0.019 C 
ENDBRANCH   1   7
TORSDOF 1
ENDMDL
