MODEL 1
REMARK minimizedAffinity 2.79165626
REMARK minimizedRMSD -1
REMARK  1 active torsions:
REMARK  status: ('A' for Active; 'I' for Inactive)
REMARK    1  A    between atoms: C3_4  and  O_7 
ROOT
ATOM      1  C   UNL d   1       0.695   2.226   1.254  0.00  0.00    -0.033 A 
ATOM      2  C1  UNL d   1       0.798   1.326   2.317  0.00  0.00     0.039 A 
ATOM      3  C2  UNL d   1      -0.342   0.954   3.032  0.00  0.00    -0.080 A 
ATOM      4  C3  UNL d   1      -1.578   1.487   2.674  0.00  0.00     0.150 A 
ATOM      5  C4  UNL d   1      -1.688   2.381   1.614  0.00  0.00    -0.007 A 
ATOM      6  C5  UNL d   1      -0.549   2.752   0.902  0.00  0.00     0.039 A 
ENDROOT
BRANCH   4   7
ATOM      7  O   UNL d   1      -2.717   1.158   3.346  0.00  0.00    -0.526 OA
ATOM      8  H5  UNL d   1      -2.484   0.554   4.070  0.00  0.00     0.418 HD
ENDBRANCH   4   7
TORSDOF 1
ENDMDL
