MODEL 1
REMARK minimizedAffinity -0.215355977
REMARK minimizedRMSD -1
REMARK  1 active torsions:
REMARK  status: ('A' for Active; 'I' for Inactive)
REMARK    1  A    between atoms: C3_4  and  O_7 
ROOT
ATOM      1  C   UNL d   1       5.907  -3.733  -4.130  0.00  0.00    -0.033 A 
ATOM      2  C1  UNL d   1       6.000  -2.947  -2.980  0.00  0.00     0.039 A 
ATOM      3  C2  UNL d   1       4.899  -2.205  -2.548  0.00  0.00    -0.080 A 
ATOM      4  C3  UNL d   1       3.712  -2.258  -3.273  0.00  0.00     0.150 A 
ATOM      5  C4  UNL d   1       3.611  -3.042  -4.418  0.00  0.00    -0.007 A 
ATOM      6  C5  UNL d   1       4.712  -3.782  -4.849  0.00  0.00     0.039 A 
ENDROOT
BRANCH   4   7
ATOM      7  O   UNL d   1       2.612  -1.548  -2.893  0.00  0.00    -0.526 OA
ATOM      8  H5  UNL d   1       2.838  -1.031  -2.102  0.00  0.00     0.418 HD
ENDBRANCH   4   7
TORSDOF 1
ENDMDL
