MODEL 1
REMARK minimizedAffinity 7.55508232
REMARK minimizedRMSD -1
REMARK  1 active torsions:
REMARK  status: ('A' for Active; 'I' for Inactive)
REMARK    1  A    between atoms: C3_4  and  O_7 
ROOT
ATOM      1  C   UNL d   1      -1.165   2.832   0.092  0.00  0.00    -0.033 A 
ATOM      2  C1  UNL d   1       0.166   2.417   0.166  0.00  0.00     0.039 A 
ATOM      3  C2  UNL d   1       1.155   3.111  -0.534  0.00  0.00    -0.080 A 
ATOM      4  C3  UNL d   1       0.800   4.217  -1.302  0.00  0.00     0.150 A 
ATOM      5  C4  UNL d   1      -0.524   4.638  -1.377  0.00  0.00    -0.007 A 
ATOM      6  C5  UNL d   1      -1.510   3.943  -0.678  0.00  0.00     0.039 A 
ENDROOT
BRANCH   4   7
ATOM      7  O   UNL d   1       1.730   4.923  -2.006  0.00  0.00    -0.526 OA
ATOM      8  H5  UNL d   1       2.596   4.500  -1.883  0.00  0.00     0.418 HD
ENDBRANCH   4   7
TORSDOF 1
ENDMDL
