MODEL 1
REMARK minimizedAffinity 12.016407
REMARK minimizedRMSD -1
REMARK  1 active torsions:
REMARK  status: ('A' for Active; 'I' for Inactive)
REMARK    1  A    between atoms: C3_4  and  O_7 
ROOT
ATOM      1  C   UNL d   1      -2.933   3.590  -3.729  0.00  0.00    -0.033 A 
ATOM      2  C1  UNL d   1      -3.111   3.151  -2.416  0.00  0.00     0.039 A 
ATOM      3  C2  UNL d   1      -4.021   2.131  -2.135  0.00  0.00    -0.080 A 
ATOM      4  C3  UNL d   1      -4.747   1.557  -3.176  0.00  0.00     0.150 A 
ATOM      5  C4  UNL d   1      -4.573   1.987  -4.487  0.00  0.00    -0.007 A 
ATOM      6  C5  UNL d   1      -3.663   3.006  -4.765  0.00  0.00     0.039 A 
ENDROOT
BRANCH   4   7
ATOM      7  O   UNL d   1      -5.651   0.562  -2.950  0.00  0.00    -0.526 OA
ATOM      8  H5  UNL d   1      -5.686   0.389  -1.995  0.00  0.00     0.418 HD
ENDBRANCH   4   7
TORSDOF 1
ENDMDL
