MODEL 1
REMARK minimizedAffinity 0.247105777
REMARK minimizedRMSD -1
REMARK  1 active torsions:
REMARK  status: ('A' for Active; 'I' for Inactive)
REMARK    1  A    between atoms: C3_4  and  O_7 
ROOT
ATOM      1  C   UNL d   1      -0.960   3.598  -1.110  0.00  0.00    -0.033 A 
ATOM      2  C1  UNL d   1      -1.814   4.541  -1.687  0.00  0.00     0.039 A 
ATOM      3  C2  UNL d   1      -2.602   5.360  -0.876  0.00  0.00    -0.080 A 
ATOM      4  C3  UNL d   1      -2.527   5.226   0.508  0.00  0.00     0.150 A 
ATOM      5  C4  UNL d   1      -1.676   4.292   1.089  0.00  0.00    -0.007 A 
ATOM      6  C5  UNL d   1      -0.890   3.474   0.278  0.00  0.00     0.039 A 
ENDROOT
BRANCH   4   7
ATOM      7  O   UNL d   1      -3.280   5.999   1.340  0.00  0.00    -0.526 OA
ATOM      8  H5  UNL d   1      -3.841   6.579   0.798  0.00  0.00     0.418 HD
ENDBRANCH   4   7
TORSDOF 1
ENDMDL
