MODEL 1
REMARK minimizedAffinity 10.0015793
REMARK minimizedRMSD -1
REMARK  1 active torsions:
REMARK  status: ('A' for Active; 'I' for Inactive)
REMARK    1  A    between atoms: C3_4  and  O_7 
ROOT
ATOM      1  C   UNL d   1      -5.043  -5.125  -5.175  0.00  0.00    -0.033 A 
ATOM      2  C1  UNL d   1      -4.331  -6.000  -5.998  0.00  0.00     0.039 A 
ATOM      3  C2  UNL d   1      -2.935  -5.997  -5.980  0.00  0.00    -0.080 A 
ATOM      4  C3  UNL d   1      -2.264  -5.117  -5.136  0.00  0.00     0.150 A 
ATOM      5  C4  UNL d   1      -2.967  -4.245  -4.311  0.00  0.00    -0.007 A 
ATOM      6  C5  UNL d   1      -4.361  -4.249  -4.330  0.00  0.00     0.039 A 
ENDROOT
BRANCH   4   7
ATOM      7  O   UNL d   1      -0.902  -5.074  -5.088  0.00  0.00    -0.526 OA
ATOM      8  H5  UNL d   1      -0.552  -5.712  -5.733  0.00  0.00     0.418 HD
ENDBRANCH   4   7
TORSDOF 1
ENDMDL
