MODEL 1
REMARK minimizedAffinity 13.095643
REMARK minimizedRMSD -1
REMARK  1 active torsions:
REMARK  status: ('A' for Active; 'I' for Inactive)
REMARK    1  A    between atoms: C1_2  and  C2_3 
ROOT
ATOM      1  C2  UNL d   1       4.854   2.651   1.243  0.00  0.00    -0.076 A 
ATOM      2  C3  UNL d   1       3.978   1.552   1.233  0.00  0.00     0.004 A 
ATOM      3  C4  UNL d   1       3.299   1.186   0.072  0.00  0.00    -0.003 A 
ATOM      4  C5  UNL d   1       3.484   1.915  -1.098  0.00  0.00     0.000 A 
ATOM      5  C6  UNL d   1       4.362   2.998  -1.111  0.00  0.00     0.000 A 
ATOM      6  C7  UNL d   1       5.068   3.369   0.047  0.00  0.00    -0.073 A 
ATOM      7  C8  UNL d   1       5.998   4.549  -0.023  0.00  0.00     0.078 C 
ENDROOT
BRANCH   1   8
ATOM      8  C1  UNL d   1       5.543   3.017   2.538  0.00  0.00     0.053 C 
ATOM      9  C   UNL d   1       4.896   4.209   3.226  0.00  0.00     0.018 C 
ENDBRANCH   1   8
TORSDOF 1
ENDMDL
