MODEL 1
REMARK minimizedAffinity 9.06896496
REMARK minimizedRMSD -1
REMARK  1 active torsions:
REMARK  status: ('A' for Active; 'I' for Inactive)
REMARK    1  A    between atoms: C1_2  and  C2_3 
ROOT
ATOM      1  C2  UNL d   1       3.881   1.326   0.568  0.00  0.00    -0.076 A 
ATOM      2  C3  UNL d   1       2.958   0.431   1.137  0.00  0.00     0.004 A 
ATOM      3  C4  UNL d   1       1.844  -0.004   0.421  0.00  0.00    -0.003 A 
ATOM      4  C5  UNL d   1       1.635   0.448  -0.877  0.00  0.00     0.000 A 
ATOM      5  C6  UNL d   1       2.549   1.322  -1.464  0.00  0.00     0.000 A 
ATOM      6  C7  UNL d   1       3.686   1.758  -0.761  0.00  0.00    -0.073 A 
ATOM      7  C8  UNL d   1       4.636   2.706  -1.441  0.00  0.00     0.078 C 
ENDROOT
BRANCH   1   8
ATOM      8  C1  UNL d   1       5.055   1.784   1.403  0.00  0.00     0.053 C 
ATOM      9  C   UNL d   1       4.703   2.950   2.313  0.00  0.00     0.018 C 
ENDBRANCH   1   8
TORSDOF 1
ENDMDL
