MODEL 1
REMARK minimizedAffinity 10.4626055
REMARK minimizedRMSD -1
REMARK  1 active torsions:
REMARK  status: ('A' for Active; 'I' for Inactive)
REMARK    1  A    between atoms: C1_2  and  C2_3 
ROOT
ATOM      1  C2  UNL d   1       4.515   2.476  -1.323  0.00  0.00    -0.076 A 
ATOM      2  C3  UNL d   1       4.123   2.736   0.002  0.00  0.00     0.004 A 
ATOM      3  C4  UNL d   1       3.255   1.878   0.675  0.00  0.00    -0.003 A 
ATOM      4  C5  UNL d   1       2.765   0.745   0.034  0.00  0.00     0.000 A 
ATOM      5  C6  UNL d   1       3.157   0.463  -1.274  0.00  0.00     0.000 A 
ATOM      6  C7  UNL d   1       4.045   1.309  -1.961  0.00  0.00    -0.073 A 
ATOM      7  C8  UNL d   1       4.430   0.959  -3.372  0.00  0.00     0.078 C 
ENDROOT
BRANCH   1   8
ATOM      8  C1  UNL d   1       5.437   3.457  -2.010  0.00  0.00     0.053 C 
ATOM      9  C   UNL d   1       5.528   4.786  -1.275  0.00  0.00     0.018 C 
ENDBRANCH   1   8
TORSDOF 1
ENDMDL
