MODEL 1
REMARK minimizedAffinity 12.5189209
REMARK minimizedRMSD -1
REMARK  1 active torsions:
REMARK  status: ('A' for Active; 'I' for Inactive)
REMARK    1  A    between atoms: C1_2  and  C2_3 
ROOT
ATOM      1  C2  UNL d   1       1.670  -2.054  -0.356  0.00  0.00    -0.076 A 
ATOM      2  C3  UNL d   1       1.765  -1.387  -1.590  0.00  0.00     0.004 A 
ATOM      3  C4  UNL d   1       2.384  -0.142  -1.687  0.00  0.00    -0.003 A 
ATOM      4  C5  UNL d   1       2.920   0.456  -0.552  0.00  0.00     0.000 A 
ATOM      5  C6  UNL d   1       2.850  -0.199   0.677  0.00  0.00     0.000 A 
ATOM      6  C7  UNL d   1       2.244  -1.462   0.789  0.00  0.00    -0.073 A 
ATOM      7  C8  UNL d   1       2.192  -2.121   2.141  0.00  0.00     0.078 C 
ENDROOT
BRANCH   1   8
ATOM      8  C1  UNL d   1       0.963  -3.390  -0.307  0.00  0.00     0.053 C 
ATOM      9  C   UNL d   1      -0.223  -3.456  -1.257  0.00  0.00     0.018 C 
ENDBRANCH   1   8
TORSDOF 1
ENDMDL
