MODEL 1
REMARK minimizedAffinity 16.604311
REMARK minimizedRMSD -1
REMARK  1 active torsions:
REMARK  status: ('A' for Active; 'I' for Inactive)
REMARK    1  A    between atoms: C1_2  and  C2_3 
ROOT
ATOM      1  C2  UNL d   1       4.131   1.202   0.600  0.00  0.00    -0.076 A 
ATOM      2  C3  UNL d   1       2.998   1.434  -0.200  0.00  0.00     0.004 A 
ATOM      3  C4  UNL d   1       2.060   0.427  -0.424  0.00  0.00    -0.003 A 
ATOM      4  C5  UNL d   1       2.240  -0.827   0.149  0.00  0.00     0.000 A 
ATOM      5  C6  UNL d   1       3.348  -1.069   0.960  0.00  0.00     0.000 A 
ATOM      6  C7  UNL d   1       4.295  -0.060   1.209  0.00  0.00    -0.073 A 
ATOM      7  C8  UNL d   1       5.474  -0.378   2.086  0.00  0.00     0.078 C 
ENDROOT
BRANCH   1   8
ATOM      8  C1  UNL d   1       5.128   2.324   0.785  0.00  0.00     0.053 C 
ATOM      9  C   UNL d   1       4.767   3.240   1.944  0.00  0.00     0.018 C 
ENDBRANCH   1   8
TORSDOF 1
ENDMDL
