MODEL 1
REMARK minimizedAffinity 14.7403889
REMARK minimizedRMSD -1
REMARK  1 active torsions:
REMARK  status: ('A' for Active; 'I' for Inactive)
REMARK    1  A    between atoms: C1_2  and  C2_3 
ROOT
ATOM      1  C2  UNL d   1       2.499   3.730   4.063  0.00  0.00    -0.076 A 
ATOM      2  C3  UNL d   1       2.635   5.122   3.925  0.00  0.00     0.004 A 
ATOM      3  C4  UNL d   1       1.804   5.997   4.624  0.00  0.00    -0.003 A 
ATOM      4  C5  UNL d   1       0.825   5.493   5.473  0.00  0.00     0.000 A 
ATOM      5  C6  UNL d   1       0.687   4.115   5.635  0.00  0.00     0.000 A 
ATOM      6  C7  UNL d   1       1.527   3.220   4.950  0.00  0.00    -0.073 A 
ATOM      7  C8  UNL d   1       1.331   1.743   5.158  0.00  0.00     0.078 C 
ENDROOT
BRANCH   1   8
ATOM      8  C1  UNL d   1       3.410   2.830   3.259  0.00  0.00     0.053 C 
ATOM      9  C   UNL d   1       4.022   3.541   2.062  0.00  0.00     0.018 C 
ENDBRANCH   1   8
TORSDOF 1
ENDMDL
