MODEL 1
REMARK minimizedAffinity -3.70668602
REMARK minimizedRMSD -1
REMARK  0 active torsions:
REMARK  status: ('A' for Active; 'I' for Inactive)
ROOT
ATOM      1  N1  IND d   1       1.795  -1.487  -0.603  0.00  0.00    -0.196 N 
ATOM      2  C2  IND d   1       1.341  -0.967  -1.783  0.00  0.00     0.054 A 
ATOM      3  C3  IND d   1       0.228  -0.228  -1.574  0.00  0.00    -0.031 A 
ATOM      4  C4  IND d   1      -0.964   0.345   0.634  0.00  0.00     0.051 A 
ATOM      5  C5  IND d   1      -0.942   0.071   1.973  0.00  0.00    -0.031 A 
ATOM      6  C6  IND d   1       0.014  -0.752   2.533  0.00  0.00     0.015 A 
ATOM      7  C7  IND d   1       0.995  -1.323   1.774  0.00  0.00    -0.016 A 
ATOM      8  C8  IND d   1       0.972  -1.053   0.413  0.00  0.00    -0.047 A 
ATOM      9  C9  IND d   1      -0.021  -0.253  -0.168  0.00  0.00    -0.096 A 
ATOM     10  HN1 IND d   1       2.479  -2.000  -0.511  0.00  0.00     0.298 HD
ENDROOT
TORSDOF 0
ENDMDL
