MODEL 1
REMARK minimizedAffinity 1.21352839
REMARK minimizedRMSD -1
REMARK  0 active torsions:
REMARK  status: ('A' for Active; 'I' for Inactive)
ROOT
ATOM      1  N1  IND d   1       0.745  -1.224  -0.817  0.00  0.00    -0.196 N 
ATOM      2  C2  IND d   1       0.112  -0.142  -1.362  0.00  0.00     0.054 A 
ATOM      3  C3  IND d   1      -0.648   0.477  -0.430  0.00  0.00    -0.031 A 
ATOM      4  C4  IND d   1      -0.919  -0.054   2.074  0.00  0.00     0.051 A 
ATOM      5  C5  IND d   1      -0.567  -0.970   3.025  0.00  0.00    -0.031 A 
ATOM      6  C6  IND d   1       0.258  -2.038   2.739  0.00  0.00     0.015 A 
ATOM      7  C7  IND d   1       0.775  -2.224   1.488  0.00  0.00    -0.016 A 
ATOM      8  C8  IND d   1       0.414  -1.299   0.518  0.00  0.00    -0.047 A 
ATOM      9  C9  IND d   1      -0.457  -0.237   0.792  0.00  0.00    -0.096 A 
ATOM     10  HN1 IND d   1       1.262  -1.767  -1.238  0.00  0.00     0.298 HD
ENDROOT
TORSDOF 0
ENDMDL
