MODEL 1
REMARK minimizedAffinity -3.30073118
REMARK minimizedRMSD -1
REMARK  0 active torsions:
REMARK  status: ('A' for Active; 'I' for Inactive)
ROOT
ATOM      1  N1  IND d   1       1.821  -1.150   1.493  0.00  0.00    -0.196 N 
ATOM      2  C2  IND d   1       1.244  -1.313   2.722  0.00  0.00     0.054 A 
ATOM      3  C3  IND d   1      -0.020  -0.831   2.715  0.00  0.00    -0.031 A 
ATOM      4  C4  IND d   1      -1.377   0.172   0.772  0.00  0.00     0.051 A 
ATOM      5  C5  IND d   1      -1.264   0.559  -0.534  0.00  0.00    -0.031 A 
ATOM      6  C6  IND d   1      -0.094   0.390  -1.246  0.00  0.00     0.015 A 
ATOM      7  C7  IND d   1       1.008  -0.185  -0.680  0.00  0.00    -0.016 A 
ATOM      8  C8  IND d   1       0.899  -0.573   0.648  0.00  0.00    -0.047 A 
ATOM      9  C9  IND d   1      -0.272  -0.365   1.389  0.00  0.00    -0.096 A 
ATOM     10  HN1 IND d   1       2.625  -1.372   1.284  0.00  0.00     0.298 HD
ENDROOT
TORSDOF 0
ENDMDL
