MODEL 1
REMARK minimizedAffinity -3.37595773
REMARK minimizedRMSD -1
REMARK  0 active torsions:
REMARK  status: ('A' for Active; 'I' for Inactive)
ROOT
ATOM      1  N1  IND d   1      -1.604  -0.760   0.689  0.00  0.00    -0.196 N 
ATOM      2  C2  IND d   1      -1.338   0.102  -0.337  0.00  0.00     0.054 A 
ATOM      3  C3  IND d   1      -0.091   0.609  -0.215  0.00  0.00    -0.031 A 
ATOM      4  C4  IND d   1       1.723   0.084   1.535  0.00  0.00     0.051 A 
ATOM      5  C5  IND d   1       1.935  -0.614   2.691  0.00  0.00    -0.031 A 
ATOM      6  C6  IND d   1       0.960  -1.415   3.248  0.00  0.00     0.015 A 
ATOM      7  C7  IND d   1      -0.266  -1.557   2.662  0.00  0.00    -0.016 A 
ATOM      8  C8  IND d   1      -0.487  -0.844   1.492  0.00  0.00    -0.047 A 
ATOM      9  C9  IND d   1       0.484   0.003   0.944  0.00  0.00    -0.096 A 
ATOM     10  HN1 IND d   1      -2.344  -1.180   0.813  0.00  0.00     0.298 HD
ENDROOT
TORSDOF 0
ENDMDL
