MODEL 1
REMARK minimizedAffinity 1.02490878
REMARK minimizedRMSD -1
REMARK  0 active torsions:
REMARK  status: ('A' for Active; 'I' for Inactive)
ROOT
ATOM      1  N1  IND d   1      -1.622   0.761  -3.108  0.00  0.00    -0.196 N 
ATOM      2  C2  IND d   1      -2.919   0.337  -3.028  0.00  0.00     0.054 A 
ATOM      3  C3  IND d   1      -3.750   1.391  -2.866  0.00  0.00    -0.031 A 
ATOM      4  C4  IND d   1      -3.208   3.907  -2.810  0.00  0.00     0.051 A 
ATOM      5  C5  IND d   1      -2.159   4.783  -2.809  0.00  0.00    -0.031 A 
ATOM      6  C6  IND d   1      -0.851   4.355  -2.912  0.00  0.00     0.015 A 
ATOM      7  C7  IND d   1      -0.543   3.030  -3.033  0.00  0.00    -0.016 A 
ATOM      8  C8  IND d   1      -1.605   2.136  -3.027  0.00  0.00    -0.047 A 
ATOM      9  C9  IND d   1      -2.932   2.562  -2.880  0.00  0.00    -0.096 A 
ATOM     10  HN1 IND d   1      -0.933   0.255  -3.195  0.00  0.00     0.298 HD
ENDROOT
TORSDOF 0
ENDMDL
