MODEL 1
REMARK minimizedAffinity -0.945028186
REMARK minimizedRMSD -1
REMARK  0 active torsions:
REMARK  status: ('A' for Active; 'I' for Inactive)
ROOT
ATOM      1  N1  IND d   1       0.385   2.567  -2.301  0.00  0.00    -0.196 N 
ATOM      2  C2  IND d   1      -0.627   2.806  -3.189  0.00  0.00     0.054 A 
ATOM      3  C3  IND d   1      -1.691   2.019  -2.913  0.00  0.00    -0.031 A 
ATOM      4  C4  IND d   1      -2.029   0.342  -0.989  0.00  0.00     0.051 A 
ATOM      5  C5  IND d   1      -1.373  -0.245   0.056  0.00  0.00    -0.031 A 
ATOM      6  C6  IND d   1      -0.071   0.084   0.377  0.00  0.00     0.015 A 
ATOM      7  C7  IND d   1       0.621   1.025  -0.331  0.00  0.00    -0.016 A 
ATOM      8  C8  IND d   1      -0.040   1.618  -1.397  0.00  0.00    -0.047 A 
ATOM      9  C9  IND d   1      -1.346   1.257  -1.754  0.00  0.00    -0.096 A 
ATOM     10  HN1 IND d   1       1.156   2.947  -2.305  0.00  0.00     0.298 HD
ENDROOT
TORSDOF 0
ENDMDL
