MODEL 1
REMARK minimizedAffinity -2.68228221
REMARK minimizedRMSD -1
REMARK  0 active torsions:
REMARK  status: ('A' for Active; 'I' for Inactive)
ROOT
ATOM      1  C   UNL d   1       2.016  -0.200  -1.086  0.00  0.00     0.124 A 
ATOM      2  C1  UNL d   1       1.353  -1.300  -0.558  0.00  0.00     0.062 A 
ATOM      3  C2  UNL d   1       0.098  -1.147   0.025  0.00  0.00     0.162 A 
ATOM      4  C3  UNL d   1      -0.502   0.110   0.083  0.00  0.00    -0.034 A 
ATOM      5  C4  UNL d   1       0.171   1.212  -0.448  0.00  0.00     0.162 A 
ATOM      6  C5  UNL d   1       1.425   1.054  -1.030  0.00  0.00     0.062 A 
ATOM      7  F   UNL d   1       2.064   2.117  -1.539  0.00  0.00    -0.097 F 
ATOM      8  F1  UNL d   1      -0.377   2.435  -0.409  0.00  0.00    -0.096 F 
ATOM      9  I   UNL d   1      -2.378   0.343   0.955  0.00  0.00    -0.060 I 
ATOM     10  F2  UNL d   1      -0.519  -2.227   0.527  0.00  0.00    -0.096 F 
ATOM     11  F3  UNL d   1       1.922  -2.513  -0.610  0.00  0.00    -0.097 F 
ATOM     12  F4  UNL d   1       3.223  -0.350  -1.646  0.00  0.00    -0.092 F 
ENDROOT
TORSDOF 0
ENDMDL
