MODEL 1
REMARK minimizedAffinity -0.903020084
REMARK minimizedRMSD -1
REMARK  0 active torsions:
REMARK  status: ('A' for Active; 'I' for Inactive)
ROOT
ATOM      1  C   UNL d   1       0.779  -1.402  -1.136  0.00  0.00     0.124 A 
ATOM      2  C1  UNL d   1       1.374  -0.409  -0.371  0.00  0.00     0.062 A 
ATOM      3  C2  UNL d   1       0.637   0.262   0.600  0.00  0.00     0.162 A 
ATOM      4  C3  UNL d   1      -0.703  -0.059   0.814  0.00  0.00    -0.034 A 
ATOM      5  C4  UNL d   1      -1.295  -1.059   0.040  0.00  0.00     0.162 A 
ATOM      6  C5  UNL d   1      -0.555  -1.726  -0.930  0.00  0.00     0.062 A 
ATOM      7  F   UNL d   1      -1.132  -2.686  -1.668  0.00  0.00    -0.097 F 
ATOM      8  F1  UNL d   1      -2.582  -1.392   0.219  0.00  0.00    -0.096 F 
ATOM      9  I   UNL d   1      -1.808   0.942   2.266  0.00  0.00    -0.060 I 
ATOM     10  F2  UNL d   1       1.238   1.218   1.325  0.00  0.00    -0.096 F 
ATOM     11  F3  UNL d   1       2.662  -0.093  -0.569  0.00  0.00    -0.097 F 
ATOM     12  F4  UNL d   1       1.489  -2.046  -2.071  0.00  0.00    -0.092 F 
ENDROOT
TORSDOF 0
ENDMDL
