MODEL 1
REMARK minimizedAffinity -2.21904349
REMARK minimizedRMSD -1
REMARK  0 active torsions:
REMARK  status: ('A' for Active; 'I' for Inactive)
ROOT
ATOM      1  C   UNL d   1       2.422  -0.943  -1.422  0.00  0.00     0.124 A 
ATOM      2  C1  UNL d   1       2.435   0.236  -0.691  0.00  0.00     0.062 A 
ATOM      3  C2  UNL d   1       1.337   0.589   0.090  0.00  0.00     0.162 A 
ATOM      4  C3  UNL d   1       0.217  -0.241   0.144  0.00  0.00    -0.034 A 
ATOM      5  C4  UNL d   1       0.211  -1.425  -0.596  0.00  0.00     0.162 A 
ATOM      6  C5  UNL d   1       1.310  -1.772  -1.374  0.00  0.00     0.062 A 
ATOM      7  F   UNL d   1       1.295  -2.912  -2.080  0.00  0.00    -0.097 F 
ATOM      8  F1  UNL d   1      -0.850  -2.245  -0.567  0.00  0.00    -0.096 F 
ATOM      9  I   UNL d   1      -1.426   0.282   1.309  0.00  0.00    -0.060 I 
ATOM     10  F2  UNL d   1       1.378   1.734   0.786  0.00  0.00    -0.096 F 
ATOM     11  F3  UNL d   1       3.507   1.040  -0.736  0.00  0.00    -0.097 F 
ATOM     12  F4  UNL d   1       3.479  -1.279  -2.173  0.00  0.00    -0.092 F 
ENDROOT
TORSDOF 0
ENDMDL
