MODEL 1
REMARK minimizedAffinity -3.45709705
REMARK minimizedRMSD -1
REMARK  0 active torsions:
REMARK  status: ('A' for Active; 'I' for Inactive)
ROOT
ATOM      1  C   UNL d   1       2.006  -0.409  -1.202  0.00  0.00     0.124 A 
ATOM      2  C1  UNL d   1       1.543   0.816  -0.743  0.00  0.00     0.062 A 
ATOM      3  C2  UNL d   1       0.437   0.875   0.100  0.00  0.00     0.162 A 
ATOM      4  C3  UNL d   1      -0.214  -0.295   0.491  0.00  0.00    -0.034 A 
ATOM      5  C4  UNL d   1       0.257  -1.524   0.024  0.00  0.00     0.162 A 
ATOM      6  C5  UNL d   1       1.363  -1.578  -0.818  0.00  0.00     0.062 A 
ATOM      7  F   UNL d   1       1.808  -2.763  -1.260  0.00  0.00    -0.097 F 
ATOM      8  F1  UNL d   1      -0.345  -2.668   0.380  0.00  0.00    -0.096 F 
ATOM      9  I   UNL d   1      -1.868  -0.211   1.751  0.00  0.00    -0.060 I 
ATOM     10  F2  UNL d   1       0.011   2.073   0.528  0.00  0.00    -0.096 F 
ATOM     11  F3  UNL d   1       2.162   1.946  -1.113  0.00  0.00    -0.097 F 
ATOM     12  F4  UNL d   1       3.070  -0.464  -2.013  0.00  0.00    -0.092 F 
ENDROOT
TORSDOF 0
ENDMDL
