MODEL 1
REMARK minimizedAffinity -2.46137142
REMARK minimizedRMSD -1
REMARK  0 active torsions:
REMARK  status: ('A' for Active; 'I' for Inactive)
ROOT
ATOM      1  C   UNL d   1       2.006   0.053  -2.210  0.00  0.00     0.124 A 
ATOM      2  C1  UNL d   1       1.089   1.087  -2.336  0.00  0.00     0.062 A 
ATOM      3  C2  UNL d   1       0.042   1.209  -1.426  0.00  0.00     0.162 A 
ATOM      4  C3  UNL d   1      -0.092   0.295  -0.381  0.00  0.00    -0.034 A 
ATOM      5  C4  UNL d   1       0.834  -0.742  -0.261  0.00  0.00     0.162 A 
ATOM      6  C5  UNL d   1       1.878  -0.860  -1.173  0.00  0.00     0.062 A 
ATOM      7  F   UNL d   1       2.764  -1.860  -1.050  0.00  0.00    -0.097 F 
ATOM      8  F1  UNL d   1       0.735  -1.639   0.732  0.00  0.00    -0.096 F 
ATOM      9  I   UNL d   1      -1.655   0.474   0.981  0.00  0.00    -0.060 I 
ATOM     10  F2  UNL d   1      -0.830   2.218  -1.573  0.00  0.00    -0.096 F 
ATOM     11  F3  UNL d   1       1.210   1.970  -3.338  0.00  0.00    -0.097 F 
ATOM     12  F4  UNL d   1       3.011  -0.062  -3.087  0.00  0.00    -0.092 F 
ENDROOT
TORSDOF 0
ENDMDL
