MODEL 1
REMARK minimizedAffinity -0.809122741
REMARK minimizedRMSD -1
REMARK  0 active torsions:
REMARK  status: ('A' for Active; 'I' for Inactive)
ROOT
ATOM      1  C   UNL d   1       1.717  -0.211  -1.168  0.00  0.00     0.124 A 
ATOM      2  C1  UNL d   1       1.166   1.022  -0.848  0.00  0.00     0.062 A 
ATOM      3  C2  UNL d   1       0.024   1.093  -0.056  0.00  0.00     0.162 A 
ATOM      4  C3  UNL d   1      -0.575  -0.072   0.423  0.00  0.00    -0.034 A 
ATOM      5  C4  UNL d   1      -0.015  -1.309   0.096  0.00  0.00     0.162 A 
ATOM      6  C5  UNL d   1       1.126  -1.375  -0.696  0.00  0.00     0.062 A 
ATOM      7  F   UNL d   1       1.657  -2.567  -1.005  0.00  0.00    -0.097 F 
ATOM      8  F1  UNL d   1      -0.565  -2.449   0.539  0.00  0.00    -0.096 F 
ATOM      9  I   UNL d   1      -2.283   0.031   1.608  0.00  0.00    -0.060 I 
ATOM     10  F2  UNL d   1      -0.487   2.298   0.238  0.00  0.00    -0.096 F 
ATOM     11  F3  UNL d   1       1.735   2.147  -1.303  0.00  0.00    -0.097 F 
ATOM     12  F4  UNL d   1       2.816  -0.278  -1.931  0.00  0.00    -0.092 F 
ENDROOT
TORSDOF 0
ENDMDL
