MODEL 1
REMARK minimizedAffinity -3.50130939
REMARK minimizedRMSD -1
REMARK  0 active torsions:
REMARK  status: ('A' for Active; 'I' for Inactive)
ROOT
ATOM      1  C   UNL d   1      -1.936   0.810   0.695  0.00  0.00     0.124 A 
ATOM      2  C1  UNL d   1      -1.128  -0.087   1.381  0.00  0.00     0.062 A 
ATOM      3  C2  UNL d   1       0.110  -0.453   0.861  0.00  0.00     0.162 A 
ATOM      4  C3  UNL d   1       0.550   0.079  -0.351  0.00  0.00    -0.034 A 
ATOM      5  C4  UNL d   1      -0.269   0.979  -1.036  0.00  0.00     0.162 A 
ATOM      6  C5  UNL d   1      -1.505   1.342  -0.512  0.00  0.00     0.062 A 
ATOM      7  F   UNL d   1      -2.284   2.208  -1.176  0.00  0.00    -0.097 F 
ATOM      8  F1  UNL d   1       0.123   1.510  -2.204  0.00  0.00    -0.096 F 
ATOM      9  I   UNL d   1       2.401  -0.465  -1.131  0.00  0.00    -0.060 I 
ATOM     10  F2  UNL d   1       0.870  -1.321   1.546  0.00  0.00    -0.096 F 
ATOM     11  F3  UNL d   1      -1.542  -0.603   2.547  0.00  0.00    -0.097 F 
ATOM     12  F4  UNL d   1      -3.127   1.159   1.197  0.00  0.00    -0.092 F 
ENDROOT
TORSDOF 0
ENDMDL
