MODEL 1
REMARK minimizedAffinity -1.34484959
REMARK minimizedRMSD -1
REMARK  0 active torsions:
REMARK  status: ('A' for Active; 'I' for Inactive)
ROOT
ATOM      1  C   UNL d   1       1.094  -1.042  -0.599  0.00  0.00     0.124 A 
ATOM      2  C1  UNL d   1       1.800  -0.113   0.154  0.00  0.00     0.062 A 
ATOM      3  C2  UNL d   1       1.161   0.601   1.163  0.00  0.00     0.162 A 
ATOM      4  C3  UNL d   1      -0.192   0.389   1.428  0.00  0.00    -0.034 A 
ATOM      5  C4  UNL d   1      -0.896  -0.546   0.666  0.00  0.00     0.162 A 
ATOM      6  C5  UNL d   1      -0.253  -1.257  -0.342  0.00  0.00     0.062 A 
ATOM      7  F   UNL d   1      -0.936  -2.154  -1.067  0.00  0.00    -0.097 F 
ATOM      8  F1  UNL d   1      -2.197  -0.775   0.894  0.00  0.00    -0.096 F 
ATOM      9  I   UNL d   1      -1.151   1.455   2.936  0.00  0.00    -0.060 I 
ATOM     10  F2  UNL d   1       1.868   1.492   1.874  0.00  0.00    -0.096 F 
ATOM     11  F3  UNL d   1       3.101   0.098  -0.093  0.00  0.00    -0.097 F 
ATOM     12  F4  UNL d   1       1.711  -1.727  -1.570  0.00  0.00    -0.092 F 
ENDROOT
TORSDOF 0
ENDMDL
