MODEL 1
REMARK minimizedAffinity -4.97369051
REMARK minimizedRMSD -1
REMARK  0 active torsions:
REMARK  status: ('A' for Active; 'I' for Inactive)
ROOT
ATOM      1  C   UNL d   1       2.148   0.283  -2.063  0.00  0.00     0.124 A 
ATOM      2  C1  UNL d   1       1.826  -0.753  -1.197  0.00  0.00     0.062 A 
ATOM      3  C2  UNL d   1       0.734  -0.638  -0.343  0.00  0.00     0.162 A 
ATOM      4  C3  UNL d   1      -0.047   0.518  -0.351  0.00  0.00    -0.034 A 
ATOM      5  C4  UNL d   1       0.284   1.556  -1.223  0.00  0.00     0.162 A 
ATOM      6  C5  UNL d   1       1.377   1.436  -2.075  0.00  0.00     0.062 A 
ATOM      7  F   UNL d   1       1.686   2.439  -2.910  0.00  0.00    -0.097 F 
ATOM      8  F1  UNL d   1      -0.445   2.682  -1.256  0.00  0.00    -0.096 F 
ATOM      9  I   UNL d   1      -1.682   0.694   0.925  0.00  0.00    -0.060 I 
ATOM     10  F2  UNL d   1       0.446  -1.656   0.482  0.00  0.00    -0.096 F 
ATOM     11  F3  UNL d   1       2.571  -1.869  -1.183  0.00  0.00    -0.097 F 
ATOM     12  F4  UNL d   1       3.201   0.170  -2.883  0.00  0.00    -0.092 F 
ENDROOT
TORSDOF 0
ENDMDL
