MODEL 1
REMARK minimizedAffinity 1.05815744
REMARK minimizedRMSD -1
REMARK  0 active torsions:
REMARK  status: ('A' for Active; 'I' for Inactive)
ROOT
ATOM      1  C   UNL d   1      -2.097   0.770   2.464  0.00  0.00     0.124 A 
ATOM      2  C1  UNL d   1      -1.056   1.681   2.358  0.00  0.00     0.062 A 
ATOM      3  C2  UNL d   1      -0.035   1.473   1.435  0.00  0.00     0.162 A 
ATOM      4  C3  UNL d   1      -0.052   0.349   0.609  0.00  0.00    -0.034 A 
ATOM      5  C4  UNL d   1      -1.102  -0.563   0.722  0.00  0.00     0.162 A 
ATOM      6  C5  UNL d   1      -2.120  -0.351   1.646  0.00  0.00     0.062 A 
ATOM      7  F   UNL d   1      -3.125  -1.232   1.747  0.00  0.00    -0.097 F 
ATOM      8  F1  UNL d   1      -1.149  -1.654  -0.057  0.00  0.00    -0.096 F 
ATOM      9  I   UNL d   1       1.473   0.035  -0.773  0.00  0.00    -0.060 I 
ATOM     10  F2  UNL d   1       0.959   2.370   1.354  0.00  0.00    -0.096 F 
ATOM     11  F3  UNL d   1      -1.032   2.764   3.148  0.00  0.00    -0.097 F 
ATOM     12  F4  UNL d   1      -3.078   0.972   3.354  0.00  0.00    -0.092 F 
ENDROOT
TORSDOF 0
ENDMDL
