MODEL 1
REMARK minimizedAffinity -1.0566082
REMARK minimizedRMSD -1
REMARK  0 active torsions:
REMARK  status: ('A' for Active; 'I' for Inactive)
ROOT
ATOM      1  C   UNL d   1       1.188  -1.558  -1.453  0.00  0.00     0.124 A 
ATOM      2  C1  UNL d   1       1.939  -0.525  -0.910  0.00  0.00     0.062 A 
ATOM      3  C2  UNL d   1       1.422   0.247   0.126  0.00  0.00     0.162 A 
ATOM      4  C3  UNL d   1       0.146  -0.011   0.627  0.00  0.00    -0.034 A 
ATOM      5  C4  UNL d   1      -0.604  -1.051   0.075  0.00  0.00     0.162 A 
ATOM      6  C5  UNL d   1      -0.082  -1.820  -0.960  0.00  0.00     0.062 A 
ATOM      7  F   UNL d   1      -0.810  -2.817  -1.484  0.00  0.00    -0.097 F 
ATOM      8  F1  UNL d   1      -1.834  -1.327   0.533  0.00  0.00    -0.096 F 
ATOM      9  I   UNL d   1      -0.630   1.141   2.176  0.00  0.00    -0.060 I 
ATOM     10  F2  UNL d   1       2.171   1.239   0.631  0.00  0.00    -0.096 F 
ATOM     11  F3  UNL d   1       3.167  -0.269  -1.386  0.00  0.00    -0.097 F 
ATOM     12  F4  UNL d   1       1.688  -2.298  -2.451  0.00  0.00    -0.092 F 
ENDROOT
TORSDOF 0
ENDMDL
