MODEL 1
REMARK minimizedAffinity -0.995967209
REMARK minimizedRMSD -1
REMARK  0 active torsions:
REMARK  status: ('A' for Active; 'I' for Inactive)
ROOT
ATOM      1  C   UNL d   1       1.537   0.684  -0.816  0.00  0.00     0.124 A 
ATOM      2  C1  UNL d   1       0.363   1.393  -1.029  0.00  0.00     0.062 A 
ATOM      3  C2  UNL d   1      -0.679   1.314  -0.109  0.00  0.00     0.162 A 
ATOM      4  C3  UNL d   1      -0.550   0.523   1.033  0.00  0.00    -0.034 A 
ATOM      5  C4  UNL d   1       0.634  -0.188   1.240  0.00  0.00     0.162 A 
ATOM      6  C5  UNL d   1       1.672  -0.105   0.317  0.00  0.00     0.062 A 
ATOM      7  F   UNL d   1       2.806  -0.790   0.524  0.00  0.00    -0.097 F 
ATOM      8  F1  UNL d   1       0.790  -0.957   2.327  0.00  0.00    -0.096 F 
ATOM      9  I   UNL d   1      -2.105   0.402   2.411  0.00  0.00    -0.060 I 
ATOM     10  F2  UNL d   1      -1.802   2.009  -0.340  0.00  0.00    -0.096 F 
ATOM     11  F3  UNL d   1       0.231   2.155  -2.124  0.00  0.00    -0.097 F 
ATOM     12  F4  UNL d   1       2.538   0.762  -1.703  0.00  0.00    -0.092 F 
ENDROOT
TORSDOF 0
ENDMDL
