MODEL 1
REMARK minimizedAffinity -3.50345349
REMARK minimizedRMSD -1
REMARK  0 active torsions:
REMARK  status: ('A' for Active; 'I' for Inactive)
ROOT
ATOM      1  C   UNL d   1       1.956  -0.467  -1.027  0.00  0.00     0.124 A 
ATOM      2  C1  UNL d   1       1.129  -1.546  -0.749  0.00  0.00     0.062 A 
ATOM      3  C2  UNL d   1      -0.071  -1.352  -0.070  0.00  0.00     0.162 A 
ATOM      4  C3  UNL d   1      -0.451  -0.073   0.334  0.00  0.00    -0.034 A 
ATOM      5  C4  UNL d   1       0.386   1.008   0.052  0.00  0.00     0.162 A 
ATOM      6  C5  UNL d   1       1.584   0.808  -0.626  0.00  0.00     0.062 A 
ATOM      7  F   UNL d   1       2.382   1.853  -0.893  0.00  0.00    -0.097 F 
ATOM      8  F1  UNL d   1       0.051   2.251   0.427  0.00  0.00    -0.096 F 
ATOM      9  I   UNL d   1      -2.244   0.221   1.349  0.00  0.00    -0.060 I 
ATOM     10  F2  UNL d   1      -0.850  -2.414   0.184  0.00  0.00    -0.096 F 
ATOM     11  F3  UNL d   1       1.487  -2.780  -1.134  0.00  0.00    -0.097 F 
ATOM     12  F4  UNL d   1       3.111  -0.657  -1.679  0.00  0.00    -0.092 F 
ENDROOT
TORSDOF 0
ENDMDL
