MODEL 1
REMARK minimizedAffinity 0.999300301
REMARK minimizedRMSD -1
REMARK  0 active torsions:
REMARK  status: ('A' for Active; 'I' for Inactive)
ROOT
ATOM      1  C   UNL d   1      -3.025  -1.654   4.824  0.00  0.00     0.172 C 
ATOM      2  N   UNL d   1      -3.490  -0.540   4.031  0.00  0.00    -0.070 N 
ATOM      3  C1  UNL d   1      -3.104  -0.257   2.748  0.00  0.00    -0.004 A 
ATOM      4  C2  UNL d   1      -3.770   0.881   2.348  0.00  0.00    -0.047 A 
ATOM      5  C3  UNL d   1      -4.585   1.296   3.428  0.00  0.00    -0.047 A 
ATOM      6  C4  UNL d   1      -4.392   0.399   4.457  0.00  0.00    -0.004 A 
ENDROOT
TORSDOF 0
ENDMDL
