MODEL 1
REMARK minimizedAffinity -0.42711693
REMARK minimizedRMSD -1
REMARK  0 active torsions:
REMARK  status: ('A' for Active; 'I' for Inactive)
ROOT
ATOM      1  C   UNL d   1      -2.424  -0.214   1.754  0.00  0.00     0.172 C 
ATOM      2  N   UNL d   1      -1.522  -0.654   0.716  0.00  0.00    -0.070 N 
ATOM      3  C1  UNL d   1      -0.282  -0.131   0.462  0.00  0.00    -0.004 A 
ATOM      4  C2  UNL d   1       0.258  -0.822  -0.602  0.00  0.00    -0.047 A 
ATOM      5  C3  UNL d   1      -0.691  -1.793  -1.002  0.00  0.00    -0.047 A 
ATOM      6  C4  UNL d   1      -1.783  -1.667  -0.169  0.00  0.00    -0.004 A 
ENDROOT
TORSDOF 0
ENDMDL
