MODEL 1
REMARK minimizedAffinity -0.0133197391
REMARK minimizedRMSD -1
REMARK  0 active torsions:
REMARK  status: ('A' for Active; 'I' for Inactive)
ROOT
ATOM      1  C   UNL d   1       5.442  -5.536   5.979  0.00  0.00     0.172 C 
ATOM      2  N   UNL d   1       5.582  -4.244   5.349  0.00  0.00    -0.070 N 
ATOM      3  C1  UNL d   1       5.993  -4.023   4.062  0.00  0.00    -0.004 A 
ATOM      4  C2  UNL d   1       5.993  -2.662   3.846  0.00  0.00    -0.047 A 
ATOM      5  C3  UNL d   1       5.569  -2.043   5.046  0.00  0.00    -0.047 A 
ATOM      6  C4  UNL d   1       5.321  -3.045   5.960  0.00  0.00    -0.004 A 
ENDROOT
TORSDOF 0
ENDMDL
