MODEL 1
REMARK minimizedAffinity 4.23672628
REMARK minimizedRMSD -1
REMARK  0 active torsions:
REMARK  status: ('A' for Active; 'I' for Inactive)
ROOT
ATOM      1  C   UNL d   1       4.474  -2.198  -5.464  0.00  0.00     0.172 C 
ATOM      2  N   UNL d   1       4.791  -2.435  -4.075  0.00  0.00    -0.070 N 
ATOM      3  C1  UNL d   1       3.941  -2.246  -3.018  0.00  0.00    -0.004 A 
ATOM      4  C2  UNL d   1       4.617  -2.584  -1.866  0.00  0.00    -0.047 A 
ATOM      5  C3  UNL d   1       5.920  -2.989  -2.244  0.00  0.00    -0.047 A 
ATOM      6  C4  UNL d   1       6.000  -2.888  -3.616  0.00  0.00    -0.004 A 
ENDROOT
TORSDOF 0
ENDMDL
