MODEL 1
REMARK minimizedAffinity 5.49563646
REMARK minimizedRMSD -1
REMARK  0 active torsions:
REMARK  status: ('A' for Active; 'I' for Inactive)
ROOT
ATOM      1  C   UNL d   1       4.681  -3.317  -5.714  0.00  0.00     0.172 C 
ATOM      2  N   UNL d   1       4.828  -3.257  -4.278  0.00  0.00    -0.070 N 
ATOM      3  C1  UNL d   1       3.834  -2.957  -3.386  0.00  0.00    -0.004 A 
ATOM      4  C2  UNL d   1       4.375  -3.005  -2.119  0.00  0.00    -0.047 A 
ATOM      5  C3  UNL d   1       5.742  -3.345  -2.255  0.00  0.00    -0.047 A 
ATOM      6  C4  UNL d   1       5.995  -3.496  -3.602  0.00  0.00    -0.004 A 
ENDROOT
TORSDOF 0
ENDMDL
