MODEL 1
REMARK minimizedAffinity 2.57909942
REMARK minimizedRMSD -1
REMARK  0 active torsions:
REMARK  status: ('A' for Active; 'I' for Inactive)
ROOT
ATOM      1  C   UNL d   1      -2.490  -2.724  -1.705  0.00  0.00     0.172 C 
ATOM      2  N   UNL d   1      -2.255  -3.287  -3.014  0.00  0.00    -0.070 N 
ATOM      3  C1  UNL d   1      -1.594  -2.670  -4.042  0.00  0.00    -0.004 A 
ATOM      4  C2  UNL d   1      -1.581  -3.534  -5.115  0.00  0.00    -0.047 A 
ATOM      5  C3  UNL d   1      -2.259  -4.711  -4.719  0.00  0.00    -0.047 A 
ATOM      6  C4  UNL d   1      -2.665  -4.532  -3.414  0.00  0.00    -0.004 A 
ENDROOT
TORSDOF 0
ENDMDL
