MODEL 1
REMARK minimizedAffinity 2.05622172
REMARK minimizedRMSD -1
REMARK  0 active torsions:
REMARK  status: ('A' for Active; 'I' for Inactive)
ROOT
ATOM      1  C   UNL d   1      -1.581  -2.719  -2.637  0.00  0.00     0.172 C 
ATOM      2  N   UNL d   1      -1.248  -1.841  -1.539  0.00  0.00    -0.070 N 
ATOM      3  C1  UNL d   1      -1.399  -2.132  -0.210  0.00  0.00    -0.004 A 
ATOM      4  C2  UNL d   1      -0.968  -1.040   0.513  0.00  0.00    -0.047 A 
ATOM      5  C3  UNL d   1      -0.544  -0.059  -0.415  0.00  0.00    -0.047 A 
ATOM      6  C4  UNL d   1      -0.728  -0.581  -1.678  0.00  0.00    -0.004 A 
ENDROOT
TORSDOF 0
ENDMDL
