MODEL 1
REMARK minimizedAffinity 4.83774137
REMARK minimizedRMSD -1
REMARK  0 active torsions:
REMARK  status: ('A' for Active; 'I' for Inactive)
ROOT
ATOM      1  C   UNL d   1      -1.755  -0.154   0.810  0.00  0.00     0.172 C 
ATOM      2  N   UNL d   1      -2.768   0.124   1.801  0.00  0.00    -0.070 N 
ATOM      3  C1  UNL d   1      -2.831  -0.425   3.054  0.00  0.00    -0.004 A 
ATOM      4  C2  UNL d   1      -3.939   0.094   3.688  0.00  0.00    -0.047 A 
ATOM      5  C3  UNL d   1      -4.565   0.985   2.784  0.00  0.00    -0.047 A 
ATOM      6  C4  UNL d   1      -3.819   0.984   1.624  0.00  0.00    -0.004 A 
ENDROOT
TORSDOF 0
ENDMDL
