MODEL 1
REMARK minimizedAffinity -1.33560479
REMARK minimizedRMSD -1
REMARK  0 active torsions:
REMARK  status: ('A' for Active; 'I' for Inactive)
ROOT
ATOM      1  C   UNL d   1       4.495  -3.731  -5.999  0.00  0.00     0.172 C 
ATOM      2  N   UNL d   1       4.757  -3.397  -4.618  0.00  0.00    -0.070 N 
ATOM      3  C1  UNL d   1       3.821  -2.994  -3.704  0.00  0.00    -0.004 A 
ATOM      4  C2  UNL d   1       4.468  -2.773  -2.507  0.00  0.00    -0.047 A 
ATOM      5  C3  UNL d   1       5.841  -3.053  -2.710  0.00  0.00    -0.047 A 
ATOM      6  C4  UNL d   1       5.991  -3.437  -4.026  0.00  0.00    -0.004 A 
ENDROOT
TORSDOF 0
ENDMDL
