MODEL 1
REMARK minimizedAffinity 8.07229233
REMARK minimizedRMSD -1
REMARK  0 active torsions:
REMARK  status: ('A' for Active; 'I' for Inactive)
ROOT
ATOM      1  C   UNL d   1       1.409  -0.614  -2.174  0.00  0.00     0.172 C 
ATOM      2  N   UNL d   1       0.311  -0.988  -1.314  0.00  0.00    -0.070 N 
ATOM      3  C1  UNL d   1       0.111  -0.540  -0.035  0.00  0.00    -0.004 A 
ATOM      4  C2  UNL d   1      -1.041  -1.128   0.442  0.00  0.00    -0.047 A 
ATOM      5  C3  UNL d   1      -1.550  -1.958  -0.585  0.00  0.00    -0.047 A 
ATOM      6  C4  UNL d   1      -0.693  -1.852  -1.661  0.00  0.00    -0.004 A 
ENDROOT
TORSDOF 0
ENDMDL
