MODEL 1
REMARK minimizedAffinity 4.91475916
REMARK minimizedRMSD -1
REMARK  0 active torsions:
REMARK  status: ('A' for Active; 'I' for Inactive)
ROOT
ATOM      1  C   UNL d   1       5.957  -5.901   5.949  0.00  0.00     0.172 C 
ATOM      2  N   UNL d   1       5.332  -4.601   5.884  0.00  0.00    -0.070 N 
ATOM      3  C1  UNL d   1       5.985  -3.409   5.713  0.00  0.00    -0.004 A 
ATOM      4  C2  UNL d   1       5.039  -2.407   5.704  0.00  0.00    -0.047 A 
ATOM      5  C3  UNL d   1       3.774  -3.017   5.877  0.00  0.00    -0.047 A 
ATOM      6  C4  UNL d   1       3.985  -4.376   5.985  0.00  0.00    -0.004 A 
ENDROOT
TORSDOF 0
ENDMDL
