MODEL 1
REMARK minimizedAffinity 0.57107228
REMARK minimizedRMSD -1
REMARK  0 active torsions:
REMARK  status: ('A' for Active; 'I' for Inactive)
ROOT
ATOM      1  C   UNL d   1       5.977  -2.392   2.334  0.00  0.00     0.172 C 
ATOM      2  N   UNL d   1       5.983  -2.987   3.650  0.00  0.00    -0.070 N 
ATOM      3  C1  UNL d   1       5.998  -4.329   3.919  0.00  0.00    -0.004 A 
ATOM      4  C2  UNL d   1       6.000  -4.485   5.289  0.00  0.00    -0.047 A 
ATOM      5  C3  UNL d   1       5.986  -3.191   5.862  0.00  0.00    -0.047 A 
ATOM      6  C4  UNL d   1       5.976  -2.283   4.825  0.00  0.00    -0.004 A 
ENDROOT
TORSDOF 0
ENDMDL
