MODEL 1
REMARK minimizedAffinity 4.04702997
REMARK minimizedRMSD -1
REMARK  0 active torsions:
REMARK  status: ('A' for Active; 'I' for Inactive)
ROOT
ATOM      1  C   UNL d   1       5.994  -5.972   5.988  0.00  0.00     0.172 C 
ATOM      2  N   UNL d   1       5.356  -4.726   5.636  0.00  0.00    -0.070 N 
ATOM      3  C1  UNL d   1       5.992  -3.527   5.454  0.00  0.00    -0.004 A 
ATOM      4  C2  UNL d   1       5.038  -2.588   5.129  0.00  0.00    -0.047 A 
ATOM      5  C3  UNL d   1       3.784  -3.244   5.115  0.00  0.00    -0.047 A 
ATOM      6  C4  UNL d   1       4.011  -4.567   5.433  0.00  0.00    -0.004 A 
ENDROOT
TORSDOF 0
ENDMDL
