MODEL 1
REMARK minimizedAffinity 1.2805475
REMARK minimizedRMSD -1
REMARK  0 active torsions:
REMARK  status: ('A' for Active; 'I' for Inactive)
ROOT
ATOM      1  C   UNL d   1      -1.033   1.563  -0.459  0.00  0.00     0.172 C 
ATOM      2  N   UNL d   1      -0.701   0.200  -0.802  0.00  0.00    -0.070 N 
ATOM      3  C1  UNL d   1      -1.196  -0.921  -0.190  0.00  0.00    -0.004 A 
ATOM      4  C2  UNL d   1      -0.637  -2.020  -0.806  0.00  0.00    -0.047 A 
ATOM      5  C3  UNL d   1       0.225  -1.543  -1.822  0.00  0.00    -0.047 A 
ATOM      6  C4  UNL d   1       0.166  -0.166  -1.798  0.00  0.00    -0.004 A 
ENDROOT
TORSDOF 0
ENDMDL
