MODEL 1
REMARK minimizedAffinity 0.345557958
REMARK minimizedRMSD -1
REMARK  0 active torsions:
REMARK  status: ('A' for Active; 'I' for Inactive)
ROOT
ATOM      1  C   UNL d   1       0.028   0.268  -1.794  0.00  0.00     0.172 C 
ATOM      2  N   UNL d   1      -0.452   0.432  -0.442  0.00  0.00    -0.070 N 
ATOM      3  C1  UNL d   1      -0.084   1.430   0.421  0.00  0.00    -0.004 A 
ATOM      4  C2  UNL d   1      -0.762   1.236   1.605  0.00  0.00    -0.047 A 
ATOM      5  C3  UNL d   1      -1.565   0.081   1.449  0.00  0.00    -0.047 A 
ATOM      6  C4  UNL d   1      -1.354  -0.396   0.172  0.00  0.00    -0.004 A 
ENDROOT
TORSDOF 0
ENDMDL
