MODEL 1
REMARK minimizedAffinity -2.90113854
REMARK minimizedRMSD -1
REMARK  0 active torsions:
REMARK  status: ('A' for Active; 'I' for Inactive)
ROOT
ATOM      1  C   UNL d   1      -0.174   1.156  -0.335  0.00  0.00     0.172 C 
ATOM      2  N   UNL d   1      -0.466  -0.197   0.076  0.00  0.00    -0.070 N 
ATOM      3  C1  UNL d   1      -1.250  -0.556   1.140  0.00  0.00    -0.004 A 
ATOM      4  C2  UNL d   1      -1.280  -1.933   1.195  0.00  0.00    -0.047 A 
ATOM      5  C3  UNL d   1      -0.487  -2.418   0.128  0.00  0.00    -0.047 A 
ATOM      6  C4  UNL d   1       0.004  -1.322  -0.549  0.00  0.00    -0.004 A 
ENDROOT
TORSDOF 0
ENDMDL
