MODEL 1
REMARK minimizedAffinity -3.12848401
REMARK minimizedRMSD -1
REMARK  0 active torsions:
REMARK  status: ('A' for Active; 'I' for Inactive)
ROOT
ATOM      1  C   UNL d   1       2.539   1.594   0.024  0.00  0.00    -0.002 A 
ATOM      2  C1  UNL d   1       2.711   0.399   0.708  0.00  0.00     0.010 A 
ATOM      3  C2  UNL d   1       1.644  -0.487   0.868  0.00  0.00     0.041 A 
ATOM      4  C3  UNL d   1       0.390  -0.150   0.322  0.00  0.00    -0.075 A 
ATOM      5  S   UNL d   1      -1.060  -1.081   0.392  0.00  0.00     0.015 SA
ATOM      6  C4  UNL d   1      -1.940   0.086  -0.484  0.00  0.00     0.022 A 
ATOM      7  C5  UNL d   1      -1.163   1.166  -0.830  0.00  0.00     0.026 A 
ATOM      8  C6  UNL d   1       0.193   1.048  -0.372  0.00  0.00    -0.082 A 
ATOM      9  C7  UNL d   1       1.294   1.926  -0.516  0.00  0.00     0.045 A 
ENDROOT
TORSDOF 0
ENDMDL
