MODEL 1
REMARK minimizedAffinity 0.0177460499
REMARK minimizedRMSD -1
REMARK  0 active torsions:
REMARK  status: ('A' for Active; 'I' for Inactive)
ROOT
ATOM      1  C   UNL d   1       0.006   0.643   0.276  0.00  0.00    -0.002 A 
ATOM      2  C1  UNL d   1       0.934   0.699  -0.754  0.00  0.00     0.010 A 
ATOM      3  C2  UNL d   1       0.543   0.476  -2.075  0.00  0.00     0.041 A 
ATOM      4  C3  UNL d   1      -0.811   0.195  -2.347  0.00  0.00    -0.075 A 
ATOM      5  S   UNL d   1      -1.519  -0.111  -3.889  0.00  0.00     0.015 SA
ATOM      6  C4  UNL d   1      -3.071  -0.322  -3.217  0.00  0.00     0.022 A 
ATOM      7  C5  UNL d   1      -3.067  -0.167  -1.851  0.00  0.00     0.026 A 
ATOM      8  C6  UNL d   1      -1.764   0.134  -1.327  0.00  0.00    -0.082 A 
ATOM      9  C7  UNL d   1      -1.336   0.364   0.002  0.00  0.00     0.045 A 
ENDROOT
TORSDOF 0
ENDMDL
