MODEL 1
REMARK minimizedAffinity -4.55310392
REMARK minimizedRMSD -1
REMARK  0 active torsions:
REMARK  status: ('A' for Active; 'I' for Inactive)
ROOT
ATOM      1  C   UNL d   1       3.300  -1.091   0.962  0.00  0.00    -0.002 A 
ATOM      2  C1  UNL d   1       2.588  -1.775   1.938  0.00  0.00     0.010 A 
ATOM      3  C2  UNL d   1       1.192  -1.766   1.936  0.00  0.00     0.041 A 
ATOM      4  C3  UNL d   1       0.516  -1.052   0.927  0.00  0.00    -0.075 A 
ATOM      5  S   UNL d   1      -1.189  -0.901   0.725  0.00  0.00     0.015 SA
ATOM      6  C4  UNL d   1      -1.014   0.074  -0.662  0.00  0.00     0.022 A 
ATOM      7  C5  UNL d   1       0.307   0.289  -0.977  0.00  0.00     0.026 A 
ATOM      8  C6  UNL d   1       1.210  -0.356  -0.067  0.00  0.00    -0.082 A 
ATOM      9  C7  UNL d   1       2.626  -0.384  -0.038  0.00  0.00     0.045 A 
ENDROOT
TORSDOF 0
ENDMDL
