MODEL 1
REMARK minimizedAffinity -3.33196378
REMARK minimizedRMSD -1
REMARK  0 active torsions:
REMARK  status: ('A' for Active; 'I' for Inactive)
ROOT
ATOM      1  C   UNL d   1       0.597   2.237  -0.168  0.00  0.00    -0.002 A 
ATOM      2  C1  UNL d   1       1.884   1.741  -0.016  0.00  0.00     0.010 A 
ATOM      3  C2  UNL d   1       2.094   0.449   0.471  0.00  0.00     0.041 A 
ATOM      4  C3  UNL d   1       0.978  -0.343   0.804  0.00  0.00    -0.075 A 
ATOM      5  S   UNL d   1       0.993  -1.954   1.418  0.00  0.00     0.015 SA
ATOM      6  C4  UNL d   1      -0.709  -2.022   1.492  0.00  0.00     0.022 A 
ATOM      7  C5  UNL d   1      -1.290  -0.852   1.063  0.00  0.00     0.026 A 
ATOM      8  C6  UNL d   1      -0.328   0.134   0.659  0.00  0.00    -0.082 A 
ATOM      9  C7  UNL d   1      -0.507   1.448   0.163  0.00  0.00     0.045 A 
ENDROOT
TORSDOF 0
ENDMDL
