MODEL 1
REMARK minimizedAffinity -0.38520506
REMARK minimizedRMSD -1
REMARK  1 active torsions:
REMARK  status: ('A' for Active; 'I' for Inactive)
REMARK    1  A    between atoms: C1_2  and  C2_3 
ROOT
ATOM      1  C2  UNL d   1       3.193   1.702   5.989  0.00  0.00    -0.073 A 
ATOM      2  C3  UNL d   1       4.483   2.245   5.992  0.00  0.00    -0.002 A 
ATOM      3  C4  UNL d   1       4.664   3.629   5.989  0.00  0.00     0.004 A 
ATOM      4  C5  UNL d   1       3.561   4.482   5.991  0.00  0.00    -0.004 A 
ATOM      5  C6  UNL d   1       2.264   3.958   6.000  0.00  0.00    -0.075 A 
ATOM      6  C7  UNL d   1       1.066   4.861   5.999  0.00  0.00     0.076 C 
ATOM      7  C8  UNL d   1       2.090   2.567   6.000  0.00  0.00     0.001 A 
ENDROOT
BRANCH   1   8
ATOM      8  C1  UNL d   1       2.992   0.208   5.999  0.00  0.00     0.053 C 
ATOM      9  C   UNL d   1       1.519  -0.169   5.981  0.00  0.00     0.018 C 
ENDBRANCH   1   8
TORSDOF 1
ENDMDL
