MODEL 1
REMARK minimizedAffinity 2.0862298
REMARK minimizedRMSD -1
REMARK  1 active torsions:
REMARK  status: ('A' for Active; 'I' for Inactive)
REMARK    1  A    between atoms: C1_2  and  C2_3 
ROOT
ATOM      1  C2  UNL d   1       3.372   0.862   4.844  0.00  0.00    -0.073 A 
ATOM      2  C3  UNL d   1       2.808   0.305   5.997  0.00  0.00    -0.002 A 
ATOM      3  C4  UNL d   1       2.260  -0.978   5.963  0.00  0.00     0.004 A 
ATOM      4  C5  UNL d   1       2.276  -1.718   4.781  0.00  0.00    -0.004 A 
ATOM      5  C6  UNL d   1       2.846  -1.183   3.622  0.00  0.00    -0.075 A 
ATOM      6  C7  UNL d   1       2.869  -1.965   2.341  0.00  0.00     0.076 C 
ATOM      7  C8  UNL d   1       3.392   0.107   3.662  0.00  0.00     0.001 A 
ENDROOT
BRANCH   1   8
ATOM      8  C1  UNL d   1       3.971   2.245   4.876  0.00  0.00     0.053 C 
ATOM      9  C   UNL d   1       2.952   3.298   5.280  0.00  0.00     0.018 C 
ENDBRANCH   1   8
TORSDOF 1
ENDMDL
