MODEL 1
REMARK minimizedAffinity 5.0312252
REMARK minimizedRMSD -1
REMARK  1 active torsions:
REMARK  status: ('A' for Active; 'I' for Inactive)
REMARK    1  A    between atoms: C1_2  and  C2_3 
ROOT
ATOM      1  C2  UNL d   1      -3.518   0.317  -0.312  0.00  0.00    -0.073 A 
ATOM      2  C3  UNL d   1      -4.650  -0.325  -0.829  0.00  0.00    -0.002 A 
ATOM      3  C4  UNL d   1      -5.883  -0.203  -0.188  0.00  0.00     0.004 A 
ATOM      4  C5  UNL d   1      -5.999   0.564   0.971  0.00  0.00    -0.004 A 
ATOM      5  C6  UNL d   1      -4.883   1.222   1.497  0.00  0.00    -0.075 A 
ATOM      6  C7  UNL d   1      -4.990   2.050   2.744  0.00  0.00     0.076 C 
ATOM      7  C8  UNL d   1      -3.647   1.093   0.848  0.00  0.00     0.001 A 
ENDROOT
BRANCH   1   8
ATOM      8  C1  UNL d   1      -2.185   0.194  -1.005  0.00  0.00     0.053 C 
ATOM      9  C   UNL d   1      -2.339  -0.044  -2.499  0.00  0.00     0.018 C 
ENDBRANCH   1   8
TORSDOF 1
ENDMDL
