MODEL 1
REMARK minimizedAffinity 14.0406227
REMARK minimizedRMSD -1
REMARK  1 active torsions:
REMARK  status: ('A' for Active; 'I' for Inactive)
REMARK    1  A    between atoms: C1_2  and  C2_3 
ROOT
ATOM      1  C2  UNL d   1       1.399   4.414   5.999  0.00  0.00    -0.073 A 
ATOM      2  C3  UNL d   1       2.706   4.916   5.995  0.00  0.00    -0.002 A 
ATOM      3  C4  UNL d   1       3.796   4.044   5.998  0.00  0.00     0.004 A 
ATOM      4  C5  UNL d   1       3.592   2.665   5.998  0.00  0.00    -0.004 A 
ATOM      5  C6  UNL d   1       2.294   2.144   5.990  0.00  0.00    -0.075 A 
ATOM      6  C7  UNL d   1       2.057   0.662   5.992  0.00  0.00     0.076 C 
ATOM      7  C8  UNL d   1       1.204   3.025   5.990  0.00  0.00     0.001 A 
ENDROOT
BRANCH   1   8
ATOM      8  C1  UNL d   1       0.219   5.350   5.989  0.00  0.00     0.053 C 
ATOM      9  C   UNL d   1      -0.103   5.847   4.588  0.00  0.00     0.018 C 
ENDBRANCH   1   8
TORSDOF 1
ENDMDL
