MODEL 1
REMARK minimizedAffinity 3.08068204
REMARK minimizedRMSD -1
REMARK  1 active torsions:
REMARK  status: ('A' for Active; 'I' for Inactive)
REMARK    1  A    between atoms: C1_2  and  C2_3 
ROOT
ATOM      1  C2  UNL d   1       0.395  -4.862   3.768  0.00  0.00    -0.073 A 
ATOM      2  C3  UNL d   1       1.577  -4.116   3.832  0.00  0.00    -0.002 A 
ATOM      3  C4  UNL d   1       2.240  -3.745   2.662  0.00  0.00     0.004 A 
ATOM      4  C5  UNL d   1       1.726  -4.109   1.417  0.00  0.00    -0.004 A 
ATOM      5  C6  UNL d   1       0.540  -4.844   1.332  0.00  0.00    -0.075 A 
ATOM      6  C7  UNL d   1      -0.026  -5.246   0.001  0.00  0.00     0.076 C 
ATOM      7  C8  UNL d   1      -0.120  -5.216   2.512  0.00  0.00     0.001 A 
ENDROOT
BRANCH   1   8
ATOM      8  C1  UNL d   1      -0.329  -5.260   5.028  0.00  0.00     0.053 C 
ATOM      9  C   UNL d   1       0.580  -5.995   6.000  0.00  0.00     0.018 C 
ENDBRANCH   1   8
TORSDOF 1
ENDMDL
