MODEL 1
REMARK minimizedAffinity 6.98666859
REMARK minimizedRMSD -1
REMARK  2 active torsions:
REMARK  status: ('A' for Active; 'I' for Inactive)
REMARK    1  A    between atoms: C1_2  and  C2_3 
REMARK    2  A    between atoms: C2_3  and  C3_4 
ROOT
ATOM      1  C3  UNL d   1      -3.570   2.380  -3.524  0.00  0.00    -0.075 A 
ATOM      2  C4  UNL d   1      -3.344   3.744  -3.763  0.00  0.00     0.002 A 
ATOM      3  C5  UNL d   1      -4.081   4.424  -4.733  0.00  0.00     0.002 A 
ATOM      4  C6  UNL d   1      -5.042   3.750  -5.482  0.00  0.00    -0.004 A 
ATOM      5  C7  UNL d   1      -5.263   2.391  -5.265  0.00  0.00     0.002 A 
ATOM      6  C8  UNL d   1      -4.531   1.709  -4.292  0.00  0.00     0.002 A 
ENDROOT
BRANCH   1   7
ATOM      7  C2  UNL d   1      -2.797   1.645  -2.455  0.00  0.00     0.056 C 
BRANCH   7   8
ATOM      8  C1  UNL d   1      -3.658   0.721  -1.587  0.00  0.00     0.007 C 
ATOM      9  C   UNL d   1      -3.327  -0.754  -1.770  0.00  0.00     0.009 C 
ENDBRANCH   7   8
ENDBRANCH   1   7
TORSDOF 2
ENDMDL
