MODEL 1
REMARK minimizedAffinity 11.9889278
REMARK minimizedRMSD -1
REMARK  2 active torsions:
REMARK  status: ('A' for Active; 'I' for Inactive)
REMARK    1  A    between atoms: C1_2  and  C2_3 
REMARK    2  A    between atoms: C2_3  and  C3_4 
ROOT
ATOM      1  C3  UNL d   1       3.205  -2.191   2.453  0.00  0.00    -0.075 A 
ATOM      2  C4  UNL d   1       2.118  -1.385   2.821  0.00  0.00     0.002 A 
ATOM      3  C5  UNL d   1       0.993  -1.296   2.001  0.00  0.00     0.002 A 
ATOM      4  C6  UNL d   1       0.945  -2.000   0.800  0.00  0.00    -0.004 A 
ATOM      5  C7  UNL d   1       2.027  -2.790   0.416  0.00  0.00     0.002 A 
ATOM      6  C8  UNL d   1       3.152  -2.885   1.237  0.00  0.00     0.002 A 
ENDROOT
BRANCH   1   7
ATOM      7  C2  UNL d   1       4.413  -2.315   3.351  0.00  0.00     0.056 C 
BRANCH   7   8
ATOM      8  C1  UNL d   1       4.106  -2.121   4.840  0.00  0.00     0.007 C 
ATOM      9  C   UNL d   1       4.909  -3.047   5.744  0.00  0.00     0.009 C 
ENDBRANCH   7   8
ENDBRANCH   1   7
TORSDOF 2
ENDMDL
