MODEL 1
REMARK minimizedAffinity 5.10926199
REMARK minimizedRMSD -1
REMARK  2 active torsions:
REMARK  status: ('A' for Active; 'I' for Inactive)
REMARK    1  A    between atoms: C1_2  and  C2_3 
REMARK    2  A    between atoms: C2_3  and  C3_4 
ROOT
ATOM      1  C3  UNL d   1       2.677  -3.470   0.612  0.00  0.00    -0.075 A 
ATOM      2  C4  UNL d   1       2.828  -2.577   1.683  0.00  0.00     0.002 A 
ATOM      3  C5  UNL d   1       1.909  -1.546   1.880  0.00  0.00     0.002 A 
ATOM      4  C6  UNL d   1       0.836  -1.389   1.006  0.00  0.00    -0.004 A 
ATOM      5  C7  UNL d   1       0.685  -2.261  -0.071  0.00  0.00     0.002 A 
ATOM      6  C8  UNL d   1       1.601  -3.296  -0.268  0.00  0.00     0.002 A 
ENDROOT
BRANCH   1   7
ATOM      7  C2  UNL d   1       3.652  -4.606   0.411  0.00  0.00     0.056 C 
BRANCH   7   8
ATOM      8  C1  UNL d   1       2.986  -5.958   0.135  0.00  0.00     0.007 C 
ATOM      9  C   UNL d   1       1.519  -6.000   0.544  0.00  0.00     0.009 C 
ENDBRANCH   7   8
ENDBRANCH   1   7
TORSDOF 2
ENDMDL
