MODEL 1
REMARK minimizedAffinity 4.24718332
REMARK minimizedRMSD -1
REMARK  2 active torsions:
REMARK  status: ('A' for Active; 'I' for Inactive)
REMARK    1  A    between atoms: C1_2  and  C2_3 
REMARK    2  A    between atoms: C2_3  and  C3_4 
ROOT
ATOM      1  C3  UNL d   1       3.919  -1.867   3.665  0.00  0.00    -0.075 A 
ATOM      2  C4  UNL d   1       2.996  -0.906   4.104  0.00  0.00     0.002 A 
ATOM      3  C5  UNL d   1       1.898  -0.565   3.314  0.00  0.00     0.002 A 
ATOM      4  C6  UNL d   1       1.714  -1.171   2.073  0.00  0.00    -0.004 A 
ATOM      5  C7  UNL d   1       2.634  -2.114   1.619  0.00  0.00     0.002 A 
ATOM      6  C8  UNL d   1       3.731  -2.461   2.410  0.00  0.00     0.002 A 
ENDROOT
BRANCH   1   7
ATOM      7  C2  UNL d   1       5.093  -2.262   4.528  0.00  0.00     0.056 C 
BRANCH   7   8
ATOM      8  C1  UNL d   1       4.707  -2.688   5.948  0.00  0.00     0.007 C 
ATOM      9  C   UNL d   1       3.992  -4.032   5.998  0.00  0.00     0.009 C 
ENDBRANCH   7   8
ENDBRANCH   1   7
TORSDOF 2
ENDMDL
