MODEL 1
REMARK minimizedAffinity 5.72415018
REMARK minimizedRMSD -1
REMARK  2 active torsions:
REMARK  status: ('A' for Active; 'I' for Inactive)
REMARK    1  A    between atoms: C1_2  and  C2_3 
REMARK    2  A    between atoms: C2_3  and  C3_4 
ROOT
ATOM      1  C3  UNL d   1       4.051  -3.098   4.598  0.00  0.00    -0.075 A 
ATOM      2  C4  UNL d   1       3.787  -4.476   4.592  0.00  0.00     0.002 A 
ATOM      3  C5  UNL d   1       4.609  -5.357   5.294  0.00  0.00     0.002 A 
ATOM      4  C6  UNL d   1       5.710  -4.876   6.000  0.00  0.00    -0.004 A 
ATOM      5  C7  UNL d   1       5.991  -3.512   5.999  0.00  0.00     0.002 A 
ATOM      6  C8  UNL d   1       5.167  -2.627   5.302  0.00  0.00     0.002 A 
ENDROOT
BRANCH   1   7
ATOM      7  C2  UNL d   1       3.148  -2.135   3.865  0.00  0.00     0.056 C 
BRANCH   7   8
ATOM      8  C1  UNL d   1       2.942  -2.477   2.385  0.00  0.00     0.007 C 
ATOM      9  C   UNL d   1       1.790  -1.712   1.747  0.00  0.00     0.009 C 
ENDBRANCH   7   8
ENDBRANCH   1   7
TORSDOF 2
ENDMDL
