MODEL 1
REMARK minimizedAffinity 14.3532581
REMARK minimizedRMSD -1
REMARK  2 active torsions:
REMARK  status: ('A' for Active; 'I' for Inactive)
REMARK    1  A    between atoms: C1_2  and  C2_3 
REMARK    2  A    between atoms: C2_3  and  C3_4 
ROOT
ATOM      1  C3  UNL d   1      -3.210  -0.211   1.735  0.00  0.00    -0.075 A 
ATOM      2  C4  UNL d   1      -2.937   0.238   3.035  0.00  0.00     0.002 A 
ATOM      3  C5  UNL d   1      -3.621   1.333   3.565  0.00  0.00     0.002 A 
ATOM      4  C6  UNL d   1      -4.576   1.998   2.800  0.00  0.00    -0.004 A 
ATOM      5  C7  UNL d   1      -4.844   1.571   1.501  0.00  0.00     0.002 A 
ATOM      6  C8  UNL d   1      -4.164   0.473   0.970  0.00  0.00     0.002 A 
ENDROOT
BRANCH   1   7
ATOM      7  C2  UNL d   1      -2.495  -1.413   1.167  0.00  0.00     0.056 C 
BRANCH   7   8
ATOM      8  C1  UNL d   1      -1.183  -1.754   1.882  0.00  0.00     0.007 C 
ATOM      9  C   UNL d   1       0.010  -1.841   0.939  0.00  0.00     0.009 C 
ENDBRANCH   7   8
ENDBRANCH   1   7
TORSDOF 2
ENDMDL
