MODEL 1
REMARK minimizedAffinity 6.44081879
REMARK minimizedRMSD -1
REMARK  2 active torsions:
REMARK  status: ('A' for Active; 'I' for Inactive)
REMARK    1  A    between atoms: C1_2  and  C2_3 
REMARK    2  A    between atoms: C2_3  and  C3_4 
ROOT
ATOM      1  C3  UNL d   1       1.351  -1.795   1.494  0.00  0.00    -0.075 A 
ATOM      2  C4  UNL d   1       1.505  -1.026   2.656  0.00  0.00     0.002 A 
ATOM      3  C5  UNL d   1       0.389  -0.597   3.375  0.00  0.00     0.002 A 
ATOM      4  C6  UNL d   1      -0.893  -0.921   2.936  0.00  0.00    -0.004 A 
ATOM      5  C7  UNL d   1      -1.059  -1.671   1.774  0.00  0.00     0.002 A 
ATOM      6  C8  UNL d   1       0.057  -2.105   1.055  0.00  0.00     0.002 A 
ENDROOT
BRANCH   1   7
ATOM      7  C2  UNL d   1       2.555  -2.287   0.728  0.00  0.00     0.056 C 
BRANCH   7   8
ATOM      8  C1  UNL d   1       2.233  -3.357  -0.320  0.00  0.00     0.007 C 
ATOM      9  C   UNL d   1       2.488  -4.776   0.172  0.00  0.00     0.009 C 
ENDBRANCH   7   8
ENDBRANCH   1   7
TORSDOF 2
ENDMDL
