MODEL 1
REMARK minimizedAffinity 10.342207
REMARK minimizedRMSD -1
REMARK  2 active torsions:
REMARK  status: ('A' for Active; 'I' for Inactive)
REMARK    1  A    between atoms: C1_2  and  C2_3 
REMARK    2  A    between atoms: C2_3  and  C3_4 
ROOT
ATOM      1  C3  UNL d   1      -4.849   1.362   2.225  0.00  0.00    -0.075 A 
ATOM      2  C4  UNL d   1      -6.000   1.762   2.920  0.00  0.00     0.002 A 
ATOM      3  C5  UNL d   1      -5.953   1.987   4.297  0.00  0.00     0.002 A 
ATOM      4  C6  UNL d   1      -4.761   1.806   4.995  0.00  0.00    -0.004 A 
ATOM      5  C7  UNL d   1      -3.617   1.392   4.317  0.00  0.00     0.002 A 
ATOM      6  C8  UNL d   1      -3.659   1.170   2.940  0.00  0.00     0.002 A 
ENDROOT
BRANCH   1   7
ATOM      7  C2  UNL d   1      -4.886   1.145   0.731  0.00  0.00     0.056 C 
BRANCH   7   8
ATOM      8  C1  UNL d   1      -4.104  -0.086   0.260  0.00  0.00     0.007 C 
ATOM      9  C   UNL d   1      -4.174  -0.301  -1.246  0.00  0.00     0.009 C 
ENDBRANCH   7   8
ENDBRANCH   1   7
TORSDOF 2
ENDMDL
