MODEL 1
REMARK minimizedAffinity 5.8051753
REMARK minimizedRMSD -1
REMARK  0 active torsions:
REMARK  status: ('A' for Active; 'I' for Inactive)
ROOT
ATOM      1  C1  DEN d   1       3.000  -0.926  -0.565  0.00  0.00     0.130 A 
ATOM      2  C2  DEN d   1       3.366  -1.116   0.836  0.00  0.00    -0.031 A 
ATOM      3  C3  DEN d   1       3.150   0.163   1.542  0.00  0.00     0.027 A 
ATOM      4  C4  DEN d   1       2.286   2.406   0.607  0.00  0.00     0.027 A 
ATOM      5  C5  DEN d   1       1.857   3.059  -0.528  0.00  0.00    -0.003 A 
ATOM      6  C6  DEN d   1       1.811   2.444  -1.751  0.00  0.00     0.001 A 
ATOM      7  C7  DEN d   1       2.159   1.123  -1.860  0.00  0.00     0.017 A 
ATOM      8  C8  DEN d   1       2.600   0.460  -0.722  0.00  0.00    -0.094 A 
ATOM      9  C9  DEN d   1       2.627   1.096   0.508  0.00  0.00    -0.072 A 
ENDROOT
TORSDOF 0
ENDMDL
