MODEL 1
REMARK minimizedAffinity 2.15905666
REMARK minimizedRMSD -1
REMARK  0 active torsions:
REMARK  status: ('A' for Active; 'I' for Inactive)
ROOT
ATOM      1  C1  DEN d   1      -1.100   5.597  -3.632  0.00  0.00     0.130 A 
ATOM      2  C2  DEN d   1      -1.801   5.985  -4.853  0.00  0.00    -0.031 A 
ATOM      3  C3  DEN d   1      -0.909   5.712  -5.998  0.00  0.00     0.027 A 
ATOM      4  C4  DEN d   1       1.474   4.726  -5.999  0.00  0.00     0.027 A 
ATOM      5  C5  DEN d   1       2.494   4.254  -5.203  0.00  0.00    -0.003 A 
ATOM      6  C6  DEN d   1       2.401   4.228  -3.836  0.00  0.00     0.001 A 
ATOM      7  C7  DEN d   1       1.246   4.641  -3.227  0.00  0.00     0.017 A 
ATOM      8  C8  DEN d   1       0.216   5.126  -4.023  0.00  0.00    -0.094 A 
ATOM      9  C9  DEN d   1       0.325   5.132  -5.403  0.00  0.00    -0.072 A 
ENDROOT
TORSDOF 0
ENDMDL
