MODEL 1
REMARK minimizedAffinity 1.40449333
REMARK minimizedRMSD -1
REMARK  0 active torsions:
REMARK  status: ('A' for Active; 'I' for Inactive)
ROOT
ATOM      1  C1  DEN d   1      -4.630  -3.722   1.120  0.00  0.00     0.130 A 
ATOM      2  C2  DEN d   1      -4.199  -4.915   1.843  0.00  0.00    -0.031 A 
ATOM      3  C3  DEN d   1      -3.191  -5.610   1.017  0.00  0.00     0.027 A 
ATOM      4  C4  DEN d   1      -2.259  -4.956  -1.297  0.00  0.00     0.027 A 
ATOM      5  C5  DEN d   1      -2.331  -4.032  -2.316  0.00  0.00    -0.003 A 
ATOM      6  C6  DEN d   1      -3.191  -2.967  -2.277  0.00  0.00     0.001 A 
ATOM      7  C7  DEN d   1      -3.983  -2.775  -1.175  0.00  0.00     0.017 A 
ATOM      8  C8  DEN d   1      -3.922  -3.706  -0.147  0.00  0.00    -0.094 A 
ATOM      9  C9  DEN d   1      -3.037  -4.770  -0.201  0.00  0.00    -0.072 A 
ENDROOT
TORSDOF 0
ENDMDL
