MODEL 1
REMARK minimizedAffinity 5.92877626
REMARK minimizedRMSD -1
REMARK  0 active torsions:
REMARK  status: ('A' for Active; 'I' for Inactive)
ROOT
ATOM      1  C1  DEN d   1      -5.495  -5.315  -3.848  0.00  0.00     0.130 A 
ATOM      2  C2  DEN d   1      -5.924  -5.735  -5.180  0.00  0.00    -0.031 A 
ATOM      3  C3  DEN d   1      -4.715  -5.993  -5.988  0.00  0.00     0.027 A 
ATOM      4  C4  DEN d   1      -2.235  -5.791  -5.309  0.00  0.00     0.027 A 
ATOM      5  C5  DEN d   1      -1.375  -5.459  -4.286  0.00  0.00    -0.003 A 
ATOM      6  C6  DEN d   1      -1.824  -5.026  -3.066  0.00  0.00     0.001 A 
ATOM      7  C7  DEN d   1      -3.170  -4.958  -2.823  0.00  0.00     0.017 A 
ATOM      8  C8  DEN d   1      -4.044  -5.284  -3.853  0.00  0.00    -0.094 A 
ATOM      9  C9  DEN d   1      -3.570  -5.731  -5.075  0.00  0.00    -0.072 A 
ENDROOT
TORSDOF 0
ENDMDL
