MODEL 1
REMARK minimizedAffinity 8.50199509
REMARK minimizedRMSD -1
REMARK  0 active torsions:
REMARK  status: ('A' for Active; 'I' for Inactive)
ROOT
ATOM      1  C1  DEN d   1      -3.565  -5.798  -5.994  0.00  0.00     0.130 A 
ATOM      2  C2  DEN d   1      -5.000  -5.965  -5.782  0.00  0.00    -0.031 A 
ATOM      3  C3  DEN d   1      -5.246  -5.999  -4.327  0.00  0.00     0.027 A 
ATOM      4  C4  DEN d   1      -3.553  -5.803  -2.390  0.00  0.00     0.027 A 
ATOM      5  C5  DEN d   1      -2.220  -5.659  -2.075  0.00  0.00    -0.003 A 
ATOM      6  C6  DEN d   1      -1.246  -5.587  -3.035  0.00  0.00     0.001 A 
ATOM      7  C7  DEN d   1      -1.596  -5.612  -4.360  0.00  0.00     0.017 A 
ATOM      8  C8  DEN d   1      -2.937  -5.764  -4.686  0.00  0.00    -0.094 A 
ATOM      9  C9  DEN d   1      -3.908  -5.823  -3.700  0.00  0.00    -0.072 A 
ENDROOT
TORSDOF 0
ENDMDL
