MODEL 1
REMARK minimizedAffinity 11.4028387
REMARK minimizedRMSD -1
REMARK  0 active torsions:
REMARK  status: ('A' for Active; 'I' for Inactive)
ROOT
ATOM      1  C1  DEN d   1      -5.975   3.015  -4.325  0.00  0.00     0.130 A 
ATOM      2  C2  DEN d   1      -5.984   3.134  -2.869  0.00  0.00    -0.031 A 
ATOM      3  C3  DEN d   1      -5.979   1.772  -2.299  0.00  0.00     0.027 A 
ATOM      4  C4  DEN d   1      -5.953  -0.499  -3.523  0.00  0.00     0.027 A 
ATOM      5  C5  DEN d   1      -5.953  -1.108  -4.758  0.00  0.00    -0.003 A 
ATOM      6  C6  DEN d   1      -5.994  -0.393  -5.926  0.00  0.00     0.001 A 
ATOM      7  C7  DEN d   1      -5.992   0.977  -5.883  0.00  0.00     0.017 A 
ATOM      8  C8  DEN d   1      -5.999   1.598  -4.641  0.00  0.00    -0.094 A 
ATOM      9  C9  DEN d   1      -5.945   0.858  -3.473  0.00  0.00    -0.072 A 
ENDROOT
TORSDOF 0
ENDMDL
