MODEL 1
REMARK minimizedAffinity 1.74060917
REMARK minimizedRMSD -1
REMARK  0 active torsions:
REMARK  status: ('A' for Active; 'I' for Inactive)
ROOT
ATOM      1  C1  DEN d   1      -5.962   2.769  -2.998  0.00  0.00     0.130 A 
ATOM      2  C2  DEN d   1      -5.985   2.234  -1.639  0.00  0.00    -0.031 A 
ATOM      3  C3  DEN d   1      -5.998   0.760  -1.728  0.00  0.00     0.027 A 
ATOM      4  C4  DEN d   1      -5.982  -0.739  -3.827  0.00  0.00     0.027 A 
ATOM      5  C5  DEN d   1      -5.976  -0.741  -5.204  0.00  0.00    -0.003 A 
ATOM      6  C6  DEN d   1      -5.999   0.416  -5.937  0.00  0.00     0.001 A 
ATOM      7  C7  DEN d   1      -5.984   1.626  -5.295  0.00  0.00     0.017 A 
ATOM      8  C8  DEN d   1      -5.997   1.637  -3.907  0.00  0.00    -0.094 A 
ATOM      9  C9  DEN d   1      -5.962   0.456  -3.184  0.00  0.00    -0.072 A 
ENDROOT
TORSDOF 0
ENDMDL
