MODEL 1
REMARK minimizedAffinity 7.26669502
REMARK minimizedRMSD -1
REMARK  0 active torsions:
REMARK  status: ('A' for Active; 'I' for Inactive)
ROOT
ATOM      1  C1  DEN d   1      -6.000   0.086  -1.971  0.00  0.00     0.130 A 
ATOM      2  C2  DEN d   1      -5.965   1.540  -2.103  0.00  0.00    -0.031 A 
ATOM      3  C3  DEN d   1      -5.949   1.868  -3.543  0.00  0.00     0.027 A 
ATOM      4  C4  DEN d   1      -5.981   0.273  -5.570  0.00  0.00     0.027 A 
ATOM      5  C5  DEN d   1      -5.999  -1.048  -5.959  0.00  0.00    -0.003 A 
ATOM      6  C6  DEN d   1      -5.985  -2.076  -5.054  0.00  0.00     0.001 A 
ATOM      7  C7  DEN d   1      -5.997  -1.799  -3.712  0.00  0.00     0.017 A 
ATOM      8  C8  DEN d   1      -5.971  -0.469  -3.312  0.00  0.00    -0.094 A 
ATOM      9  C9  DEN d   1      -5.998   0.556  -4.243  0.00  0.00    -0.072 A 
ENDROOT
TORSDOF 0
ENDMDL
