MODEL 1
REMARK minimizedAffinity 0.665060699
REMARK minimizedRMSD -1
REMARK  0 active torsions:
REMARK  status: ('A' for Active; 'I' for Inactive)
ROOT
ATOM      1  C1  DEN d   1      -3.403  -1.301   2.182  0.00  0.00     0.130 A 
ATOM      2  C2  DEN d   1      -2.049  -1.004   1.722  0.00  0.00    -0.031 A 
ATOM      3  C3  DEN d   1      -1.340  -0.302   2.810  0.00  0.00     0.027 A 
ATOM      4  C4  DEN d   1      -2.200   0.346   5.154  0.00  0.00     0.027 A 
ATOM      5  C5  DEN d   1      -3.288   0.315   5.998  0.00  0.00    -0.003 A 
ATOM      6  C6  DEN d   1      -4.490  -0.221   5.621  0.00  0.00     0.001 A 
ATOM      7  C7  DEN d   1      -4.621  -0.790   4.382  0.00  0.00     0.017 A 
ATOM      8  C8  DEN d   1      -3.531  -0.756   3.522  0.00  0.00    -0.094 A 
ATOM      9  C9  DEN d   1      -2.320  -0.220   3.926  0.00  0.00    -0.072 A 
ENDROOT
TORSDOF 0
ENDMDL
