MODEL 1
REMARK minimizedAffinity 0.769064188
REMARK minimizedRMSD -1
REMARK  0 active torsions:
REMARK  status: ('A' for Active; 'I' for Inactive)
ROOT
ATOM      1  C1  DEN d   1      -0.745  -1.504   2.479  0.00  0.00     0.130 A 
ATOM      2  C2  DEN d   1      -0.157  -0.699   3.546  0.00  0.00    -0.031 A 
ATOM      3  C3  DEN d   1      -1.254  -0.198   4.397  0.00  0.00     0.027 A 
ATOM      4  C4  DEN d   1      -3.793  -0.591   4.170  0.00  0.00     0.027 A 
ATOM      5  C5  DEN d   1      -4.772  -1.199   3.415  0.00  0.00    -0.003 A 
ATOM      6  C6  DEN d   1      -4.482  -1.916   2.285  0.00  0.00     0.001 A 
ATOM      7  C7  DEN d   1      -3.177  -2.082   1.902  0.00  0.00     0.017 A 
ATOM      8  C8  DEN d   1      -2.185  -1.467   2.655  0.00  0.00    -0.094 A 
ATOM      9  C9  DEN d   1      -2.498  -0.756   3.801  0.00  0.00    -0.072 A 
ENDROOT
TORSDOF 0
ENDMDL
