MODEL 1
REMARK minimizedAffinity 1.36568999
REMARK minimizedRMSD -1
REMARK  0 active torsions:
REMARK  status: ('A' for Active; 'I' for Inactive)
ROOT
ATOM      1  C1  DEN d   1      -5.998   0.558  -4.859  0.00  0.00     0.130 A 
ATOM      2  C2  DEN d   1      -5.962  -0.888  -5.060  0.00  0.00    -0.031 A 
ATOM      3  C3  DEN d   1      -5.947  -1.533  -3.732  0.00  0.00     0.027 A 
ATOM      4  C4  DEN d   1      -5.981  -0.439  -1.396  0.00  0.00     0.027 A 
ATOM      5  C5  DEN d   1      -6.000   0.760  -0.718  0.00  0.00    -0.003 A 
ATOM      6  C6  DEN d   1      -5.986   1.966  -1.368  0.00  0.00     0.001 A 
ATOM      7  C7  DEN d   1      -5.997   2.000  -2.737  0.00  0.00     0.017 A 
ATOM      8  C8  DEN d   1      -5.970   0.795  -3.427  0.00  0.00    -0.094 A 
ATOM      9  C9  DEN d   1      -5.997  -0.414  -2.753  0.00  0.00    -0.072 A 
ENDROOT
TORSDOF 0
ENDMDL
