MODEL 1
REMARK minimizedAffinity 4.83627987
REMARK minimizedRMSD -1
REMARK  0 active torsions:
REMARK  status: ('A' for Active; 'I' for Inactive)
ROOT
ATOM      1  C1  DEN d   1       2.179   4.537  -3.439  0.00  0.00     0.130 A 
ATOM      2  C2  DEN d   1       2.055   3.160  -2.971  0.00  0.00    -0.031 A 
ATOM      3  C3  DEN d   1       0.821   2.590  -3.548  0.00  0.00     0.027 A 
ATOM      4  C4  DEN d   1      -0.899   3.701  -5.116  0.00  0.00     0.027 A 
ATOM      5  C5  DEN d   1      -1.228   4.863  -5.779  0.00  0.00    -0.003 A 
ATOM      6  C6  DEN d   1      -0.469   5.998  -5.682  0.00  0.00     0.001 A 
ATOM      7  C7  DEN d   1       0.683   5.984  -4.940  0.00  0.00     0.017 A 
ATOM      8  C8  DEN d   1       1.017   4.818  -4.263  0.00  0.00    -0.094 A 
ATOM      9  C9  DEN d   1       0.243   3.677  -4.384  0.00  0.00    -0.072 A 
ENDROOT
TORSDOF 0
ENDMDL
