MODEL 1
REMARK minimizedAffinity 7.35811663
REMARK minimizedRMSD -1
REMARK  0 active torsions:
REMARK  status: ('A' for Active; 'I' for Inactive)
ROOT
ATOM      1  C1  DEN d   1      -5.995   1.976  -2.801  0.00  0.00     0.130 A 
ATOM      2  C2  DEN d   1      -5.986   1.284  -1.516  0.00  0.00    -0.031 A 
ATOM      3  C3  DEN d   1      -5.870  -0.165  -1.778  0.00  0.00     0.027 A 
ATOM      4  C4  DEN d   1      -5.699  -1.396  -4.038  0.00  0.00     0.027 A 
ATOM      5  C5  DEN d   1      -5.677  -1.234  -5.405  0.00  0.00    -0.003 A 
ATOM      6  C6  DEN d   1      -5.792  -0.005  -5.997  0.00  0.00     0.001 A 
ATOM      7  C7  DEN d   1      -5.890   1.117  -5.217  0.00  0.00     0.017 A 
ATOM      8  C8  DEN d   1      -5.921   0.962  -3.837  0.00  0.00    -0.094 A 
ATOM      9  C9  DEN d   1      -5.790  -0.289  -3.258  0.00  0.00    -0.072 A 
ENDROOT
TORSDOF 0
ENDMDL
