MODEL 1
REMARK minimizedAffinity 2.39553976
REMARK minimizedRMSD -1
REMARK  0 active torsions:
REMARK  status: ('A' for Active; 'I' for Inactive)
ROOT
ATOM      1  C1  DEN d   1      -3.139  -0.347   4.349  0.00  0.00     0.130 A 
ATOM      2  C2  DEN d   1      -1.807   0.067   3.918  0.00  0.00    -0.031 A 
ATOM      3  C3  DEN d   1      -1.537  -0.556   2.607  0.00  0.00     0.027 A 
ATOM      4  C4  DEN d   1      -3.046  -2.109   1.206  0.00  0.00     0.027 A 
ATOM      5  C5  DEN d   1      -4.263  -2.753   1.165  0.00  0.00    -0.003 A 
ATOM      6  C6  DEN d   1      -5.170  -2.668   2.188  0.00  0.00     0.001 A 
ATOM      7  C7  DEN d   1      -4.891  -1.886   3.278  0.00  0.00     0.017 A 
ATOM      8  C8  DEN d   1      -3.663  -1.240   3.330  0.00  0.00    -0.094 A 
ATOM      9  C9  DEN d   1      -2.765  -1.329   2.280  0.00  0.00    -0.072 A 
ENDROOT
TORSDOF 0
ENDMDL
