MODEL 1
REMARK minimizedAffinity -2.83002162
REMARK minimizedRMSD -1
REMARK  1 active torsions:
REMARK  status: ('A' for Active; 'I' for Inactive)
REMARK    1  A    between atoms: C1_2  and  C2_3 
ROOT
ATOM      1  C2  UNL d   1       0.648  -0.734  -0.610  0.00  0.00    -0.081 A 
ATOM      2  C3  UNL d   1       0.251  -1.096   0.683  0.00  0.00     0.006 A 
ATOM      3  C4  UNL d   1      -0.472  -0.203   1.478  0.00  0.00     0.002 A 
ATOM      4  C5  UNL d   1      -0.816   1.062   0.990  0.00  0.00    -0.080 A 
ATOM      5  C6  UNL d   1      -1.618   2.019   1.822  0.00  0.00     0.076 C 
ATOM      6  C7  UNL d   1      -0.404   1.431  -0.295  0.00  0.00     0.002 A 
ATOM      7  C8  UNL d   1       0.319   0.539  -1.090  0.00  0.00     0.006 A 
ENDROOT
BRANCH   1   8
ATOM      8  C1  UNL d   1       1.372  -1.718  -1.493  0.00  0.00     0.054 C 
ATOM      9  C   UNL d   1       0.393  -2.585  -2.273  0.00  0.00     0.018 C 
ENDBRANCH   1   8
TORSDOF 1
ENDMDL
