MODEL 1
REMARK minimizedAffinity -0.386784941
REMARK minimizedRMSD -1
REMARK  1 active torsions:
REMARK  status: ('A' for Active; 'I' for Inactive)
REMARK    1  A    between atoms: C1_2  and  C2_3 
ROOT
ATOM      1  C2  UNL d   1       0.360  -0.374  -0.086  0.00  0.00    -0.081 A 
ATOM      2  C3  UNL d   1      -0.276  -0.483   1.157  0.00  0.00     0.006 A 
ATOM      3  C4  UNL d   1      -0.991   0.596   1.683  0.00  0.00     0.002 A 
ATOM      4  C5  UNL d   1      -1.089   1.797   0.973  0.00  0.00    -0.080 A 
ATOM      5  C6  UNL d   1      -1.879   2.952   1.513  0.00  0.00     0.076 C 
ATOM      6  C7  UNL d   1      -0.439   1.912  -0.261  0.00  0.00     0.002 A 
ATOM      7  C8  UNL d   1       0.277   0.834  -0.787  0.00  0.00     0.006 A 
ENDROOT
BRANCH   1   8
ATOM      8  C1  UNL d   1       1.078  -1.556  -0.686  0.00  0.00     0.054 C 
ATOM      9  C   UNL d   1       0.108  -2.682  -1.017  0.00  0.00     0.018 C 
ENDBRANCH   1   8
TORSDOF 1
ENDMDL
