MODEL 1
REMARK minimizedAffinity -4.59005213
REMARK minimizedRMSD -1
REMARK  1 active torsions:
REMARK  status: ('A' for Active; 'I' for Inactive)
REMARK    1  A    between atoms: C1_2  and  C2_3 
ROOT
ATOM      1  C2  UNL d   1       0.484  -0.353  -0.502  0.00  0.00    -0.081 A 
ATOM      2  C3  UNL d   1      -0.073  -0.740   0.723  0.00  0.00     0.006 A 
ATOM      3  C4  UNL d   1      -0.957   0.105   1.397  0.00  0.00     0.002 A 
ATOM      4  C5  UNL d   1      -1.305   1.347   0.855  0.00  0.00    -0.080 A 
ATOM      5  C6  UNL d   1      -2.276   2.251   1.555  0.00  0.00     0.076 C 
ATOM      6  C7  UNL d   1      -0.735   1.742  -0.360  0.00  0.00     0.002 A 
ATOM      7  C8  UNL d   1       0.150   0.897  -1.035  0.00  0.00     0.006 A 
ENDROOT
BRANCH   1   8
ATOM      8  C1  UNL d   1       1.387  -1.289  -1.264  0.00  0.00     0.054 C 
ATOM      9  C   UNL d   1       0.607  -2.461  -1.844  0.00  0.00     0.018 C 
ENDBRANCH   1   8
TORSDOF 1
ENDMDL
