MODEL 1
REMARK minimizedAffinity -3.26385188
REMARK minimizedRMSD -1
REMARK  1 active torsions:
REMARK  status: ('A' for Active; 'I' for Inactive)
REMARK    1  A    between atoms: C1_2  and  C2_3 
ROOT
ATOM      1  C2  UNL d   1       0.807  -1.046  -0.576  0.00  0.00    -0.081 A 
ATOM      2  C3  UNL d   1       0.224  -1.346   0.662  0.00  0.00     0.006 A 
ATOM      3  C4  UNL d   1      -0.374  -0.340   1.425  0.00  0.00     0.002 A 
ATOM      4  C5  UNL d   1      -0.406   0.979   0.961  0.00  0.00    -0.080 A 
ATOM      5  C6  UNL d   1      -1.071   2.062   1.757  0.00  0.00     0.076 C 
ATOM      6  C7  UNL d   1       0.192   1.282  -0.267  0.00  0.00     0.002 A 
ATOM      7  C8  UNL d   1       0.791   0.277  -1.030  0.00  0.00     0.006 A 
ENDROOT
BRANCH   1   8
ATOM      8  C1  UNL d   1       1.395  -2.139  -1.431  0.00  0.00     0.054 C 
ATOM      9  C   UNL d   1       0.715  -3.475  -1.167  0.00  0.00     0.018 C 
ENDBRANCH   1   8
TORSDOF 1
ENDMDL
