MODEL 1
REMARK minimizedAffinity 0.194830239
REMARK minimizedRMSD -1
REMARK  1 active torsions:
REMARK  status: ('A' for Active; 'I' for Inactive)
REMARK    1  A    between atoms: C1_2  and  C2_3 
ROOT
ATOM      1  C2  UNL d   1      -0.014   0.429  -0.227  0.00  0.00    -0.081 A 
ATOM      2  C3  UNL d   1      -1.237  -0.145   0.142  0.00  0.00     0.006 A 
ATOM      3  C4  UNL d   1      -1.396  -0.724   1.404  0.00  0.00     0.002 A 
ATOM      4  C5  UNL d   1      -0.338  -0.732   2.319  0.00  0.00    -0.080 A 
ATOM      5  C6  UNL d   1      -0.504  -1.323   3.688  0.00  0.00     0.076 C 
ATOM      6  C7  UNL d   1       0.889  -0.174   1.944  0.00  0.00     0.002 A 
ATOM      7  C8  UNL d   1       1.049   0.404   0.683  0.00  0.00     0.006 A 
ENDROOT
BRANCH   1   8
ATOM      8  C1  UNL d   1       0.141   1.112  -1.562  0.00  0.00     0.054 C 
ATOM      9  C   UNL d   1       0.753   2.496  -1.408  0.00  0.00     0.018 C 
ENDBRANCH   1   8
TORSDOF 1
ENDMDL
