MODEL 1
REMARK minimizedAffinity -3.46937442
REMARK minimizedRMSD -1
REMARK  1 active torsions:
REMARK  status: ('A' for Active; 'I' for Inactive)
REMARK    1  A    between atoms: C1_2  and  C2_3 
ROOT
ATOM      1  C2  UNL d   1       0.288  -0.534   0.242  0.00  0.00    -0.081 A 
ATOM      2  C3  UNL d   1       0.015   0.352  -0.807  0.00  0.00     0.006 A 
ATOM      3  C4  UNL d   1      -0.075  -0.113  -2.121  0.00  0.00     0.002 A 
ATOM      4  C5  UNL d   1       0.099  -1.471  -2.407  0.00  0.00    -0.080 A 
ATOM      5  C6  UNL d   1      -0.025  -1.988  -3.810  0.00  0.00     0.076 C 
ATOM      6  C7  UNL d   1       0.390  -2.354  -1.361  0.00  0.00     0.002 A 
ATOM      7  C8  UNL d   1       0.480  -1.890  -0.047  0.00  0.00     0.006 A 
ENDROOT
BRANCH   1   8
ATOM      8  C1  UNL d   1       0.321  -0.047   1.668  0.00  0.00     0.054 C 
ATOM      9  C   UNL d   1      -0.984   0.636   2.050  0.00  0.00     0.018 C 
ENDBRANCH   1   8
TORSDOF 1
ENDMDL
