MODEL 1
REMARK minimizedAffinity -6.78675604
REMARK minimizedRMSD -1
REMARK  1 active torsions:
REMARK  status: ('A' for Active; 'I' for Inactive)
REMARK    1  A    between atoms: C1_2  and  C2_3 
ROOT
ATOM      1  C2  UNL d   1       0.448   0.100  -0.392  0.00  0.00    -0.081 A 
ATOM      2  C3  UNL d   1      -0.215   1.133  -1.066  0.00  0.00     0.006 A 
ATOM      3  C4  UNL d   1      -1.152   1.926  -0.399  0.00  0.00     0.002 A 
ATOM      4  C5  UNL d   1      -1.437   1.704   0.953  0.00  0.00    -0.080 A 
ATOM      5  C6  UNL d   1      -2.419   2.567   1.688  0.00  0.00     0.076 C 
ATOM      6  C7  UNL d   1      -0.787   0.661   1.621  0.00  0.00     0.002 A 
ATOM      7  C8  UNL d   1       0.150  -0.132   0.955  0.00  0.00     0.006 A 
ENDROOT
BRANCH   1   8
ATOM      8  C1  UNL d   1       1.507  -0.715  -1.090  0.00  0.00     0.054 C 
ATOM      9  C   UNL d   1       0.910  -1.950  -1.749  0.00  0.00     0.018 C 
ENDBRANCH   1   8
TORSDOF 1
ENDMDL
