MODEL 1
REMARK minimizedAffinity -6.13957787
REMARK minimizedRMSD -1
REMARK  1 active torsions:
REMARK  status: ('A' for Active; 'I' for Inactive)
REMARK    1  A    between atoms: C1_2  and  C2_3 
ROOT
ATOM      1  C2  UNL d   1      -0.408   1.730  -0.147  0.00  0.00    -0.081 A 
ATOM      2  C3  UNL d   1      -0.421   0.591   0.667  0.00  0.00     0.006 A 
ATOM      3  C4  UNL d   1       0.504  -0.436   0.461  0.00  0.00     0.002 A 
ATOM      4  C5  UNL d   1       1.461  -0.337  -0.555  0.00  0.00    -0.080 A 
ATOM      5  C6  UNL d   1       2.478  -1.419  -0.766  0.00  0.00     0.076 C 
ATOM      6  C7  UNL d   1       1.462   0.793  -1.379  0.00  0.00     0.002 A 
ATOM      7  C8  UNL d   1       0.538   1.820  -1.174  0.00  0.00     0.006 A 
ENDROOT
BRANCH   1   8
ATOM      8  C1  UNL d   1      -1.362   2.868   0.113  0.00  0.00     0.054 C 
ATOM      9  C   UNL d   1      -2.506   2.435   1.018  0.00  0.00     0.018 C 
ENDBRANCH   1   8
TORSDOF 1
ENDMDL
