MODEL 1
REMARK minimizedAffinity -4.62720585
REMARK minimizedRMSD -1
REMARK  1 active torsions:
REMARK  status: ('A' for Active; 'I' for Inactive)
REMARK    1  A    between atoms: C1_2  and  C2_3 
ROOT
ATOM      1  C2  UNL d   1       0.376  -0.647  -0.496  0.00  0.00    -0.081 A 
ATOM      2  C3  UNL d   1      -0.068  -0.799   0.823  0.00  0.00     0.006 A 
ATOM      3  C4  UNL d   1      -0.826   0.203   1.435  0.00  0.00     0.002 A 
ATOM      4  C5  UNL d   1      -1.159   1.368   0.736  0.00  0.00    -0.080 A 
ATOM      5  C6  UNL d   1      -1.997   2.437   1.370  0.00  0.00     0.076 C 
ATOM      6  C7  UNL d   1      -0.700   1.527  -0.576  0.00  0.00     0.002 A 
ATOM      7  C8  UNL d   1       0.058   0.527  -1.188  0.00  0.00     0.006 A 
ENDROOT
BRANCH   1   8
ATOM      8  C1  UNL d   1       1.138  -1.753  -1.180  0.00  0.00     0.054 C 
ATOM      9  C   UNL d   1       0.267  -2.481  -2.193  0.00  0.00     0.018 C 
ENDBRANCH   1   8
TORSDOF 1
ENDMDL
