MODEL 1
REMARK minimizedAffinity -4.12998819
REMARK minimizedRMSD -1
REMARK  1 active torsions:
REMARK  status: ('A' for Active; 'I' for Inactive)
REMARK    1  A    between atoms: C1_2  and  C2_3 
ROOT
ATOM      1  C2  UNL d   1       0.451  -1.275  -0.358  0.00  0.00    -0.081 A 
ATOM      2  C3  UNL d   1       0.615   0.074  -0.694  0.00  0.00     0.006 A 
ATOM      3  C4  UNL d   1       0.045   1.075   0.096  0.00  0.00     0.002 A 
ATOM      4  C5  UNL d   1      -0.692   0.744   1.238  0.00  0.00    -0.080 A 
ATOM      5  C6  UNL d   1      -1.285   1.810   2.111  0.00  0.00     0.076 C 
ATOM      6  C7  UNL d   1      -0.872  -0.604   1.564  0.00  0.00     0.002 A 
ATOM      7  C8  UNL d   1      -0.302  -1.606   0.774  0.00  0.00     0.006 A 
ENDROOT
BRANCH   1   8
ATOM      8  C1  UNL d   1       1.119  -2.355  -1.171  0.00  0.00     0.054 C 
ATOM      9  C   UNL d   1       0.187  -2.894  -2.246  0.00  0.00     0.018 C 
ENDBRANCH   1   8
TORSDOF 1
ENDMDL
