MODEL 1
REMARK minimizedAffinity 0.204745948
REMARK minimizedRMSD -1
REMARK  1 active torsions:
REMARK  status: ('A' for Active; 'I' for Inactive)
REMARK    1  A    between atoms: C1_2  and  C2_3 
ROOT
ATOM      1  C2  UNL d   1      -2.993   1.762  -2.142  0.00  0.00    -0.081 A 
ATOM      2  C3  UNL d   1      -3.629   0.952  -1.193  0.00  0.00     0.006 A 
ATOM      3  C4  UNL d   1      -2.893   0.348  -0.171  0.00  0.00     0.002 A 
ATOM      4  C5  UNL d   1      -1.512   0.550  -0.076  0.00  0.00    -0.080 A 
ATOM      5  C6  UNL d   1      -0.715  -0.068   1.035  0.00  0.00     0.076 C 
ATOM      6  C7  UNL d   1      -0.874   1.345  -1.033  0.00  0.00     0.002 A 
ATOM      7  C8  UNL d   1      -1.609   1.949  -2.056  0.00  0.00     0.006 A 
ENDROOT
BRANCH   1   8
ATOM      8  C1  UNL d   1      -3.793   2.467  -3.207  0.00  0.00     0.054 C 
ATOM      9  C   UNL d   1      -3.354   3.916  -3.361  0.00  0.00     0.018 C 
ENDBRANCH   1   8
TORSDOF 1
ENDMDL
