MODEL 1
REMARK minimizedAffinity 2.12170672
REMARK minimizedRMSD -1
REMARK  1 active torsions:
REMARK  status: ('A' for Active; 'I' for Inactive)
REMARK    1  A    between atoms: C1_2  and  C2_3 
ROOT
ATOM      1  C2  UNL d   1       0.165   0.023   0.742  0.00  0.00    -0.081 A 
ATOM      2  C3  UNL d   1      -1.199  -0.206   0.963  0.00  0.00     0.006 A 
ATOM      3  C4  UNL d   1      -2.148   0.217   0.030  0.00  0.00     0.002 A 
ATOM      4  C5  UNL d   1      -1.750   0.868  -1.142  0.00  0.00    -0.080 A 
ATOM      5  C6  UNL d   1      -2.758   1.300  -2.166  0.00  0.00     0.076 C 
ATOM      6  C7  UNL d   1      -0.389   1.112  -1.356  0.00  0.00     0.002 A 
ATOM      7  C8  UNL d   1       0.561   0.690  -0.423  0.00  0.00     0.006 A 
ENDROOT
BRANCH   1   8
ATOM      8  C1  UNL d   1       1.196  -0.490   1.715  0.00  0.00     0.054 C 
ATOM      9  C   UNL d   1       0.543  -1.029   2.979  0.00  0.00     0.018 C 
ENDBRANCH   1   8
TORSDOF 1
ENDMDL
