MODEL 1
REMARK minimizedAffinity -2.26601768
REMARK minimizedRMSD -1
REMARK  1 active torsions:
REMARK  status: ('A' for Active; 'I' for Inactive)
REMARK    1  A    between atoms: C1_2  and  C2_3 
ROOT
ATOM      1  C2  UNL d   1      -1.108   1.498  -0.578  0.00  0.00    -0.081 A 
ATOM      2  C3  UNL d   1      -1.628   2.546   0.191  0.00  0.00     0.006 A 
ATOM      3  C4  UNL d   1      -1.524   2.521   1.584  0.00  0.00     0.002 A 
ATOM      4  C5  UNL d   1      -0.891   1.454   2.230  0.00  0.00    -0.080 A 
ATOM      5  C6  UNL d   1      -0.745   1.430   3.722  0.00  0.00     0.076 C 
ATOM      6  C7  UNL d   1      -0.386   0.399   1.462  0.00  0.00     0.002 A 
ATOM      7  C8  UNL d   1      -0.491   0.422   0.070  0.00  0.00     0.006 A 
ENDROOT
BRANCH   1   8
ATOM      8  C1  UNL d   1      -1.162   1.553  -2.084  0.00  0.00     0.054 C 
ATOM      9  C   UNL d   1       0.230   1.699  -2.682  0.00  0.00     0.018 C 
ENDBRANCH   1   8
TORSDOF 1
ENDMDL
