MODEL 1
REMARK minimizedAffinity -3.91544557
REMARK minimizedRMSD -1
REMARK  1 active torsions:
REMARK  status: ('A' for Active; 'I' for Inactive)
REMARK    1  A    between atoms: C1_2  and  C2_3 
ROOT
ATOM      1  C2  UNL d   1       0.600  -1.047   0.039  0.00  0.00    -0.076 A 
ATOM      2  C3  UNL d   1       1.598  -1.528  -0.826  0.00  0.00     0.004 A 
ATOM      3  C4  UNL d   1       2.834  -1.945  -0.333  0.00  0.00    -0.003 A 
ATOM      4  C5  UNL d   1       3.091  -1.887   1.033  0.00  0.00     0.000 A 
ATOM      5  C6  UNL d   1       2.105  -1.429   1.906  0.00  0.00     0.000 A 
ATOM      6  C7  UNL d   1       0.848  -1.021   1.428  0.00  0.00    -0.073 A 
ATOM      7  C8  UNL d   1      -0.176  -0.529   2.414  0.00  0.00     0.078 C 
ENDROOT
BRANCH   1   8
ATOM      8  C1  UNL d   1      -0.711  -0.584  -0.556  0.00  0.00     0.053 C 
ATOM      9  C   UNL d   1      -0.803   0.931  -0.656  0.00  0.00     0.018 C 
ENDBRANCH   1   8
TORSDOF 1
ENDMDL
