MODEL 1
REMARK minimizedAffinity 4.53289557
REMARK minimizedRMSD -1
REMARK  1 active torsions:
REMARK  status: ('A' for Active; 'I' for Inactive)
REMARK    1  A    between atoms: C1_2  and  C2_3 
ROOT
ATOM      1  C2  UNL d   1       1.411   0.028  -0.194  0.00  0.00    -0.076 A 
ATOM      2  C3  UNL d   1       0.378  -0.778  -0.703  0.00  0.00     0.004 A 
ATOM      3  C4  UNL d   1      -0.939  -0.323  -0.730  0.00  0.00    -0.003 A 
ATOM      4  C5  UNL d   1      -1.245   0.945  -0.249  0.00  0.00     0.000 A 
ATOM      5  C6  UNL d   1      -0.229   1.765   0.243  0.00  0.00     0.000 A 
ATOM      6  C7  UNL d   1       1.106   1.328   0.262  0.00  0.00    -0.073 A 
ATOM      7  C8  UNL d   1       2.160   2.251   0.810  0.00  0.00     0.078 C 
ENDROOT
BRANCH   1   8
ATOM      8  C1  UNL d   1       2.817  -0.530  -0.166  0.00  0.00     0.053 C 
ATOM      9  C   UNL d   1       3.238  -0.975   1.226  0.00  0.00     0.018 C 
ENDBRANCH   1   8
TORSDOF 1
ENDMDL
