MODEL 1
REMARK minimizedAffinity -4.56939173
REMARK minimizedRMSD -1
REMARK  1 active torsions:
REMARK  status: ('A' for Active; 'I' for Inactive)
REMARK    1  A    between atoms: C1_2  and  C2_3 
ROOT
ATOM      1  C2  UNL d   1      -0.955   0.424   0.126  0.00  0.00    -0.076 A 
ATOM      2  C3  UNL d   1      -0.788  -0.737   0.901  0.00  0.00     0.004 A 
ATOM      3  C4  UNL d   1       0.483  -1.236   1.182  0.00  0.00    -0.003 A 
ATOM      4  C5  UNL d   1       1.608  -0.582   0.692  0.00  0.00     0.000 A 
ATOM      5  C6  UNL d   1       1.462   0.581  -0.064  0.00  0.00     0.000 A 
ATOM      6  C7  UNL d   1       0.189   1.106  -0.342  0.00  0.00    -0.073 A 
ATOM      7  C8  UNL d   1       0.089   2.359  -1.168  0.00  0.00     0.078 C 
ENDROOT
BRANCH   1   8
ATOM      8  C1  UNL d   1      -2.358   0.903  -0.169  0.00  0.00     0.053 C 
ATOM      9  C   UNL d   1      -3.020   1.546   1.040  0.00  0.00     0.018 C 
ENDBRANCH   1   8
TORSDOF 1
ENDMDL
