MODEL 1
REMARK minimizedAffinity -5.38545084
REMARK minimizedRMSD -1
REMARK  1 active torsions:
REMARK  status: ('A' for Active; 'I' for Inactive)
REMARK    1  A    between atoms: C1_2  and  C2_3 
ROOT
ATOM      1  C2  UNL d   1      -0.058  -0.155  -0.148  0.00  0.00    -0.076 A 
ATOM      2  C3  UNL d   1      -0.175  -1.535  -0.390  0.00  0.00     0.004 A 
ATOM      3  C4  UNL d   1       0.901  -2.394  -0.174  0.00  0.00    -0.003 A 
ATOM      4  C5  UNL d   1       2.111  -1.888   0.288  0.00  0.00     0.000 A 
ATOM      5  C6  UNL d   1       2.239  -0.525   0.550  0.00  0.00     0.000 A 
ATOM      6  C7  UNL d   1       1.159   0.353   0.354  0.00  0.00    -0.073 A 
ATOM      7  C8  UNL d   1       1.355   1.815   0.647  0.00  0.00     0.078 C 
ENDROOT
BRANCH   1   8
ATOM      8  C1  UNL d   1      -1.250   0.733  -0.426  0.00  0.00     0.053 C 
ATOM      9  C   UNL d   1      -2.329   0.610   0.639  0.00  0.00     0.018 C 
ENDBRANCH   1   8
TORSDOF 1
ENDMDL
