MODEL 1
REMARK minimizedAffinity -4.60160208
REMARK minimizedRMSD -1
REMARK  1 active torsions:
REMARK  status: ('A' for Active; 'I' for Inactive)
REMARK    1  A    between atoms: C1_2  and  C2_3 
ROOT
ATOM      1  C2  UNL d   1       0.806  -0.531   0.267  0.00  0.00    -0.076 A 
ATOM      2  C3  UNL d   1      -0.318  -1.317  -0.039  0.00  0.00     0.004 A 
ATOM      3  C4  UNL d   1      -1.542  -0.728  -0.353  0.00  0.00    -0.003 A 
ATOM      4  C5  UNL d   1      -1.661   0.657  -0.366  0.00  0.00     0.000 A 
ATOM      5  C6  UNL d   1      -0.551   1.453  -0.082  0.00  0.00     0.000 A 
ATOM      6  C7  UNL d   1       0.694   0.875   0.221  0.00  0.00    -0.073 A 
ATOM      7  C8  UNL d   1       1.855   1.781   0.525  0.00  0.00     0.078 C 
ENDROOT
BRANCH   1   8
ATOM      8  C1  UNL d   1       2.100  -1.226   0.626  0.00  0.00     0.053 C 
ATOM      9  C   UNL d   1       2.684  -2.009  -0.539  0.00  0.00     0.018 C 
ENDBRANCH   1   8
TORSDOF 1
ENDMDL
