MODEL 1
REMARK minimizedAffinity -3.0088377
REMARK minimizedRMSD -1
REMARK  1 active torsions:
REMARK  status: ('A' for Active; 'I' for Inactive)
REMARK    1  A    between atoms: C1_2  and  C2_3 
ROOT
ATOM      1  C2  UNL d   1       1.010   0.177  -0.291  0.00  0.00    -0.076 A 
ATOM      2  C3  UNL d   1       1.635   1.425  -0.126  0.00  0.00     0.004 A 
ATOM      3  C4  UNL d   1       3.020   1.524  -0.006  0.00  0.00    -0.003 A 
ATOM      4  C5  UNL d   1       3.803   0.376  -0.051  0.00  0.00     0.000 A 
ATOM      5  C6  UNL d   1       3.202  -0.869  -0.232  0.00  0.00     0.000 A 
ATOM      6  C7  UNL d   1       1.808  -0.984  -0.370  0.00  0.00    -0.073 A 
ATOM      7  C8  UNL d   1       1.212  -2.353  -0.558  0.00  0.00     0.078 C 
ENDROOT
BRANCH   1   8
ATOM      8  C1  UNL d   1      -0.498   0.129  -0.388  0.00  0.00     0.053 C 
ATOM      9  C   UNL d   1      -1.159  -0.151   0.953  0.00  0.00     0.018 C 
ENDBRANCH   1   8
TORSDOF 1
ENDMDL
