MODEL 1
REMARK minimizedAffinity -3.78606248
REMARK minimizedRMSD -1
REMARK  1 active torsions:
REMARK  status: ('A' for Active; 'I' for Inactive)
REMARK    1  A    between atoms: C1_2  and  C2_3 
ROOT
ATOM      1  C2  UNL d   1       0.809   0.078  -0.487  0.00  0.00    -0.076 A 
ATOM      2  C3  UNL d   1       1.029  -1.310  -0.543  0.00  0.00     0.004 A 
ATOM      3  C4  UNL d   1       2.322  -1.832  -0.540  0.00  0.00    -0.003 A 
ATOM      4  C5  UNL d   1       3.415  -0.974  -0.481  0.00  0.00     0.000 A 
ATOM      5  C6  UNL d   1       3.215   0.404  -0.407  0.00  0.00     0.000 A 
ATOM      6  C7  UNL d   1       1.918   0.945  -0.393  0.00  0.00    -0.073 A 
ATOM      7  C8  UNL d   1       1.761   2.439  -0.318  0.00  0.00     0.078 C 
ENDROOT
BRANCH   1   8
ATOM      8  C1  UNL d   1      -0.614   0.587  -0.521  0.00  0.00     0.053 C 
ATOM      9  C   UNL d   1      -1.427   0.124   0.678  0.00  0.00     0.018 C 
ENDBRANCH   1   8
TORSDOF 1
ENDMDL
