MODEL 1
REMARK minimizedAffinity -5.88527107
REMARK minimizedRMSD -1
REMARK  1 active torsions:
REMARK  status: ('A' for Active; 'I' for Inactive)
REMARK    1  A    between atoms: C1_2  and  C2_3 
ROOT
ATOM      1  C2  UNL d   1       1.337  -0.035   0.326  0.00  0.00    -0.076 A 
ATOM      2  C3  UNL d   1       2.109  -1.164   0.651  0.00  0.00     0.004 A 
ATOM      3  C4  UNL d   1       3.499  -1.090   0.712  0.00  0.00    -0.003 A 
ATOM      4  C5  UNL d   1       4.141   0.116   0.449  0.00  0.00     0.000 A 
ATOM      5  C6  UNL d   1       3.390   1.250   0.142  0.00  0.00     0.000 A 
ATOM      6  C7  UNL d   1       1.987   1.196   0.092  0.00  0.00    -0.073 A 
ATOM      7  C8  UNL d   1       1.228   2.448  -0.250  0.00  0.00     0.078 C 
ENDROOT
BRANCH   1   8
ATOM      8  C1  UNL d   1      -0.166  -0.183   0.248  0.00  0.00     0.053 C 
ATOM      9  C   UNL d   1      -0.612  -0.968  -0.975  0.00  0.00     0.018 C 
ENDBRANCH   1   8
TORSDOF 1
ENDMDL
