MODEL 1
REMARK minimizedAffinity -6.26334047
REMARK minimizedRMSD -1
REMARK  1 active torsions:
REMARK  status: ('A' for Active; 'I' for Inactive)
REMARK    1  A    between atoms: C1_2  and  C2_3 
ROOT
ATOM      1  C2  UNL d   1       1.179   0.278   0.026  0.00  0.00    -0.076 A 
ATOM      2  C3  UNL d   1       0.976  -1.109   0.132  0.00  0.00     0.004 A 
ATOM      3  C4  UNL d   1       2.003  -1.955   0.550  0.00  0.00    -0.003 A 
ATOM      4  C5  UNL d   1       3.248  -1.427   0.870  0.00  0.00     0.000 A 
ATOM      5  C6  UNL d   1       3.462  -0.051   0.788  0.00  0.00     0.000 A 
ATOM      6  C7  UNL d   1       2.433   0.817   0.384  0.00  0.00    -0.073 A 
ATOM      7  C8  UNL d   1       2.721   2.291   0.308  0.00  0.00     0.078 C 
ENDROOT
BRANCH   1   8
ATOM      8  C1  UNL d   1       0.037   1.142  -0.459  0.00  0.00     0.053 C 
ATOM      9  C   UNL d   1      -1.286   0.783   0.199  0.00  0.00     0.018 C 
ENDBRANCH   1   8
TORSDOF 1
ENDMDL
