MODEL 1
REMARK minimizedAffinity -4.16840076
REMARK minimizedRMSD -1
REMARK  1 active torsions:
REMARK  status: ('A' for Active; 'I' for Inactive)
REMARK    1  A    between atoms: C1_2  and  C2_3 
ROOT
ATOM      1  C2  UNL d   1       0.597  -0.627   0.145  0.00  0.00    -0.077 A 
ATOM      2  C3  UNL d   1      -0.207  -1.671  -0.333  0.00  0.00     0.002 A 
ATOM      3  C4  UNL d   1       0.046  -2.990   0.051  0.00  0.00     0.002 A 
ATOM      4  C5  UNL d   1       1.098  -3.275   0.919  0.00  0.00    -0.004 A 
ATOM      5  C6  UNL d   1       1.904  -2.243   1.398  0.00  0.00     0.002 A 
ATOM      6  C7  UNL d   1       1.654  -0.925   1.014  0.00  0.00     0.002 A 
ENDROOT
BRANCH   1   7
ATOM      7  C1  UNL d   1       0.296   0.801  -0.230  0.00  0.00     0.055 C 
ATOM      8  C   UNL d   1      -1.138   0.956  -0.714  0.00  0.00     0.019 C 
ENDBRANCH   1   7
TORSDOF 1
ENDMDL
