MODEL 1
REMARK minimizedAffinity -3.63387442
REMARK minimizedRMSD -1
REMARK  1 active torsions:
REMARK  status: ('A' for Active; 'I' for Inactive)
REMARK    1  A    between atoms: C1_2  and  C2_3 
ROOT
ATOM      1  C2  UNL d   1       0.220  -0.178   0.163  0.00  0.00    -0.077 A 
ATOM      2  C3  UNL d   1      -0.151  -1.308   0.905  0.00  0.00     0.002 A 
ATOM      3  C4  UNL d   1       0.762  -2.343   1.119  0.00  0.00     0.002 A 
ATOM      4  C5  UNL d   1       2.051  -2.256   0.597  0.00  0.00    -0.004 A 
ATOM      5  C6  UNL d   1       2.429  -1.136  -0.144  0.00  0.00     0.002 A 
ATOM      6  C7  UNL d   1       1.517  -0.102  -0.360  0.00  0.00     0.002 A 
ENDROOT
BRANCH   1   7
ATOM      7  C1  UNL d   1      -0.748   0.961  -0.027  0.00  0.00     0.055 C 
ATOM      8  C   UNL d   1      -1.048   1.192  -1.501  0.00  0.00     0.019 C 
ENDBRANCH   1   7
TORSDOF 1
ENDMDL
