MODEL 1
REMARK minimizedAffinity -3.48330235
REMARK minimizedRMSD -1
REMARK  1 active torsions:
REMARK  status: ('A' for Active; 'I' for Inactive)
REMARK    1  A    between atoms: C1_2  and  C2_3 
ROOT
ATOM      1  C2  UNL d   1      -0.265  -1.553   1.074  0.00  0.00    -0.077 A 
ATOM      2  C3  UNL d   1       0.447  -2.757   0.995  0.00  0.00     0.002 A 
ATOM      3  C4  UNL d   1       1.686  -2.804   0.352  0.00  0.00     0.002 A 
ATOM      4  C5  UNL d   1       2.224  -1.650  -0.212  0.00  0.00    -0.004 A 
ATOM      5  C6  UNL d   1       1.522  -0.447  -0.141  0.00  0.00     0.002 A 
ATOM      6  C7  UNL d   1       0.283  -0.399   0.500  0.00  0.00     0.002 A 
ENDROOT
BRANCH   1   7
ATOM      7  C1  UNL d   1      -1.578  -1.489   1.810  0.00  0.00     0.055 C 
ATOM      8  C   UNL d   1      -1.954  -0.054   2.150  0.00  0.00     0.019 C 
ENDBRANCH   1   7
TORSDOF 1
ENDMDL
