MODEL 1
REMARK minimizedAffinity -3.59611559
REMARK minimizedRMSD -1
REMARK  1 active torsions:
REMARK  status: ('A' for Active; 'I' for Inactive)
REMARK    1  A    between atoms: C1_2  and  C2_3 
ROOT
ATOM      1  C2  UNL d   1      -1.136   0.899  -1.156  0.00  0.00    -0.077 A 
ATOM      2  C3  UNL d   1      -1.681   0.014  -2.097  0.00  0.00     0.002 A 
ATOM      3  C4  UNL d   1      -2.233   0.498  -3.284  0.00  0.00     0.002 A 
ATOM      4  C5  UNL d   1      -2.243   1.867  -3.543  0.00  0.00    -0.004 A 
ATOM      5  C6  UNL d   1      -1.705   2.755  -2.613  0.00  0.00     0.002 A 
ATOM      6  C7  UNL d   1      -1.153   2.273  -1.425  0.00  0.00     0.002 A 
ENDROOT
BRANCH   1   7
ATOM      7  C1  UNL d   1      -0.495   0.375   0.102  0.00  0.00     0.055 C 
ATOM      8  C   UNL d   1      -0.094  -1.086  -0.047  0.00  0.00     0.019 C 
ENDBRANCH   1   7
TORSDOF 1
ENDMDL
