MODEL 1
REMARK minimizedAffinity -3.75803065
REMARK minimizedRMSD -1
REMARK  1 active torsions:
REMARK  status: ('A' for Active; 'I' for Inactive)
REMARK    1  A    between atoms: C1_2  and  C2_3 
ROOT
ATOM      1  C2  UNL d   1       0.097   0.070   0.175  0.00  0.00    -0.077 A 
ATOM      2  C3  UNL d   1      -0.645  -1.109   0.332  0.00  0.00     0.002 A 
ATOM      3  C4  UNL d   1       0.002  -2.330   0.529  0.00  0.00     0.002 A 
ATOM      4  C5  UNL d   1       1.393  -2.384   0.575  0.00  0.00    -0.004 A 
ATOM      5  C6  UNL d   1       2.141  -1.218   0.417  0.00  0.00     0.002 A 
ATOM      6  C7  UNL d   1       1.496   0.004   0.219  0.00  0.00     0.002 A 
ENDROOT
BRANCH   1   7
ATOM      7  C1  UNL d   1      -0.600   1.395   0.012  0.00  0.00     0.055 C 
ATOM      8  C   UNL d   1      -1.541   1.382  -1.183  0.00  0.00     0.019 C 
ENDBRANCH   1   7
TORSDOF 1
ENDMDL
