MODEL 1
REMARK minimizedAffinity -5.2605691
REMARK minimizedRMSD -1
REMARK  1 active torsions:
REMARK  status: ('A' for Active; 'I' for Inactive)
REMARK    1  A    between atoms: C1_2  and  C2_3 
ROOT
ATOM      1  C2  UNL d   1       0.021  -0.282   0.257  0.00  0.00    -0.077 A 
ATOM      2  C3  UNL d   1      -0.573  -1.537   0.066  0.00  0.00     0.002 A 
ATOM      3  C4  UNL d   1       0.199  -2.699   0.121  0.00  0.00     0.002 A 
ATOM      4  C5  UNL d   1       1.567  -2.618   0.371  0.00  0.00    -0.004 A 
ATOM      5  C6  UNL d   1       2.168  -1.374   0.560  0.00  0.00     0.002 A 
ATOM      6  C7  UNL d   1       1.398  -0.211   0.504  0.00  0.00     0.002 A 
ENDROOT
BRANCH   1   7
ATOM      7  C1  UNL d   1      -0.818   0.970   0.248  0.00  0.00     0.055 C 
ATOM      8  C   UNL d   1      -1.150   1.402  -1.173  0.00  0.00     0.019 C 
ENDBRANCH   1   7
TORSDOF 1
ENDMDL
