MODEL 1
REMARK minimizedAffinity -4.39854383
REMARK minimizedRMSD -1
REMARK  1 active torsions:
REMARK  status: ('A' for Active; 'I' for Inactive)
REMARK    1  A    between atoms: C1_2  and  C2_3 
ROOT
ATOM      1  C2  UNL d   1      -0.020   0.009   0.543  0.00  0.00    -0.077 A 
ATOM      2  C3  UNL d   1      -0.402  -1.130   1.267  0.00  0.00     0.002 A 
ATOM      3  C4  UNL d   1       0.504  -2.172   1.474  0.00  0.00     0.002 A 
ATOM      4  C5  UNL d   1       1.798  -2.083   0.965  0.00  0.00    -0.004 A 
ATOM      5  C6  UNL d   1       2.187  -0.956   0.243  0.00  0.00     0.002 A 
ATOM      6  C7  UNL d   1       1.282   0.086   0.034  0.00  0.00     0.002 A 
ENDROOT
BRANCH   1   7
ATOM      7  C1  UNL d   1      -0.981   1.155   0.361  0.00  0.00     0.055 C 
ATOM      8  C   UNL d   1      -0.996   1.641  -1.081  0.00  0.00     0.019 C 
ENDBRANCH   1   7
TORSDOF 1
ENDMDL
