MODEL 1
REMARK minimizedAffinity -3.98520517
REMARK minimizedRMSD -1
REMARK  1 active torsions:
REMARK  status: ('A' for Active; 'I' for Inactive)
REMARK    1  A    between atoms: C1_2  and  C2_3 
ROOT
ATOM      1  C2  UNL d   1      -0.004   0.568  -0.307  0.00  0.00    -0.077 A 
ATOM      2  C3  UNL d   1       1.241  -0.039  -0.529  0.00  0.00     0.002 A 
ATOM      3  C4  UNL d   1       1.584  -1.213   0.144  0.00  0.00     0.002 A 
ATOM      4  C5  UNL d   1       0.687  -1.793   1.039  0.00  0.00    -0.004 A 
ATOM      5  C6  UNL d   1      -0.552  -1.196   1.268  0.00  0.00     0.002 A 
ATOM      6  C7  UNL d   1      -0.896  -0.022   0.597  0.00  0.00     0.002 A 
ENDROOT
BRANCH   1   7
ATOM      7  C1  UNL d   1      -0.395   1.807  -1.068  0.00  0.00     0.055 C 
ATOM      8  C   UNL d   1      -1.077   1.457  -2.383  0.00  0.00     0.019 C 
ENDBRANCH   1   7
TORSDOF 1
ENDMDL
