MODEL 1
REMARK minimizedAffinity 2.01840472
REMARK minimizedRMSD -1
REMARK  1 active torsions:
REMARK  status: ('A' for Active; 'I' for Inactive)
REMARK    1  A    between atoms: C1_2  and  C2_3 
ROOT
ATOM      1  C2  UNL d   1      -0.166   0.515   0.586  0.00  0.00    -0.077 A 
ATOM      2  C3  UNL d   1      -0.714   0.304   1.859  0.00  0.00     0.002 A 
ATOM      3  C4  UNL d   1      -1.136  -0.970   2.244  0.00  0.00     0.002 A 
ATOM      4  C5  UNL d   1      -1.010  -2.043   1.364  0.00  0.00    -0.004 A 
ATOM      5  C6  UNL d   1      -0.468  -1.843   0.095  0.00  0.00     0.002 A 
ATOM      6  C7  UNL d   1      -0.047  -0.570  -0.292  0.00  0.00     0.002 A 
ENDROOT
BRANCH   1   7
ATOM      7  C1  UNL d   1       0.335   1.878   0.187  0.00  0.00     0.055 C 
ATOM      8  C   UNL d   1       1.817   1.845  -0.158  0.00  0.00     0.019 C 
ENDBRANCH   1   7
TORSDOF 1
ENDMDL
