MODEL 1
REMARK minimizedAffinity -0.421971679
REMARK minimizedRMSD -1
REMARK  3 active torsions:
REMARK  status: ('A' for Active; 'I' for Inactive)
REMARK    1  A    between atoms: C3'_2  and  C2'_3 
REMARK    2  A    between atoms: C2'_3  and  C1'_4 
REMARK    3  A    between atoms: C1'_4  and  C1_5 
ROOT
ATOM      1  C1  N4B d   1       2.140  -2.119   2.946  0.00  0.00    -0.075 A 
ATOM      2  C2  N4B d   1       3.152  -2.244   3.924  0.00  0.00     0.002 A 
ATOM      3  C3  N4B d   1       3.066  -3.229   4.878  0.00  0.00     0.002 A 
ATOM      4  C4  N4B d   1       1.973  -4.083   4.886  0.00  0.00    -0.004 A 
ATOM      5  C5  N4B d   1       1.014  -3.971   3.923  0.00  0.00     0.002 A 
ATOM      6  C6  N4B d   1       1.089  -2.989   2.955  0.00  0.00     0.002 A 
ENDROOT
BRANCH   1   7
ATOM      7  C1' N4B d   1       2.147  -1.005   1.935  0.00  0.00     0.057 C 
BRANCH   7   8
ATOM      8  C2' N4B d   1       2.234   0.333   2.665  0.00  0.00     0.009 C 
BRANCH   8   9
ATOM      9  C3' N4B d   1       3.026   1.360   1.875  0.00  0.00     0.004 C 
ATOM     10  C4' N4B d   1       3.811   0.751   0.752  0.00  0.00     0.003 C 
ENDBRANCH   8   9
ENDBRANCH   7   8
ENDBRANCH   1   7
TORSDOF 3
ENDMDL
