MODEL 1
REMARK minimizedAffinity 15.3867588
REMARK minimizedRMSD -1
REMARK  3 active torsions:
REMARK  status: ('A' for Active; 'I' for Inactive)
REMARK    1  A    between atoms: C3'_2  and  C2'_3 
REMARK    2  A    between atoms: C2'_3  and  C1'_4 
REMARK    3  A    between atoms: C1'_4  and  C1_5 
ROOT
ATOM      1  C1  N4B d   1       1.089  -1.648   1.454  0.00  0.00    -0.075 A 
ATOM      2  C2  N4B d   1      -0.160  -1.023   1.245  0.00  0.00     0.002 A 
ATOM      3  C3  N4B d   1      -0.814  -1.179   0.048  0.00  0.00     0.002 A 
ATOM      4  C4  N4B d   1      -0.232  -1.936  -0.958  0.00  0.00    -0.004 A 
ATOM      5  C5  N4B d   1       0.962  -2.558  -0.739  0.00  0.00     0.002 A 
ATOM      6  C6  N4B d   1       1.629  -2.413   0.461  0.00  0.00     0.002 A 
ENDROOT
BRANCH   1   7
ATOM      7  C1' N4B d   1       1.881  -1.437   2.715  0.00  0.00     0.057 C 
BRANCH   7   8
ATOM      8  C2' N4B d   1       1.924   0.054   3.036  0.00  0.00     0.009 C 
BRANCH   8   9
ATOM      9  C3' N4B d   1       2.853   0.810   2.100  0.00  0.00     0.004 C 
ATOM     10  C4' N4B d   1       2.744   2.298   2.251  0.00  0.00     0.003 C 
ENDBRANCH   8   9
ENDBRANCH   7   8
ENDBRANCH   1   7
TORSDOF 3
ENDMDL
