MODEL 1
REMARK minimizedAffinity 12.1989155
REMARK minimizedRMSD -1
REMARK  3 active torsions:
REMARK  status: ('A' for Active; 'I' for Inactive)
REMARK    1  A    between atoms: C3'_2  and  C2'_3 
REMARK    2  A    between atoms: C2'_3  and  C1'_4 
REMARK    3  A    between atoms: C1'_4  and  C1_5 
ROOT
ATOM      1  C1  N4B d   1      -1.200  -1.135  -0.287  0.00  0.00    -0.075 A 
ATOM      2  C2  N4B d   1      -1.687  -2.445  -0.084  0.00  0.00     0.002 A 
ATOM      3  C3  N4B d   1      -2.451  -3.051  -1.051  0.00  0.00     0.002 A 
ATOM      4  C4  N4B d   1      -2.756  -2.362  -2.216  0.00  0.00    -0.004 A 
ATOM      5  C5  N4B d   1      -2.261  -1.106  -2.414  0.00  0.00     0.002 A 
ATOM      6  C6  N4B d   1      -1.488  -0.487  -1.453  0.00  0.00     0.002 A 
ENDROOT
BRANCH   1   7
ATOM      7  C1' N4B d   1      -0.433  -0.400   0.778  0.00  0.00     0.057 C 
BRANCH   7   8
ATOM      8  C2' N4B d   1       0.963  -1.005   0.898  0.00  0.00     0.009 C 
BRANCH   8   9
ATOM      9  C3' N4B d   1       1.772  -0.353   2.005  0.00  0.00     0.004 C 
ATOM     10  C4' N4B d   1       2.156  -1.316   3.089  0.00  0.00     0.003 C 
ENDBRANCH   8   9
ENDBRANCH   7   8
ENDBRANCH   1   7
TORSDOF 3
ENDMDL
