MODEL 1
REMARK minimizedAffinity 1.05950212
REMARK minimizedRMSD -1
REMARK  3 active torsions:
REMARK  status: ('A' for Active; 'I' for Inactive)
REMARK    1  A    between atoms: C3'_2  and  C2'_3 
REMARK    2  A    between atoms: C2'_3  and  C1'_4 
REMARK    3  A    between atoms: C1'_4  and  C1_5 
ROOT
ATOM      1  C1  N4B d   1       2.045   1.775   1.006  0.00  0.00    -0.075 A 
ATOM      2  C2  N4B d   1       3.055   2.284   0.160  0.00  0.00     0.002 A 
ATOM      3  C3  N4B d   1       2.817   3.407  -0.593  0.00  0.00     0.002 A 
ATOM      4  C4  N4B d   1       1.576   4.024  -0.533  0.00  0.00    -0.004 A 
ATOM      5  C5  N4B d   1       0.615   3.541   0.306  0.00  0.00     0.002 A 
ATOM      6  C6  N4B d   1       0.841   2.415   1.073  0.00  0.00     0.002 A 
ENDROOT
BRANCH   1   7
ATOM      7  C1' N4B d   1       2.229   0.501   1.784  0.00  0.00     0.057 C 
BRANCH   7   8
ATOM      8  C2' N4B d   1       1.076  -0.449   1.471  0.00  0.00     0.009 C 
BRANCH   8   9
ATOM      9  C3' N4B d   1       1.160  -1.731   2.280  0.00  0.00     0.004 C 
ATOM     10  C4' N4B d   1       2.180  -1.660   3.377  0.00  0.00     0.003 C 
ENDBRANCH   8   9
ENDBRANCH   7   8
ENDBRANCH   1   7
TORSDOF 3
ENDMDL
