MODEL 1
REMARK minimizedAffinity 9.55643463
REMARK minimizedRMSD -1
REMARK  3 active torsions:
REMARK  status: ('A' for Active; 'I' for Inactive)
REMARK    1  A    between atoms: C3'_2  and  C2'_3 
REMARK    2  A    between atoms: C2'_3  and  C1'_4 
REMARK    3  A    between atoms: C1'_4  and  C1_5 
ROOT
ATOM      1  C1  N4B d   1       3.137  -0.830   2.977  0.00  0.00    -0.075 A 
ATOM      2  C2  N4B d   1       4.200  -1.241   3.811  0.00  0.00     0.002 A 
ATOM      3  C3  N4B d   1       4.025  -2.289   4.681  0.00  0.00     0.002 A 
ATOM      4  C4  N4B d   1       2.795  -2.926   4.749  0.00  0.00    -0.004 A 
ATOM      5  C5  N4B d   1       1.781  -2.539   3.922  0.00  0.00     0.002 A 
ATOM      6  C6  N4B d   1       1.944  -1.491   3.040  0.00  0.00     0.002 A 
ENDROOT
BRANCH   1   7
ATOM      7  C1' N4B d   1       3.254   0.365   2.071  0.00  0.00     0.057 C 
BRANCH   7   8
ATOM      8  C2' N4B d   1       2.438   1.516   2.652  0.00  0.00     0.009 C 
BRANCH   8   9
ATOM      9  C3' N4B d   1       3.159   2.847   2.521  0.00  0.00     0.004 C 
ATOM     10  C4' N4B d   1       3.046   3.693   3.754  0.00  0.00     0.003 C 
ENDBRANCH   8   9
ENDBRANCH   7   8
ENDBRANCH   1   7
TORSDOF 3
ENDMDL
