MODEL 1
REMARK minimizedAffinity 7.66329193
REMARK minimizedRMSD -1
REMARK  3 active torsions:
REMARK  status: ('A' for Active; 'I' for Inactive)
REMARK    1  A    between atoms: C3'_2  and  C2'_3 
REMARK    2  A    between atoms: C2'_3  and  C1'_4 
REMARK    3  A    between atoms: C1'_4  and  C1_5 
ROOT
ATOM      1  C1  N4B d   1       3.533  -2.027   4.468  0.00  0.00    -0.075 A 
ATOM      2  C2  N4B d   1       4.720  -1.547   3.873  0.00  0.00     0.002 A 
ATOM      3  C3  N4B d   1       5.942  -1.945   4.359  0.00  0.00     0.002 A 
ATOM      4  C4  N4B d   1       6.000  -2.803   5.447  0.00  0.00    -0.004 A 
ATOM      5  C5  N4B d   1       4.848  -3.282   5.999  0.00  0.00     0.002 A 
ATOM      6  C6  N4B d   1       3.614  -2.894   5.519  0.00  0.00     0.002 A 
ENDROOT
BRANCH   1   7
ATOM      7  C1' N4B d   1       2.176  -1.552   4.026  0.00  0.00     0.057 C 
BRANCH   7   8
ATOM      8  C2' N4B d   1       2.338  -0.599   2.846  0.00  0.00     0.009 C 
BRANCH   8   9
ATOM      9  C3' N4B d   1       1.876  -1.226   1.542  0.00  0.00     0.004 C 
ATOM     10  C4' N4B d   1       0.502  -0.781   1.138  0.00  0.00     0.003 C 
ENDBRANCH   8   9
ENDBRANCH   7   8
ENDBRANCH   1   7
TORSDOF 3
ENDMDL
