MODEL 1
REMARK minimizedAffinity -4.87071133
REMARK minimizedRMSD -1
REMARK  3 active torsions:
REMARK  status: ('A' for Active; 'I' for Inactive)
REMARK    1  A    between atoms: C3'_2  and  C2'_3 
REMARK    2  A    between atoms: C2'_3  and  C1'_4 
REMARK    3  A    between atoms: C1'_4  and  C1_5 
ROOT
ATOM      1  C1  N4B d   1       1.296  -0.193  -1.202  0.00  0.00    -0.075 A 
ATOM      2  C2  N4B d   1       0.938   0.933  -1.975  0.00  0.00     0.002 A 
ATOM      3  C3  N4B d   1       0.652   2.126  -1.359  0.00  0.00     0.002 A 
ATOM      4  C4  N4B d   1       0.700   2.213   0.024  0.00  0.00    -0.004 A 
ATOM      5  C5  N4B d   1       1.072   1.128   0.763  0.00  0.00     0.002 A 
ATOM      6  C6  N4B d   1       1.366  -0.077   0.157  0.00  0.00     0.002 A 
ENDROOT
BRANCH   1   7
ATOM      7  C1' N4B d   1       1.534  -1.542  -1.824  0.00  0.00     0.057 C 
BRANCH   7   8
ATOM      8  C2' N4B d   1       1.971  -2.523  -0.741  0.00  0.00     0.009 C 
BRANCH   8   9
ATOM      9  C3' N4B d   1       1.023  -3.705  -0.629  0.00  0.00     0.004 C 
ATOM     10  C4' N4B d   1      -0.209  -3.542  -1.468  0.00  0.00     0.003 C 
ENDBRANCH   8   9
ENDBRANCH   7   8
ENDBRANCH   1   7
TORSDOF 3
ENDMDL
