MODEL 1
REMARK minimizedAffinity -3.19377375
REMARK minimizedRMSD -1
REMARK  3 active torsions:
REMARK  status: ('A' for Active; 'I' for Inactive)
REMARK    1  A    between atoms: C3'_2  and  C2'_3 
REMARK    2  A    between atoms: C2'_3  and  C1'_4 
REMARK    3  A    between atoms: C1'_4  and  C1_5 
ROOT
ATOM      1  C1  N4B d   1       0.949   1.654  -0.933  0.00  0.00    -0.075 A 
ATOM      2  C2  N4B d   1       0.827   2.043   0.418  0.00  0.00     0.002 A 
ATOM      3  C3  N4B d   1       1.096   3.339   0.787  0.00  0.00     0.002 A 
ATOM      4  C4  N4B d   1       1.505   4.253  -0.172  0.00  0.00    -0.004 A 
ATOM      5  C5  N4B d   1       1.596   3.875  -1.480  0.00  0.00     0.002 A 
ATOM      6  C6  N4B d   1       1.325   2.578  -1.865  0.00  0.00     0.002 A 
ENDROOT
BRANCH   1   7
ATOM      7  C1' N4B d   1       0.749   0.228  -1.370  0.00  0.00     0.057 C 
BRANCH   7   8
ATOM      8  C2' N4B d   1       1.143  -0.705  -0.229  0.00  0.00     0.009 C 
BRANCH   8   9
ATOM      9  C3' N4B d   1       1.223  -2.153  -0.682  0.00  0.00     0.004 C 
ATOM     10  C4' N4B d   1      -0.104  -2.701  -1.114  0.00  0.00     0.003 C 
ENDBRANCH   8   9
ENDBRANCH   7   8
ENDBRANCH   1   7
TORSDOF 3
ENDMDL
