MODEL 1
REMARK minimizedAffinity -2.29314876
REMARK minimizedRMSD -1
REMARK  3 active torsions:
REMARK  status: ('A' for Active; 'I' for Inactive)
REMARK    1  A    between atoms: C3'_2  and  C2'_3 
REMARK    2  A    between atoms: C2'_3  and  C1'_4 
REMARK    3  A    between atoms: C1'_4  and  C1_5 
ROOT
ATOM      1  C1  N4B d   1       0.988   1.715  -1.120  0.00  0.00    -0.075 A 
ATOM      2  C2  N4B d   1       0.773   0.384  -1.538  0.00  0.00     0.002 A 
ATOM      3  C3  N4B d   1       0.842  -0.642  -0.628  0.00  0.00     0.002 A 
ATOM      4  C4  N4B d   1       1.141  -0.364   0.697  0.00  0.00    -0.004 A 
ATOM      5  C5  N4B d   1       1.321   0.928   1.099  0.00  0.00     0.002 A 
ATOM      6  C6  N4B d   1       1.252   1.969   0.195  0.00  0.00     0.002 A 
ENDROOT
BRANCH   1   7
ATOM      7  C1' N4B d   1       1.008   2.861  -2.094  0.00  0.00     0.057 C 
BRANCH   7   8
ATOM      8  C2' N4B d   1       2.213   3.749  -1.798  0.00  0.00     0.009 C 
BRANCH   8   9
ATOM      9  C3' N4B d   1       1.798   5.121  -1.295  0.00  0.00     0.004 C 
ATOM     10  C4' N4B d   1       2.969   5.999  -0.970  0.00  0.00     0.003 C 
ENDBRANCH   8   9
ENDBRANCH   7   8
ENDBRANCH   1   7
TORSDOF 3
ENDMDL
