MODEL 1
REMARK minimizedAffinity -1.1386472
REMARK minimizedRMSD -1
REMARK  3 active torsions:
REMARK  status: ('A' for Active; 'I' for Inactive)
REMARK    1  A    between atoms: C3'_2  and  C2'_3 
REMARK    2  A    between atoms: C2'_3  and  C1'_4 
REMARK    3  A    between atoms: C1'_4  and  C1_5 
ROOT
ATOM      1  C1  N4B d   1       1.870   2.253  -0.905  0.00  0.00    -0.075 A 
ATOM      2  C2  N4B d   1       1.439   1.162  -1.692  0.00  0.00     0.002 A 
ATOM      3  C3  N4B d   1       1.034  -0.003  -1.088  0.00  0.00     0.002 A 
ATOM      4  C4  N4B d   1       1.069  -0.106   0.295  0.00  0.00    -0.004 A 
ATOM      5  C5  N4B d   1       1.462   0.961   1.048  0.00  0.00     0.002 A 
ATOM      6  C6  N4B d   1       1.868   2.139   0.455  0.00  0.00     0.002 A 
ENDROOT
BRANCH   1   7
ATOM      7  C1' N4B d   1       2.403   3.517  -1.523  0.00  0.00     0.057 C 
BRANCH   7   8
ATOM      8  C2' N4B d   1       2.326   4.646  -0.500  0.00  0.00     0.009 C 
BRANCH   8   9
ATOM      9  C3' N4B d   1       2.613   6.000  -1.125  0.00  0.00     0.004 C 
ATOM     10  C4' N4B d   1       3.815   5.982  -2.022  0.00  0.00     0.003 C 
ENDBRANCH   8   9
ENDBRANCH   7   8
ENDBRANCH   1   7
TORSDOF 3
ENDMDL
