MODEL 1
REMARK minimizedAffinity -4.19581366
REMARK minimizedRMSD -1
REMARK  3 active torsions:
REMARK  status: ('A' for Active; 'I' for Inactive)
REMARK    1  A    between atoms: C3'_2  and  C2'_3 
REMARK    2  A    between atoms: C2'_3  and  C1'_4 
REMARK    3  A    between atoms: C1'_4  and  C1_5 
ROOT
ATOM      1  C1  N4B d   1       1.025   1.066  -0.787  0.00  0.00    -0.075 A 
ATOM      2  C2  N4B d   1       0.730   0.949   0.589  0.00  0.00     0.002 A 
ATOM      3  C3  N4B d   1       0.639   2.075   1.370  0.00  0.00     0.002 A 
ATOM      4  C4  N4B d   1       0.856   3.322   0.803  0.00  0.00    -0.004 A 
ATOM      5  C5  N4B d   1       1.116   3.428  -0.532  0.00  0.00     0.002 A 
ATOM      6  C6  N4B d   1       1.206   2.305  -1.330  0.00  0.00     0.002 A 
ENDROOT
BRANCH   1   7
ATOM      7  C1' N4B d   1       1.220  -0.141  -1.663  0.00  0.00     0.057 C 
BRANCH   7   8
ATOM      8  C2' N4B d   1       1.913  -1.237  -0.859  0.00  0.00     0.009 C 
BRANCH   8   9
ATOM      9  C3' N4B d   1       3.242  -0.770  -0.291  0.00  0.00     0.004 C 
ATOM     10  C4' N4B d   1       4.032  -1.884   0.329  0.00  0.00     0.003 C 
ENDBRANCH   8   9
ENDBRANCH   7   8
ENDBRANCH   1   7
TORSDOF 3
ENDMDL
