MODEL 1
REMARK minimizedAffinity -2.34515285
REMARK minimizedRMSD -1
REMARK  0 active torsions:
REMARK  status: ('A' for Active; 'I' for Inactive)
ROOT
ATOM      1  C   UNL d   1       1.241   2.796   0.289  0.00  0.00     0.077 C 
ATOM      2  C1  UNL d   1       0.617   1.496  -0.123  0.00  0.00    -0.074 A 
ATOM      3  C2  UNL d   1       0.507   1.147  -1.473  0.00  0.00    -0.005 A 
ATOM      4  C3  UNL d   1      -0.068  -0.069  -1.841  0.00  0.00     0.006 A 
ATOM      5  C4  UNL d   1      -0.538  -0.948  -0.864  0.00  0.00    -0.005 A 
ATOM      6  C5  UNL d   1      -0.436  -0.617   0.491  0.00  0.00    -0.074 A 
ATOM      7  C6  UNL d   1      -0.927  -1.554   1.554  0.00  0.00     0.077 C 
ATOM      8  C7  UNL d   1       0.149   0.604   0.853  0.00  0.00    -0.001 A 
ENDROOT
TORSDOF 0
ENDMDL
