MODEL 1
REMARK minimizedAffinity -2.07558918
REMARK minimizedRMSD -1
REMARK  0 active torsions:
REMARK  status: ('A' for Active; 'I' for Inactive)
ROOT
ATOM      1  C   UNL d   1       0.830  -3.128  -0.303  0.00  0.00     0.077 C 
ATOM      2  C1  UNL d   1       0.602  -1.732  -0.799  0.00  0.00    -0.074 A 
ATOM      3  C2  UNL d   1       0.583  -1.449  -2.169  0.00  0.00    -0.005 A 
ATOM      4  C3  UNL d   1       0.361  -0.147  -2.616  0.00  0.00     0.006 A 
ATOM      5  C4  UNL d   1       0.155   0.885  -1.699  0.00  0.00    -0.005 A 
ATOM      6  C5  UNL d   1       0.169   0.622  -0.325  0.00  0.00    -0.074 A 
ATOM      7  C6  UNL d   1      -0.060   1.717   0.673  0.00  0.00     0.077 C 
ATOM      8  C7  UNL d   1       0.386  -0.691   0.115  0.00  0.00    -0.001 A 
ENDROOT
TORSDOF 0
ENDMDL
