MODEL 1
REMARK minimizedAffinity -3.73253202
REMARK minimizedRMSD -1
REMARK  0 active torsions:
REMARK  status: ('A' for Active; 'I' for Inactive)
ROOT
ATOM      1  C   UNL d   1       0.406  -0.592  -2.412  0.00  0.00     0.077 C 
ATOM      2  C1  UNL d   1       0.123  -1.220  -1.080  0.00  0.00    -0.074 A 
ATOM      3  C2  UNL d   1       0.743  -2.415  -0.702  0.00  0.00    -0.005 A 
ATOM      4  C3  UNL d   1       0.477  -2.982   0.544  0.00  0.00     0.006 A 
ATOM      5  C4  UNL d   1      -0.411  -2.361   1.423  0.00  0.00    -0.005 A 
ATOM      6  C5  UNL d   1      -1.040  -1.165   1.064  0.00  0.00    -0.074 A 
ATOM      7  C6  UNL d   1      -1.989  -0.480   2.001  0.00  0.00     0.077 C 
ATOM      8  C7  UNL d   1      -0.762  -0.598  -0.188  0.00  0.00    -0.001 A 
ENDROOT
TORSDOF 0
ENDMDL
