MODEL 1
REMARK minimizedAffinity -3.63117743
REMARK minimizedRMSD -1
REMARK  0 active torsions:
REMARK  status: ('A' for Active; 'I' for Inactive)
ROOT
ATOM      1  C   UNL d   1       0.373  -3.704   0.040  0.00  0.00     0.077 C 
ATOM      2  C1  UNL d   1      -0.105  -2.347   0.465  0.00  0.00    -0.074 A 
ATOM      3  C2  UNL d   1      -0.864  -2.185   1.629  0.00  0.00    -0.005 A 
ATOM      4  C3  UNL d   1      -1.294  -0.916   2.016  0.00  0.00     0.006 A 
ATOM      5  C4  UNL d   1      -0.969   0.202   1.246  0.00  0.00    -0.005 A 
ATOM      6  C5  UNL d   1      -0.210   0.059   0.081  0.00  0.00    -0.074 A 
ATOM      7  C6  UNL d   1       0.156   1.251  -0.753  0.00  0.00     0.077 C 
ATOM      8  C7  UNL d   1       0.224  -1.219  -0.299  0.00  0.00    -0.001 A 
ENDROOT
TORSDOF 0
ENDMDL
