MODEL 1
REMARK minimizedAffinity -3.22386527
REMARK minimizedRMSD -1
REMARK  0 active torsions:
REMARK  status: ('A' for Active; 'I' for Inactive)
ROOT
ATOM      1  C   UNL d   1      -1.280  -0.125   1.492  0.00  0.00     0.077 C 
ATOM      2  C1  UNL d   1      -0.571  -1.164   0.676  0.00  0.00    -0.074 A 
ATOM      3  C2  UNL d   1      -1.149  -2.417   0.449  0.00  0.00    -0.005 A 
ATOM      4  C3  UNL d   1      -0.482  -3.371  -0.320  0.00  0.00     0.006 A 
ATOM      5  C4  UNL d   1       0.768  -3.081  -0.868  0.00  0.00    -0.005 A 
ATOM      6  C5  UNL d   1       1.361  -1.833  -0.653  0.00  0.00    -0.074 A 
ATOM      7  C6  UNL d   1       2.700  -1.503  -1.243  0.00  0.00     0.077 C 
ATOM      8  C7  UNL d   1       0.681  -0.878   0.115  0.00  0.00    -0.001 A 
ENDROOT
TORSDOF 0
ENDMDL
