MODEL 1
REMARK minimizedAffinity -1.89977074
REMARK minimizedRMSD -1
REMARK  0 active torsions:
REMARK  status: ('A' for Active; 'I' for Inactive)
ROOT
ATOM      1  C   UNL d   1      -3.183  -2.731   0.469  0.00  0.00     0.077 C 
ATOM      2  C1  UNL d   1      -1.757  -2.265   0.467  0.00  0.00    -0.074 A 
ATOM      3  C2  UNL d   1      -0.722  -3.120   0.074  0.00  0.00    -0.005 A 
ATOM      4  C3  UNL d   1       0.598  -2.669   0.068  0.00  0.00     0.006 A 
ATOM      5  C4  UNL d   1       0.896  -1.362   0.454  0.00  0.00    -0.005 A 
ATOM      6  C5  UNL d   1      -0.126  -0.492   0.848  0.00  0.00    -0.074 A 
ATOM      7  C6  UNL d   1       0.176   0.919   1.256  0.00  0.00     0.077 C 
ATOM      8  C7  UNL d   1      -1.451  -0.950   0.845  0.00  0.00    -0.001 A 
ENDROOT
TORSDOF 0
ENDMDL
