MODEL 1
REMARK minimizedAffinity -1.7493031
REMARK minimizedRMSD -1
REMARK  0 active torsions:
REMARK  status: ('A' for Active; 'I' for Inactive)
ROOT
ATOM      1  C   UNL d   1       0.837   1.488  -0.032  0.00  0.00     0.077 C 
ATOM      2  C1  UNL d   1       0.234   0.232   0.525  0.00  0.00    -0.074 A 
ATOM      3  C2  UNL d   1      -0.548   0.264   1.684  0.00  0.00    -0.005 A 
ATOM      4  C3  UNL d   1      -1.110  -0.910   2.185  0.00  0.00     0.006 A 
ATOM      5  C4  UNL d   1      -0.897  -2.126   1.533  0.00  0.00    -0.005 A 
ATOM      6  C5  UNL d   1      -0.119  -2.176   0.372  0.00  0.00    -0.074 A 
ATOM      7  C6  UNL d   1       0.112  -3.472  -0.347  0.00  0.00     0.077 C 
ATOM      8  C7  UNL d   1       0.437  -0.991  -0.129  0.00  0.00    -0.001 A 
ENDROOT
TORSDOF 0
ENDMDL
