MODEL 1
REMARK minimizedAffinity -5.02523804
REMARK minimizedRMSD -1
REMARK  0 active torsions:
REMARK  status: ('A' for Active; 'I' for Inactive)
ROOT
ATOM      1  C   UNL d   1       0.394  -3.309   0.727  0.00  0.00     0.077 C 
ATOM      2  C1  UNL d   1       0.042  -1.933   0.246  0.00  0.00    -0.074 A 
ATOM      3  C2  UNL d   1      -0.457  -0.969   1.128  0.00  0.00    -0.005 A 
ATOM      4  C3  UNL d   1      -0.770   0.310   0.668  0.00  0.00     0.006 A 
ATOM      5  C4  UNL d   1      -0.588   0.637  -0.676  0.00  0.00    -0.005 A 
ATOM      6  C5  UNL d   1      -0.089  -0.313  -1.573  0.00  0.00    -0.074 A 
ATOM      7  C6  UNL d   1       0.121   0.025  -3.019  0.00  0.00     0.077 C 
ATOM      8  C7  UNL d   1       0.230  -1.594  -1.101  0.00  0.00    -0.001 A 
ENDROOT
TORSDOF 0
ENDMDL
