MODEL 1
REMARK minimizedAffinity -3.40191102
REMARK minimizedRMSD -1
REMARK  0 active torsions:
REMARK  status: ('A' for Active; 'I' for Inactive)
ROOT
ATOM      1  C   UNL d   1       0.477   0.533  -2.061  0.00  0.00     0.077 C 
ATOM      2  C1  UNL d   1       0.045  -0.164  -0.805  0.00  0.00    -0.074 A 
ATOM      3  C2  UNL d   1      -0.774   0.480   0.129  0.00  0.00    -0.005 A 
ATOM      4  C3  UNL d   1      -1.176  -0.185   1.288  0.00  0.00     0.006 A 
ATOM      5  C4  UNL d   1      -0.763  -1.496   1.525  0.00  0.00    -0.005 A 
ATOM      6  C5  UNL d   1       0.055  -2.156   0.602  0.00  0.00    -0.074 A 
ATOM      7  C6  UNL d   1       0.500  -3.569   0.837  0.00  0.00     0.077 C 
ATOM      8  C7  UNL d   1       0.449  -1.484  -0.563  0.00  0.00    -0.001 A 
ENDROOT
TORSDOF 0
ENDMDL
