MODEL 1
REMARK minimizedAffinity -5.21642113
REMARK minimizedRMSD -1
REMARK  0 active torsions:
REMARK  status: ('A' for Active; 'I' for Inactive)
ROOT
ATOM      1  C   UNL d   1       0.266   2.253  -0.015  0.00  0.00     0.077 C 
ATOM      2  C1  UNL d   1       0.214   0.798  -0.375  0.00  0.00    -0.074 A 
ATOM      3  C2  UNL d   1       0.570   0.361  -1.655  0.00  0.00    -0.005 A 
ATOM      4  C3  UNL d   1       0.525  -0.997  -1.973  0.00  0.00     0.006 A 
ATOM      5  C4  UNL d   1       0.124  -1.929  -1.015  0.00  0.00    -0.005 A 
ATOM      6  C5  UNL d   1      -0.235  -1.511   0.270  0.00  0.00    -0.074 A 
ATOM      7  C6  UNL d   1      -0.659  -2.501   1.314  0.00  0.00     0.077 C 
ATOM      8  C7  UNL d   1      -0.181  -0.146   0.583  0.00  0.00    -0.001 A 
ENDROOT
TORSDOF 0
ENDMDL
