MODEL 1
REMARK minimizedAffinity -3.50118995
REMARK minimizedRMSD -1
REMARK  0 active torsions:
REMARK  status: ('A' for Active; 'I' for Inactive)
ROOT
ATOM      1  C   UNL d   1      -3.231  -2.870   0.714  0.00  0.00     0.077 C 
ATOM      2  C1  UNL d   1      -1.827  -2.382   0.514  0.00  0.00    -0.074 A 
ATOM      3  C2  UNL d   1      -0.793  -3.274   0.211  0.00  0.00    -0.005 A 
ATOM      4  C3  UNL d   1       0.507  -2.804   0.018  0.00  0.00     0.006 A 
ATOM      5  C4  UNL d   1       0.784  -1.441   0.125  0.00  0.00    -0.005 A 
ATOM      6  C5  UNL d   1      -0.237  -0.535   0.426  0.00  0.00    -0.074 A 
ATOM      7  C6  UNL d   1       0.042   0.935   0.535  0.00  0.00     0.077 C 
ATOM      8  C7  UNL d   1      -1.541  -1.013   0.612  0.00  0.00    -0.001 A 
ENDROOT
TORSDOF 0
ENDMDL
