MODEL 1
REMARK minimizedAffinity -2.89225602
REMARK minimizedRMSD -1
REMARK  0 active torsions:
REMARK  status: ('A' for Active; 'I' for Inactive)
ROOT
ATOM      1  C   UNL d   1       2.253   2.996   1.631  0.00  0.00     0.077 C 
ATOM      2  C1  UNL d   1       1.317   2.083   0.896  0.00  0.00    -0.074 A 
ATOM      3  C2  UNL d   1       0.576   2.542  -0.198  0.00  0.00    -0.005 A 
ATOM      4  C3  UNL d   1      -0.284   1.679  -0.877  0.00  0.00     0.006 A 
ATOM      5  C4  UNL d   1      -0.411   0.350  -0.470  0.00  0.00    -0.005 A 
ATOM      6  C5  UNL d   1       0.323  -0.127   0.621  0.00  0.00    -0.074 A 
ATOM      7  C6  UNL d   1       0.205  -1.555   1.065  0.00  0.00     0.077 C 
ATOM      8  C7  UNL d   1       1.189   0.745   1.294  0.00  0.00    -0.001 A 
ENDROOT
TORSDOF 0
ENDMDL
