MODEL 1
REMARK minimizedAffinity -4.1620121
REMARK minimizedRMSD -1
REMARK  0 active torsions:
REMARK  status: ('A' for Active; 'I' for Inactive)
ROOT
ATOM      1  C   UNL d   1       0.242   1.552  -0.552  0.00  0.00     0.077 C 
ATOM      2  C1  UNL d   1      -0.122   0.271   0.139  0.00  0.00    -0.074 A 
ATOM      3  C2  UNL d   1      -0.998   0.267   1.229  0.00  0.00    -0.005 A 
ATOM      4  C3  UNL d   1      -1.336  -0.933   1.855  0.00  0.00     0.006 A 
ATOM      5  C4  UNL d   1      -0.802  -2.139   1.398  0.00  0.00    -0.005 A 
ATOM      6  C5  UNL d   1       0.075  -2.154   0.308  0.00  0.00    -0.074 A 
ATOM      7  C6  UNL d   1       0.650  -3.442  -0.202  0.00  0.00     0.077 C 
ATOM      8  C7  UNL d   1       0.404  -0.945  -0.320  0.00  0.00    -0.001 A 
ENDROOT
TORSDOF 0
ENDMDL
