MODEL 1
REMARK minimizedAffinity -1.05495703
REMARK minimizedRMSD -1
REMARK  0 active torsions:
REMARK  status: ('A' for Active; 'I' for Inactive)
ROOT
ATOM      1  C   UNL d   1       0.012  -3.816   0.352  0.00  0.00     0.077 C 
ATOM      2  C1  UNL d   1       0.019  -2.361  -0.011  0.00  0.00    -0.074 A 
ATOM      3  C2  UNL d   1       0.650  -1.915  -1.177  0.00  0.00    -0.005 A 
ATOM      4  C3  UNL d   1       0.641  -0.560  -1.507  0.00  0.00     0.006 A 
ATOM      5  C4  UNL d   1       0.001   0.361  -0.676  0.00  0.00    -0.005 A 
ATOM      6  C5  UNL d   1      -0.636  -0.067   0.493  0.00  0.00    -0.074 A 
ATOM      7  C6  UNL d   1      -1.337   0.909   1.392  0.00  0.00     0.077 C 
ATOM      8  C7  UNL d   1      -0.628  -1.431   0.814  0.00  0.00    -0.001 A 
ENDROOT
TORSDOF 0
ENDMDL
