MODEL 1
REMARK minimizedAffinity -3.4302249
REMARK minimizedRMSD -1
REMARK  0 active torsions:
REMARK  status: ('A' for Active; 'I' for Inactive)
ROOT
ATOM      1  C   UNL d   1       0.454  -3.423   0.686  0.00  0.00     0.077 C 
ATOM      2  C1  UNL d   1       0.130  -2.055   0.164  0.00  0.00    -0.074 A 
ATOM      3  C2  UNL d   1      -0.522  -1.115   0.967  0.00  0.00    -0.005 A 
ATOM      4  C3  UNL d   1      -0.808   0.157   0.471  0.00  0.00     0.006 A 
ATOM      5  C4  UNL d   1      -0.446   0.500  -0.832  0.00  0.00    -0.005 A 
ATOM      6  C5  UNL d   1       0.207  -0.427  -1.650  0.00  0.00    -0.074 A 
ATOM      7  C6  UNL d   1       0.612  -0.071  -3.050  0.00  0.00     0.077 C 
ATOM      8  C7  UNL d   1       0.498  -1.700  -1.142  0.00  0.00    -0.001 A 
ENDROOT
TORSDOF 0
ENDMDL
