MODEL 1
REMARK minimizedAffinity -3.85153985
REMARK minimizedRMSD -1
REMARK  0 active torsions:
REMARK  status: ('A' for Active; 'I' for Inactive)
ROOT
ATOM      1  C   UNL d   1       0.658  -2.251  -3.043  0.00  0.00     0.077 C 
ATOM      2  C1  UNL d   1      -0.310  -2.649  -1.968  0.00  0.00    -0.074 A 
ATOM      3  C2  UNL d   1       0.023  -2.517  -0.616  0.00  0.00    -0.005 A 
ATOM      4  C3  UNL d   1      -0.891  -2.882   0.372  0.00  0.00     0.006 A 
ATOM      5  C4  UNL d   1      -2.145  -3.382   0.019  0.00  0.00    -0.005 A 
ATOM      6  C5  UNL d   1      -2.496  -3.521  -1.328  0.00  0.00    -0.074 A 
ATOM      7  C6  UNL d   1      -3.843  -4.047  -1.725  0.00  0.00     0.077 C 
ATOM      8  C7  UNL d   1      -1.575  -3.145  -2.315  0.00  0.00    -0.001 A 
ENDROOT
TORSDOF 0
ENDMDL
