MODEL 1
REMARK minimizedAffinity 9.80094814
REMARK minimizedRMSD -1
REMARK  1 active torsions:
REMARK  status: ('A' for Active; 'I' for Inactive)
REMARK    1  A    between atoms: C1_2  and  C2_3 
ROOT
ATOM      1  C2  UNL d   1      -3.468  -0.413   0.511  0.00  0.00    -0.073 A 
ATOM      2  C3  UNL d   1      -4.122   0.686   1.078  0.00  0.00    -0.002 A 
ATOM      3  C4  UNL d   1      -5.375   1.081   0.606  0.00  0.00     0.004 A 
ATOM      4  C5  UNL d   1      -5.987   0.379  -0.432  0.00  0.00    -0.004 A 
ATOM      5  C6  UNL d   1      -5.354  -0.729  -1.004  0.00  0.00    -0.075 A 
ATOM      6  C7  UNL d   1      -5.999  -1.494  -2.122  0.00  0.00     0.076 C 
ATOM      7  C8  UNL d   1      -4.096  -1.118  -0.526  0.00  0.00     0.001 A 
ENDROOT
BRANCH   1   8
ATOM      8  C1  UNL d   1      -2.118  -0.848   1.022  0.00  0.00     0.053 C 
ATOM      9  C   UNL d   1      -0.994  -0.435   0.085  0.00  0.00     0.018 C 
ENDBRANCH   1   8
TORSDOF 1
ENDMDL
