MODEL 1
REMARK minimizedAffinity 8.88165855
REMARK minimizedRMSD -1
REMARK  1 active torsions:
REMARK  status: ('A' for Active; 'I' for Inactive)
REMARK    1  A    between atoms: C1_2  and  C2_3 
ROOT
ATOM      1  C2  UNL d   1       0.958   1.030   1.361  0.00  0.00    -0.073 A 
ATOM      2  C3  UNL d   1       1.905   0.076   1.750  0.00  0.00    -0.002 A 
ATOM      3  C4  UNL d   1       2.150  -1.041   0.950  0.00  0.00     0.004 A 
ATOM      4  C5  UNL d   1       1.457  -1.211  -0.249  0.00  0.00    -0.004 A 
ATOM      5  C6  UNL d   1       0.515  -0.262  -0.660  0.00  0.00    -0.075 A 
ATOM      6  C7  UNL d   1      -0.240  -0.432  -1.946  0.00  0.00     0.076 C 
ATOM      7  C8  UNL d   1       0.273   0.855   0.150  0.00  0.00     0.001 A 
ENDROOT
BRANCH   1   8
ATOM      8  C1  UNL d   1       0.695   2.241   2.218  0.00  0.00     0.053 C 
ATOM      9  C   UNL d   1       1.978   2.968   2.587  0.00  0.00     0.018 C 
ENDBRANCH   1   8
TORSDOF 1
ENDMDL
