MODEL 1
REMARK minimizedAffinity 0.0985934213
REMARK minimizedRMSD -1
REMARK  1 active torsions:
REMARK  status: ('A' for Active; 'I' for Inactive)
REMARK    1  A    between atoms: C1_2  and  C2_3 
ROOT
ATOM      1  C2  UNL d   1       0.194  -2.596   5.990  0.00  0.00    -0.073 A 
ATOM      2  C3  UNL d   1      -1.051  -3.235   5.997  0.00  0.00    -0.002 A 
ATOM      3  C4  UNL d   1      -1.128  -4.628   5.994  0.00  0.00     0.004 A 
ATOM      4  C5  UNL d   1       0.036  -5.396   5.992  0.00  0.00    -0.004 A 
ATOM      5  C6  UNL d   1       1.290  -4.776   5.997  0.00  0.00    -0.075 A 
ATOM      6  C7  UNL d   1       2.552  -5.587   5.993  0.00  0.00     0.076 C 
ATOM      7  C8  UNL d   1       1.359  -3.376   5.997  0.00  0.00     0.001 A 
ENDROOT
BRANCH   1   8
ATOM      8  C1  UNL d   1       0.283  -1.091   5.999  0.00  0.00     0.053 C 
ATOM      9  C   UNL d   1       1.723  -0.605   5.960  0.00  0.00     0.018 C 
ENDBRANCH   1   8
TORSDOF 1
ENDMDL
