MODEL 1
REMARK minimizedAffinity 1.56145084
REMARK minimizedRMSD -1
REMARK  1 active torsions:
REMARK  status: ('A' for Active; 'I' for Inactive)
REMARK    1  A    between atoms: C1_2  and  C2_3 
ROOT
ATOM      1  C2  UNL d   1       0.789   0.061  -0.604  0.00  0.00    -0.073 A 
ATOM      2  C3  UNL d   1       1.726  -0.944  -0.870  0.00  0.00    -0.002 A 
ATOM      3  C4  UNL d   1       2.727  -1.238   0.057  0.00  0.00     0.004 A 
ATOM      4  C5  UNL d   1       2.798  -0.535   1.260  0.00  0.00    -0.004 A 
ATOM      5  C6  UNL d   1       1.864   0.465   1.549  0.00  0.00    -0.075 A 
ATOM      6  C7  UNL d   1       1.928   1.231   2.837  0.00  0.00     0.076 C 
ATOM      7  C8  UNL d   1       0.863   0.756   0.612  0.00  0.00     0.001 A 
ENDROOT
BRANCH   1   8
ATOM      8  C1  UNL d   1      -0.298   0.377  -1.599  0.00  0.00     0.053 C 
ATOM      9  C   UNL d   1      -1.630  -0.237  -1.201  0.00  0.00     0.018 C 
ENDBRANCH   1   8
TORSDOF 1
ENDMDL
