MODEL 1
REMARK minimizedAffinity 3.26109147
REMARK minimizedRMSD -1
REMARK  1 active torsions:
REMARK  status: ('A' for Active; 'I' for Inactive)
REMARK    1  A    between atoms: C1_2  and  C2_3 
ROOT
ATOM      1  C2  UNL d   1      -0.232  -1.196  -1.092  0.00  0.00    -0.073 A 
ATOM      2  C3  UNL d   1      -0.931  -0.175  -0.438  0.00  0.00    -0.002 A 
ATOM      3  C4  UNL d   1      -0.298   0.601   0.534  0.00  0.00     0.004 A 
ATOM      4  C5  UNL d   1       1.039   0.370   0.856  0.00  0.00    -0.004 A 
ATOM      5  C6  UNL d   1       1.758  -0.638   0.205  0.00  0.00    -0.075 A 
ATOM      6  C7  UNL d   1       3.196  -0.901   0.541  0.00  0.00     0.076 C 
ATOM      7  C8  UNL d   1       1.115  -1.415  -0.768  0.00  0.00     0.001 A 
ENDROOT
BRANCH   1   8
ATOM      8  C1  UNL d   1      -0.909  -2.033  -2.146  0.00  0.00     0.053 C 
ATOM      9  C   UNL d   1      -0.877  -3.514  -1.806  0.00  0.00     0.018 C 
ENDBRANCH   1   8
TORSDOF 1
ENDMDL
