MODEL 1
REMARK minimizedAffinity -4.92047405
REMARK minimizedRMSD -1
REMARK  0 active torsions:
REMARK  status: ('A' for Active; 'I' for Inactive)
ROOT
ATOM      1  C   UNL d   1       1.081  -0.075  -1.183  0.00  0.00     0.078 C 
ATOM      2  C1  UNL d   1       1.196   1.363  -0.775  0.00  0.00    -0.077 A 
ATOM      3  C2  UNL d   1       1.073   1.745   0.566  0.00  0.00    -0.001 A 
ATOM      4  C3  UNL d   1       1.173   3.089   0.930  0.00  0.00     0.003 A 
ATOM      5  C4  UNL d   1       1.394   4.062  -0.043  0.00  0.00    -0.005 A 
ATOM      6  C5  UNL d   1       1.515   3.692  -1.381  0.00  0.00     0.003 A 
ATOM      7  C6  UNL d   1       1.416   2.349  -1.746  0.00  0.00    -0.001 A 
ENDROOT
TORSDOF 0
ENDMDL
