MODEL 1
REMARK minimizedAffinity -2.13687134
REMARK minimizedRMSD -1
REMARK  0 active torsions:
REMARK  status: ('A' for Active; 'I' for Inactive)
ROOT
ATOM      1  C   UNL d   1       1.196   1.978   2.313  0.00  0.00     0.078 C 
ATOM      2  C1  UNL d   1       1.256   1.902   0.816  0.00  0.00    -0.077 A 
ATOM      3  C2  UNL d   1       1.297   0.666   0.158  0.00  0.00    -0.001 A 
ATOM      4  C3  UNL d   1       1.363   0.610  -1.235  0.00  0.00     0.003 A 
ATOM      5  C4  UNL d   1       1.388   1.787  -1.982  0.00  0.00    -0.005 A 
ATOM      6  C5  UNL d   1       1.349   3.020  -1.336  0.00  0.00     0.003 A 
ATOM      7  C6  UNL d   1       1.284   3.078   0.057  0.00  0.00    -0.001 A 
ENDROOT
TORSDOF 0
ENDMDL
