MODEL 1
REMARK minimizedAffinity -2.20843697
REMARK minimizedRMSD -1
REMARK  0 active torsions:
REMARK  status: ('A' for Active; 'I' for Inactive)
ROOT
ATOM      1  C   UNL d   1       1.520   5.212  -0.892  0.00  0.00     0.078 C 
ATOM      2  C1  UNL d   1       1.464   3.727  -0.695  0.00  0.00    -0.077 A 
ATOM      3  C2  UNL d   1       1.371   3.173   0.588  0.00  0.00    -0.001 A 
ATOM      4  C3  UNL d   1       1.329   1.788   0.757  0.00  0.00     0.003 A 
ATOM      5  C4  UNL d   1       1.380   0.946  -0.351  0.00  0.00    -0.005 A 
ATOM      6  C5  UNL d   1       1.475   1.488  -1.631  0.00  0.00     0.003 A 
ATOM      7  C6  UNL d   1       1.517   2.872  -1.803  0.00  0.00    -0.001 A 
ENDROOT
TORSDOF 0
ENDMDL
