MODEL 1
REMARK minimizedAffinity -4.02045298
REMARK minimizedRMSD -1
REMARK  0 active torsions:
REMARK  status: ('A' for Active; 'I' for Inactive)
ROOT
ATOM      1  C   UNL d   1       1.265   4.420  -0.895  0.00  0.00     0.078 C 
ATOM      2  C1  UNL d   1       1.165   2.941  -0.670  0.00  0.00    -0.077 A 
ATOM      3  C2  UNL d   1       0.819   2.424   0.584  0.00  0.00    -0.001 A 
ATOM      4  C3  UNL d   1       0.739   1.045   0.782  0.00  0.00     0.003 A 
ATOM      5  C4  UNL d   1       1.005   0.171  -0.270  0.00  0.00    -0.005 A 
ATOM      6  C5  UNL d   1       1.352   0.675  -1.521  0.00  0.00     0.003 A 
ATOM      7  C6  UNL d   1       1.433   2.055  -1.721  0.00  0.00    -0.001 A 
ENDROOT
TORSDOF 0
ENDMDL
