MODEL 1
REMARK minimizedAffinity -1.11236227
REMARK minimizedRMSD -1
REMARK  0 active torsions:
REMARK  status: ('A' for Active; 'I' for Inactive)
ROOT
ATOM      1  C   UNL d   1       1.651   5.737  -0.670  0.00  0.00     0.078 C 
ATOM      2  C1  UNL d   1       1.405   4.258  -0.663  0.00  0.00    -0.077 A 
ATOM      3  C2  UNL d   1       1.167   3.572   0.535  0.00  0.00    -0.001 A 
ATOM      4  C3  UNL d   1       0.950   2.194   0.528  0.00  0.00     0.003 A 
ATOM      5  C4  UNL d   1       0.968   1.488  -0.674  0.00  0.00    -0.005 A 
ATOM      6  C5  UNL d   1       1.206   2.162  -1.871  0.00  0.00     0.003 A 
ATOM      7  C6  UNL d   1       1.424   3.540  -1.866  0.00  0.00    -0.001 A 
ENDROOT
TORSDOF 0
ENDMDL
