MODEL 1
REMARK minimizedAffinity -2.4115169
REMARK minimizedRMSD -1
REMARK  0 active torsions:
REMARK  status: ('A' for Active; 'I' for Inactive)
ROOT
ATOM      1  C   UNL d   1       1.348   4.711  -0.294  0.00  0.00     0.078 C 
ATOM      2  C1  UNL d   1       1.227   3.301  -0.791  0.00  0.00    -0.077 A 
ATOM      3  C2  UNL d   1       1.887   2.249  -0.145  0.00  0.00    -0.001 A 
ATOM      4  C3  UNL d   1       1.773   0.944  -0.625  0.00  0.00     0.003 A 
ATOM      5  C4  UNL d   1       1.000   0.678  -1.753  0.00  0.00    -0.005 A 
ATOM      6  C5  UNL d   1       0.341   1.719  -2.404  0.00  0.00     0.003 A 
ATOM      7  C6  UNL d   1       0.454   3.025  -1.926  0.00  0.00    -0.001 A 
ENDROOT
TORSDOF 0
ENDMDL
