MODEL 1
REMARK minimizedAffinity -2.11176372
REMARK minimizedRMSD -1
REMARK  0 active torsions:
REMARK  status: ('A' for Active; 'I' for Inactive)
ROOT
ATOM      1  C   UNL d   1       1.796   5.534  -1.159  0.00  0.00     0.078 C 
ATOM      2  C1  UNL d   1       1.396   4.089  -1.118  0.00  0.00    -0.077 A 
ATOM      3  C2  UNL d   1       1.116   3.385  -2.296  0.00  0.00    -0.001 A 
ATOM      4  C3  UNL d   1       0.736   2.043  -2.242  0.00  0.00     0.003 A 
ATOM      5  C4  UNL d   1       0.630   1.395  -1.013  0.00  0.00    -0.005 A 
ATOM      6  C5  UNL d   1       0.904   2.088   0.164  0.00  0.00     0.003 A 
ATOM      7  C6  UNL d   1       1.285   3.430   0.112  0.00  0.00    -0.001 A 
ENDROOT
TORSDOF 0
ENDMDL
