MODEL 1
REMARK minimizedAffinity -3.79202247
REMARK minimizedRMSD -1
REMARK  0 active torsions:
REMARK  status: ('A' for Active; 'I' for Inactive)
ROOT
ATOM      1  C   UNL d   1       1.374   0.807  -1.820  0.00  0.00     0.078 C 
ATOM      2  C1  UNL d   1       1.511   2.104  -1.080  0.00  0.00    -0.077 A 
ATOM      3  C2  UNL d   1       1.502   2.140   0.320  0.00  0.00    -0.001 A 
ATOM      4  C3  UNL d   1       1.620   3.355   0.995  0.00  0.00     0.003 A 
ATOM      5  C4  UNL d   1       1.747   4.544   0.280  0.00  0.00    -0.005 A 
ATOM      6  C5  UNL d   1       1.756   4.519  -1.113  0.00  0.00     0.003 A 
ATOM      7  C6  UNL d   1       1.637   3.304  -1.791  0.00  0.00    -0.001 A 
ENDROOT
TORSDOF 0
ENDMDL
