MODEL 1
REMARK minimizedAffinity 0.988878667
REMARK minimizedRMSD -1
REMARK  0 active torsions:
REMARK  status: ('A' for Active; 'I' for Inactive)
ROOT
ATOM      1  C   UNL d   1       2.454   6.000  -1.497  0.00  0.00     0.078 C 
ATOM      2  C1  UNL d   1       2.056   4.632  -1.029  0.00  0.00    -0.077 A 
ATOM      3  C2  UNL d   1       1.864   3.586  -1.939  0.00  0.00    -0.001 A 
ATOM      4  C3  UNL d   1       1.484   2.320  -1.490  0.00  0.00     0.003 A 
ATOM      5  C4  UNL d   1       1.292   2.089  -0.129  0.00  0.00    -0.005 A 
ATOM      6  C5  UNL d   1       1.479   3.125   0.784  0.00  0.00     0.003 A 
ATOM      7  C6  UNL d   1       1.859   4.391   0.337  0.00  0.00    -0.001 A 
ENDROOT
TORSDOF 0
ENDMDL
