MODEL 1
REMARK minimizedAffinity -0.0469926298
REMARK minimizedRMSD -1
REMARK  0 active torsions:
REMARK  status: ('A' for Active; 'I' for Inactive)
ROOT
ATOM      1  C   UNL d   1       1.642   2.462   1.873  0.00  0.00     0.078 C 
ATOM      2  C1  UNL d   1       1.641   2.971   0.463  0.00  0.00    -0.077 A 
ATOM      3  C2  UNL d   1       1.453   4.331   0.187  0.00  0.00    -0.001 A 
ATOM      4  C3  UNL d   1       1.445   4.790  -1.131  0.00  0.00     0.003 A 
ATOM      5  C4  UNL d   1       1.623   3.895  -2.184  0.00  0.00    -0.005 A 
ATOM      6  C5  UNL d   1       1.809   2.540  -1.920  0.00  0.00     0.003 A 
ATOM      7  C6  UNL d   1       1.817   2.079  -0.603  0.00  0.00    -0.001 A 
ENDROOT
TORSDOF 0
ENDMDL
