MODEL 1
REMARK minimizedAffinity -1.06094265
REMARK minimizedRMSD -1
REMARK  0 active torsions:
REMARK  status: ('A' for Active; 'I' for Inactive)
ROOT
ATOM      1  C   UNL d   1       3.225   0.886   1.218  0.00  0.00     0.078 C 
ATOM      2  C1  UNL d   1       2.365   0.869  -0.010  0.00  0.00    -0.077 A 
ATOM      3  C2  UNL d   1       2.080  -0.331  -0.674  0.00  0.00    -0.001 A 
ATOM      4  C3  UNL d   1       1.286  -0.331  -1.822  0.00  0.00     0.003 A 
ATOM      5  C4  UNL d   1       0.771   0.865  -2.317  0.00  0.00    -0.005 A 
ATOM      6  C5  UNL d   1       1.051   2.064  -1.665  0.00  0.00     0.003 A 
ATOM      7  C6  UNL d   1       1.845   2.066  -0.517  0.00  0.00    -0.001 A 
ENDROOT
TORSDOF 0
ENDMDL
