MODEL 1
REMARK minimizedAffinity -4.68365908
REMARK minimizedRMSD -1
REMARK  0 active torsions:
REMARK  status: ('A' for Active; 'I' for Inactive)
ROOT
ATOM      1  C   UNL d   1       1.548   0.009  -0.851  0.00  0.00     0.078 C 
ATOM      2  C1  UNL d   1       1.369   1.469  -0.556  0.00  0.00    -0.077 A 
ATOM      3  C2  UNL d   1       1.538   2.433  -1.557  0.00  0.00    -0.001 A 
ATOM      4  C3  UNL d   1       1.378   3.789  -1.266  0.00  0.00     0.003 A 
ATOM      5  C4  UNL d   1       1.049   4.192   0.026  0.00  0.00    -0.005 A 
ATOM      6  C5  UNL d   1       0.881   3.240   1.030  0.00  0.00     0.003 A 
ATOM      7  C6  UNL d   1       1.041   1.884   0.740  0.00  0.00    -0.001 A 
ENDROOT
TORSDOF 0
ENDMDL
