MODEL 1
REMARK minimizedAffinity 5.20135164
REMARK minimizedRMSD -1
REMARK  0 active torsions:
REMARK  status: ('A' for Active; 'I' for Inactive)
ROOT
ATOM      1  C   UNL d   1       1.560   4.856   2.035  0.00  0.00     0.078 C 
ATOM      2  C1  UNL d   1       1.835   4.842   0.561  0.00  0.00    -0.077 A 
ATOM      3  C2  UNL d   1       1.634   3.684  -0.199  0.00  0.00    -0.001 A 
ATOM      4  C3  UNL d   1       1.902   3.682  -1.568  0.00  0.00     0.003 A 
ATOM      5  C4  UNL d   1       2.375   4.836  -2.190  0.00  0.00    -0.005 A 
ATOM      6  C5  UNL d   1       2.581   5.994  -1.441  0.00  0.00     0.003 A 
ATOM      7  C6  UNL d   1       2.312   5.997  -0.072  0.00  0.00    -0.001 A 
ENDROOT
TORSDOF 0
ENDMDL
