MODEL 1
REMARK minimizedAffinity 7.08882475
REMARK minimizedRMSD -1
REMARK  1 active torsions:
REMARK  status: ('A' for Active; 'I' for Inactive)
REMARK    1  A    between atoms: C1_2  and  C2_3 
ROOT
ATOM      1  C2  UNL d   1       3.692  -2.732   0.241  0.00  0.00    -0.077 A 
ATOM      2  C3  UNL d   1       3.542  -1.354   0.036  0.00  0.00     0.002 A 
ATOM      3  C4  UNL d   1       2.603  -0.628   0.771  0.00  0.00     0.002 A 
ATOM      4  C5  UNL d   1       1.809  -1.272   1.718  0.00  0.00    -0.004 A 
ATOM      5  C6  UNL d   1       1.949  -2.643   1.928  0.00  0.00     0.002 A 
ATOM      6  C7  UNL d   1       2.887  -3.370   1.194  0.00  0.00     0.002 A 
ENDROOT
BRANCH   1   7
ATOM      7  C1  UNL d   1       4.739  -3.507  -0.515  0.00  0.00     0.055 C 
ATOM      8  C   UNL d   1       5.999  -3.695   0.318  0.00  0.00     0.019 C 
ENDBRANCH   1   7
TORSDOF 1
ENDMDL
