MODEL 1
REMARK minimizedAffinity 6.9754653
REMARK minimizedRMSD -1
REMARK  1 active torsions:
REMARK  status: ('A' for Active; 'I' for Inactive)
REMARK    1  A    between atoms: C1_2  and  C2_3 
ROOT
ATOM      1  C2  UNL d   1      -3.470   2.260  -3.038  0.00  0.00    -0.077 A 
ATOM      2  C3  UNL d   1      -4.023   3.225  -2.185  0.00  0.00     0.002 A 
ATOM      3  C4  UNL d   1      -4.300   4.510  -2.657  0.00  0.00     0.002 A 
ATOM      4  C5  UNL d   1      -4.031   4.839  -3.984  0.00  0.00    -0.004 A 
ATOM      5  C6  UNL d   1      -3.480   3.886  -4.840  0.00  0.00     0.002 A 
ATOM      6  C7  UNL d   1      -3.201   2.602  -4.369  0.00  0.00     0.002 A 
ENDROOT
BRANCH   1   7
ATOM      7  C1  UNL d   1      -3.217   0.860  -2.544  0.00  0.00     0.055 C 
ATOM      8  C   UNL d   1      -2.255   0.855  -1.364  0.00  0.00     0.019 C 
ENDBRANCH   1   7
TORSDOF 1
ENDMDL
