MODEL 1
REMARK minimizedAffinity 6.32056332
REMARK minimizedRMSD -1
REMARK  1 active torsions:
REMARK  status: ('A' for Active; 'I' for Inactive)
REMARK    1  A    between atoms: C1_2  and  C2_3 
ROOT
ATOM      1  C2  UNL d   1       1.487  -2.245   3.941  0.00  0.00    -0.077 A 
ATOM      2  C3  UNL d   1       1.866  -3.419   3.274  0.00  0.00     0.002 A 
ATOM      3  C4  UNL d   1       2.035  -3.420   1.888  0.00  0.00     0.002 A 
ATOM      4  C5  UNL d   1       1.832  -2.250   1.158  0.00  0.00    -0.004 A 
ATOM      5  C6  UNL d   1       1.453  -1.079   1.812  0.00  0.00     0.002 A 
ATOM      6  C7  UNL d   1       1.283  -1.076   3.197  0.00  0.00     0.002 A 
ENDROOT
BRANCH   1   7
ATOM      7  C1  UNL d   1       1.352  -2.229   5.441  0.00  0.00     0.055 C 
ATOM      8  C   UNL d   1       1.160  -3.634   5.994  0.00  0.00     0.019 C 
ENDBRANCH   1   7
TORSDOF 1
ENDMDL
