MODEL 1
REMARK minimizedAffinity -3.61251521
REMARK minimizedRMSD -1
REMARK  1 active torsions:
REMARK  status: ('A' for Active; 'I' for Inactive)
REMARK    1  A    between atoms: C1_2  and  C2_3 
ROOT
ATOM      1  C2  UNL d   1       1.176  -1.001  -0.048  0.00  0.00    -0.073 A 
ATOM      2  C3  UNL d   1      -0.123  -1.458  -0.303  0.00  0.00    -0.002 A 
ATOM      3  C4  UNL d   1      -1.173  -0.551  -0.447  0.00  0.00     0.004 A 
ATOM      4  C5  UNL d   1      -0.936   0.820  -0.345  0.00  0.00    -0.004 A 
ATOM      5  C6  UNL d   1       0.356   1.296  -0.103  0.00  0.00    -0.075 A 
ATOM      6  C7  UNL d   1       0.627   2.768   0.012  0.00  0.00     0.076 C 
ATOM      7  C8  UNL d   1       1.406   0.379   0.043  0.00  0.00     0.001 A 
ENDROOT
BRANCH   1   8
ATOM      8  C1  UNL d   1       2.314  -1.977   0.101  0.00  0.00     0.053 C 
ATOM      9  C   UNL d   1       2.757  -2.546  -1.237  0.00  0.00     0.018 C 
ENDBRANCH   1   8
TORSDOF 1
ENDMDL
