MODEL 1
REMARK minimizedAffinity -6.03241205
REMARK minimizedRMSD -1
REMARK  1 active torsions:
REMARK  status: ('A' for Active; 'I' for Inactive)
REMARK    1  A    between atoms: C1_2  and  C2_3 
ROOT
ATOM      1  C2  UNL d   1       0.374  -0.025   0.110  0.00  0.00    -0.073 A 
ATOM      2  C3  UNL d   1       0.799   1.301   0.252  0.00  0.00    -0.002 A 
ATOM      3  C4  UNL d   1       2.146   1.589   0.473  0.00  0.00     0.004 A 
ATOM      4  C5  UNL d   1       3.082   0.558   0.547  0.00  0.00    -0.004 A 
ATOM      5  C6  UNL d   1       2.679  -0.773   0.395  0.00  0.00    -0.075 A 
ATOM      6  C7  UNL d   1       3.673  -1.894   0.475  0.00  0.00     0.076 C 
ATOM      7  C8  UNL d   1       1.324  -1.055   0.177  0.00  0.00     0.001 A 
ENDROOT
BRANCH   1   8
ATOM      8  C1  UNL d   1      -1.079  -0.341  -0.135  0.00  0.00     0.053 C 
ATOM      9  C   UNL d   1      -1.976   0.856   0.136  0.00  0.00     0.018 C 
ENDBRANCH   1   8
TORSDOF 1
ENDMDL
