MODEL 1
REMARK minimizedAffinity -1.95447969
REMARK minimizedRMSD -1
REMARK  1 active torsions:
REMARK  status: ('A' for Active; 'I' for Inactive)
REMARK    1  A    between atoms: C1_2  and  C2_3 
ROOT
ATOM      1  C2  UNL d   1      -0.203  -0.242   0.798  0.00  0.00    -0.073 A 
ATOM      2  C3  UNL d   1       0.283  -0.355   2.106  0.00  0.00    -0.002 A 
ATOM      3  C4  UNL d   1       1.560  -0.866   2.342  0.00  0.00     0.004 A 
ATOM      4  C5  UNL d   1       2.365  -1.263   1.275  0.00  0.00    -0.004 A 
ATOM      5  C6  UNL d   1       1.903  -1.147  -0.040  0.00  0.00    -0.075 A 
ATOM      6  C7  UNL d   1       2.756  -1.571  -1.199  0.00  0.00     0.076 C 
ATOM      7  C8  UNL d   1       0.618  -0.634  -0.269  0.00  0.00     0.001 A 
ENDROOT
BRANCH   1   8
ATOM      8  C1  UNL d   1      -1.578   0.316   0.538  0.00  0.00     0.053 C 
ATOM      9  C   UNL d   1      -2.329   0.605   1.828  0.00  0.00     0.018 C 
ENDBRANCH   1   8
TORSDOF 1
ENDMDL
