MODEL 1
REMARK minimizedAffinity -2.90080929
REMARK minimizedRMSD -1
REMARK  1 active torsions:
REMARK  status: ('A' for Active; 'I' for Inactive)
REMARK    1  A    between atoms: C1_2  and  C2_3 
ROOT
ATOM      1  C2  UNL d   1       0.459   0.203   0.099  0.00  0.00    -0.073 A 
ATOM      2  C3  UNL d   1       0.742   1.549   0.360  0.00  0.00    -0.002 A 
ATOM      3  C4  UNL d   1       2.032   1.942   0.717  0.00  0.00     0.004 A 
ATOM      4  C5  UNL d   1       3.054   0.996   0.810  0.00  0.00    -0.004 A 
ATOM      5  C6  UNL d   1       2.794  -0.352   0.541  0.00  0.00    -0.075 A 
ATOM      6  C7  UNL d   1       3.881  -1.381   0.639  0.00  0.00     0.076 C 
ATOM      7  C8  UNL d   1       1.494  -0.739   0.186  0.00  0.00     0.001 A 
ENDROOT
BRANCH   1   8
ATOM      8  C1  UNL d   1      -0.931  -0.225  -0.293  0.00  0.00     0.053 C 
ATOM      9  C   UNL d   1      -0.921  -1.485  -1.143  0.00  0.00     0.018 C 
ENDBRANCH   1   8
TORSDOF 1
ENDMDL
