MODEL 1
REMARK minimizedAffinity -3.00512362
REMARK minimizedRMSD -1
REMARK  1 active torsions:
REMARK  status: ('A' for Active; 'I' for Inactive)
REMARK    1  A    between atoms: C1_2  and  C2_3 
ROOT
ATOM      1  C2  UNL d   1      -0.662   0.035  -0.061  0.00  0.00    -0.073 A 
ATOM      2  C3  UNL d   1      -1.128  -1.240  -0.399  0.00  0.00    -0.002 A 
ATOM      3  C4  UNL d   1      -0.256  -2.330  -0.407  0.00  0.00     0.004 A 
ATOM      4  C5  UNL d   1       1.087  -2.157  -0.071  0.00  0.00    -0.004 A 
ATOM      5  C6  UNL d   1       1.569  -0.893   0.282  0.00  0.00    -0.075 A 
ATOM      6  C7  UNL d   1       3.011  -0.690   0.644  0.00  0.00     0.076 C 
ATOM      7  C8  UNL d   1       0.688   0.197   0.285  0.00  0.00     0.001 A 
ENDROOT
BRANCH   1   8
ATOM      8  C1  UNL d   1      -1.601   1.214  -0.045  0.00  0.00     0.053 C 
ATOM      9  C   UNL d   1      -2.931   0.874   0.608  0.00  0.00     0.018 C 
ENDBRANCH   1   8
TORSDOF 1
ENDMDL
