MODEL 1
REMARK minimizedAffinity -2.41127443
REMARK minimizedRMSD -1
REMARK  0 active torsions:
REMARK  status: ('A' for Active; 'I' for Inactive)
ROOT
ATOM      1  C1  DEN d   1       2.962   1.653   3.068  0.00  0.00     0.130 A 
ATOM      2  C2  DEN d   1       4.252   2.223   3.445  0.00  0.00    -0.031 A 
ATOM      3  C3  DEN d   1       4.639   3.202   2.410  0.00  0.00     0.027 A 
ATOM      4  C4  DEN d   1       3.370   3.890   0.272  0.00  0.00     0.027 A 
ATOM      5  C5  DEN d   1       2.238   3.671  -0.481  0.00  0.00    -0.003 A 
ATOM      6  C6  DEN d   1       1.292   2.747  -0.125  0.00  0.00     0.001 A 
ATOM      7  C7  DEN d   1       1.439   2.039   1.039  0.00  0.00     0.017 A 
ATOM      8  C8  DEN d   1       2.581   2.250   1.800  0.00  0.00    -0.094 A 
ATOM      9  C9  DEN d   1       3.520   3.197   1.429  0.00  0.00    -0.072 A 
ENDROOT
TORSDOF 0
ENDMDL
