MODEL 1
REMARK minimizedAffinity 1.8716892
REMARK minimizedRMSD -1
REMARK  0 active torsions:
REMARK  status: ('A' for Active; 'I' for Inactive)
ROOT
ATOM      1  C1  DEN d   1       5.997   3.960  -4.965  0.00  0.00     0.130 A 
ATOM      2  C2  DEN d   1       5.034   4.920  -5.497  0.00  0.00    -0.031 A 
ATOM      3  C3  DEN d   1       3.868   4.166  -5.999  0.00  0.00     0.027 A 
ATOM      4  C4  DEN d   1       3.460   1.619  -6.000  0.00  0.00     0.027 A 
ATOM      5  C5  DEN d   1       3.998   0.396  -5.665  0.00  0.00    -0.003 A 
ATOM      6  C6  DEN d   1       5.243   0.274  -5.108  0.00  0.00     0.001 A 
ATOM      7  C7  DEN d   1       5.975   1.398  -4.829  0.00  0.00     0.017 A 
ATOM      8  C8  DEN d   1       5.443   2.634  -5.171  0.00  0.00    -0.094 A 
ATOM      9  C9  DEN d   1       4.177   2.737  -5.721  0.00  0.00    -0.072 A 
ENDROOT
TORSDOF 0
ENDMDL
