MODEL 1
REMARK minimizedAffinity 7.27615976
REMARK minimizedRMSD -1
REMARK  0 active torsions:
REMARK  status: ('A' for Active; 'I' for Inactive)
ROOT
ATOM      1  C1  DEN d   1       5.991   0.890  -4.640  0.00  0.00     0.130 A 
ATOM      2  C2  DEN d   1       5.149  -0.081  -5.332  0.00  0.00    -0.031 A 
ATOM      3  C3  DEN d   1       4.047   0.654  -5.985  0.00  0.00     0.027 A 
ATOM      4  C4  DEN d   1       3.568   3.188  -5.994  0.00  0.00     0.027 A 
ATOM      5  C5  DEN d   1       3.998   4.413  -5.534  0.00  0.00    -0.003 A 
ATOM      6  C6  DEN d   1       5.094   4.545  -4.723  0.00  0.00     0.001 A 
ATOM      7  C7  DEN d   1       5.824   3.437  -4.383  0.00  0.00     0.017 A 
ATOM      8  C8  DEN d   1       5.393   2.198  -4.837  0.00  0.00    -0.094 A 
ATOM      9  C9  DEN d   1       4.289   2.086  -5.666  0.00  0.00    -0.072 A 
ENDROOT
TORSDOF 0
ENDMDL
