MODEL 1
REMARK minimizedAffinity 10.2375135
REMARK minimizedRMSD -1
REMARK  0 active torsions:
REMARK  status: ('A' for Active; 'I' for Inactive)
ROOT
ATOM      1  C1  DEN d   1       4.752   4.359   1.283  0.00  0.00     0.130 A 
ATOM      2  C2  DEN d   1       3.975   4.173   0.061  0.00  0.00    -0.031 A 
ATOM      3  C3  DEN d   1       3.019   3.071   0.290  0.00  0.00     0.027 A 
ATOM      4  C4  DEN d   1       2.665   1.646   2.411  0.00  0.00     0.027 A 
ATOM      5  C5  DEN d   1       3.096   1.425   3.700  0.00  0.00    -0.003 A 
ATOM      6  C6  DEN d   1       4.124   2.138   4.258  0.00  0.00     0.001 A 
ATOM      7  C7  DEN d   1       4.726   3.137   3.540  0.00  0.00     0.017 A 
ATOM      8  C8  DEN d   1       4.301   3.361   2.236  0.00  0.00    -0.094 A 
ATOM      9  C9  DEN d   1       3.252   2.638   1.694  0.00  0.00    -0.072 A 
ENDROOT
TORSDOF 0
ENDMDL
