MODEL 1
REMARK minimizedAffinity 3.51610875
REMARK minimizedRMSD -1
REMARK  0 active torsions:
REMARK  status: ('A' for Active; 'I' for Inactive)
ROOT
ATOM      1  C1  DEN d   1       5.312   0.117  -3.679  0.00  0.00     0.130 A 
ATOM      2  C2  DEN d   1       5.769  -0.654  -4.832  0.00  0.00    -0.031 A 
ATOM      3  C3  DEN d   1       5.998   0.286  -5.947  0.00  0.00     0.027 A 
ATOM      4  C4  DEN d   1       5.696   2.847  -6.000  0.00  0.00     0.027 A 
ATOM      5  C5  DEN d   1       5.316   3.947  -5.264  0.00  0.00    -0.003 A 
ATOM      6  C6  DEN d   1       4.879   3.845  -3.970  0.00  0.00     0.001 A 
ATOM      7  C7  DEN d   1       4.855   2.621  -3.357  0.00  0.00     0.017 A 
ATOM      8  C8  DEN d   1       5.229   1.505  -4.094  0.00  0.00    -0.094 A 
ATOM      9  C9  DEN d   1       5.679   1.631  -5.397  0.00  0.00    -0.072 A 
ENDROOT
TORSDOF 0
ENDMDL
