MODEL 1
REMARK minimizedAffinity 4.19622993
REMARK minimizedRMSD -1
REMARK  0 active torsions:
REMARK  status: ('A' for Active; 'I' for Inactive)
ROOT
ATOM      1  C1  DEN d   1       4.030   2.258   3.934  0.00  0.00     0.130 A 
ATOM      2  C2  DEN d   1       5.017   3.332   3.862  0.00  0.00    -0.031 A 
ATOM      3  C3  DEN d   1       4.919   3.954   2.526  0.00  0.00     0.027 A 
ATOM      4  C4  DEN d   1       3.338   3.366   0.575  0.00  0.00     0.027 A 
ATOM      5  C5  DEN d   1       2.332   2.521   0.161  0.00  0.00    -0.003 A 
ATOM      6  C6  DEN d   1       1.849   1.516   0.956  0.00  0.00     0.001 A 
ATOM      7  C7  DEN d   1       2.341   1.358   2.225  0.00  0.00     0.017 A 
ATOM      8  C8  DEN d   1       3.360   2.202   2.647  0.00  0.00    -0.094 A 
ATOM      9  C9  DEN d   1       3.826   3.220   1.833  0.00  0.00    -0.072 A 
ENDROOT
TORSDOF 0
ENDMDL
