MODEL 1
REMARK minimizedAffinity -1.29700243
REMARK minimizedRMSD -1
REMARK  0 active torsions:
REMARK  status: ('A' for Active; 'I' for Inactive)
ROOT
ATOM      1  C1  DEN d   1       3.781   2.420   4.003  0.00  0.00     0.130 A 
ATOM      2  C2  DEN d   1       4.918   3.336   4.022  0.00  0.00    -0.031 A 
ATOM      3  C3  DEN d   1       5.016   3.970   2.692  0.00  0.00     0.027 A 
ATOM      4  C4  DEN d   1       3.523   3.626   0.617  0.00  0.00     0.027 A 
ATOM      5  C5  DEN d   1       2.440   2.940   0.114  0.00  0.00    -0.003 A 
ATOM      6  C6  DEN d   1       1.754   2.014   0.856  0.00  0.00     0.001 A 
ATOM      7  C7  DEN d   1       2.117   1.783   2.156  0.00  0.00     0.017 A 
ATOM      8  C8  DEN d   1       3.212   2.466   2.668  0.00  0.00    -0.094 A 
ATOM      9  C9  DEN d   1       3.885   3.406   1.906  0.00  0.00    -0.072 A 
ENDROOT
TORSDOF 0
ENDMDL
