MODEL 1
REMARK minimizedAffinity 8.499547
REMARK minimizedRMSD -1
REMARK  0 active torsions:
REMARK  status: ('A' for Active; 'I' for Inactive)
ROOT
ATOM      1  C1  DEN d   1      -0.496  -1.879   1.254  0.00  0.00     0.130 A 
ATOM      2  C2  DEN d   1      -1.250  -2.442   2.370  0.00  0.00    -0.031 A 
ATOM      3  C3  DEN d   1      -2.014  -3.601   1.866  0.00  0.00     0.027 A 
ATOM      4  C4  DEN d   1      -2.098  -4.575  -0.520  0.00  0.00     0.027 A 
ATOM      5  C5  DEN d   1      -1.636  -4.429  -1.809  0.00  0.00    -0.003 A 
ATOM      6  C6  DEN d   1      -0.795  -3.411  -2.172  0.00  0.00     0.001 A 
ATOM      7  C7  DEN d   1      -0.354  -2.525  -1.225  0.00  0.00     0.017 A 
ATOM      8  C8  DEN d   1      -0.822  -2.661   0.075  0.00  0.00    -0.094 A 
ATOM      9  C9  DEN d   1      -1.662  -3.705   0.425  0.00  0.00    -0.072 A 
ENDROOT
TORSDOF 0
ENDMDL
