MODEL 1
REMARK minimizedAffinity 1.45765734
REMARK minimizedRMSD -1
REMARK  0 active torsions:
REMARK  status: ('A' for Active; 'I' for Inactive)
ROOT
ATOM      1  C1  DEN d   1       0.216  -0.640   1.032  0.00  0.00     0.130 A 
ATOM      2  C2  DEN d   1       1.110  -1.762   1.302  0.00  0.00    -0.031 A 
ATOM      3  C3  DEN d   1       2.477  -1.229   1.462  0.00  0.00     0.027 A 
ATOM      4  C4  DEN d   1       3.292   1.214   1.323  0.00  0.00     0.027 A 
ATOM      5  C5  DEN d   1       2.902   2.517   1.103  0.00  0.00    -0.003 A 
ATOM      6  C6  DEN d   1       1.606   2.852   0.813  0.00  0.00     0.001 A 
ATOM      7  C7  DEN d   1       0.645   1.878   0.779  0.00  0.00     0.017 A 
ATOM      8  C8  DEN d   1       1.031   0.561   0.993  0.00  0.00    -0.094 A 
ATOM      9  C9  DEN d   1       2.344   0.244   1.297  0.00  0.00    -0.072 A 
ENDROOT
TORSDOF 0
ENDMDL
