MODEL 1
REMARK minimizedAffinity 0.453924656
REMARK minimizedRMSD -1
REMARK  0 active torsions:
REMARK  status: ('A' for Active; 'I' for Inactive)
ROOT
ATOM      1  C1  DEN d   1       1.321   1.336   2.112  0.00  0.00     0.130 A 
ATOM      2  C2  DEN d   1       0.722   1.722   0.838  0.00  0.00    -0.031 A 
ATOM      3  C3  DEN d   1       1.573   2.765   0.231  0.00  0.00     0.027 A 
ATOM      4  C4  DEN d   1       3.752   3.810   1.133  0.00  0.00     0.027 A 
ATOM      5  C5  DEN d   1       4.646   3.811   2.181  0.00  0.00    -0.003 A 
ATOM      6  C6  DEN d   1       4.478   3.019   3.285  0.00  0.00     0.001 A 
ATOM      7  C7  DEN d   1       3.414   2.158   3.348  0.00  0.00     0.017 A 
ATOM      8  C8  DEN d   1       2.504   2.156   2.299  0.00  0.00    -0.094 A 
ATOM      9  C9  DEN d   1       2.698   2.956   1.185  0.00  0.00    -0.072 A 
ENDROOT
TORSDOF 0
ENDMDL
