MODEL 1
REMARK minimizedAffinity 1.77821565
REMARK minimizedRMSD -1
REMARK  0 active torsions:
REMARK  status: ('A' for Active; 'I' for Inactive)
ROOT
ATOM      1  C1  DEN d   1       2.150   2.017   1.179  0.00  0.00     0.130 A 
ATOM      2  C2  DEN d   1       2.303   2.842  -0.016  0.00  0.00    -0.031 A 
ATOM      3  C3  DEN d   1       3.397   3.803   0.229  0.00  0.00     0.027 A 
ATOM      4  C4  DEN d   1       4.865   4.087   2.331  0.00  0.00     0.027 A 
ATOM      5  C5  DEN d   1       5.101   3.624   3.606  0.00  0.00    -0.003 A 
ATOM      6  C6  DEN d   1       4.354   2.624   4.170  0.00  0.00     0.001 A 
ATOM      7  C7  DEN d   1       3.363   2.023   3.439  0.00  0.00     0.017 A 
ATOM      8  C8  DEN d   1       3.114   2.490   2.155  0.00  0.00    -0.094 A 
ATOM      9  C9  DEN d   1       3.889   3.493   1.599  0.00  0.00    -0.072 A 
ENDROOT
TORSDOF 0
ENDMDL
