MODEL 1
REMARK minimizedAffinity 7.07682848
REMARK minimizedRMSD -1
REMARK  0 active torsions:
REMARK  status: ('A' for Active; 'I' for Inactive)
ROOT
ATOM      1  C1  DEN d   1      -0.912  -1.486   1.631  0.00  0.00     0.130 A 
ATOM      2  C2  DEN d   1      -1.915  -2.197   2.419  0.00  0.00    -0.031 A 
ATOM      3  C3  DEN d   1      -2.415  -3.327   1.610  0.00  0.00     0.027 A 
ATOM      4  C4  DEN d   1      -1.734  -4.042  -0.773  0.00  0.00     0.027 A 
ATOM      5  C5  DEN d   1      -0.930  -3.739  -1.849  0.00  0.00    -0.003 A 
ATOM      6  C6  DEN d   1      -0.095  -2.653  -1.854  0.00  0.00     0.001 A 
ATOM      7  C7  DEN d   1      -0.012  -1.855  -0.743  0.00  0.00     0.017 A 
ATOM      8  C8  DEN d   1      -0.825  -2.150   0.343  0.00  0.00    -0.094 A 
ATOM      9  C9  DEN d   1      -1.653  -3.260   0.333  0.00  0.00    -0.072 A 
ENDROOT
TORSDOF 0
ENDMDL
