MODEL 1
REMARK minimizedAffinity -0.26271069
REMARK minimizedRMSD -1
REMARK  0 active torsions:
REMARK  status: ('A' for Active; 'I' for Inactive)
ROOT
ATOM      1  C1  DEN d   1      -1.256  -5.368   0.081  0.00  0.00     0.130 A 
ATOM      2  C2  DEN d   1      -1.372  -4.204  -0.794  0.00  0.00    -0.031 A 
ATOM      3  C3  DEN d   1      -1.558  -3.011   0.055  0.00  0.00     0.027 A 
ATOM      4  C4  DEN d   1      -1.672  -2.851   2.627  0.00  0.00     0.027 A 
ATOM      5  C5  DEN d   1      -1.635  -3.574   3.799  0.00  0.00    -0.003 A 
ATOM      6  C6  DEN d   1      -1.504  -4.937   3.813  0.00  0.00     0.001 A 
ATOM      7  C7  DEN d   1      -1.360  -5.617   2.632  0.00  0.00     0.017 A 
ATOM      8  C8  DEN d   1      -1.404  -4.896   1.446  0.00  0.00    -0.094 A 
ATOM      9  C9  DEN d   1      -1.524  -3.517   1.454  0.00  0.00    -0.072 A 
ENDROOT
TORSDOF 0
ENDMDL
