MODEL 1
REMARK minimizedAffinity 0.35551089
REMARK minimizedRMSD -1
REMARK  0 active torsions:
REMARK  status: ('A' for Active; 'I' for Inactive)
ROOT
ATOM      1  C1  DEN d   1       1.905   1.467   1.502  0.00  0.00     0.130 A 
ATOM      2  C2  DEN d   1       1.218   2.180   0.429  0.00  0.00    -0.031 A 
ATOM      3  C3  DEN d   1       1.901   3.474   0.231  0.00  0.00     0.027 A 
ATOM      4  C4  DEN d   1       3.947   4.436   1.473  0.00  0.00     0.027 A 
ATOM      5  C5  DEN d   1       4.866   4.201   2.472  0.00  0.00    -0.003 A 
ATOM      6  C6  DEN d   1       4.842   3.063   3.233  0.00  0.00     0.001 A 
ATOM      7  C7  DEN d   1       3.907   2.096   2.979  0.00  0.00     0.017 A 
ATOM      8  C8  DEN d   1       2.972   2.328   1.978  0.00  0.00    -0.094 A 
ATOM      9  C9  DEN d   1       3.020   3.480   1.211  0.00  0.00    -0.072 A 
ENDROOT
TORSDOF 0
ENDMDL
