MODEL 1
REMARK minimizedAffinity 1.74301279
REMARK minimizedRMSD -1
REMARK  0 active torsions:
REMARK  status: ('A' for Active; 'I' for Inactive)
ROOT
ATOM      1  C1  DEN d   1       3.974   1.928   3.361  0.00  0.00     0.130 A 
ATOM      2  C2  DEN d   1       5.091   2.869   3.384  0.00  0.00    -0.031 A 
ATOM      3  C3  DEN d   1       5.014   3.699   2.165  0.00  0.00     0.027 A 
ATOM      4  C4  DEN d   1       3.280   3.623   0.257  0.00  0.00     0.027 A 
ATOM      5  C5  DEN d   1       2.153   2.984  -0.211  0.00  0.00    -0.003 A 
ATOM      6  C6  DEN d   1       1.578   1.935   0.457  0.00  0.00     0.001 A 
ATOM      7  C7  DEN d   1       2.103   1.523   1.653  0.00  0.00     0.017 A 
ATOM      8  C8  DEN d   1       3.243   2.157   2.127  0.00  0.00    -0.094 A 
ATOM      9  C9  DEN d   1       3.803   3.223   1.444  0.00  0.00    -0.072 A 
ENDROOT
TORSDOF 0
ENDMDL
