MODEL 1
REMARK minimizedAffinity 0.535956144
REMARK minimizedRMSD -1
REMARK  0 active torsions:
REMARK  status: ('A' for Active; 'I' for Inactive)
ROOT
ATOM      1  C1  DEN d   1       0.072   2.114   1.635  0.00  0.00     0.130 A 
ATOM      2  C2  DEN d   1      -0.539   2.976   0.627  0.00  0.00    -0.031 A 
ATOM      3  C3  DEN d   1       0.543   3.699  -0.071  0.00  0.00     0.027 A 
ATOM      4  C4  DEN d   1       3.091   3.564   0.306  0.00  0.00     0.027 A 
ATOM      5  C5  DEN d   1       4.085   2.980   1.060  0.00  0.00    -0.003 A 
ATOM      6  C6  DEN d   1       3.811   2.099   2.072  0.00  0.00     0.001 A 
ATOM      7  C7  DEN d   1       2.514   1.742   2.329  0.00  0.00     0.017 A 
ATOM      8  C8  DEN d   1       1.506   2.333   1.578  0.00  0.00    -0.094 A 
ATOM      9  C9  DEN d   1       1.804   3.212   0.551  0.00  0.00    -0.072 A 
ENDROOT
TORSDOF 0
ENDMDL
