MODEL 1
REMARK minimizedAffinity 4.76464272
REMARK minimizedRMSD -1
REMARK  0 active torsions:
REMARK  status: ('A' for Active; 'I' for Inactive)
ROOT
ATOM      1  C1  DEN d   1       4.954   4.704   0.972  0.00  0.00     0.130 A 
ATOM      2  C2  DEN d   1       4.117   4.442  -0.195  0.00  0.00    -0.031 A 
ATOM      3  C3  DEN d   1       3.234   3.301   0.123  0.00  0.00     0.027 A 
ATOM      4  C4  DEN d   1       3.080   1.927   2.301  0.00  0.00     0.027 A 
ATOM      5  C5  DEN d   1       3.598   1.769   3.567  0.00  0.00    -0.003 A 
ATOM      6  C6  DEN d   1       4.619   2.550   4.041  0.00  0.00     0.001 A 
ATOM      7  C7  DEN d   1       5.124   3.555   3.260  0.00  0.00     0.017 A 
ATOM      8  C8  DEN d   1       4.612   3.716   1.979  0.00  0.00    -0.094 A 
ATOM      9  C9  DEN d   1       3.572   2.924   1.522  0.00  0.00    -0.072 A 
ENDROOT
TORSDOF 0
ENDMDL
