MODEL 1
REMARK minimizedAffinity 1.91182518
REMARK minimizedRMSD -1
REMARK  0 active torsions:
REMARK  status: ('A' for Active; 'I' for Inactive)
ROOT
ATOM      1  C1  DEN d   1       5.159   4.037   1.763  0.00  0.00     0.130 A 
ATOM      2  C2  DEN d   1       5.549   3.400   3.017  0.00  0.00    -0.031 A 
ATOM      3  C3  DEN d   1       4.542   2.369   3.338  0.00  0.00     0.027 A 
ATOM      4  C4  DEN d   1       2.430   1.697   2.017  0.00  0.00     0.027 A 
ATOM      5  C5  DEN d   1       1.675   1.963   0.897  0.00  0.00    -0.003 A 
ATOM      6  C6  DEN d   1       2.007   2.954   0.011  0.00  0.00     0.001 A 
ATOM      7  C7  DEN d   1       3.149   3.685   0.207  0.00  0.00     0.017 A 
ATOM      8  C8  DEN d   1       3.911   3.428   1.339  0.00  0.00    -0.094 A 
ATOM      9  C9  DEN d   1       3.565   2.414   2.216  0.00  0.00    -0.072 A 
ENDROOT
TORSDOF 0
ENDMDL
