MODEL 1
REMARK minimizedAffinity -1.54673719
REMARK minimizedRMSD -1
REMARK  0 active torsions:
REMARK  status: ('A' for Active; 'I' for Inactive)
ROOT
ATOM      1  C1  DEN d   1      -2.253   3.238   3.748  0.00  0.00     0.130 A 
ATOM      2  C2  DEN d   1      -1.557   4.072   4.723  0.00  0.00    -0.031 A 
ATOM      3  C3  DEN d   1      -0.132   4.131   4.340  0.00  0.00     0.027 A 
ATOM      4  C4  DEN d   1       1.057   3.020   2.339  0.00  0.00     0.027 A 
ATOM      5  C5  DEN d   1       0.884   2.206   1.241  0.00  0.00    -0.003 A 
ATOM      6  C6  DEN d   1      -0.330   1.656   0.924  0.00  0.00     0.001 A 
ATOM      7  C7  DEN d   1      -1.428   1.949   1.688  0.00  0.00     0.017 A 
ATOM      8  C8  DEN d   1      -1.261   2.763   2.800  0.00  0.00    -0.094 A 
ATOM      9  C9  DEN d   1      -0.028   3.320   3.097  0.00  0.00    -0.072 A 
ENDROOT
TORSDOF 0
ENDMDL
