MODEL 1
REMARK minimizedAffinity -3.81543875
REMARK minimizedRMSD -1
REMARK  0 active torsions:
REMARK  status: ('A' for Active; 'I' for Inactive)
ROOT
ATOM      1  C1  DEN d   1      -1.226  -2.413  -1.452  0.00  0.00     0.130 A 
ATOM      2  C2  DEN d   1      -0.429  -2.903  -2.574  0.00  0.00    -0.031 A 
ATOM      3  C3  DEN d   1       0.780  -2.062  -2.677  0.00  0.00     0.027 A 
ATOM      4  C4  DEN d   1       1.497  -0.064  -1.211  0.00  0.00     0.027 A 
ATOM      5  C5  DEN d   1       1.140   0.730  -0.144  0.00  0.00    -0.003 A 
ATOM      6  C6  DEN d   1      -0.037   0.556   0.535  0.00  0.00     0.001 A 
ATOM      7  C7  DEN d   1      -0.879  -0.466   0.182  0.00  0.00     0.017 A 
ATOM      8  C8  DEN d   1      -0.529  -1.267  -0.897  0.00  0.00    -0.094 A 
ATOM      9  C9  DEN d   1       0.671  -1.082  -1.563  0.00  0.00    -0.072 A 
ENDROOT
TORSDOF 0
ENDMDL
