MODEL 1
REMARK minimizedAffinity -5.25786686
REMARK minimizedRMSD -1
REMARK  0 active torsions:
REMARK  status: ('A' for Active; 'I' for Inactive)
ROOT
ATOM      1  C1  BNZ d   1       0.360   0.466   2.798  0.00  0.00     0.000 A 
ATOM      2  C2  BNZ d   1      -0.957   0.703   3.089  0.00  0.00     0.000 A 
ATOM      3  C3  BNZ d   1      -1.914   0.625   2.117  0.00  0.00     0.000 A 
ATOM      4  C4  BNZ d   1      -1.550   0.348   0.848  0.00  0.00     0.000 A 
ATOM      5  C5  BNZ d   1      -0.225   0.116   0.536  0.00  0.00     0.000 A 
ATOM      6  C6  BNZ d   1       0.731   0.157   1.525  0.00  0.00     0.000 A 
ENDROOT
TORSDOF 0
ENDMDL
