MODEL 1
REMARK minimizedAffinity -3.99677992
REMARK minimizedRMSD -1
REMARK  0 active torsions:
REMARK  status: ('A' for Active; 'I' for Inactive)
ROOT
ATOM      1  C1  BNZ d   1       1.602   1.029   1.633  0.00  0.00     0.000 A 
ATOM      2  C2  BNZ d   1       0.575   1.720   2.218  0.00  0.00     0.000 A 
ATOM      3  C3  BNZ d   1      -0.706   1.593   1.758  0.00  0.00     0.000 A 
ATOM      4  C4  BNZ d   1      -0.952   0.808   0.690  0.00  0.00     0.000 A 
ATOM      5  C5  BNZ d   1       0.074   0.111   0.083  0.00  0.00     0.000 A 
ATOM      6  C6  BNZ d   1       1.356   0.211   0.573  0.00  0.00     0.000 A 
ENDROOT
TORSDOF 0
ENDMDL
