MODEL 1
REMARK minimizedAffinity -3.23243093
REMARK minimizedRMSD -1
REMARK  0 active torsions:
REMARK  status: ('A' for Active; 'I' for Inactive)
ROOT
ATOM      1  C1  BNZ d   1       1.426   0.208  -3.005  0.00  0.00     0.000 A 
ATOM      2  C2  BNZ d   1       1.164  -0.988  -2.391  0.00  0.00     0.000 A 
ATOM      3  C3  BNZ d   1       0.252  -1.860  -2.917  0.00  0.00     0.000 A 
ATOM      4  C4  BNZ d   1      -0.425  -1.518  -4.032  0.00  0.00     0.000 A 
ATOM      5  C5  BNZ d   1      -0.179  -0.312  -4.657  0.00  0.00     0.000 A 
ATOM      6  C6  BNZ d   1       0.768   0.546  -4.147  0.00  0.00     0.000 A 
ENDROOT
TORSDOF 0
ENDMDL
