MODEL 1
REMARK minimizedAffinity -2.66832757
REMARK minimizedRMSD -1
REMARK  0 active torsions:
REMARK  status: ('A' for Active; 'I' for Inactive)
ROOT
ATOM      1  C1  BNZ d   1       0.807   0.673   1.109  0.00  0.00     0.000 A 
ATOM      2  C2  BNZ d   1       0.739  -0.034  -0.062  0.00  0.00     0.000 A 
ATOM      3  C3  BNZ d   1      -0.450  -0.546  -0.502  0.00  0.00     0.000 A 
ATOM      4  C4  BNZ d   1      -1.559  -0.387   0.248  0.00  0.00     0.000 A 
ATOM      5  C5  BNZ d   1      -1.505   0.315   1.436  0.00  0.00     0.000 A 
ATOM      6  C6  BNZ d   1      -0.315   0.863   1.856  0.00  0.00     0.000 A 
ENDROOT
TORSDOF 0
ENDMDL
