MODEL 1
REMARK minimizedAffinity -2.99952984
REMARK minimizedRMSD -1
REMARK  0 active torsions:
REMARK  status: ('A' for Active; 'I' for Inactive)
ROOT
ATOM      1  C1  BNZ d   1      -1.763  -2.495  -1.898  0.00  0.00     0.000 A 
ATOM      2  C2  BNZ d   1      -0.406  -2.307  -1.892  0.00  0.00     0.000 A 
ATOM      3  C3  BNZ d   1       0.164  -1.347  -1.104  0.00  0.00     0.000 A 
ATOM      4  C4  BNZ d   1      -0.625  -0.551  -0.353  0.00  0.00     0.000 A 
ATOM      5  C5  BNZ d   1      -1.995  -0.722  -0.355  0.00  0.00     0.000 A 
ATOM      6  C6  BNZ d   1      -2.562  -1.715  -1.120  0.00  0.00     0.000 A 
ENDROOT
TORSDOF 0
ENDMDL
