MODEL 1
REMARK minimizedAffinity -0.935914218
REMARK minimizedRMSD -1
REMARK  0 active torsions:
REMARK  status: ('A' for Active; 'I' for Inactive)
ROOT
ATOM      1  C1  BNZ d   1      -0.197  -1.248  -0.420  0.00  0.00     0.000 A 
ATOM      2  C2  BNZ d   1      -1.170  -2.074  -0.916  0.00  0.00     0.000 A 
ATOM      3  C3  BNZ d   1      -1.234  -2.357  -2.252  0.00  0.00     0.000 A 
ATOM      4  C4  BNZ d   1      -0.351  -1.783  -3.094  0.00  0.00     0.000 A 
ATOM      5  C5  BNZ d   1       0.631  -0.941  -2.611  0.00  0.00     0.000 A 
ATOM      6  C6  BNZ d   1       0.716  -0.689  -1.260  0.00  0.00     0.000 A 
ENDROOT
TORSDOF 0
ENDMDL
