MODEL 1
REMARK minimizedAffinity -3.15087247
REMARK minimizedRMSD -1
REMARK  0 active torsions:
REMARK  status: ('A' for Active; 'I' for Inactive)
ROOT
ATOM      1  C1  BNZ d   1      -0.802   0.056   0.077  0.00  0.00     0.000 A 
ATOM      2  C2  BNZ d   1      -0.465   0.611   1.282  0.00  0.00     0.000 A 
ATOM      3  C3  BNZ d   1       0.735   0.327   1.872  0.00  0.00     0.000 A 
ATOM      4  C4  BNZ d   1       1.578  -0.542   1.277  0.00  0.00     0.000 A 
ATOM      5  C5  BNZ d   1       1.248  -1.117   0.066  0.00  0.00     0.000 A 
ATOM      6  C6  BNZ d   1       0.056  -0.799  -0.544  0.00  0.00     0.000 A 
ENDROOT
TORSDOF 0
ENDMDL
