MODEL 1
REMARK minimizedAffinity -3.18792844
REMARK minimizedRMSD -1
REMARK  0 active torsions:
REMARK  status: ('A' for Active; 'I' for Inactive)
ROOT
ATOM      1  N1  IND d   1       0.174   0.346  -1.267  0.00  0.00    -0.196 N 
ATOM      2  C2  IND d   1       0.070   0.827   0.009  0.00  0.00     0.054 A 
ATOM      3  C3  IND d   1      -0.372  -0.142   0.842  0.00  0.00    -0.031 A 
ATOM      4  C4  IND d   1      -0.888  -2.615   0.346  0.00  0.00     0.051 A 
ATOM      5  C5  IND d   1      -0.976  -3.512  -0.681  0.00  0.00    -0.031 A 
ATOM      6  C6  IND d   1      -0.676  -3.163  -1.982  0.00  0.00     0.015 A 
ATOM      7  C7  IND d   1      -0.264  -1.901  -2.303  0.00  0.00    -0.016 A 
ATOM      8  C8  IND d   1      -0.181  -0.985  -1.264  0.00  0.00    -0.047 A 
ATOM      9  C9  IND d   1      -0.525  -1.322   0.051  0.00  0.00    -0.096 A 
ATOM     10  HN1 IND d   1       0.421   0.799  -1.955  0.00  0.00     0.298 HD
ENDROOT
TORSDOF 0
ENDMDL
