MODEL 1
REMARK minimizedAffinity -3.82931685
REMARK minimizedRMSD -1
REMARK  0 active torsions:
REMARK  status: ('A' for Active; 'I' for Inactive)
ROOT
ATOM      1  N1  IND d   1      -0.411  -1.602  -1.412  0.00  0.00    -0.196 N 
ATOM      2  C2  IND d   1      -0.869  -2.703  -0.742  0.00  0.00     0.054 A 
ATOM      3  C3  IND d   1      -1.204  -2.377   0.526  0.00  0.00    -0.031 A 
ATOM      4  C4  IND d   1      -1.178  -0.078   1.685  0.00  0.00     0.051 A 
ATOM      5  C5  IND d   1      -0.804   1.222   1.490  0.00  0.00    -0.031 A 
ATOM      6  C6  IND d   1      -0.273   1.657   0.293  0.00  0.00     0.015 A 
ATOM      7  C7  IND d   1      -0.104   0.806  -0.762  0.00  0.00    -0.016 A 
ATOM      8  C8  IND d   1      -0.476  -0.517  -0.566  0.00  0.00    -0.047 A 
ATOM      9  C9  IND d   1      -0.976  -0.973   0.661  0.00  0.00    -0.096 A 
ATOM     10  HN1 IND d   1      -0.130  -1.590  -2.224  0.00  0.00     0.298 HD
ENDROOT
TORSDOF 0
ENDMDL
