MODEL 1
REMARK minimizedAffinity -4.74977636
REMARK minimizedRMSD -1
REMARK  0 active torsions:
REMARK  status: ('A' for Active; 'I' for Inactive)
ROOT
ATOM      1  N1  IND d   1       0.489   0.621  -0.952  0.00  0.00    -0.196 N 
ATOM      2  C2  IND d   1       0.028   0.884   0.308  0.00  0.00     0.054 A 
ATOM      3  C3  IND d   1      -0.644  -0.183   0.795  0.00  0.00    -0.031 A 
ATOM      4  C4  IND d   1      -1.022  -2.500  -0.263  0.00  0.00     0.051 A 
ATOM      5  C5  IND d   1      -0.821  -3.203  -1.418  0.00  0.00    -0.031 A 
ATOM      6  C6  IND d   1      -0.157  -2.656  -2.497  0.00  0.00     0.015 A 
ATOM      7  C7  IND d   1       0.343  -1.385  -2.458  0.00  0.00    -0.016 A 
ATOM      8  C8  IND d   1       0.134  -0.667  -1.289  0.00  0.00    -0.047 A 
ATOM      9  C9  IND d   1      -0.576  -1.201  -0.206  0.00  0.00    -0.096 A 
ATOM     10  HN1 IND d   1       0.927   1.168  -1.451  0.00  0.00     0.298 HD
ENDROOT
TORSDOF 0
ENDMDL
