MODEL 1
REMARK minimizedAffinity -0.846796572
REMARK minimizedRMSD -1
REMARK  0 active torsions:
REMARK  status: ('A' for Active; 'I' for Inactive)
ROOT
ATOM      1  N1  IND d   1      -0.223   0.621  -0.503  0.00  0.00    -0.196 N 
ATOM      2  C2  IND d   1      -0.247   1.147   0.759  0.00  0.00     0.054 A 
ATOM      3  C3  IND d   1      -0.492   0.177   1.668  0.00  0.00    -0.031 A 
ATOM      4  C4  IND d   1      -0.784  -2.357   1.318  0.00  0.00     0.051 A 
ATOM      5  C5  IND d   1      -0.878  -3.305   0.339  0.00  0.00    -0.031 A 
ATOM      6  C6  IND d   1      -0.754  -2.987  -0.998  0.00  0.00     0.015 A 
ATOM      7  C7  IND d   1      -0.518  -1.705  -1.407  0.00  0.00    -0.016 A 
ATOM      8  C8  IND d   1      -0.429  -0.739  -0.415  0.00  0.00    -0.047 A 
ATOM      9  C9  IND d   1      -0.596  -1.049   0.941  0.00  0.00    -0.096 A 
ATOM     10  HN1 IND d   1      -0.100   1.064  -1.229  0.00  0.00     0.298 HD
ENDROOT
TORSDOF 0
ENDMDL
