MODEL 1
REMARK minimizedAffinity -0.960759461
REMARK minimizedRMSD -1
REMARK  0 active torsions:
REMARK  status: ('A' for Active; 'I' for Inactive)
ROOT
ATOM      1  N1  IND d   1      -0.052  -1.667  -2.422  0.00  0.00    -0.196 N 
ATOM      2  C2  IND d   1      -0.585  -2.924  -2.480  0.00  0.00     0.054 A 
ATOM      3  C3  IND d   1      -1.050  -3.295  -1.265  0.00  0.00    -0.031 A 
ATOM      4  C4  IND d   1      -1.129  -1.957   0.933  0.00  0.00     0.051 A 
ATOM      5  C5  IND d   1      -0.728  -0.775   1.490  0.00  0.00    -0.031 A 
ATOM      6  C6  IND d   1      -0.070   0.191   0.755  0.00  0.00     0.015 A 
ATOM      7  C7  IND d   1       0.202   0.014  -0.572  0.00  0.00    -0.016 A 
ATOM      8  C8  IND d   1      -0.197  -1.188  -1.139  0.00  0.00    -0.047 A 
ATOM      9  C9  IND d   1      -0.827  -2.189  -0.388  0.00  0.00    -0.096 A 
ATOM     10  HN1 IND d   1       0.313  -1.246  -3.077  0.00  0.00     0.298 HD
ENDROOT
TORSDOF 0
ENDMDL
