MODEL 1
REMARK minimizedAffinity -4.25544119
REMARK minimizedRMSD -1
REMARK  0 active torsions:
REMARK  status: ('A' for Active; 'I' for Inactive)
ROOT
ATOM      1  N1  IND d   1       0.775   0.166  -1.184  0.00  0.00    -0.196 N 
ATOM      2  C2  IND d   1       0.582   0.582   0.104  0.00  0.00     0.054 A 
ATOM      3  C3  IND d   1       0.134  -0.441   0.866  0.00  0.00    -0.031 A 
ATOM      4  C4  IND d   1      -0.259  -2.904   0.231  0.00  0.00     0.051 A 
ATOM      5  C5  IND d   1      -0.256  -3.755  -0.839  0.00  0.00    -0.031 A 
ATOM      6  C6  IND d   1       0.101  -3.333  -2.104  0.00  0.00     0.015 A 
ATOM      7  C7  IND d   1       0.481  -2.043  -2.345  0.00  0.00    -0.016 A 
ATOM      8  C8  IND d   1       0.472  -1.175  -1.262  0.00  0.00    -0.047 A 
ATOM      9  C9  IND d   1       0.070  -1.587   0.016  0.00  0.00    -0.096 A 
ATOM     10  HN1 IND d   1       1.041   0.660  -1.836  0.00  0.00     0.298 HD
ENDROOT
TORSDOF 0
ENDMDL
