MODEL 1
REMARK minimizedAffinity -2.93651009
REMARK minimizedRMSD -1
REMARK  0 active torsions:
REMARK  status: ('A' for Active; 'I' for Inactive)
ROOT
ATOM      1  N1  IND d   1       0.050  -1.889  -2.621  0.00  0.00    -0.196 N 
ATOM      2  C2  IND d   1      -0.357  -3.193  -2.676  0.00  0.00     0.054 A 
ATOM      3  C3  IND d   1      -0.832  -3.588  -1.473  0.00  0.00    -0.031 A 
ATOM      4  C4  IND d   1      -1.130  -2.231   0.694  0.00  0.00     0.051 A 
ATOM      5  C5  IND d   1      -0.869  -1.007   1.243  0.00  0.00    -0.031 A 
ATOM      6  C6  IND d   1      -0.278   0.007   0.517  0.00  0.00     0.015 A 
ATOM      7  C7  IND d   1       0.064  -0.163  -0.795  0.00  0.00    -0.016 A 
ATOM      8  C8  IND d   1      -0.194  -1.406  -1.354  0.00  0.00    -0.047 A 
ATOM      9  C9  IND d   1      -0.754  -2.453  -0.610  0.00  0.00    -0.096 A 
ATOM     10  HN1 IND d   1       0.399  -1.445  -3.269  0.00  0.00     0.298 HD
ENDROOT
TORSDOF 0
ENDMDL
