MODEL 1
REMARK minimizedAffinity 1.32028115
REMARK minimizedRMSD -1
REMARK  0 active torsions:
REMARK  status: ('A' for Active; 'I' for Inactive)
ROOT
ATOM      1  N1  IND d   1       0.390   0.542  -0.909  0.00  0.00    -0.196 N 
ATOM      2  C2  IND d   1       0.165   1.808  -0.444  0.00  0.00     0.054 A 
ATOM      3  C3  IND d   1      -0.689   1.779   0.604  0.00  0.00    -0.031 A 
ATOM      4  C4  IND d   1      -1.758  -0.242   1.787  0.00  0.00     0.051 A 
ATOM      5  C5  IND d   1      -1.880  -1.600   1.700  0.00  0.00    -0.031 A 
ATOM      6  C6  IND d   1      -1.236  -2.329   0.721  0.00  0.00     0.015 A 
ATOM      7  C7  IND d   1      -0.434  -1.725  -0.205  0.00  0.00    -0.016 A 
ATOM      8  C8  IND d   1      -0.314  -0.345  -0.124  0.00  0.00    -0.047 A 
ATOM      9  C9  IND d   1      -0.999   0.405   0.841  0.00  0.00    -0.096 A 
ATOM     10  HN1 IND d   1       0.887   0.335  -1.580  0.00  0.00     0.298 HD
ENDROOT
TORSDOF 0
ENDMDL
