MODEL 1
REMARK minimizedAffinity -3.17469382
REMARK minimizedRMSD -1
REMARK  0 active torsions:
REMARK  status: ('A' for Active; 'I' for Inactive)
ROOT
ATOM      1  N1  IND d   1       0.910   1.033  -0.474  0.00  0.00    -0.196 N 
ATOM      2  C2  IND d   1       0.405   2.233  -0.060  0.00  0.00     0.054 A 
ATOM      3  C3  IND d   1      -0.705   2.044   0.688  0.00  0.00    -0.031 A 
ATOM      4  C4  IND d   1      -1.811  -0.154   1.445  0.00  0.00     0.051 A 
ATOM      5  C5  IND d   1      -1.733  -1.509   1.288  0.00  0.00    -0.031 A 
ATOM      6  C6  IND d   1      -0.748  -2.099   0.522  0.00  0.00     0.015 A 
ATOM      7  C7  IND d   1       0.206  -1.352  -0.109  0.00  0.00    -0.016 A 
ATOM      8  C8  IND d   1       0.126   0.025   0.043  0.00  0.00    -0.047 A 
ATOM      9  C9  IND d   1      -0.897   0.632   0.784  0.00  0.00    -0.096 A 
ATOM     10  HN1 IND d   1       1.602   0.925  -0.974  0.00  0.00     0.298 HD
ENDROOT
TORSDOF 0
ENDMDL
