MODEL 1
REMARK minimizedAffinity -2.01567698
REMARK minimizedRMSD -1
REMARK  0 active torsions:
REMARK  status: ('A' for Active; 'I' for Inactive)
ROOT
ATOM      1  N1  IND d   1       0.040   0.347  -1.431  0.00  0.00    -0.196 N 
ATOM      2  C2  IND d   1       0.187   1.510  -0.727  0.00  0.00     0.054 A 
ATOM      3  C3  IND d   1      -0.079   1.303   0.582  0.00  0.00    -0.031 A 
ATOM      4  C4  IND d   1      -0.675  -0.883   1.805  0.00  0.00     0.051 A 
ATOM      5  C5  IND d   1      -0.960  -2.201   1.579  0.00  0.00    -0.031 A 
ATOM      6  C6  IND d   1      -0.923  -2.748   0.312  0.00  0.00     0.015 A 
ATOM      7  C7  IND d   1      -0.587  -1.997  -0.779  0.00  0.00    -0.016 A 
ATOM      8  C8  IND d   1      -0.304  -0.657  -0.554  0.00  0.00    -0.047 A 
ATOM      9  C9  IND d   1      -0.381  -0.086   0.724  0.00  0.00    -0.096 A 
ATOM     10  HN1 IND d   1       0.145   0.259  -2.280  0.00  0.00     0.298 HD
ENDROOT
TORSDOF 0
ENDMDL
