MODEL 1
REMARK minimizedAffinity -2.962502
REMARK minimizedRMSD -1
REMARK  0 active torsions:
REMARK  status: ('A' for Active; 'I' for Inactive)
ROOT
ATOM      1  N1  IND d   1      -0.073   0.822  -1.762  0.00  0.00    -0.196 N 
ATOM      2  C2  IND d   1      -0.020   1.984  -1.042  0.00  0.00     0.054 A 
ATOM      3  C3  IND d   1      -0.313   1.746   0.256  0.00  0.00    -0.031 A 
ATOM      4  C4  IND d   1      -0.808  -0.485   1.439  0.00  0.00     0.051 A 
ATOM      5  C5  IND d   1      -1.004  -1.815   1.193  0.00  0.00    -0.031 A 
ATOM      6  C6  IND d   1      -0.893  -2.345  -0.077  0.00  0.00     0.015 A 
ATOM      7  C7  IND d   1      -0.571  -1.563  -1.150  0.00  0.00    -0.016 A 
ATOM      8  C8  IND d   1      -0.379  -0.211  -0.904  0.00  0.00    -0.047 A 
ATOM      9  C9  IND d   1      -0.532   0.340   0.375  0.00  0.00    -0.096 A 
ATOM     10  HN1 IND d   1       0.063   0.749  -2.608  0.00  0.00     0.298 HD
ENDROOT
TORSDOF 0
ENDMDL
