MODEL 1
REMARK minimizedAffinity -2.65477204
REMARK minimizedRMSD -1
REMARK  0 active torsions:
REMARK  status: ('A' for Active; 'I' for Inactive)
ROOT
ATOM      1  N1  IND d   1       0.064   0.505  -0.875  0.00  0.00    -0.196 N 
ATOM      2  C2  IND d   1      -0.258   0.803   0.420  0.00  0.00     0.054 A 
ATOM      3  C3  IND d   1      -0.705  -0.300   1.060  0.00  0.00    -0.031 A 
ATOM      4  C4  IND d   1      -0.892  -2.722   0.208  0.00  0.00     0.051 A 
ATOM      5  C5  IND d   1      -0.749  -3.482  -0.920  0.00  0.00    -0.031 A 
ATOM      6  C6  IND d   1      -0.317  -2.941  -2.113  0.00  0.00     0.015 A 
ATOM      7  C7  IND d   1       0.001  -1.616  -2.221  0.00  0.00    -0.016 A 
ATOM      8  C8  IND d   1      -0.149  -0.841  -1.080  0.00  0.00    -0.047 A 
ATOM      9  C9  IND d   1      -0.628  -1.376   0.123  0.00  0.00    -0.096 A 
ATOM     10  HN1 IND d   1       0.351   1.063  -1.462  0.00  0.00     0.298 HD
ENDROOT
TORSDOF 0
ENDMDL
