MODEL 1
REMARK minimizedAffinity -0.819431722
REMARK minimizedRMSD -1
REMARK  0 active torsions:
REMARK  status: ('A' for Active; 'I' for Inactive)
ROOT
ATOM      1  N1  IND d   1      -0.746   0.014  -0.039  0.00  0.00    -0.196 N 
ATOM      2  C2  IND d   1      -0.524  -0.786   1.047  0.00  0.00     0.054 A 
ATOM      3  C3  IND d   1       0.389  -0.221   1.868  0.00  0.00    -0.031 A 
ATOM      4  C4  IND d   1       1.572   2.058   1.677  0.00  0.00     0.051 A 
ATOM      5  C5  IND d   1       1.720   3.128   0.841  0.00  0.00    -0.031 A 
ATOM      6  C6  IND d   1       1.037   3.218  -0.355  0.00  0.00     0.015 A 
ATOM      7  C7  IND d   1       0.169   2.242  -0.755  0.00  0.00    -0.016 A 
ATOM      8  C8  IND d   1       0.022   1.151   0.089  0.00  0.00    -0.047 A 
ATOM      9  C9  IND d   1       0.744   1.033   1.283  0.00  0.00    -0.096 A 
ATOM     10  HN1 IND d   1      -1.277  -0.163  -0.693  0.00  0.00     0.298 HD
ENDROOT
TORSDOF 0
ENDMDL
