MODEL 1
REMARK minimizedAffinity -3.25610328
REMARK minimizedRMSD -1
REMARK  0 active torsions:
REMARK  status: ('A' for Active; 'I' for Inactive)
ROOT
ATOM      1  N1  IND d   1       0.040   0.581  -0.921  0.00  0.00    -0.196 N 
ATOM      2  C2  IND d   1      -0.204   1.139   0.303  0.00  0.00     0.054 A 
ATOM      3  C3  IND d   1      -0.666   0.203   1.162  0.00  0.00    -0.031 A 
ATOM      4  C4  IND d   1      -1.002  -2.324   0.804  0.00  0.00     0.051 A 
ATOM      5  C5  IND d   1      -0.949  -3.292  -0.159  0.00  0.00    -0.031 A 
ATOM      6  C6  IND d   1      -0.553  -3.013  -1.451  0.00  0.00     0.015 A 
ATOM      7  C7  IND d   1      -0.183  -1.753  -1.827  0.00  0.00    -0.016 A 
ATOM      8  C8  IND d   1      -0.242  -0.766  -0.853  0.00  0.00    -0.047 A 
ATOM      9  C9  IND d   1      -0.684  -1.034   0.449  0.00  0.00    -0.096 A 
ATOM     10  HN1 IND d   1       0.322   1.000  -1.617  0.00  0.00     0.298 HD
ENDROOT
TORSDOF 0
ENDMDL
