MODEL 1
REMARK minimizedAffinity -2.51561499
REMARK minimizedRMSD -1
REMARK  0 active torsions:
REMARK  status: ('A' for Active; 'I' for Inactive)
ROOT
ATOM      1  N1  IND d   1       0.088   0.519  -0.436  0.00  0.00    -0.196 N 
ATOM      2  C2  IND d   1      -0.361   0.788   0.827  0.00  0.00     0.054 A 
ATOM      3  C3  IND d   1      -1.009  -0.285   1.334  0.00  0.00    -0.031 A 
ATOM      4  C4  IND d   1      -1.365  -2.618   0.305  0.00  0.00     0.051 A 
ATOM      5  C5  IND d   1      -1.168  -3.329  -0.845  0.00  0.00    -0.031 A 
ATOM      6  C6  IND d   1      -0.527  -2.784  -1.939  0.00  0.00     0.015 A 
ATOM      7  C7  IND d   1      -0.047  -1.505  -1.919  0.00  0.00    -0.016 A 
ATOM      8  C8  IND d   1      -0.252  -0.778  -0.755  0.00  0.00    -0.047 A 
ATOM      9  C9  IND d   1      -0.939  -1.311   0.343  0.00  0.00    -0.096 A 
ATOM     10  HN1 IND d   1       0.510   1.068  -0.946  0.00  0.00     0.298 HD
ENDROOT
TORSDOF 0
ENDMDL
