MODEL 1
REMARK minimizedAffinity -1.59997869
REMARK minimizedRMSD -1
REMARK  0 active torsions:
REMARK  status: ('A' for Active; 'I' for Inactive)
ROOT
ATOM      1  N1  IND d   1      -0.237   0.244  -0.804  0.00  0.00    -0.196 N 
ATOM      2  C2  IND d   1      -0.135   0.720   0.473  0.00  0.00     0.054 A 
ATOM      3  C3  IND d   1      -0.419  -0.258   1.363  0.00  0.00    -0.031 A 
ATOM      4  C4  IND d   1      -0.974  -2.737   0.948  0.00  0.00     0.051 A 
ATOM      5  C5  IND d   1      -1.218  -3.633  -0.055  0.00  0.00    -0.031 A 
ATOM      6  C6  IND d   1      -1.144  -3.276  -1.385  0.00  0.00     0.015 A 
ATOM      7  C7  IND d   1      -0.810  -2.007  -1.765  0.00  0.00    -0.016 A 
ATOM      8  C8  IND d   1      -0.568  -1.092  -0.749  0.00  0.00    -0.047 A 
ATOM      9  C9  IND d   1      -0.684  -1.438   0.603  0.00  0.00    -0.096 A 
ATOM     10  HN1 IND d   1      -0.115   0.702  -1.522  0.00  0.00     0.298 HD
ENDROOT
TORSDOF 0
ENDMDL
