MODEL 1
REMARK minimizedAffinity -0.837614894
REMARK minimizedRMSD -1
REMARK  0 active torsions:
REMARK  status: ('A' for Active; 'I' for Inactive)
ROOT
ATOM      1  N1  IND d   1      -0.238  -1.836  -2.649  0.00  0.00    -0.196 N 
ATOM      2  C2  IND d   1      -0.711  -3.118  -2.701  0.00  0.00     0.054 A 
ATOM      3  C3  IND d   1      -1.127  -3.516  -1.478  0.00  0.00    -0.031 A 
ATOM      4  C4  IND d   1      -1.219  -2.193   0.729  0.00  0.00     0.051 A 
ATOM      5  C5  IND d   1      -0.862  -0.995   1.282  0.00  0.00    -0.031 A 
ATOM      6  C6  IND d   1      -0.270   0.004   0.538  0.00  0.00     0.015 A 
ATOM      7  C7  IND d   1      -0.021  -0.153  -0.796  0.00  0.00    -0.016 A 
ATOM      8  C8  IND d   1      -0.376  -1.370  -1.360  0.00  0.00    -0.047 A 
ATOM      9  C9  IND d   1      -0.938  -2.404  -0.601  0.00  0.00    -0.096 A 
ATOM     10  HN1 IND d   1       0.090  -1.396  -3.311  0.00  0.00     0.298 HD
ENDROOT
TORSDOF 0
ENDMDL
