MODEL 1
REMARK minimizedAffinity -2.93773293
REMARK minimizedRMSD -1
REMARK  0 active torsions:
REMARK  status: ('A' for Active; 'I' for Inactive)
ROOT
ATOM      1  N1  IND d   1       0.585  -1.382   0.549  0.00  0.00    -0.196 N 
ATOM      2  C2  IND d   1       0.429  -0.069   0.898  0.00  0.00     0.054 A 
ATOM      3  C3  IND d   1       0.582   0.727  -0.184  0.00  0.00    -0.031 A 
ATOM      4  C4  IND d   1       0.989   0.084  -2.643  0.00  0.00     0.051 A 
ATOM      5  C5  IND d   1       1.237  -0.992  -3.448  0.00  0.00    -0.031 A 
ATOM      6  C6  IND d   1       1.279  -2.279  -2.952  0.00  0.00     0.015 A 
ATOM      7  C7  IND d   1       1.061  -2.541  -1.629  0.00  0.00    -0.016 A 
ATOM      8  C8  IND d   1       0.816  -1.450  -0.807  0.00  0.00    -0.047 A 
ATOM      9  C9  IND d   1       0.814  -0.137  -1.297  0.00  0.00    -0.096 A 
ATOM     10  HN1 IND d   1       0.544  -2.052   1.086  0.00  0.00     0.298 HD
ENDROOT
TORSDOF 0
ENDMDL
