MODEL 1
REMARK minimizedAffinity -1.74211669
REMARK minimizedRMSD -1
REMARK  0 active torsions:
REMARK  status: ('A' for Active; 'I' for Inactive)
ROOT
ATOM      1  N1  IND d   1      -2.332   0.771   0.905  0.00  0.00    -0.196 N 
ATOM      2  C2  IND d   1      -2.637   1.124  -0.380  0.00  0.00     0.054 A 
ATOM      3  C3  IND d   1      -1.506   1.304  -1.098  0.00  0.00    -0.031 A 
ATOM      4  C4  IND d   1       0.949   0.972  -0.396  0.00  0.00     0.051 A 
ATOM      5  C5  IND d   1       1.730   0.689   0.690  0.00  0.00    -0.031 A 
ATOM      6  C6  IND d   1       1.185   0.410   1.927  0.00  0.00     0.015 A 
ATOM      7  C7  IND d   1      -0.167   0.393   2.123  0.00  0.00    -0.016 A 
ATOM      8  C8  IND d   1      -0.963   0.687   1.025  0.00  0.00    -0.047 A 
ATOM      9  C9  IND d   1      -0.415   1.012  -0.223  0.00  0.00    -0.096 A 
ATOM     10  HN1 IND d   1      -2.901   0.626   1.534  0.00  0.00     0.298 HD
ENDROOT
TORSDOF 0
ENDMDL
