MODEL 1
REMARK minimizedAffinity -2.95597434
REMARK minimizedRMSD -1
REMARK  0 active torsions:
REMARK  status: ('A' for Active; 'I' for Inactive)
ROOT
ATOM      1  N1  IND d   1      -1.224  -0.829  -1.176  0.00  0.00    -0.196 N 
ATOM      2  C2  IND d   1      -0.952   0.292  -0.442  0.00  0.00     0.054 A 
ATOM      3  C3  IND d   1       0.243   0.810  -0.802  0.00  0.00    -0.031 A 
ATOM      4  C4  IND d   1       1.873   0.042  -2.641  0.00  0.00     0.051 A 
ATOM      5  C5  IND d   1       2.075  -0.956  -3.553  0.00  0.00    -0.031 A 
ATOM      6  C6  IND d   1       1.168  -1.981  -3.724  0.00  0.00     0.015 A 
ATOM      7  C7  IND d   1       0.014  -2.042  -2.995  0.00  0.00    -0.016 A 
ATOM      8  C8  IND d   1      -0.191  -1.034  -2.063  0.00  0.00    -0.047 A 
ATOM      9  C9  IND d   1       0.746  -0.014  -1.855  0.00  0.00    -0.096 A 
ATOM     10  HN1 IND d   1      -1.924  -1.323  -1.096  0.00  0.00     0.298 HD
ENDROOT
TORSDOF 0
ENDMDL
