MODEL 1
REMARK minimizedAffinity -0.0170730036
REMARK minimizedRMSD -1
REMARK  0 active torsions:
REMARK  status: ('A' for Active; 'I' for Inactive)
ROOT
ATOM      1  N1  IND d   1      -1.858   0.536   0.248  0.00  0.00    -0.196 N 
ATOM      2  C2  IND d   1      -1.454   0.485  -1.057  0.00  0.00     0.054 A 
ATOM      3  C3  IND d   1      -0.104   0.462  -1.131  0.00  0.00    -0.031 A 
ATOM      4  C4  IND d   1       1.636   0.397   0.765  0.00  0.00     0.051 A 
ATOM      5  C5  IND d   1       1.751   0.464   2.125  0.00  0.00    -0.031 A 
ATOM      6  C6  IND d   1       0.645   0.557   2.946  0.00  0.00     0.015 A 
ATOM      7  C7  IND d   1      -0.622   0.576   2.435  0.00  0.00    -0.016 A 
ATOM      8  C8  IND d   1      -0.741   0.515   1.054  0.00  0.00    -0.047 A 
ATOM      9  C9  IND d   1       0.378   0.463   0.214  0.00  0.00    -0.096 A 
ATOM     10  HN1 IND d   1      -2.673   0.574   0.520  0.00  0.00     0.298 HD
ENDROOT
TORSDOF 0
ENDMDL
