MODEL 1
REMARK minimizedAffinity -3.36427808
REMARK minimizedRMSD -1
REMARK  0 active torsions:
REMARK  status: ('A' for Active; 'I' for Inactive)
ROOT
ATOM      1  N1  IND d   1       1.746  -1.495  -2.514  0.00  0.00    -0.196 N 
ATOM      2  C2  IND d   1       0.861  -2.112  -3.355  0.00  0.00     0.054 A 
ATOM      3  C3  IND d   1      -0.409  -1.854  -2.972  0.00  0.00    -0.031 A 
ATOM      4  C4  IND d   1      -1.271  -0.365  -1.058  0.00  0.00     0.051 A 
ATOM      5  C5  IND d   1      -0.841   0.378   0.006  0.00  0.00    -0.031 A 
ATOM      6  C6  IND d   1       0.500   0.540   0.288  0.00  0.00     0.015 A 
ATOM      7  C7  IND d   1       1.466  -0.028  -0.494  0.00  0.00    -0.016 A 
ATOM      8  C8  IND d   1       1.033  -0.789  -1.570  0.00  0.00    -0.047 A 
ATOM      9  C9  IND d   1      -0.327  -0.992  -1.836  0.00  0.00    -0.096 A 
ATOM     10  HN1 IND d   1       2.603  -1.541  -2.567  0.00  0.00     0.298 HD
ENDROOT
TORSDOF 0
ENDMDL
