MODEL 1
REMARK minimizedAffinity 0.220148921
REMARK minimizedRMSD -1
REMARK  0 active torsions:
REMARK  status: ('A' for Active; 'I' for Inactive)
ROOT
ATOM      1  N1  IND d   1       1.611  -0.075   1.440  0.00  0.00    -0.196 N 
ATOM      2  C2  IND d   1       0.872   0.022   2.586  0.00  0.00     0.054 A 
ATOM      3  C3  IND d   1      -0.407   0.348   2.294  0.00  0.00    -0.031 A 
ATOM      4  C4  IND d   1      -1.530   0.670   0.000  0.00  0.00     0.051 A 
ATOM      5  C5  IND d   1      -1.254   0.720  -1.337  0.00  0.00    -0.031 A 
ATOM      6  C6  IND d   1       0.017   0.500  -1.827  0.00  0.00     0.015 A 
ATOM      7  C7  IND d   1       1.061   0.209  -0.995  0.00  0.00    -0.016 A 
ATOM      8  C8  IND d   1       0.786   0.165   0.364  0.00  0.00    -0.047 A 
ATOM      9  C9  IND d   1      -0.493   0.430   0.870  0.00  0.00    -0.096 A 
ATOM     10  HN1 IND d   1       2.451  -0.256   1.399  0.00  0.00     0.298 HD
ENDROOT
TORSDOF 0
ENDMDL
