MODEL 1
REMARK minimizedAffinity -2.72611833
REMARK minimizedRMSD -1
REMARK  0 active torsions:
REMARK  status: ('A' for Active; 'I' for Inactive)
ROOT
ATOM      1  N1  IND d   1      -0.749  -1.030   0.068  0.00  0.00    -0.196 N 
ATOM      2  C2  IND d   1      -0.189  -0.032   0.815  0.00  0.00     0.054 A 
ATOM      3  C3  IND d   1       0.763   0.611   0.103  0.00  0.00    -0.031 A 
ATOM      4  C4  IND d   1       1.495   0.259  -2.340  0.00  0.00     0.051 A 
ATOM      5  C5  IND d   1       1.297  -0.559  -3.417  0.00  0.00    -0.031 A 
ATOM      6  C6  IND d   1       0.386  -1.595  -3.387  0.00  0.00     0.015 A 
ATOM      7  C7  IND d   1      -0.372  -1.846  -2.279  0.00  0.00    -0.016 A 
ATOM      8  C8  IND d   1      -0.168  -1.021  -1.181  0.00  0.00    -0.047 A 
ATOM      9  C9  IND d   1       0.785   0.005  -1.191  0.00  0.00    -0.096 A 
ATOM     10  HN1 IND d   1      -1.362  -1.572   0.333  0.00  0.00     0.298 HD
ENDROOT
TORSDOF 0
ENDMDL
