MODEL 1
REMARK minimizedAffinity -2.87424374
REMARK minimizedRMSD -1
REMARK  0 active torsions:
REMARK  status: ('A' for Active; 'I' for Inactive)
ROOT
ATOM      1  N1  IND d   1      -0.433   0.274  -1.150  0.00  0.00    -0.196 N 
ATOM      2  C2  IND d   1       0.587   0.003  -2.018  0.00  0.00     0.054 A 
ATOM      3  C3  IND d   1       1.736  -0.218  -1.340  0.00  0.00    -0.031 A 
ATOM      4  C4  IND d   1       2.149  -0.284   1.200  0.00  0.00     0.051 A 
ATOM      5  C5  IND d   1       1.530  -0.063   2.398  0.00  0.00    -0.031 A 
ATOM      6  C6  IND d   1       0.197   0.287   2.477  0.00  0.00     0.015 A 
ATOM      7  C7  IND d   1      -0.572   0.417   1.355  0.00  0.00    -0.016 A 
ATOM      8  C8  IND d   1       0.055   0.200   0.137  0.00  0.00    -0.047 A 
ATOM      9  C9  IND d   1       1.417  -0.113   0.049  0.00  0.00    -0.096 A 
ATOM     10  HN1 IND d   1      -1.243   0.459  -1.370  0.00  0.00     0.298 HD
ENDROOT
TORSDOF 0
ENDMDL
