MODEL 1
REMARK minimizedAffinity -2.48741865
REMARK minimizedRMSD -1
REMARK  0 active torsions:
REMARK  status: ('A' for Active; 'I' for Inactive)
ROOT
ATOM      1  N1  IND d   1      -1.441   0.187  -1.025  0.00  0.00    -0.196 N 
ATOM      2  C2  IND d   1      -0.405   0.359  -1.900  0.00  0.00     0.054 A 
ATOM      3  C3  IND d   1       0.759   0.503  -1.228  0.00  0.00    -0.031 A 
ATOM      4  C4  IND d   1       1.211   0.387   1.304  0.00  0.00     0.051 A 
ATOM      5  C5  IND d   1       0.573   0.283   2.508  0.00  0.00    -0.031 A 
ATOM      6  C6  IND d   1      -0.796   0.136   2.598  0.00  0.00     0.015 A 
ATOM      7  C7  IND d   1      -1.581   0.076   1.481  0.00  0.00    -0.016 A 
ATOM      8  C8  IND d   1      -0.937   0.188   0.257  0.00  0.00    -0.047 A 
ATOM      9  C9  IND d   1       0.447   0.380   0.161  0.00  0.00    -0.096 A 
ATOM     10  HN1 IND d   1      -2.269   0.093  -1.240  0.00  0.00     0.298 HD
ENDROOT
TORSDOF 0
ENDMDL
