MODEL 1
REMARK minimizedAffinity -1.93292677
REMARK minimizedRMSD -1
REMARK  0 active torsions:
REMARK  status: ('A' for Active; 'I' for Inactive)
ROOT
ATOM      1  N1  IND d   1       5.390  -2.280   4.115  0.00  0.00    -0.196 N 
ATOM      2  C2  IND d   1       4.912  -1.970   2.872  0.00  0.00     0.054 A 
ATOM      3  C3  IND d   1       4.189  -2.999   2.376  0.00  0.00    -0.031 A 
ATOM      4  C4  IND d   1       3.575  -5.246   3.473  0.00  0.00     0.051 A 
ATOM      5  C5  IND d   1       3.811  -6.000   4.589  0.00  0.00    -0.031 A 
ATOM      6  C6  IND d   1       4.598  -5.542   5.625  0.00  0.00     0.015 A 
ATOM      7  C7  IND d   1       5.173  -4.303   5.590  0.00  0.00    -0.016 A 
ATOM      8  C8  IND d   1       4.942  -3.538   4.456  0.00  0.00    -0.047 A 
ATOM      9  C9  IND d   1       4.179  -4.014   3.382  0.00  0.00    -0.096 A 
ATOM     10  HN1 IND d   1       5.887  -1.775   4.602  0.00  0.00     0.298 HD
ENDROOT
TORSDOF 0
ENDMDL
