MODEL 1
REMARK minimizedAffinity 1.33608222
REMARK minimizedRMSD -1
REMARK  0 active torsions:
REMARK  status: ('A' for Active; 'I' for Inactive)
ROOT
ATOM      1  N1  IND d   1       0.645   0.508   2.825  0.00  0.00    -0.196 N 
ATOM      2  C2  IND d   1       1.983   0.386   2.577  0.00  0.00     0.054 A 
ATOM      3  C3  IND d   1       2.206   0.269   1.248  0.00  0.00    -0.031 A 
ATOM      4  C4  IND d   1       0.531   0.354  -0.705  0.00  0.00     0.051 A 
ATOM      5  C5  IND d   1      -0.808   0.415  -0.974  0.00  0.00    -0.031 A 
ATOM      6  C6  IND d   1      -1.750   0.515   0.030  0.00  0.00     0.015 A 
ATOM      7  C7  IND d   1      -1.385   0.569   1.346  0.00  0.00    -0.016 A 
ATOM      8  C8  IND d   1      -0.027   0.500   1.623  0.00  0.00    -0.047 A 
ATOM      9  C9  IND d   1       0.930   0.356   0.611  0.00  0.00    -0.096 A 
ATOM     10  HN1 IND d   1       0.283   0.578   3.602  0.00  0.00     0.298 HD
ENDROOT
TORSDOF 0
ENDMDL
