MODEL 1
REMARK minimizedAffinity -3.13140297
REMARK minimizedRMSD -1
REMARK  0 active torsions:
REMARK  status: ('A' for Active; 'I' for Inactive)
ROOT
ATOM      1  N1  IND d   1      -0.318   0.508  -0.998  0.00  0.00    -0.196 N 
ATOM      2  C2  IND d   1       1.047   0.495  -0.927  0.00  0.00     0.054 A 
ATOM      3  C3  IND d   1       1.451   0.481   0.363  0.00  0.00    -0.031 A 
ATOM      4  C4  IND d   1       0.045   0.376   2.517  0.00  0.00     0.051 A 
ATOM      5  C5  IND d   1      -1.247   0.407   2.962  0.00  0.00    -0.031 A 
ATOM      6  C6  IND d   1      -2.317   0.472   2.093  0.00  0.00     0.015 A 
ATOM      7  C7  IND d   1      -2.134   0.497   0.739  0.00  0.00    -0.016 A 
ATOM      8  C8  IND d   1      -0.823   0.473   0.283  0.00  0.00    -0.047 A 
ATOM      9  C9  IND d   1       0.267   0.450   1.162  0.00  0.00    -0.096 A 
ATOM     10  HN1 IND d   1      -0.782   0.535  -1.721  0.00  0.00     0.298 HD
ENDROOT
TORSDOF 0
ENDMDL
