MODEL 1
REMARK minimizedAffinity -3.2881968
REMARK minimizedRMSD -1
REMARK  0 active torsions:
REMARK  status: ('A' for Active; 'I' for Inactive)
ROOT
ATOM      1  N1  IND d   1      -1.180   0.931  -0.927  0.00  0.00    -0.196 N 
ATOM      2  C2  IND d   1      -2.481   1.036  -0.520  0.00  0.00     0.054 A 
ATOM      3  C3  IND d   1      -2.601   0.664   0.774  0.00  0.00    -0.031 A 
ATOM      4  C4  IND d   1      -0.778  -0.055   2.444  0.00  0.00     0.051 A 
ATOM      5  C5  IND d   1       0.556  -0.338   2.526  0.00  0.00    -0.031 A 
ATOM      6  C6  IND d   1       1.398  -0.207   1.440  0.00  0.00     0.015 A 
ATOM      7  C7  IND d   1       0.936   0.225   0.229  0.00  0.00    -0.016 A 
ATOM      8  C8  IND d   1      -0.420   0.506   0.140  0.00  0.00    -0.047 A 
ATOM      9  C9  IND d   1      -1.287   0.334   1.227  0.00  0.00    -0.096 A 
ATOM     10  HN1 IND d   1      -0.887   1.102  -1.717  0.00  0.00     0.298 HD
ENDROOT
TORSDOF 0
ENDMDL
