MODEL 1
REMARK minimizedAffinity -1.5745014
REMARK minimizedRMSD -1
REMARK  0 active torsions:
REMARK  status: ('A' for Active; 'I' for Inactive)
ROOT
ATOM      1  N1  IND d   1      -0.985   0.199  -0.812  0.00  0.00    -0.196 N 
ATOM      2  C2  IND d   1       0.349  -0.063  -0.954  0.00  0.00     0.054 A 
ATOM      3  C3  IND d   1       0.964  -0.040   0.250  0.00  0.00    -0.031 A 
ATOM      4  C4  IND d   1      -0.043   0.304   2.594  0.00  0.00     0.051 A 
ATOM      5  C5  IND d   1      -1.213   0.613   3.229  0.00  0.00    -0.031 A 
ATOM      6  C6  IND d   1      -2.391   0.801   2.536  0.00  0.00     0.015 A 
ATOM      7  C7  IND d   1      -2.446   0.675   1.177  0.00  0.00    -0.016 A 
ATOM      8  C8  IND d   1      -1.258   0.368   0.528  0.00  0.00    -0.047 A 
ATOM      9  C9  IND d   1      -0.051   0.218   1.222  0.00  0.00    -0.096 A 
ATOM     10  HN1 IND d   1      -1.558   0.249  -1.451  0.00  0.00     0.298 HD
ENDROOT
TORSDOF 0
ENDMDL
