MODEL 1
REMARK minimizedAffinity -0.509575665
REMARK minimizedRMSD -1
REMARK  0 active torsions:
REMARK  status: ('A' for Active; 'I' for Inactive)
ROOT
ATOM      1  N1  IND d   1      -0.332  -0.796   0.188  0.00  0.00    -0.196 N 
ATOM      2  C2  IND d   1       0.362   0.161   0.874  0.00  0.00     0.054 A 
ATOM      3  C3  IND d   1       1.353   0.666   0.105  0.00  0.00    -0.031 A 
ATOM      4  C4  IND d   1       1.951   0.143  -2.343  0.00  0.00     0.051 A 
ATOM      5  C5  IND d   1       1.625  -0.689  -3.378  0.00  0.00    -0.031 A 
ATOM      6  C6  IND d   1       0.607  -1.615  -3.276  0.00  0.00     0.015 A 
ATOM      7  C7  IND d   1      -0.132  -1.738  -2.134  0.00  0.00    -0.016 A 
ATOM      8  C8  IND d   1       0.201  -0.900  -1.079  0.00  0.00    -0.047 A 
ATOM      9  C9  IND d   1       1.260   0.013  -1.162  0.00  0.00    -0.096 A 
ATOM     10  HN1 IND d   1      -0.990  -1.256   0.495  0.00  0.00     0.298 HD
ENDROOT
TORSDOF 0
ENDMDL
