MODEL 1
REMARK minimizedAffinity -1.86233592
REMARK minimizedRMSD -1
REMARK  0 active torsions:
REMARK  status: ('A' for Active; 'I' for Inactive)
ROOT
ATOM      1  N1  IND d   1      -2.826   0.681   0.626  0.00  0.00    -0.196 N 
ATOM      2  C2  IND d   1      -3.471   1.019   1.782  0.00  0.00     0.054 A 
ATOM      3  C3  IND d   1      -2.598   1.060   2.814  0.00  0.00    -0.031 A 
ATOM      4  C4  IND d   1      -0.048   0.704   2.812  0.00  0.00     0.051 A 
ATOM      5  C5  IND d   1       0.988   0.338   2.000  0.00  0.00    -0.031 A 
ATOM      6  C6  IND d   1       0.802   0.064   0.660  0.00  0.00     0.015 A 
ATOM      7  C7  IND d   1      -0.430   0.158   0.078  0.00  0.00    -0.016 A 
ATOM      8  C8  IND d   1      -1.486   0.523   0.901  0.00  0.00    -0.047 A 
ATOM      9  C9  IND d   1      -1.311   0.761   2.271  0.00  0.00    -0.096 A 
ATOM     10  HN1 IND d   1      -3.195   0.582  -0.145  0.00  0.00     0.298 HD
ENDROOT
TORSDOF 0
ENDMDL
