MODEL 1
REMARK minimizedAffinity -3.92109227
REMARK minimizedRMSD -1
REMARK  0 active torsions:
REMARK  status: ('A' for Active; 'I' for Inactive)
ROOT
ATOM      1  N1  IND d   1       2.379  -1.267  -1.900  0.00  0.00    -0.196 N 
ATOM      2  C2  IND d   1       1.753  -1.486  -3.095  0.00  0.00     0.054 A 
ATOM      3  C3  IND d   1       0.522  -0.927  -3.091  0.00  0.00    -0.031 A 
ATOM      4  C4  IND d   1      -0.629   0.481  -1.268  0.00  0.00     0.051 A 
ATOM      5  C5  IND d   1      -0.466   0.921   0.016  0.00  0.00    -0.031 A 
ATOM      6  C6  IND d   1       0.677   0.651   0.740  0.00  0.00     0.015 A 
ATOM      7  C7  IND d   1       1.710  -0.062   0.201  0.00  0.00    -0.016 A 
ATOM      8  C8  IND d   1       1.546  -0.517  -1.099  0.00  0.00    -0.047 A 
ATOM      9  C9  IND d   1       0.370  -0.283  -1.825  0.00  0.00    -0.096 A 
ATOM     10  HN1 IND d   1       3.162  -1.550  -1.684  0.00  0.00     0.298 HD
ENDROOT
TORSDOF 0
ENDMDL
