MODEL 1
REMARK minimizedAffinity -2.00484538
REMARK minimizedRMSD -1
REMARK  0 active torsions:
REMARK  status: ('A' for Active; 'I' for Inactive)
ROOT
ATOM      1  N1  IND d   1      -0.932   1.083   2.013  0.00  0.00    -0.196 N 
ATOM      2  C2  IND d   1       0.007   0.698   2.929  0.00  0.00     0.054 A 
ATOM      3  C3  IND d   1       1.000   0.009   2.324  0.00  0.00    -0.031 A 
ATOM      4  C4  IND d   1       1.340  -0.518  -0.173  0.00  0.00     0.051 A 
ATOM      5  C5  IND d   1       0.729  -0.405  -1.390  0.00  0.00    -0.031 A 
ATOM      6  C6  IND d   1      -0.490   0.225  -1.539  0.00  0.00     0.015 A 
ATOM      7  C7  IND d   1      -1.141   0.777  -0.473  0.00  0.00    -0.016 A 
ATOM      8  C8  IND d   1      -0.527   0.659   0.766  0.00  0.00    -0.047 A 
ATOM      9  C9  IND d   1       0.689  -0.017   0.930  0.00  0.00    -0.096 A 
ATOM     10  HN1 IND d   1      -1.654   1.517   2.186  0.00  0.00     0.298 HD
ENDROOT
TORSDOF 0
ENDMDL
