MODEL 1
REMARK minimizedAffinity -3.28782821
REMARK minimizedRMSD -1
REMARK  0 active torsions:
REMARK  status: ('A' for Active; 'I' for Inactive)
ROOT
ATOM      1  N1  IND d   1      -1.232   0.388  -1.036  0.00  0.00    -0.196 N 
ATOM      2  C2  IND d   1      -0.044   0.329  -1.708  0.00  0.00     0.054 A 
ATOM      3  C3  IND d   1       0.979   0.151  -0.842  0.00  0.00    -0.031 A 
ATOM      4  C4  IND d   1       0.921  -0.172   1.712  0.00  0.00     0.051 A 
ATOM      5  C5  IND d   1       0.069  -0.159   2.780  0.00  0.00    -0.031 A 
ATOM      6  C6  IND d   1      -1.288   0.038   2.628  0.00  0.00     0.015 A 
ATOM      7  C7  IND d   1      -1.848   0.219   1.395  0.00  0.00    -0.016 A 
ATOM      8  C8  IND d   1      -0.985   0.214   0.308  0.00  0.00    -0.047 A 
ATOM      9  C9  IND d   1       0.399   0.057   0.460  0.00  0.00    -0.096 A 
ATOM     10  HN1 IND d   1      -2.005   0.513  -1.392  0.00  0.00     0.298 HD
ENDROOT
TORSDOF 0
ENDMDL
