MODEL 1
REMARK minimizedAffinity -0.295730919
REMARK minimizedRMSD -1
REMARK  0 active torsions:
REMARK  status: ('A' for Active; 'I' for Inactive)
ROOT
ATOM      1  O1  BZF d   1      -2.220   5.981   4.878  0.00  0.00    -0.204 OA
ATOM      2  C2  BZF d   1      -3.048   5.976   5.983  0.00  0.00     0.174 A 
ATOM      3  C3  BZF d   1      -4.344   6.000   5.611  0.00  0.00    -0.012 A 
ATOM      4  C3A BZF d   1      -4.327   5.928   4.182  0.00  0.00    -0.107 A 
ATOM      5  C4  BZF d   1      -5.306   5.898   3.231  0.00  0.00     0.055 A 
ATOM      6  C5  BZF d   1      -4.954   5.901   1.919  0.00  0.00    -0.016 A 
ATOM      7  C6  BZF d   1      -3.633   5.938   1.522  0.00  0.00     0.022 A 
ATOM      8  C7  BZF d   1      -2.626   5.964   2.429  0.00  0.00     0.029 A 
ATOM      9  C7A BZF d   1      -2.978   5.928   3.756  0.00  0.00     0.058 A 
ENDROOT
TORSDOF 0
ENDMDL
