MODEL 1
REMARK minimizedAffinity 9.38725948
REMARK minimizedRMSD -1
REMARK  0 active torsions:
REMARK  status: ('A' for Active; 'I' for Inactive)
ROOT
ATOM      1  O1  BZF d   1      -3.055  -2.381   1.366  0.00  0.00    -0.204 OA
ATOM      2  C2  BZF d   1      -2.346  -2.010   0.240  0.00  0.00     0.174 A 
ATOM      3  C3  BZF d   1      -2.009  -0.705   0.296  0.00  0.00    -0.012 A 
ATOM      4  C3A BZF d   1      -2.460  -0.254   1.576  0.00  0.00    -0.107 A 
ATOM      5  C4  BZF d   1      -2.400   0.947   2.223  0.00  0.00     0.055 A 
ATOM      6  C5  BZF d   1      -3.000   1.075   3.436  0.00  0.00    -0.016 A 
ATOM      7  C6  BZF d   1      -3.672   0.026   4.028  0.00  0.00     0.022 A 
ATOM      8  C7  BZF d   1      -3.754  -1.186   3.427  0.00  0.00     0.029 A 
ATOM      9  C7A BZF d   1      -3.120  -1.328   2.217  0.00  0.00     0.058 A 
ENDROOT
TORSDOF 0
ENDMDL
