MODEL 1
REMARK minimizedAffinity 3.10581493
REMARK minimizedRMSD -1
REMARK  0 active torsions:
REMARK  status: ('A' for Active; 'I' for Inactive)
ROOT
ATOM      1  O1  BZF d   1      -1.943   5.966   4.841  0.00  0.00    -0.204 OA
ATOM      2  C2  BZF d   1      -2.694   5.952   6.000  0.00  0.00     0.174 A 
ATOM      3  C3  BZF d   1      -4.012   5.999   5.716  0.00  0.00    -0.012 A 
ATOM      4  C3A BZF d   1      -4.092   5.952   4.289  0.00  0.00    -0.107 A 
ATOM      5  C4  BZF d   1      -5.134   5.951   3.406  0.00  0.00     0.055 A 
ATOM      6  C5  BZF d   1      -4.870   5.972   2.073  0.00  0.00    -0.016 A 
ATOM      7  C6  BZF d   1      -3.579   5.999   1.589  0.00  0.00     0.022 A 
ATOM      8  C7  BZF d   1      -2.513   5.996   2.425  0.00  0.00     0.029 A 
ATOM      9  C7A BZF d   1      -2.775   5.942   3.772  0.00  0.00     0.058 A 
ENDROOT
TORSDOF 0
ENDMDL
