MODEL 1
REMARK minimizedAffinity -1.65094113
REMARK minimizedRMSD -1
REMARK  0 active torsions:
REMARK  status: ('A' for Active; 'I' for Inactive)
ROOT
ATOM      1  O1  BZF d   1      -2.064   5.981   4.683  0.00  0.00    -0.204 OA
ATOM      2  C2  BZF d   1      -2.877   5.956   5.799  0.00  0.00     0.174 A 
ATOM      3  C3  BZF d   1      -4.178   5.968   5.443  0.00  0.00    -0.012 A 
ATOM      4  C3A BZF d   1      -4.178   5.909   4.014  0.00  0.00    -0.107 A 
ATOM      5  C4  BZF d   1      -5.169   5.876   3.075  0.00  0.00     0.055 A 
ATOM      6  C5  BZF d   1      -4.833   5.895   1.758  0.00  0.00    -0.016 A 
ATOM      7  C6  BZF d   1      -3.518   5.953   1.345  0.00  0.00     0.022 A 
ATOM      8  C7  BZF d   1      -2.500   5.982   2.239  0.00  0.00     0.029 A 
ATOM      9  C7A BZF d   1      -2.835   5.929   3.570  0.00  0.00     0.058 A 
ENDROOT
TORSDOF 0
ENDMDL
