MODEL 1
REMARK minimizedAffinity 12.6788998
REMARK minimizedRMSD -1
REMARK  0 active torsions:
REMARK  status: ('A' for Active; 'I' for Inactive)
ROOT
ATOM      1  O1  BZF d   1      -3.560   5.921   1.818  0.00  0.00    -0.204 OA
ATOM      2  C2  BZF d   1      -2.190   5.919   1.996  0.00  0.00     0.174 A 
ATOM      3  C3  BZF d   1      -1.877   5.980   3.306  0.00  0.00    -0.012 A 
ATOM      4  C3A BZF d   1      -3.130   5.928   3.995  0.00  0.00    -0.107 A 
ATOM      5  C4  BZF d   1      -3.476   5.936   5.316  0.00  0.00     0.055 A 
ATOM      6  C5  BZF d   1      -4.792   5.949   5.654  0.00  0.00    -0.016 A 
ATOM      7  C6  BZF d   1      -5.787   5.961   4.698  0.00  0.00     0.022 A 
ATOM      8  C7  BZF d   1      -5.493   5.949   3.375  0.00  0.00     0.029 A 
ATOM      9  C7A BZF d   1      -4.164   5.902   3.031  0.00  0.00     0.058 A 
ENDROOT
TORSDOF 0
ENDMDL
