MODEL 1
REMARK minimizedAffinity 0.820400417
REMARK minimizedRMSD -1
REMARK  0 active torsions:
REMARK  status: ('A' for Active; 'I' for Inactive)
ROOT
ATOM      1  O1  BZF d   1      -4.661   5.972   5.134  0.00  0.00    -0.204 OA
ATOM      2  C2  BZF d   1      -3.448   5.995   5.793  0.00  0.00     0.174 A 
ATOM      3  C3  BZF d   1      -2.425   5.955   4.915  0.00  0.00    -0.012 A 
ATOM      4  C3A BZF d   1      -3.037   5.996   3.622  0.00  0.00    -0.107 A 
ATOM      5  C4  BZF d   1      -2.543   6.000   2.349  0.00  0.00     0.055 A 
ATOM      6  C5  BZF d   1      -3.411   5.972   1.304  0.00  0.00    -0.016 A 
ATOM      7  C6  BZF d   1      -4.777   5.935   1.495  0.00  0.00     0.022 A 
ATOM      8  C7  BZF d   1      -5.314   5.935   2.739  0.00  0.00     0.029 A 
ATOM      9  C7A BZF d   1      -4.440   5.997   3.797  0.00  0.00     0.058 A 
ENDROOT
TORSDOF 0
ENDMDL
