MODEL 1
REMARK minimizedAffinity 3.17305899
REMARK minimizedRMSD -1
REMARK  0 active torsions:
REMARK  status: ('A' for Active; 'I' for Inactive)
ROOT
ATOM      1  O1  BZF d   1      -4.036   5.954   1.452  0.00  0.00    -0.204 OA
ATOM      2  C2  BZF d   1      -5.414   5.945   1.538  0.00  0.00     0.174 A 
ATOM      3  C3  BZF d   1      -5.813   5.903   2.826  0.00  0.00    -0.012 A 
ATOM      4  C3A BZF d   1      -4.609   5.977   3.596  0.00  0.00    -0.107 A 
ATOM      5  C4  BZF d   1      -4.352   5.995   4.937  0.00  0.00     0.055 A 
ATOM      6  C5  BZF d   1      -3.061   5.999   5.361  0.00  0.00    -0.016 A 
ATOM      7  C6  BZF d   1      -2.004   5.981   4.474  0.00  0.00     0.022 A 
ATOM      8  C7  BZF d   1      -2.210   5.969   3.134  0.00  0.00     0.029 A 
ATOM      9  C7A BZF d   1      -3.514   5.998   2.702  0.00  0.00     0.058 A 
ENDROOT
TORSDOF 0
ENDMDL
