MODEL 1
REMARK minimizedAffinity 4.57046318
REMARK minimizedRMSD -1
REMARK  0 active torsions:
REMARK  status: ('A' for Active; 'I' for Inactive)
ROOT
ATOM      1  O1  BZF d   1      -4.501   5.126   5.584  0.00  0.00    -0.204 OA
ATOM      2  C2  BZF d   1      -3.227   5.629   5.763  0.00  0.00     0.174 A 
ATOM      3  C3  BZF d   1      -2.689   6.000   4.583  0.00  0.00    -0.012 A 
ATOM      4  C3A BZF d   1      -3.724   5.796   3.617  0.00  0.00    -0.107 A 
ATOM      5  C4  BZF d   1      -3.803   5.998   2.269  0.00  0.00     0.055 A 
ATOM      6  C5  BZF d   1      -4.933   5.628   1.610  0.00  0.00    -0.016 A 
ATOM      7  C6  BZF d   1      -6.000   5.051   2.267  0.00  0.00     0.022 A 
ATOM      8  C7  BZF d   1      -5.970   4.836   3.605  0.00  0.00     0.029 A 
ATOM      9  C7A BZF d   1      -4.843   5.238   4.278  0.00  0.00     0.058 A 
ENDROOT
TORSDOF 0
ENDMDL
