MODEL 1
REMARK minimizedAffinity 9.90771961
REMARK minimizedRMSD -1
REMARK  0 active torsions:
REMARK  status: ('A' for Active; 'I' for Inactive)
ROOT
ATOM      1  O1  BZF d   1      -2.259   5.833   3.866  0.00  0.00    -0.204 OA
ATOM      2  C2  BZF d   1      -1.525   5.966   2.703  0.00  0.00     0.174 A 
ATOM      3  C3  BZF d   1      -2.335   5.966   1.624  0.00  0.00    -0.012 A 
ATOM      4  C3A BZF d   1      -3.664   5.916   2.151  0.00  0.00    -0.107 A 
ATOM      5  C4  BZF d   1      -4.903   5.907   1.576  0.00  0.00     0.055 A 
ATOM      6  C5  BZF d   1      -5.998   5.779   2.370  0.00  0.00    -0.016 A 
ATOM      7  C6  BZF d   1      -5.892   5.652   3.739  0.00  0.00     0.022 A 
ATOM      8  C7  BZF d   1      -4.686   5.661   4.356  0.00  0.00     0.029 A 
ATOM      9  C7A BZF d   1      -3.578   5.824   3.560  0.00  0.00     0.058 A 
ENDROOT
TORSDOF 0
ENDMDL
