MODEL 1
REMARK minimizedAffinity 0.203499869
REMARK minimizedRMSD -1
REMARK  0 active torsions:
REMARK  status: ('A' for Active; 'I' for Inactive)
ROOT
ATOM      1  O1  BZF d   1      -2.117   5.973   4.800  0.00  0.00    -0.204 OA
ATOM      2  C2  BZF d   1      -2.856   5.962   5.968  0.00  0.00     0.174 A 
ATOM      3  C3  BZF d   1      -4.177   6.000   5.698  0.00  0.00    -0.012 A 
ATOM      4  C3A BZF d   1      -4.272   5.943   4.272  0.00  0.00    -0.107 A 
ATOM      5  C4  BZF d   1      -5.323   5.931   3.401  0.00  0.00     0.055 A 
ATOM      6  C5  BZF d   1      -5.074   5.946   2.065  0.00  0.00    -0.016 A 
ATOM      7  C6  BZF d   1      -3.789   5.978   1.566  0.00  0.00     0.022 A 
ATOM      8  C7  BZF d   1      -2.713   5.986   2.391  0.00  0.00     0.029 A 
ATOM      9  C7A BZF d   1      -2.961   5.938   3.741  0.00  0.00     0.058 A 
ENDROOT
TORSDOF 0
ENDMDL
