MODEL 1
REMARK minimizedAffinity 3.11017442
REMARK minimizedRMSD -1
REMARK  0 active torsions:
REMARK  status: ('A' for Active; 'I' for Inactive)
ROOT
ATOM      1  O1  BZF d   1      -1.890   5.950   4.871  0.00  0.00    -0.204 OA
ATOM      2  C2  BZF d   1      -2.717   5.942   5.978  0.00  0.00     0.174 A 
ATOM      3  C3  BZF d   1      -4.012   6.000   5.608  0.00  0.00    -0.012 A 
ATOM      4  C3A BZF d   1      -3.998   5.952   4.178  0.00  0.00    -0.107 A 
ATOM      5  C4  BZF d   1      -4.980   5.959   3.229  0.00  0.00     0.055 A 
ATOM      6  C5  BZF d   1      -4.629   5.978   1.916  0.00  0.00    -0.016 A 
ATOM      7  C6  BZF d   1      -3.308   5.995   1.518  0.00  0.00     0.022 A 
ATOM      8  C7  BZF d   1      -2.300   5.983   2.423  0.00  0.00     0.029 A 
ATOM      9  C7A BZF d   1      -2.651   5.932   3.750  0.00  0.00     0.058 A 
ENDROOT
TORSDOF 0
ENDMDL
