MODEL 1
REMARK minimizedAffinity 1.56827629
REMARK minimizedRMSD -1
REMARK  0 active torsions:
REMARK  status: ('A' for Active; 'I' for Inactive)
ROOT
ATOM      1  O1  BZF d   1      -5.955   5.929   4.664  0.00  0.00    -0.204 OA
ATOM      2  C2  BZF d   1      -5.492   5.902   5.965  0.00  0.00     0.174 A 
ATOM      3  C3  BZF d   1      -4.145   5.852   5.993  0.00  0.00    -0.012 A 
ATOM      4  C3A BZF d   1      -3.737   5.941   4.625  0.00  0.00    -0.107 A 
ATOM      5  C4  BZF d   1      -2.518   5.959   4.007  0.00  0.00     0.055 A 
ATOM      6  C5  BZF d   1      -2.466   5.980   2.650  0.00  0.00    -0.016 A 
ATOM      7  C6  BZF d   1      -3.610   5.978   1.879  0.00  0.00     0.022 A 
ATOM      8  C7  BZF d   1      -4.841   5.965   2.446  0.00  0.00     0.029 A 
ATOM      9  C7A BZF d   1      -4.898   5.978   3.818  0.00  0.00     0.058 A 
ENDROOT
TORSDOF 0
ENDMDL
