MODEL 1
REMARK minimizedAffinity 0.900029778
REMARK minimizedRMSD -1
REMARK  0 active torsions:
REMARK  status: ('A' for Active; 'I' for Inactive)
ROOT
ATOM      1  O1  BZF d   1      -1.503   5.944   2.364  0.00  0.00    -0.204 OA
ATOM      2  C2  BZF d   1      -2.125   5.943   1.131  0.00  0.00     0.174 A 
ATOM      3  C3  BZF d   1      -3.466   5.908   1.272  0.00  0.00    -0.012 A 
ATOM      4  C3A BZF d   1      -3.698   5.978   2.682  0.00  0.00    -0.107 A 
ATOM      5  C4  BZF d   1      -4.829   5.999   3.447  0.00  0.00     0.055 A 
ATOM      6  C5  BZF d   1      -4.711   5.999   4.801  0.00  0.00    -0.016 A 
ATOM      7  C6  BZF d   1      -3.479   5.972   5.422  0.00  0.00     0.022 A 
ATOM      8  C7  BZF d   1      -2.329   5.956   4.705  0.00  0.00     0.029 A 
ATOM      9  C7A BZF d   1      -2.445   5.990   3.336  0.00  0.00     0.058 A 
ENDROOT
TORSDOF 0
ENDMDL
