MODEL 1
REMARK minimizedAffinity 0.06791915
REMARK minimizedRMSD -1
REMARK  0 active torsions:
REMARK  status: ('A' for Active; 'I' for Inactive)
ROOT
ATOM      1  O1  BZF d   1      -1.476   5.961   4.057  0.00  0.00    -0.204 OA
ATOM      2  C2  BZF d   1      -1.925   5.961   5.364  0.00  0.00     0.174 A 
ATOM      3  C3  BZF d   1      -3.272   5.997   5.407  0.00  0.00    -0.012 A 
ATOM      4  C3A BZF d   1      -3.695   5.928   4.042  0.00  0.00    -0.107 A 
ATOM      5  C4  BZF d   1      -4.919   5.909   3.438  0.00  0.00     0.055 A 
ATOM      6  C5  BZF d   1      -4.987   5.912   2.081  0.00  0.00    -0.016 A 
ATOM      7  C6  BZF d   1      -3.851   5.939   1.298  0.00  0.00     0.022 A 
ATOM      8  C7  BZF d   1      -2.614   5.954   1.851  0.00  0.00     0.029 A 
ATOM      9  C7A BZF d   1      -2.542   5.917   3.222  0.00  0.00     0.058 A 
ENDROOT
TORSDOF 0
ENDMDL
