MODEL 1
REMARK minimizedAffinity 2.93433619
REMARK minimizedRMSD -1
REMARK  0 active torsions:
REMARK  status: ('A' for Active; 'I' for Inactive)
ROOT
ATOM      1  O1  BZF d   1      -2.301   5.996   4.895  0.00  0.00    -0.204 OA
ATOM      2  C2  BZF d   1      -3.131   5.978   6.000  0.00  0.00     0.174 A 
ATOM      3  C3  BZF d   1      -4.426   5.999   5.626  0.00  0.00    -0.012 A 
ATOM      4  C3A BZF d   1      -4.406   5.940   4.196  0.00  0.00    -0.107 A 
ATOM      5  C4  BZF d   1      -5.384   5.914   3.244  0.00  0.00     0.055 A 
ATOM      6  C5  BZF d   1      -5.030   5.929   1.932  0.00  0.00    -0.016 A 
ATOM      7  C6  BZF d   1      -3.708   5.976   1.538  0.00  0.00     0.022 A 
ATOM      8  C7  BZF d   1      -2.703   5.998   2.446  0.00  0.00     0.029 A 
ATOM      9  C7A BZF d   1      -3.057   5.949   3.772  0.00  0.00     0.058 A 
ENDROOT
TORSDOF 0
ENDMDL
