MODEL 1
REMARK minimizedAffinity 0.864066064
REMARK minimizedRMSD -1
REMARK  0 active torsions:
REMARK  status: ('A' for Active; 'I' for Inactive)
ROOT
ATOM      1  O1  BZF d   1      -4.347   5.974   5.696  0.00  0.00    -0.204 OA
ATOM      2  C2  BZF d   1      -3.000   5.999   6.000  0.00  0.00     0.174 A 
ATOM      3  C3  BZF d   1      -2.255   5.948   4.877  0.00  0.00    -0.012 A 
ATOM      4  C3A BZF d   1      -3.196   5.980   3.799  0.00  0.00    -0.107 A 
ATOM      5  C4  BZF d   1      -3.067   5.971   2.440  0.00  0.00     0.055 A 
ATOM      6  C5  BZF d   1      -4.187   5.936   1.671  0.00  0.00    -0.016 A 
ATOM      7  C6  BZF d   1      -5.449   5.905   2.227  0.00  0.00     0.022 A 
ATOM      8  C7  BZF d   1      -5.627   5.918   3.570  0.00  0.00     0.029 A 
ATOM      9  C7A BZF d   1      -4.498   5.986   4.350  0.00  0.00     0.058 A 
ENDROOT
TORSDOF 0
ENDMDL
