MODEL 1
REMARK minimizedAffinity 1.61857092
REMARK minimizedRMSD -1
REMARK  0 active torsions:
REMARK  status: ('A' for Active; 'I' for Inactive)
ROOT
ATOM      1  O1  BZF d   1      -3.916   5.837   2.026  0.00  0.00    -0.204 OA
ATOM      2  C2  BZF d   1      -5.296   5.767   2.003  0.00  0.00     0.174 A 
ATOM      3  C3  BZF d   1      -5.794   5.724   3.256  0.00  0.00    -0.012 A 
ATOM      4  C3A BZF d   1      -4.659   5.864   4.117  0.00  0.00    -0.107 A 
ATOM      5  C4  BZF d   1      -4.510   5.912   5.473  0.00  0.00     0.055 A 
ATOM      6  C5  BZF d   1      -3.259   5.981   5.998  0.00  0.00    -0.016 A 
ATOM      7  C6  BZF d   1      -2.136   5.999   5.198  0.00  0.00     0.022 A 
ATOM      8  C7  BZF d   1      -2.233   5.959   3.846  0.00  0.00     0.029 A 
ATOM      9  C7A BZF d   1      -3.498   5.922   3.312  0.00  0.00     0.058 A 
ENDROOT
TORSDOF 0
ENDMDL
