MODEL 1
REMARK minimizedAffinity 8.43826866
REMARK minimizedRMSD -1
REMARK  0 active torsions:
REMARK  status: ('A' for Active; 'I' for Inactive)
ROOT
ATOM      1  O1  BZF d   1      -5.856   5.935   3.103  0.00  0.00    -0.204 OA
ATOM      2  C2  BZF d   1      -5.582   5.935   1.749  0.00  0.00     0.174 A 
ATOM      3  C3  BZF d   1      -4.253   6.000   1.529  0.00  0.00    -0.012 A 
ATOM      4  C3A BZF d   1      -3.654   5.948   2.827  0.00  0.00    -0.107 A 
ATOM      5  C4  BZF d   1      -2.361   5.959   3.265  0.00  0.00     0.055 A 
ATOM      6  C5  BZF d   1      -2.116   5.971   4.602  0.00  0.00    -0.016 A 
ATOM      7  C6  BZF d   1      -3.140   5.979   5.527  0.00  0.00     0.022 A 
ATOM      8  C7  BZF d   1      -4.439   5.964   5.141  0.00  0.00     0.029 A 
ATOM      9  C7A BZF d   1      -4.689   5.918   3.791  0.00  0.00     0.058 A 
ENDROOT
TORSDOF 0
ENDMDL
