MODEL 1
REMARK minimizedAffinity 6.51224279
REMARK minimizedRMSD -1
REMARK  0 active torsions:
REMARK  status: ('A' for Active; 'I' for Inactive)
ROOT
ATOM      1  O1  BZF d   1      -5.880   5.905   3.251  0.00  0.00    -0.204 OA
ATOM      2  C2  BZF d   1      -5.604   5.910   1.897  0.00  0.00     0.174 A 
ATOM      3  C3  BZF d   1      -4.275   5.992   1.680  0.00  0.00    -0.012 A 
ATOM      4  C3A BZF d   1      -3.679   5.949   2.980  0.00  0.00    -0.107 A 
ATOM      5  C4  BZF d   1      -2.387   5.978   3.421  0.00  0.00     0.055 A 
ATOM      6  C5  BZF d   1      -2.146   5.993   4.759  0.00  0.00    -0.016 A 
ATOM      7  C6  BZF d   1      -3.171   5.987   5.681  0.00  0.00     0.022 A 
ATOM      8  C7  BZF d   1      -4.469   5.954   5.292  0.00  0.00     0.029 A 
ATOM      9  C7A BZF d   1      -4.715   5.905   3.941  0.00  0.00     0.058 A 
ENDROOT
TORSDOF 0
ENDMDL
