MODEL 1
REMARK minimizedAffinity 3.48922348
REMARK minimizedRMSD -1
REMARK  0 active torsions:
REMARK  status: ('A' for Active; 'I' for Inactive)
ROOT
ATOM      1  O1  BZF d   1      -2.231   2.951   3.373  0.00  0.00    -0.204 OA
ATOM      2  C2  BZF d   1      -2.660   2.252   2.261  0.00  0.00     0.174 A 
ATOM      3  C3  BZF d   1      -3.750   2.834   1.721  0.00  0.00    -0.012 A 
ATOM      4  C3A BZF d   1      -3.964   4.020   2.492  0.00  0.00    -0.107 A 
ATOM      5  C4  BZF d   1      -4.887   5.025   2.432  0.00  0.00     0.055 A 
ATOM      6  C5  BZF d   1      -4.865   6.000   3.379  0.00  0.00    -0.016 A 
ATOM      7  C6  BZF d   1      -3.939   5.998   4.401  0.00  0.00     0.022 A 
ATOM      8  C7  BZF d   1      -3.001   5.024   4.500  0.00  0.00     0.029 A 
ATOM      9  C7A BZF d   1      -3.000   4.056   3.526  0.00  0.00     0.058 A 
ENDROOT
TORSDOF 0
ENDMDL
