MODEL 1
REMARK minimizedAffinity -2.86702228
REMARK minimizedRMSD -1
REMARK  0 active torsions:
REMARK  status: ('A' for Active; 'I' for Inactive)
ROOT
ATOM      1  C   UNL d   1      -1.376  -0.172   1.474  0.00  0.00     0.172 C 
ATOM      2  N   UNL d   1      -0.588  -1.186   0.815  0.00  0.00    -0.070 N 
ATOM      3  C1  UNL d   1       0.368  -0.960  -0.139  0.00  0.00    -0.004 A 
ATOM      4  C2  UNL d   1       0.888  -2.180  -0.513  0.00  0.00    -0.047 A 
ATOM      5  C3  UNL d   1       0.220  -3.174   0.241  0.00  0.00    -0.047 A 
ATOM      6  C4  UNL d   1      -0.688  -2.531   1.055  0.00  0.00    -0.004 A 
ENDROOT
TORSDOF 0
ENDMDL
