MODEL 1
REMARK minimizedAffinity -3.34734535
REMARK minimizedRMSD -1
REMARK  0 active torsions:
REMARK  status: ('A' for Active; 'I' for Inactive)
ROOT
ATOM      1  C   UNL d   1       0.256  -3.085   0.711  0.00  0.00     0.172 C 
ATOM      2  N   UNL d   1       0.137  -1.709   0.290  0.00  0.00    -0.070 N 
ATOM      3  C1  UNL d   1      -0.179  -0.651   1.100  0.00  0.00    -0.004 A 
ATOM      4  C2  UNL d   1      -0.192   0.486   0.322  0.00  0.00    -0.047 A 
ATOM      5  C3  UNL d   1       0.127   0.098  -1.001  0.00  0.00    -0.047 A 
ATOM      6  C4  UNL d   1       0.325  -1.266  -0.992  0.00  0.00    -0.004 A 
ENDROOT
TORSDOF 0
ENDMDL
