MODEL 1
REMARK minimizedAffinity -1.77397025
REMARK minimizedRMSD -1
REMARK  0 active torsions:
REMARK  status: ('A' for Active; 'I' for Inactive)
ROOT
ATOM      1  C   UNL d   1      -1.050  -2.713   0.448  0.00  0.00     0.172 C 
ATOM      2  N   UNL d   1      -0.462  -1.402   0.301  0.00  0.00    -0.070 N 
ATOM      3  C1  UNL d   1      -0.918  -0.252   0.890  0.00  0.00    -0.004 A 
ATOM      4  C2  UNL d   1      -0.087   0.777   0.503  0.00  0.00    -0.047 A 
ATOM      5  C3  UNL d   1       0.901   0.228  -0.349  0.00  0.00    -0.047 A 
ATOM      6  C4  UNL d   1       0.645  -1.123  -0.456  0.00  0.00    -0.004 A 
ENDROOT
TORSDOF 0
ENDMDL
