MODEL 1
REMARK minimizedAffinity -3.76231575
REMARK minimizedRMSD -1
REMARK  0 active torsions:
REMARK  status: ('A' for Active; 'I' for Inactive)
ROOT
ATOM      1  C   UNL d   1      -0.921  -0.042   1.394  0.00  0.00     0.172 C 
ATOM      2  N   UNL d   1      -0.408  -1.168   0.649  0.00  0.00    -0.070 N 
ATOM      3  C1  UNL d   1      -0.706  -2.483   0.884  0.00  0.00    -0.004 A 
ATOM      4  C2  UNL d   1      -0.020  -3.243  -0.039  0.00  0.00    -0.047 A 
ATOM      5  C3  UNL d   1       0.716  -2.353  -0.856  0.00  0.00    -0.047 A 
ATOM      6  C4  UNL d   1       0.458  -1.075  -0.408  0.00  0.00    -0.004 A 
ENDROOT
TORSDOF 0
ENDMDL
