MODEL 1
REMARK minimizedAffinity -4.04686308
REMARK minimizedRMSD -1
REMARK  0 active torsions:
REMARK  status: ('A' for Active; 'I' for Inactive)
ROOT
ATOM      1  C   UNL d   1       0.241   1.045  -0.383  0.00  0.00     0.172 C 
ATOM      2  N   UNL d   1      -0.009  -0.300   0.080  0.00  0.00    -0.070 N 
ATOM      3  C1  UNL d   1      -1.035  -0.683   0.903  0.00  0.00    -0.004 A 
ATOM      4  C2  UNL d   1      -0.926  -2.041   1.108  0.00  0.00    -0.047 A 
ATOM      5  C3  UNL d   1       0.205  -2.490   0.385  0.00  0.00    -0.047 A 
ATOM      6  C4  UNL d   1       0.753  -1.391  -0.242  0.00  0.00    -0.004 A 
ENDROOT
TORSDOF 0
ENDMDL
