MODEL 1
REMARK minimizedAffinity -3.64397049
REMARK minimizedRMSD -1
REMARK  0 active torsions:
REMARK  status: ('A' for Active; 'I' for Inactive)
ROOT
ATOM      1  C   UNL d   1      -0.258   1.053  -0.136  0.00  0.00     0.172 C 
ATOM      2  N   UNL d   1      -0.552  -0.311   0.236  0.00  0.00    -0.070 N 
ATOM      3  C1  UNL d   1       0.013  -1.428  -0.317  0.00  0.00    -0.004 A 
ATOM      4  C2  UNL d   1      -0.530  -2.530   0.309  0.00  0.00    -0.047 A 
ATOM      5  C3  UNL d   1      -1.454  -2.057   1.271  0.00  0.00    -0.047 A 
ATOM      6  C4  UNL d   1      -1.448  -0.680   1.205  0.00  0.00    -0.004 A 
ENDROOT
TORSDOF 0
ENDMDL
