MODEL 1
REMARK minimizedAffinity -3.43176031
REMARK minimizedRMSD -1
REMARK  0 active torsions:
REMARK  status: ('A' for Active; 'I' for Inactive)
ROOT
ATOM      1  C   UNL d   1      -0.240  -2.679   0.667  0.00  0.00     0.172 C 
ATOM      2  N   UNL d   1      -0.206  -1.280   0.311  0.00  0.00    -0.070 N 
ATOM      3  C1  UNL d   1       0.092  -0.779  -0.929  0.00  0.00    -0.004 A 
ATOM      4  C2  UNL d   1       0.017   0.595  -0.858  0.00  0.00    -0.047 A 
ATOM      5  C3  UNL d   1      -0.336   0.932   0.470  0.00  0.00    -0.047 A 
ATOM      6  C4  UNL d   1      -0.468  -0.248   1.172  0.00  0.00    -0.004 A 
ENDROOT
TORSDOF 0
ENDMDL
