MODEL 1
REMARK minimizedAffinity -3.36976719
REMARK minimizedRMSD -1
REMARK  0 active torsions:
REMARK  status: ('A' for Active; 'I' for Inactive)
ROOT
ATOM      1  C   UNL d   1      -0.056  -2.900   0.658  0.00  0.00     0.172 C 
ATOM      2  N   UNL d   1      -0.245  -1.491   0.407  0.00  0.00    -0.070 N 
ATOM      3  C1  UNL d   1      -1.051  -0.652   1.129  0.00  0.00    -0.004 A 
ATOM      4  C2  UNL d   1      -0.956   0.606   0.575  0.00  0.00    -0.047 A 
ATOM      5  C3  UNL d   1      -0.062   0.520  -0.519  0.00  0.00    -0.047 A 
ATOM      6  C4  UNL d   1       0.363  -0.789  -0.600  0.00  0.00    -0.004 A 
ENDROOT
TORSDOF 0
ENDMDL
