MODEL 1
REMARK minimizedAffinity -4.27918673
REMARK minimizedRMSD -1
REMARK  0 active torsions:
REMARK  status: ('A' for Active; 'I' for Inactive)
ROOT
ATOM      1  C   UNL d   1      -0.184   0.441  -0.296  0.00  0.00     0.172 C 
ATOM      2  N   UNL d   1      -0.059  -0.955  -0.644  0.00  0.00    -0.070 N 
ATOM      3  C1  UNL d   1      -0.204  -2.009   0.218  0.00  0.00    -0.004 A 
ATOM      4  C2  UNL d   1      -0.009  -3.170  -0.499  0.00  0.00    -0.047 A 
ATOM      5  C3  UNL d   1       0.262  -2.801  -1.838  0.00  0.00    -0.047 A 
ATOM      6  C4  UNL d   1       0.225  -1.424  -1.900  0.00  0.00    -0.004 A 
ENDROOT
TORSDOF 0
ENDMDL
