MODEL 1
REMARK minimizedAffinity -4.00937653
REMARK minimizedRMSD -1
REMARK  0 active torsions:
REMARK  status: ('A' for Active; 'I' for Inactive)
ROOT
ATOM      1  C   UNL d   1       0.032   0.637  -0.675  0.00  0.00     0.172 C 
ATOM      2  N   UNL d   1       0.138  -0.774  -0.386  0.00  0.00    -0.070 N 
ATOM      3  C1  UNL d   1       0.699  -1.717  -1.205  0.00  0.00    -0.004 A 
ATOM      4  C2  UNL d   1       0.605  -2.937  -0.570  0.00  0.00    -0.047 A 
ATOM      5  C3  UNL d   1      -0.034  -2.719   0.674  0.00  0.00    -0.047 A 
ATOM      6  C4  UNL d   1      -0.313  -1.372   0.762  0.00  0.00    -0.004 A 
ENDROOT
TORSDOF 0
ENDMDL
