MODEL 1
REMARK minimizedAffinity -3.50981116
REMARK minimizedRMSD -1
REMARK  0 active torsions:
REMARK  status: ('A' for Active; 'I' for Inactive)
ROOT
ATOM      1  C   UNL d   1       0.198   0.997  -0.674  0.00  0.00     0.172 C 
ATOM      2  N   UNL d   1       0.173  -0.317  -0.076  0.00  0.00    -0.070 N 
ATOM      3  C1  UNL d   1      -0.832  -0.819   0.707  0.00  0.00    -0.004 A 
ATOM      4  C2  UNL d   1      -0.479  -2.098   1.079  0.00  0.00    -0.047 A 
ATOM      5  C3  UNL d   1       0.783  -2.374   0.500  0.00  0.00    -0.047 A 
ATOM      6  C4  UNL d   1       1.163  -1.255  -0.209  0.00  0.00    -0.004 A 
ENDROOT
TORSDOF 0
ENDMDL
