MODEL 1
REMARK minimizedAffinity -3.58547616
REMARK minimizedRMSD -1
REMARK  0 active torsions:
REMARK  status: ('A' for Active; 'I' for Inactive)
ROOT
ATOM      1  C   UNL d   1       0.645   0.825  -0.571  0.00  0.00     0.172 C 
ATOM      2  N   UNL d   1       0.148  -0.444  -0.094  0.00  0.00    -0.070 N 
ATOM      3  C1  UNL d   1       0.430  -1.668  -0.639  0.00  0.00    -0.004 A 
ATOM      4  C2  UNL d   1      -0.233  -2.622   0.101  0.00  0.00    -0.047 A 
ATOM      5  C3  UNL d   1      -0.939  -1.949   1.126  0.00  0.00    -0.047 A 
ATOM      6  C4  UNL d   1      -0.686  -0.601   0.982  0.00  0.00    -0.004 A 
ENDROOT
TORSDOF 0
ENDMDL
