MODEL 1
REMARK minimizedAffinity -4.1064539
REMARK minimizedRMSD -1
REMARK  0 active torsions:
REMARK  status: ('A' for Active; 'I' for Inactive)
ROOT
ATOM      1  C   UNL d   1       0.501   1.113  -0.302  0.00  0.00     0.172 C 
ATOM      2  N   UNL d   1       0.171  -0.232   0.105  0.00  0.00    -0.070 N 
ATOM      3  C1  UNL d   1       0.881  -1.359  -0.212  0.00  0.00    -0.004 A 
ATOM      4  C2  UNL d   1       0.243  -2.436   0.364  0.00  0.00    -0.047 A 
ATOM      5  C3  UNL d   1      -0.891  -1.940   1.050  0.00  0.00    -0.047 A 
ATOM      6  C4  UNL d   1      -0.911  -0.572   0.874  0.00  0.00    -0.004 A 
ENDROOT
TORSDOF 0
ENDMDL
