MODEL 1
REMARK minimizedAffinity -3.51519346
REMARK minimizedRMSD -1
REMARK  0 active torsions:
REMARK  status: ('A' for Active; 'I' for Inactive)
ROOT
ATOM      1  C   UNL d   1       0.562   1.053   0.244  0.00  0.00     0.172 C 
ATOM      2  N   UNL d   1       0.117  -0.301   0.480  0.00  0.00    -0.070 N 
ATOM      3  C1  UNL d   1       0.708  -1.433  -0.014  0.00  0.00    -0.004 A 
ATOM      4  C2  UNL d   1      -0.013  -2.517   0.439  0.00  0.00    -0.047 A 
ATOM      5  C3  UNL d   1      -1.074  -2.018   1.231  0.00  0.00    -0.047 A 
ATOM      6  C4  UNL d   1      -0.970  -0.644   1.240  0.00  0.00    -0.004 A 
ENDROOT
TORSDOF 0
ENDMDL
