MODEL 1
REMARK minimizedAffinity 0.874889672
REMARK minimizedRMSD -1
REMARK  3 active torsions:
REMARK  status: ('A' for Active; 'I' for Inactive)
REMARK    1  A    between atoms: C3'_2  and  C2'_3 
REMARK    2  A    between atoms: C2'_3  and  C1'_4 
REMARK    3  A    between atoms: C1'_4  and  C1_5 
ROOT
ATOM      1  C1  N4B d   1      -0.192  -0.658   1.562  0.00  0.00    -0.075 A 
ATOM      2  C2  N4B d   1      -0.110  -1.120   2.894  0.00  0.00     0.002 A 
ATOM      3  C3  N4B d   1      -1.096  -1.932   3.401  0.00  0.00     0.002 A 
ATOM      4  C4  N4B d   1      -2.177  -2.278   2.604  0.00  0.00    -0.004 A 
ATOM      5  C5  N4B d   1      -2.235  -1.848   1.310  0.00  0.00     0.002 A 
ATOM      6  C6  N4B d   1      -1.250  -1.035   0.787  0.00  0.00     0.002 A 
ENDROOT
BRANCH   1   7
ATOM      7  C1' N4B d   1       0.817   0.300   0.991  0.00  0.00     0.057 C 
BRANCH   7   8
ATOM      8  C2' N4B d   1       2.175  -0.391   0.910  0.00  0.00     0.009 C 
BRANCH   8   9
ATOM      9  C3' N4B d   1       3.316   0.607   0.808  0.00  0.00     0.004 C 
ATOM     10  C4' N4B d   1       4.639   0.018   1.198  0.00  0.00     0.003 C 
ENDBRANCH   8   9
ENDBRANCH   7   8
ENDBRANCH   1   7
TORSDOF 3
ENDMDL
