MODEL 1
REMARK minimizedAffinity -2.80885386
REMARK minimizedRMSD -1
REMARK  3 active torsions:
REMARK  status: ('A' for Active; 'I' for Inactive)
REMARK    1  A    between atoms: C3'_2  and  C2'_3 
REMARK    2  A    between atoms: C2'_3  and  C1'_4 
REMARK    3  A    between atoms: C1'_4  and  C1_5 
ROOT
ATOM      1  C1  N4B d   1      -5.303  -4.462  -5.045  0.00  0.00    -0.075 A 
ATOM      2  C2  N4B d   1      -5.331  -3.418  -5.996  0.00  0.00     0.002 A 
ATOM      3  C3  N4B d   1      -5.659  -2.143  -5.607  0.00  0.00     0.002 A 
ATOM      4  C4  N4B d   1      -5.979  -1.891  -4.281  0.00  0.00    -0.004 A 
ATOM      5  C5  N4B d   1      -5.924  -2.900  -3.364  0.00  0.00     0.002 A 
ATOM      6  C6  N4B d   1      -5.593  -4.186  -3.740  0.00  0.00     0.002 A 
ENDROOT
BRANCH   1   7
ATOM      7  C1' N4B d   1      -5.035  -5.888  -5.440  0.00  0.00     0.057 C 
BRANCH   7   8
ATOM      8  C2' N4B d   1      -3.618  -5.996  -5.996  0.00  0.00     0.009 C 
BRANCH   8   9
ATOM      9  C3' N4B d   1      -2.568  -5.819  -4.913  0.00  0.00     0.004 C 
ATOM     10  C4' N4B d   1      -1.772  -4.558  -5.077  0.00  0.00     0.003 C 
ENDBRANCH   8   9
ENDBRANCH   7   8
ENDBRANCH   1   7
TORSDOF 3
ENDMDL
