MODEL 1
REMARK minimizedAffinity -2.47945476
REMARK minimizedRMSD -1
REMARK  3 active torsions:
REMARK  status: ('A' for Active; 'I' for Inactive)
REMARK    1  A    between atoms: C3'_2  and  C2'_3 
REMARK    2  A    between atoms: C2'_3  and  C1'_4 
REMARK    3  A    between atoms: C1'_4  and  C1_5 
ROOT
ATOM      1  C1  N4B d   1      -0.360   2.829  -3.224  0.00  0.00    -0.075 A 
ATOM      2  C2  N4B d   1      -1.387   2.116  -2.568  0.00  0.00     0.002 A 
ATOM      3  C3  N4B d   1      -2.352   2.794  -1.865  0.00  0.00     0.002 A 
ATOM      4  C4  N4B d   1      -2.300   4.178  -1.788  0.00  0.00    -0.004 A 
ATOM      5  C5  N4B d   1      -1.319   4.861  -2.446  0.00  0.00     0.002 A 
ATOM      6  C6  N4B d   1      -0.345   4.192  -3.160  0.00  0.00     0.002 A 
ENDROOT
BRANCH   1   7
ATOM      7  C1' N4B d   1       0.766   2.127  -3.934  0.00  0.00     0.057 C 
BRANCH   7   8
ATOM      8  C2' N4B d   1       1.538   1.276  -2.930  0.00  0.00     0.009 C 
BRANCH   8   9
ATOM      9  C3' N4B d   1       2.997   1.119  -3.321  0.00  0.00     0.004 C 
ATOM     10  C4' N4B d   1       3.901   2.060  -2.582  0.00  0.00     0.003 C 
ENDBRANCH   8   9
ENDBRANCH   7   8
ENDBRANCH   1   7
TORSDOF 3
ENDMDL
