MODEL 1
REMARK minimizedAffinity -3.9284997
REMARK minimizedRMSD -1
REMARK  3 active torsions:
REMARK  status: ('A' for Active; 'I' for Inactive)
REMARK    1  A    between atoms: C3'_2  and  C2'_3 
REMARK    2  A    between atoms: C2'_3  and  C1'_4 
REMARK    3  A    between atoms: C1'_4  and  C1_5 
ROOT
ATOM      1  C1  N4B d   1      -4.234  -4.335  -4.298  0.00  0.00    -0.075 A 
ATOM      2  C2  N4B d   1      -5.420  -4.036  -5.005  0.00  0.00     0.002 A 
ATOM      3  C3  N4B d   1      -6.000  -2.797  -4.879  0.00  0.00     0.002 A 
ATOM      4  C4  N4B d   1      -5.425  -1.853  -4.042  0.00  0.00    -0.004 A 
ATOM      5  C5  N4B d   1      -4.266  -2.141  -3.383  0.00  0.00     0.002 A 
ATOM      6  C6  N4B d   1      -3.670  -3.380  -3.503  0.00  0.00     0.002 A 
ENDROOT
BRANCH   1   7
ATOM      7  C1' N4B d   1      -3.611  -5.704  -4.336  0.00  0.00     0.057 C 
BRANCH   7   8
ATOM      8  C2' N4B d   1      -3.135  -5.997  -5.756  0.00  0.00     0.009 C 
BRANCH   8   9
ATOM      9  C3' N4B d   1      -1.713  -5.515  -5.990  0.00  0.00     0.004 C 
ATOM     10  C4' N4B d   1      -0.841  -5.668  -4.779  0.00  0.00     0.003 C 
ENDBRANCH   8   9
ENDBRANCH   7   8
ENDBRANCH   1   7
TORSDOF 3
ENDMDL
