MODEL 1
REMARK minimizedAffinity -3.39607692
REMARK minimizedRMSD -1
REMARK  3 active torsions:
REMARK  status: ('A' for Active; 'I' for Inactive)
REMARK    1  A    between atoms: C3'_2  and  C2'_3 
REMARK    2  A    between atoms: C2'_3  and  C1'_4 
REMARK    3  A    between atoms: C1'_4  and  C1_5 
ROOT
ATOM      1  C1  N4B d   1      -4.708  -4.707  -4.732  0.00  0.00    -0.075 A 
ATOM      2  C2  N4B d   1      -4.961  -4.028  -3.521  0.00  0.00     0.002 A 
ATOM      3  C3  N4B d   1      -5.601  -2.813  -3.536  0.00  0.00     0.002 A 
ATOM      4  C4  N4B d   1      -5.979  -2.251  -4.746  0.00  0.00    -0.004 A 
ATOM      5  C5  N4B d   1      -5.754  -2.926  -5.910  0.00  0.00     0.002 A 
ATOM      6  C6  N4B d   1      -5.115  -4.150  -5.910  0.00  0.00     0.002 A 
ENDROOT
BRANCH   1   7
ATOM      7  C1' N4B d   1      -3.936  -5.997  -4.773  0.00  0.00     0.057 C 
BRANCH   7   8
ATOM      8  C2' N4B d   1      -2.899  -5.925  -5.890  0.00  0.00     0.009 C 
BRANCH   8   9
ATOM      9  C3' N4B d   1      -1.646  -5.186  -5.455  0.00  0.00     0.004 C 
ATOM     10  C4' N4B d   1      -1.607  -3.769  -5.946  0.00  0.00     0.003 C 
ENDBRANCH   8   9
ENDBRANCH   7   8
ENDBRANCH   1   7
TORSDOF 3
ENDMDL
