MODEL 1
REMARK minimizedAffinity -0.00820669904
REMARK minimizedRMSD -1
REMARK  3 active torsions:
REMARK  status: ('A' for Active; 'I' for Inactive)
REMARK    1  A    between atoms: C3'_2  and  C2'_3 
REMARK    2  A    between atoms: C2'_3  and  C1'_4 
REMARK    3  A    between atoms: C1'_4  and  C1_5 
ROOT
ATOM      1  C1  N4B d   1      -3.863  -4.726  -4.128  0.00  0.00    -0.075 A 
ATOM      2  C2  N4B d   1      -3.774  -5.759  -5.088  0.00  0.00     0.002 A 
ATOM      3  C3  N4B d   1      -2.747  -5.762  -6.000  0.00  0.00     0.002 A 
ATOM      4  C4  N4B d   1      -1.813  -4.737  -5.984  0.00  0.00    -0.004 A 
ATOM      5  C5  N4B d   1      -1.891  -3.757  -5.038  0.00  0.00     0.002 A 
ATOM      6  C6  N4B d   1      -2.916  -3.744  -4.112  0.00  0.00     0.002 A 
ENDROOT
BRANCH   1   7
ATOM      7  C1' N4B d   1      -5.015  -4.634  -3.166  0.00  0.00     0.057 C 
BRANCH   7   8
ATOM      8  C2' N4B d   1      -5.947  -3.509  -3.606  0.00  0.00     0.009 C 
BRANCH   8   9
ATOM      9  C3' N4B d   1      -5.932  -3.316  -5.113  0.00  0.00     0.004 C 
ATOM     10  C4' N4B d   1      -5.909  -1.871  -5.514  0.00  0.00     0.003 C 
ENDBRANCH   8   9
ENDBRANCH   7   8
ENDBRANCH   1   7
TORSDOF 3
ENDMDL
