MODEL 1
REMARK minimizedAffinity -2.23405647
REMARK minimizedRMSD -1
REMARK  3 active torsions:
REMARK  status: ('A' for Active; 'I' for Inactive)
REMARK    1  A    between atoms: C3'_2  and  C2'_3 
REMARK    2  A    between atoms: C2'_3  and  C1'_4 
REMARK    3  A    between atoms: C1'_4  and  C1_5 
ROOT
ATOM      1  C1  N4B d   1      -4.920  -4.265  -4.390  0.00  0.00    -0.075 A 
ATOM      2  C2  N4B d   1      -3.571  -3.861  -4.286  0.00  0.00     0.002 A 
ATOM      3  C3  N4B d   1      -2.606  -4.491  -5.033  0.00  0.00     0.002 A 
ATOM      4  C4  N4B d   1      -2.962  -5.535  -5.874  0.00  0.00    -0.004 A 
ATOM      5  C5  N4B d   1      -4.271  -5.902  -5.988  0.00  0.00     0.002 A 
ATOM      6  C6  N4B d   1      -5.252  -5.275  -5.246  0.00  0.00     0.002 A 
ENDROOT
BRANCH   1   7
ATOM      7  C1' N4B d   1      -5.998  -3.664  -3.530  0.00  0.00     0.057 C 
BRANCH   7   8
ATOM      8  C2' N4B d   1      -5.900  -2.143  -3.594  0.00  0.00     0.009 C 
BRANCH   8   9
ATOM      9  C3' N4B d   1      -6.000  -1.627  -5.020  0.00  0.00     0.004 C 
ATOM     10  C4' N4B d   1      -5.554  -0.202  -5.154  0.00  0.00     0.003 C 
ENDBRANCH   8   9
ENDBRANCH   7   8
ENDBRANCH   1   7
TORSDOF 3
ENDMDL
