MODEL 1
REMARK minimizedAffinity -1.74583364
REMARK minimizedRMSD -1
REMARK  3 active torsions:
REMARK  status: ('A' for Active; 'I' for Inactive)
REMARK    1  A    between atoms: C3'_2  and  C2'_3 
REMARK    2  A    between atoms: C2'_3  and  C1'_4 
REMARK    3  A    between atoms: C1'_4  and  C1_5 
ROOT
ATOM      1  C1  N4B d   1      -4.446  -4.536  -4.646  0.00  0.00    -0.075 A 
ATOM      2  C2  N4B d   1      -3.293  -3.960  -4.068  0.00  0.00     0.002 A 
ATOM      3  C3  N4B d   1      -2.045  -4.373  -4.467  0.00  0.00     0.002 A 
ATOM      4  C4  N4B d   1      -1.926  -5.369  -5.425  0.00  0.00    -0.004 A 
ATOM      5  C5  N4B d   1      -3.044  -5.902  -5.997  0.00  0.00     0.002 A 
ATOM      6  C6  N4B d   1      -4.304  -5.494  -5.608  0.00  0.00     0.002 A 
ENDROOT
BRANCH   1   7
ATOM      7  C1' N4B d   1      -5.831  -4.179  -4.180  0.00  0.00     0.057 C 
BRANCH   7   8
ATOM      8  C2' N4B d   1      -5.980  -2.661  -4.174  0.00  0.00     0.009 C 
BRANCH   8   9
ATOM      9  C3' N4B d   1      -5.976  -2.083  -5.578  0.00  0.00     0.004 C 
ATOM     10  C4' N4B d   1      -5.997  -0.584  -5.590  0.00  0.00     0.003 C 
ENDBRANCH   8   9
ENDBRANCH   7   8
ENDBRANCH   1   7
TORSDOF 3
ENDMDL
