MODEL 1
REMARK minimizedAffinity -0.805919826
REMARK minimizedRMSD -1
REMARK  3 active torsions:
REMARK  status: ('A' for Active; 'I' for Inactive)
REMARK    1  A    between atoms: C3'_2  and  C2'_3 
REMARK    2  A    between atoms: C2'_3  and  C1'_4 
REMARK    3  A    between atoms: C1'_4  and  C1_5 
ROOT
ATOM      1  C1  N4B d   1      -4.147  -4.386  -5.669  0.00  0.00    -0.075 A 
ATOM      2  C2  N4B d   1      -3.115  -3.478  -5.988  0.00  0.00     0.002 A 
ATOM      3  C3  N4B d   1      -1.824  -3.740  -5.597  0.00  0.00     0.002 A 
ATOM      4  C4  N4B d   1      -1.547  -4.891  -4.875  0.00  0.00    -0.004 A 
ATOM      5  C5  N4B d   1      -2.546  -5.776  -4.593  0.00  0.00     0.002 A 
ATOM      6  C6  N4B d   1      -3.847  -5.527  -4.982  0.00  0.00     0.002 A 
ENDROOT
BRANCH   1   7
ATOM      7  C1' N4B d   1      -5.587  -4.100  -6.000  0.00  0.00     0.057 C 
BRANCH   7   8
ATOM      8  C2' N4B d   1      -5.913  -2.660  -5.614  0.00  0.00     0.009 C 
BRANCH   8   9
ATOM      9  C3' N4B d   1      -5.497  -2.347  -4.187  0.00  0.00     0.004 C 
ATOM     10  C4' N4B d   1      -5.999  -3.358  -3.200  0.00  0.00     0.003 C 
ENDBRANCH   8   9
ENDBRANCH   7   8
ENDBRANCH   1   7
TORSDOF 3
ENDMDL
