MODEL 1
REMARK minimizedAffinity -0.667272329
REMARK minimizedRMSD -1
REMARK  3 active torsions:
REMARK  status: ('A' for Active; 'I' for Inactive)
REMARK    1  A    between atoms: C3'_2  and  C2'_3 
REMARK    2  A    between atoms: C2'_3  and  C1'_4 
REMARK    3  A    between atoms: C1'_4  and  C1_5 
ROOT
ATOM      1  C1  N4B d   1      -4.199  -3.669  -5.996  0.00  0.00    -0.075 A 
ATOM      2  C2  N4B d   1      -2.811  -3.410  -6.000  0.00  0.00     0.002 A 
ATOM      3  C3  N4B d   1      -1.917  -4.453  -5.996  0.00  0.00     0.002 A 
ATOM      4  C4  N4B d   1      -2.386  -5.757  -5.969  0.00  0.00    -0.004 A 
ATOM      5  C5  N4B d   1      -3.729  -6.000  -5.992  0.00  0.00     0.002 A 
ATOM      6  C6  N4B d   1      -4.638  -4.961  -6.000  0.00  0.00     0.002 A 
ENDROOT
BRANCH   1   7
ATOM      7  C1' N4B d   1      -5.214  -2.562  -5.914  0.00  0.00     0.057 C 
BRANCH   7   8
ATOM      8  C2' N4B d   1      -5.998  -2.697  -4.612  0.00  0.00     0.009 C 
BRANCH   8   9
ATOM      9  C3' N4B d   1      -5.215  -3.456  -3.553  0.00  0.00     0.004 C 
ATOM     10  C4' N4B d   1      -4.082  -2.655  -2.984  0.00  0.00     0.003 C 
ENDBRANCH   8   9
ENDBRANCH   7   8
ENDBRANCH   1   7
TORSDOF 3
ENDMDL
