MODEL 1
REMARK minimizedAffinity -3.64362311
REMARK minimizedRMSD -1
REMARK  3 active torsions:
REMARK  status: ('A' for Active; 'I' for Inactive)
REMARK    1  A    between atoms: C3'_2  and  C2'_3 
REMARK    2  A    between atoms: C2'_3  and  C1'_4 
REMARK    3  A    between atoms: C1'_4  and  C1_5 
ROOT
ATOM      1  C1  N4B d   1      -4.115  -4.622  -5.645  0.00  0.00    -0.075 A 
ATOM      2  C2  N4B d   1      -3.214  -3.555  -5.856  0.00  0.00     0.002 A 
ATOM      3  C3  N4B d   1      -1.871  -3.737  -5.636  0.00  0.00     0.002 A 
ATOM      4  C4  N4B d   1      -1.409  -4.967  -5.190  0.00  0.00    -0.004 A 
ATOM      5  C5  N4B d   1      -2.283  -5.999  -5.013  0.00  0.00     0.002 A 
ATOM      6  C6  N4B d   1      -3.635  -5.831  -5.233  0.00  0.00     0.002 A 
ENDROOT
BRANCH   1   7
ATOM      7  C1' N4B d   1      -5.602  -4.445  -5.788  0.00  0.00     0.057 C 
BRANCH   7   8
ATOM      8  C2' N4B d   1      -5.952  -2.972  -5.605  0.00  0.00     0.009 C 
BRANCH   8   9
ATOM      9  C3' N4B d   1      -5.999  -2.578  -4.138  0.00  0.00     0.004 C 
ATOM     10  C4' N4B d   1      -5.998  -3.762  -3.218  0.00  0.00     0.003 C 
ENDBRANCH   8   9
ENDBRANCH   7   8
ENDBRANCH   1   7
TORSDOF 3
ENDMDL
