MODEL 1
REMARK minimizedAffinity 13.0807695
REMARK minimizedRMSD -1
REMARK  0 active torsions:
REMARK  status: ('A' for Active; 'I' for Inactive)
ROOT
ATOM      1  C   UNL d   1      -2.363   0.125   1.472  0.00  0.00    -0.002 A 
ATOM      2  C1  UNL d   1      -2.836  -1.061   2.016  0.00  0.00     0.010 A 
ATOM      3  C2  UNL d   1      -3.960  -1.691   1.478  0.00  0.00     0.041 A 
ATOM      4  C3  UNL d   1      -4.607  -1.103   0.373  0.00  0.00    -0.075 A 
ATOM      5  S   UNL d   1      -6.000  -1.695  -0.452  0.00  0.00     0.015 SA
ATOM      6  C4  UNL d   1      -6.000  -0.389  -1.546  0.00  0.00     0.022 A 
ATOM      7  C5  UNL d   1      -4.969   0.488  -1.303  0.00  0.00     0.026 A 
ATOM      8  C6  UNL d   1      -4.149   0.090  -0.193  0.00  0.00    -0.082 A 
ATOM      9  C7  UNL d   1      -3.007   0.705   0.376  0.00  0.00     0.045 A 
ENDROOT
TORSDOF 0
ENDMDL
