MODEL 1
REMARK minimizedAffinity 18.8107281
REMARK minimizedRMSD -1
REMARK  0 active torsions:
REMARK  status: ('A' for Active; 'I' for Inactive)
ROOT
ATOM      1  C   UNL d   1       5.221   0.404   1.916  0.00  0.00    -0.002 A 
ATOM      2  C1  UNL d   1       5.999   1.480   2.318  0.00  0.00     0.010 A 
ATOM      3  C2  UNL d   1       5.403   2.648   2.797  0.00  0.00     0.041 A 
ATOM      4  C3  UNL d   1       3.997   2.716   2.868  0.00  0.00    -0.075 A 
ATOM      5  S   UNL d   1       3.048   4.044   3.422  0.00  0.00     0.015 SA
ATOM      6  C4  UNL d   1       1.586   3.214   3.140  0.00  0.00     0.022 A 
ATOM      7  C5  UNL d   1       1.799   1.953   2.635  0.00  0.00     0.026 A 
ATOM      8  C6  UNL d   1       3.192   1.645   2.470  0.00  0.00    -0.082 A 
ATOM      9  C7  UNL d   1       3.827   0.475   1.988  0.00  0.00     0.045 A 
ENDROOT
TORSDOF 0
ENDMDL
