MODEL 1
REMARK minimizedAffinity 11.0758715
REMARK minimizedRMSD -1
REMARK  0 active torsions:
REMARK  status: ('A' for Active; 'I' for Inactive)
ROOT
ATOM      1  C   UNL d   1      -4.667  -1.610  -0.743  0.00  0.00    -0.002 A 
ATOM      2  C1  UNL d   1      -5.657  -0.891  -1.397  0.00  0.00     0.010 A 
ATOM      3  C2  UNL d   1      -6.000   0.394  -0.973  0.00  0.00     0.041 A 
ATOM      4  C3  UNL d   1      -5.322   0.951   0.130  0.00  0.00    -0.075 A 
ATOM      5  S   UNL d   1      -5.573   2.508   0.826  0.00  0.00     0.015 SA
ATOM      6  C4  UNL d   1      -4.370   2.256   2.007  0.00  0.00     0.022 A 
ATOM      7  C5  UNL d   1      -3.782   1.019   1.888  0.00  0.00     0.026 A 
ATOM      8  C6  UNL d   1      -4.320   0.247   0.804  0.00  0.00    -0.082 A 
ATOM      9  C7  UNL d   1      -3.997  -1.055   0.350  0.00  0.00     0.045 A 
ENDROOT
TORSDOF 0
ENDMDL
