MODEL 1
REMARK minimizedAffinity 2.58534741
REMARK minimizedRMSD -1
REMARK  0 active torsions:
REMARK  status: ('A' for Active; 'I' for Inactive)
ROOT
ATOM      1  C   UNL d   1       0.789  -1.440   5.998  0.00  0.00    -0.002 A 
ATOM      2  C1  UNL d   1       2.006  -2.107   6.000  0.00  0.00     0.010 A 
ATOM      3  C2  UNL d   1       2.051  -3.503   5.998  0.00  0.00     0.041 A 
ATOM      4  C3  UNL d   1       0.840  -4.224   5.992  0.00  0.00    -0.075 A 
ATOM      5  S   UNL d   1       0.651  -5.937   5.988  0.00  0.00     0.015 SA
ATOM      6  C4  UNL d   1      -1.049  -5.824   5.983  0.00  0.00     0.022 A 
ATOM      7  C5  UNL d   1      -1.480  -4.518   5.984  0.00  0.00     0.026 A 
ATOM      8  C6  UNL d   1      -0.398  -3.574   5.989  0.00  0.00    -0.082 A 
ATOM      9  C7  UNL d   1      -0.410  -2.159   5.992  0.00  0.00     0.045 A 
ENDROOT
TORSDOF 0
ENDMDL
