MODEL 1
REMARK minimizedAffinity 8.6595211
REMARK minimizedRMSD -1
REMARK  0 active torsions:
REMARK  status: ('A' for Active; 'I' for Inactive)
ROOT
ATOM      1  C   UNL d   1      -1.501  -4.322   5.975  0.00  0.00    -0.002 A 
ATOM      2  C1  UNL d   1      -0.347  -5.092   5.980  0.00  0.00     0.010 A 
ATOM      3  C2  UNL d   1       0.911  -4.487   5.987  0.00  0.00     0.041 A 
ATOM      4  C3  UNL d   1       0.990  -3.080   5.991  0.00  0.00    -0.075 A 
ATOM      5  S   UNL d   1       2.422  -2.119   6.000  0.00  0.00     0.015 SA
ATOM      6  C4  UNL d   1       1.535  -0.664   5.998  0.00  0.00     0.022 A 
ATOM      7  C5  UNL d   1       0.179  -0.887   5.990  0.00  0.00     0.026 A 
ATOM      8  C6  UNL d   1      -0.158  -2.283   5.986  0.00  0.00    -0.082 A 
ATOM      9  C7  UNL d   1      -1.418  -2.927   5.979  0.00  0.00     0.045 A 
ENDROOT
TORSDOF 0
ENDMDL
