MODEL 1
REMARK minimizedAffinity 0.650092721
REMARK minimizedRMSD -1
REMARK  0 active torsions:
REMARK  status: ('A' for Active; 'I' for Inactive)
ROOT
ATOM      1  C   UNL d   1       1.275  -5.782   5.989  0.00  0.00    -0.002 A 
ATOM      2  C1  UNL d   1       2.489  -5.110   5.991  0.00  0.00     0.010 A 
ATOM      3  C2  UNL d   1       2.529  -3.714   5.993  0.00  0.00     0.041 A 
ATOM      4  C3  UNL d   1       1.315  -2.998   5.995  0.00  0.00    -0.075 A 
ATOM      5  S   UNL d   1       1.119  -1.285   5.999  0.00  0.00     0.015 SA
ATOM      6  C4  UNL d   1      -0.581  -1.405   5.999  0.00  0.00     0.022 A 
ATOM      7  C5  UNL d   1      -1.006  -2.713   5.996  0.00  0.00     0.026 A 
ATOM      8  C6  UNL d   1       0.080  -3.652   5.994  0.00  0.00    -0.082 A 
ATOM      9  C7  UNL d   1       0.074  -5.068   5.991  0.00  0.00     0.045 A 
ENDROOT
TORSDOF 0
ENDMDL
