MODEL 1
REMARK minimizedAffinity 3.97271991
REMARK minimizedRMSD -1
REMARK  0 active torsions:
REMARK  status: ('A' for Active; 'I' for Inactive)
ROOT
ATOM      1  C   UNL d   1      -6.000   0.789   1.526  0.00  0.00    -0.002 A 
ATOM      2  C1  UNL d   1      -5.261   0.108   0.569  0.00  0.00     0.010 A 
ATOM      3  C2  UNL d   1      -3.937   0.467   0.307  0.00  0.00     0.041 A 
ATOM      4  C3  UNL d   1      -3.363   1.530   1.030  0.00  0.00    -0.075 A 
ATOM      5  S   UNL d   1      -1.759   2.144   0.878  0.00  0.00     0.015 SA
ATOM      6  C4  UNL d   1      -2.017   3.325   2.081  0.00  0.00     0.022 A 
ATOM      7  C5  UNL d   1      -3.291   3.266   2.596  0.00  0.00     0.026 A 
ATOM      8  C6  UNL d   1      -4.087   2.231   1.999  0.00  0.00    -0.082 A 
ATOM      9  C7  UNL d   1      -5.427   1.844   2.242  0.00  0.00     0.045 A 
ENDROOT
TORSDOF 0
ENDMDL
