MODEL 1
REMARK minimizedAffinity 3.65552115
REMARK minimizedRMSD -1
REMARK  0 active torsions:
REMARK  status: ('A' for Active; 'I' for Inactive)
ROOT
ATOM      1  C4' PXY d   1      -0.311   3.348   1.501  0.00  0.00     0.077 C 
ATOM      2  C1' PXY d   1      -5.748   2.044   2.967  0.00  0.00     0.077 C 
ATOM      3  C1  PXY d   1      -4.325   2.384   2.570  0.00  0.00    -0.082 A 
ATOM      4  C2  PXY d   1      -3.350   2.252   3.454  0.00  0.00     0.003 A 
ATOM      5  C3  PXY d   1      -2.062   2.585   3.122  0.00  0.00     0.003 A 
ATOM      6  C4  PXY d   1      -1.761   3.007   1.855  0.00  0.00    -0.082 A 
ATOM      7  C5  PXY d   1      -2.749   3.134   0.943  0.00  0.00     0.003 A 
ATOM      8  C6  PXY d   1      -4.055   2.830   1.313  0.00  0.00     0.003 A 
ENDROOT
TORSDOF 0
ENDMDL
