MODEL 1
REMARK minimizedAffinity 2.83726501
REMARK minimizedRMSD -1
REMARK  0 active torsions:
REMARK  status: ('A' for Active; 'I' for Inactive)
ROOT
ATOM      1  C4' PXY d   1       1.055  -2.951  -2.211  0.00  0.00     0.077 C 
ATOM      2  C1' PXY d   1       1.619   2.733  -1.321  0.00  0.00     0.077 C 
ATOM      3  C1  PXY d   1       1.478   1.240  -1.544  0.00  0.00    -0.082 A 
ATOM      4  C2  PXY d   1       1.209   0.782  -2.756  0.00  0.00     0.003 A 
ATOM      5  C3  PXY d   1       1.047  -0.563  -2.969  0.00  0.00     0.003 A 
ATOM      6  C4  PXY d   1       1.215  -1.452  -1.942  0.00  0.00    -0.082 A 
ATOM      7  C5  PXY d   1       1.501  -0.993  -0.705  0.00  0.00     0.003 A 
ATOM      8  C6  PXY d   1       1.620   0.378  -0.501  0.00  0.00     0.003 A 
ENDROOT
TORSDOF 0
ENDMDL
