MODEL 1
REMARK minimizedAffinity 5.19207811
REMARK minimizedRMSD -1
REMARK  0 active torsions:
REMARK  status: ('A' for Active; 'I' for Inactive)
ROOT
ATOM      1  C4' PXY d   1       1.842  -4.488  -1.855  0.00  0.00     0.077 C 
ATOM      2  C1' PXY d   1       3.518   0.764  -0.118  0.00  0.00     0.077 C 
ATOM      3  C1  PXY d   1       3.067  -0.612  -0.567  0.00  0.00    -0.082 A 
ATOM      4  C2  PXY d   1       3.970  -1.531  -0.864  0.00  0.00     0.003 A 
ATOM      5  C3  PXY d   1       3.580  -2.771  -1.303  0.00  0.00     0.003 A 
ATOM      6  C4  PXY d   1       2.251  -3.089  -1.388  0.00  0.00    -0.082 A 
ATOM      7  C5  PXY d   1       1.323  -2.159  -1.077  0.00  0.00     0.003 A 
ATOM      8  C6  PXY d   1       1.740  -0.894  -0.673  0.00  0.00     0.003 A 
ENDROOT
TORSDOF 0
ENDMDL
