MODEL 1
REMARK minimizedAffinity 7.78922558
REMARK minimizedRMSD -1
REMARK  0 active torsions:
REMARK  status: ('A' for Active; 'I' for Inactive)
ROOT
ATOM      1  C4' PXY d   1       0.823   0.673   0.034  0.00  0.00     0.077 C 
ATOM      2  C1' PXY d   1       1.116  -3.953  -3.420  0.00  0.00     0.077 C 
ATOM      3  C1  PXY d   1       1.037  -2.733  -2.524  0.00  0.00    -0.082 A 
ATOM      4  C2  PXY d   1       1.657  -2.737  -1.356  0.00  0.00     0.003 A 
ATOM      5  C3  PXY d   1       1.569  -1.654  -0.520  0.00  0.00     0.003 A 
ATOM      6  C4  PXY d   1       0.883  -0.534  -0.907  0.00  0.00    -0.082 A 
ATOM      7  C5  PXY d   1       0.257  -0.518  -2.102  0.00  0.00     0.003 A 
ATOM      8  C6  PXY d   1       0.324  -1.643  -2.919  0.00  0.00     0.003 A 
ENDROOT
TORSDOF 0
ENDMDL
