MODEL 1
REMARK minimizedAffinity 8.13817596
REMARK minimizedRMSD -1
REMARK  0 active torsions:
REMARK  status: ('A' for Active; 'I' for Inactive)
ROOT
ATOM      1  C4' PXY d   1       0.019  -2.994  -2.961  0.00  0.00     0.077 C 
ATOM      2  C1' PXY d   1       1.770   1.896  -0.424  0.00  0.00     0.077 C 
ATOM      3  C1  PXY d   1       1.301   0.620  -1.095  0.00  0.00    -0.082 A 
ATOM      4  C2  PXY d   1       1.559  -0.549  -0.531  0.00  0.00     0.003 A 
ATOM      5  C3  PXY d   1       1.170  -1.714  -1.141  0.00  0.00     0.003 A 
ATOM      6  C4  PXY d   1       0.465  -1.680  -2.314  0.00  0.00    -0.082 A 
ATOM      7  C5  PXY d   1       0.189  -0.491  -2.890  0.00  0.00     0.003 A 
ATOM      8  C6  PXY d   1       0.628   0.679  -2.276  0.00  0.00     0.003 A 
ENDROOT
TORSDOF 0
ENDMDL
