MODEL 1
REMARK minimizedAffinity 10.6516838
REMARK minimizedRMSD -1
REMARK  0 active torsions:
REMARK  status: ('A' for Active; 'I' for Inactive)
ROOT
ATOM      1  C4' PXY d   1       1.736  -2.232  -0.186  0.00  0.00     0.077 C 
ATOM      2  C1' PXY d   1      -0.275  -5.742  -4.315  0.00  0.00     0.077 C 
ATOM      3  C1  PXY d   1       0.260  -4.831  -3.228  0.00  0.00    -0.082 A 
ATOM      4  C2  PXY d   1      -0.473  -3.813  -2.808  0.00  0.00     0.003 A 
ATOM      5  C3  PXY d   1       0.009  -2.960  -1.849  0.00  0.00     0.003 A 
ATOM      6  C4  PXY d   1       1.232  -3.183  -1.274  0.00  0.00    -0.082 A 
ATOM      7  C5  PXY d   1       1.981  -4.227  -1.689  0.00  0.00     0.003 A 
ATOM      8  C6  PXY d   1       1.491  -5.056  -2.694  0.00  0.00     0.003 A 
ENDROOT
TORSDOF 0
ENDMDL
