MODEL 1
REMARK minimizedAffinity 18.0032749
REMARK minimizedRMSD -1
REMARK  0 active torsions:
REMARK  status: ('A' for Active; 'I' for Inactive)
ROOT
ATOM      1  C4' PXY d   1      -2.546  -2.520  -2.745  0.00  0.00     0.077 C 
ATOM      2  C1' PXY d   1      -3.686   2.119  -5.999  0.00  0.00     0.077 C 
ATOM      3  C1  PXY d   1      -3.396   0.896  -5.153  0.00  0.00    -0.082 A 
ATOM      4  C2  PXY d   1      -2.899   1.045  -3.936  0.00  0.00     0.003 A 
ATOM      5  C3  PXY d   1      -2.601  -0.051  -3.168  0.00  0.00     0.003 A 
ATOM      6  C4  PXY d   1      -2.863  -1.313  -3.632  0.00  0.00    -0.082 A 
ATOM      7  C5  PXY d   1      -3.380  -1.474  -4.868  0.00  0.00     0.003 A 
ATOM      8  C6  PXY d   1      -3.637  -0.349  -5.647  0.00  0.00     0.003 A 
ENDROOT
TORSDOF 0
ENDMDL
