MODEL 1
REMARK minimizedAffinity 3.14009643
REMARK minimizedRMSD -1
REMARK  0 active torsions:
REMARK  status: ('A' for Active; 'I' for Inactive)
ROOT
ATOM      1  C4' PXY d   1      -5.542  -0.283  -3.744  0.00  0.00     0.077 C 
ATOM      2  C1' PXY d   1      -4.531  -5.509  -6.000  0.00  0.00     0.077 C 
ATOM      3  C1  PXY d   1      -4.801  -4.134  -5.420  0.00  0.00    -0.082 A 
ATOM      4  C2  PXY d   1      -4.126  -3.729  -4.356  0.00  0.00     0.003 A 
ATOM      5  C3  PXY d   1      -4.379  -2.502  -3.800  0.00  0.00     0.003 A 
ATOM      6  C4  PXY d   1      -5.296  -1.659  -4.369  0.00  0.00    -0.082 A 
ATOM      7  C5  PXY d   1      -5.981  -2.061  -5.460  0.00  0.00     0.003 A 
ATOM      8  C6  PXY d   1      -5.738  -3.327  -5.986  0.00  0.00     0.003 A 
ENDROOT
TORSDOF 0
ENDMDL
