MODEL 1
REMARK minimizedAffinity 4.0583396
REMARK minimizedRMSD -1
REMARK  0 active torsions:
REMARK  status: ('A' for Active; 'I' for Inactive)
ROOT
ATOM      1  C4' PXY d   1       0.383   0.715  -3.142  0.00  0.00     0.077 C 
ATOM      2  C1' PXY d   1       1.024   4.356   1.303  0.00  0.00     0.077 C 
ATOM      3  C1  PXY d   1       0.869   3.399   0.137  0.00  0.00    -0.082 A 
ATOM      4  C2  PXY d   1      -0.179   3.509  -0.664  0.00  0.00     0.003 A 
ATOM      5  C3  PXY d   1      -0.351   2.631  -1.704  0.00  0.00     0.003 A 
ATOM      6  C4  PXY d   1       0.585   1.665  -1.958  0.00  0.00    -0.082 A 
ATOM      7  C5  PXY d   1       1.662   1.554  -1.151  0.00  0.00     0.003 A 
ATOM      8  C6  PXY d   1       1.798   2.428  -0.077  0.00  0.00     0.003 A 
ENDROOT
TORSDOF 0
ENDMDL
