MODEL 1
REMARK minimizedAffinity -2.12540412
REMARK minimizedRMSD -1
REMARK  0 active torsions:
REMARK  status: ('A' for Active; 'I' for Inactive)
ROOT
ATOM      1  C4' PXY d   1      -1.328  -1.884  -2.584  0.00  0.00     0.077 C 
ATOM      2  C1' PXY d   1       2.598   1.980  -0.832  0.00  0.00     0.077 C 
ATOM      3  C1  PXY d   1       1.566   0.974  -1.302  0.00  0.00    -0.082 A 
ATOM      4  C2  PXY d   1       0.946   0.210  -0.417  0.00  0.00     0.003 A 
ATOM      5  C3  PXY d   1       0.034  -0.727  -0.828  0.00  0.00     0.003 A 
ATOM      6  C4  PXY d   1      -0.287  -0.848  -2.154  0.00  0.00    -0.082 A 
ATOM      7  C5  PXY d   1       0.333  -0.065  -3.062  0.00  0.00     0.003 A 
ATOM      8  C6  PXY d   1       1.287   0.852  -2.629  0.00  0.00     0.003 A 
ENDROOT
TORSDOF 0
ENDMDL
