MODEL 1
REMARK minimizedAffinity -1.75521004
REMARK minimizedRMSD -1
REMARK  0 active torsions:
REMARK  status: ('A' for Active; 'I' for Inactive)
ROOT
ATOM      1  C4' PXY d   1       2.784   1.447  -0.692  0.00  0.00     0.077 C 
ATOM      2  C1' PXY d   1      -1.875  -1.527  -2.382  0.00  0.00     0.077 C 
ATOM      3  C1  PXY d   1      -0.661  -0.739  -1.931  0.00  0.00    -0.082 A 
ATOM      4  C2  PXY d   1       0.409  -0.685  -2.708  0.00  0.00     0.003 A 
ATOM      5  C3  PXY d   1       1.527  -0.004  -2.302  0.00  0.00     0.003 A 
ATOM      6  C4  PXY d   1       1.532   0.672  -1.111  0.00  0.00    -0.082 A 
ATOM      7  C5  PXY d   1       0.441   0.630  -0.317  0.00  0.00     0.003 A 
ATOM      8  C6  PXY d   1      -0.669  -0.101  -0.730  0.00  0.00     0.003 A 
ENDROOT
TORSDOF 0
ENDMDL
