MODEL 1
REMARK minimizedAffinity 3.41120195
REMARK minimizedRMSD -1
REMARK  0 active torsions:
REMARK  status: ('A' for Active; 'I' for Inactive)
ROOT
ATOM      1  C4' PXY d   1      -4.067  -1.472  -5.481  0.00  0.00     0.077 C 
ATOM      2  C1' PXY d   1      -3.175   3.822  -3.336  0.00  0.00     0.077 C 
ATOM      3  C1  PXY d   1      -3.421   2.437  -3.903  0.00  0.00    -0.082 A 
ATOM      4  C2  PXY d   1      -2.757   1.403  -3.413  0.00  0.00     0.003 A 
ATOM      5  C3  PXY d   1      -2.943   0.149  -3.936  0.00  0.00     0.003 A 
ATOM      6  C4  PXY d   1      -3.858  -0.057  -4.933  0.00  0.00    -0.082 A 
ATOM      7  C5  PXY d   1      -4.547   0.991  -5.431  0.00  0.00     0.003 A 
ATOM      8  C6  PXY d   1      -4.314   2.263  -4.915  0.00  0.00     0.003 A 
ENDROOT
TORSDOF 0
ENDMDL
