MODEL 1
REMARK minimizedAffinity 11.9130812
REMARK minimizedRMSD -1
REMARK  0 active torsions:
REMARK  status: ('A' for Active; 'I' for Inactive)
ROOT
ATOM      1  C4' PXY d   1       0.682   0.221  -0.727  0.00  0.00     0.077 C 
ATOM      2  C1' PXY d   1       2.376  -5.207  -1.766  0.00  0.00     0.077 C 
ATOM      3  C1  PXY d   1       1.925  -3.783  -1.504  0.00  0.00    -0.082 A 
ATOM      4  C2  PXY d   1       2.676  -2.985  -0.764  0.00  0.00     0.003 A 
ATOM      5  C3  PXY d   1       2.267  -1.705  -0.491  0.00  0.00     0.003 A 
ATOM      6  C4  PXY d   1       1.103  -1.220  -1.025  0.00  0.00    -0.082 A 
ATOM      7  C5  PXY d   1       0.336  -2.026  -1.790  0.00  0.00     0.003 A 
ATOM      8  C6  PXY d   1       0.749  -3.335  -2.022  0.00  0.00     0.003 A 
ENDROOT
TORSDOF 0
ENDMDL
