MODEL 1
REMARK minimizedAffinity 7.40886307
REMARK minimizedRMSD -1
REMARK  0 active torsions:
REMARK  status: ('A' for Active; 'I' for Inactive)
ROOT
ATOM      1  C4' PXY d   1      -2.253  -3.834   3.046  0.00  0.00     0.077 C 
ATOM      2  C1' PXY d   1      -0.273  -3.004  -2.321  0.00  0.00     0.077 C 
ATOM      3  C1  PXY d   1      -0.780  -3.222  -0.909  0.00  0.00    -0.082 A 
ATOM      4  C2  PXY d   1      -1.978  -3.750  -0.718  0.00  0.00     0.003 A 
ATOM      5  C3  PXY d   1      -2.465  -3.925   0.552  0.00  0.00     0.003 A 
ATOM      6  C4  PXY d   1      -1.697  -3.604   1.638  0.00  0.00    -0.082 A 
ATOM      7  C5  PXY d   1      -0.469  -3.075   1.452  0.00  0.00     0.003 A 
ATOM      8  C6  PXY d   1      -0.009  -2.868   0.155  0.00  0.00     0.003 A 
ENDROOT
TORSDOF 0
ENDMDL
