MODEL 1
REMARK minimizedAffinity 1.54097068
REMARK minimizedRMSD -1
REMARK  0 active torsions:
REMARK  status: ('A' for Active; 'I' for Inactive)
ROOT
ATOM      1  C4' PXY d   1       0.214  -2.431  -2.319  0.00  0.00     0.077 C 
ATOM      2  C1' PXY d   1       2.015   2.938  -1.160  0.00  0.00     0.077 C 
ATOM      3  C1  PXY d   1       1.536   1.534  -1.474  0.00  0.00    -0.082 A 
ATOM      4  C2  PXY d   1       1.521   0.619  -0.519  0.00  0.00     0.003 A 
ATOM      5  C3  PXY d   1       1.121  -0.663  -0.793  0.00  0.00     0.003 A 
ATOM      6  C4  PXY d   1       0.681  -0.999  -2.045  0.00  0.00    -0.082 A 
ATOM      7  C5  PXY d   1       0.682  -0.068  -3.023  0.00  0.00     0.003 A 
ATOM      8  C6  PXY d   1       1.131   1.217  -2.734  0.00  0.00     0.003 A 
ENDROOT
TORSDOF 0
ENDMDL
