MODEL 1
REMARK minimizedAffinity 0.545960844
REMARK minimizedRMSD -1
REMARK  0 active torsions:
REMARK  status: ('A' for Active; 'I' for Inactive)
ROOT
ATOM      1  C4' PXY d   1       0.561  -3.443  -1.796  0.00  0.00     0.077 C 
ATOM      2  C1' PXY d   1       1.524   2.186  -0.895  0.00  0.00     0.077 C 
ATOM      3  C1  PXY d   1       1.281   0.707  -1.123  0.00  0.00    -0.082 A 
ATOM      4  C2  PXY d   1       0.730   0.301  -2.256  0.00  0.00     0.003 A 
ATOM      5  C3  PXY d   1       0.474  -1.030  -2.465  0.00  0.00     0.003 A 
ATOM      6  C4  PXY d   1       0.834  -1.960  -1.527  0.00  0.00    -0.082 A 
ATOM      7  C5  PXY d   1       1.406  -1.555  -0.373  0.00  0.00     0.003 A 
ATOM      8  C6  PXY d   1       1.620  -0.196  -0.163  0.00  0.00     0.003 A 
ENDROOT
TORSDOF 0
ENDMDL
