MODEL 1
REMARK minimizedAffinity 0.0269703213
REMARK minimizedRMSD -1
REMARK  0 active torsions:
REMARK  status: ('A' for Active; 'I' for Inactive)
ROOT
ATOM      1  C4' PXY d   1       2.787   2.291  -1.332  0.00  0.00     0.077 C 
ATOM      2  C1' PXY d   1      -0.643  -1.487   1.384  0.00  0.00     0.077 C 
ATOM      3  C1  PXY d   1       0.250  -0.487   0.677  0.00  0.00    -0.082 A 
ATOM      4  C2  PXY d   1       0.902  -0.849  -0.416  0.00  0.00     0.003 A 
ATOM      5  C3  PXY d   1       1.738   0.033  -1.050  0.00  0.00     0.003 A 
ATOM      6  C4  PXY d   1       1.868   1.316  -0.591  0.00  0.00    -0.082 A 
ATOM      7  C5  PXY d   1       1.198   1.697   0.518  0.00  0.00     0.003 A 
ATOM      8  C6  PXY d   1       0.386   0.774   1.170  0.00  0.00     0.003 A 
ENDROOT
TORSDOF 0
ENDMDL
