MODEL 1
REMARK minimizedAffinity 4.86082077
REMARK minimizedRMSD -1
REMARK  0 active torsions:
REMARK  status: ('A' for Active; 'I' for Inactive)
ROOT
ATOM      1  C4' PXY d   1      -0.032  -1.555   0.436  0.00  0.00     0.077 C 
ATOM      2  C1' PXY d   1       1.894   3.854   1.105  0.00  0.00     0.077 C 
ATOM      3  C1  PXY d   1       1.390   2.436   0.917  0.00  0.00    -0.082 A 
ATOM      4  C2  PXY d   1       0.595   1.898   1.827  0.00  0.00     0.003 A 
ATOM      5  C3  PXY d   1       0.157   0.606   1.688  0.00  0.00     0.003 A 
ATOM      6  C4  PXY d   1       0.492  -0.124   0.580  0.00  0.00    -0.082 A 
ATOM      7  C5  PXY d   1       1.295   0.422  -0.359  0.00  0.00     0.003 A 
ATOM      8  C6  PXY d   1       1.763   1.720  -0.179  0.00  0.00     0.003 A 
ENDROOT
TORSDOF 0
ENDMDL
