MODEL 1
REMARK minimizedAffinity 9.31590939
REMARK minimizedRMSD -1
REMARK  0 active torsions:
REMARK  status: ('A' for Active; 'I' for Inactive)
ROOT
ATOM      1  C4' PXY d   1       1.128  -3.800  -1.515  0.00  0.00     0.077 C 
ATOM      2  C1' PXY d   1       1.253   1.926  -0.731  0.00  0.00     0.077 C 
ATOM      3  C1  PXY d   1       1.208   0.425  -0.941  0.00  0.00    -0.082 A 
ATOM      4  C2  PXY d   1       1.971  -0.362  -0.201  0.00  0.00     0.003 A 
ATOM      5  C3  PXY d   1       1.967  -1.719  -0.400  0.00  0.00     0.003 A 
ATOM      6  C4  PXY d   1       1.134  -2.280  -1.330  0.00  0.00    -0.082 A 
ATOM      7  C5  PXY d   1       0.344  -1.484  -2.082  0.00  0.00     0.003 A 
ATOM      8  C6  PXY d   1       0.393  -0.106  -1.893  0.00  0.00     0.003 A 
ENDROOT
TORSDOF 0
ENDMDL
