MODEL 1
REMARK minimizedAffinity 21.0912914
REMARK minimizedRMSD -1
REMARK  0 active torsions:
REMARK  status: ('A' for Active; 'I' for Inactive)
ROOT
ATOM      1  C   UNL d   1      -2.927  -4.173   1.717  0.00  0.00     0.020 A 
ATOM      2  C1  UNL d   1      -4.215  -3.915   1.249  0.00  0.00     0.020 A 
ATOM      3  C2  UNL d   1      -4.530  -2.659   0.726  0.00  0.00     0.034 A 
ATOM      4  C3  UNL d   1      -3.556  -1.656   0.671  0.00  0.00     0.017 A 
ATOM      5  C4  UNL d   1      -2.263  -1.915   1.142  0.00  0.00     0.017 A 
ATOM      6  C5  UNL d   1      -1.954  -3.175   1.664  0.00  0.00     0.034 A 
ATOM      7 Cl   UNL d   1      -1.008  -0.727   1.107  0.00  0.00    -0.070 Cl
ATOM      8 Cl1  UNL d   1      -4.014  -0.126   0.012  0.00  0.00    -0.070 Cl
ENDROOT
TORSDOF 0
ENDMDL
