MODEL 1
REMARK minimizedAffinity 13.751832
REMARK minimizedRMSD -1
REMARK  0 active torsions:
REMARK  status: ('A' for Active; 'I' for Inactive)
ROOT
ATOM      1  C   UNL d   1      -3.005  -0.499   2.367  0.00  0.00     0.020 A 
ATOM      2  C1  UNL d   1      -2.238  -0.297   3.513  0.00  0.00     0.020 A 
ATOM      3  C2  UNL d   1      -1.084  -1.054   3.724  0.00  0.00     0.034 A 
ATOM      4  C3  UNL d   1      -0.694  -2.018   2.786  0.00  0.00     0.017 A 
ATOM      5  C4  UNL d   1      -1.465  -2.220   1.636  0.00  0.00     0.017 A 
ATOM      6  C5  UNL d   1      -2.619  -1.458   1.430  0.00  0.00     0.034 A 
ATOM      7 Cl   UNL d   1      -1.048  -3.390   0.434  0.00  0.00    -0.070 Cl
ATOM      8 Cl1  UNL d   1       0.744  -2.919   3.111  0.00  0.00    -0.070 Cl
ENDROOT
TORSDOF 0
ENDMDL
