MODEL 1
REMARK minimizedAffinity 14.6230917
REMARK minimizedRMSD -1
REMARK  0 active torsions:
REMARK  status: ('A' for Active; 'I' for Inactive)
ROOT
ATOM      1  C   UNL d   1       3.756   3.656  -4.045  0.00  0.00     0.020 A 
ATOM      2  C1  UNL d   1       4.814   4.552  -3.897  0.00  0.00     0.020 A 
ATOM      3  C2  UNL d   1       5.490   4.639  -2.678  0.00  0.00     0.034 A 
ATOM      4  C3  UNL d   1       5.107   3.830  -1.602  0.00  0.00     0.017 A 
ATOM      5  C4  UNL d   1       4.045   2.932  -1.751  0.00  0.00     0.017 A 
ATOM      6  C5  UNL d   1       3.372   2.848  -2.974  0.00  0.00     0.034 A 
ATOM      7 Cl   UNL d   1       3.515   1.901  -0.469  0.00  0.00    -0.070 Cl
ATOM      8 Cl1  UNL d   1       5.987   3.991  -0.124  0.00  0.00    -0.070 Cl
ENDROOT
TORSDOF 0
ENDMDL
