MODEL 1
REMARK minimizedAffinity 22.0028992
REMARK minimizedRMSD -1
REMARK  0 active torsions:
REMARK  status: ('A' for Active; 'I' for Inactive)
ROOT
ATOM      1  C   UNL d   1       5.108   3.911  -4.244  0.00  0.00     0.020 A 
ATOM      2  C1  UNL d   1       3.883   3.256  -4.358  0.00  0.00     0.020 A 
ATOM      3  C2  UNL d   1       3.291   2.681  -3.231  0.00  0.00     0.034 A 
ATOM      4  C3  UNL d   1       3.925   2.761  -1.985  0.00  0.00     0.017 A 
ATOM      5  C4  UNL d   1       5.155   3.419  -1.872  0.00  0.00     0.017 A 
ATOM      6  C5  UNL d   1       5.743   3.993  -3.004  0.00  0.00     0.034 A 
ATOM      7 Cl   UNL d   1       5.997   3.558  -0.369  0.00  0.00    -0.070 Cl
ATOM      8 Cl1  UNL d   1       3.136   2.028  -0.634  0.00  0.00    -0.070 Cl
ENDROOT
TORSDOF 0
ENDMDL
