MODEL 1
REMARK minimizedAffinity 13.9562035
REMARK minimizedRMSD -1
REMARK  0 active torsions:
REMARK  status: ('A' for Active; 'I' for Inactive)
ROOT
ATOM      1  C   UNL d   1       5.412  -3.016  -1.019  0.00  0.00     0.020 A 
ATOM      2  C1  UNL d   1       4.025  -2.883  -1.058  0.00  0.00     0.020 A 
ATOM      3  C2  UNL d   1       3.221  -3.716  -0.277  0.00  0.00     0.034 A 
ATOM      4  C3  UNL d   1       3.804  -4.686   0.547  0.00  0.00     0.017 A 
ATOM      5  C4  UNL d   1       5.197  -4.818   0.586  0.00  0.00     0.017 A 
ATOM      6  C5  UNL d   1       5.997  -3.981  -0.199  0.00  0.00     0.034 A 
ATOM      7 Cl   UNL d   1       5.990  -5.991   1.577  0.00  0.00    -0.070 Cl
ATOM      8 Cl1  UNL d   1       2.750  -5.682   1.486  0.00  0.00    -0.070 Cl
ENDROOT
TORSDOF 0
ENDMDL
