MODEL 1
REMARK minimizedAffinity 3.57346344
REMARK minimizedRMSD -1
REMARK  0 active torsions:
REMARK  status: ('A' for Active; 'I' for Inactive)
ROOT
ATOM      1  C   UNL d   1       1.344  -4.982  -3.583  0.00  0.00     0.020 A 
ATOM      2  C1  UNL d   1       1.085  -6.000  -4.500  0.00  0.00     0.020 A 
ATOM      3  C2  UNL d   1      -0.102  -5.992  -5.236  0.00  0.00     0.034 A 
ATOM      4  C3  UNL d   1      -1.034  -4.963  -5.056  0.00  0.00     0.017 A 
ATOM      5  C4  UNL d   1      -0.773  -3.942  -4.135  0.00  0.00     0.017 A 
ATOM      6  C5  UNL d   1       0.417  -3.955  -3.401  0.00  0.00     0.034 A 
ATOM      7 Cl   UNL d   1      -1.876  -2.640  -3.858  0.00  0.00    -0.070 Cl
ATOM      8 Cl1  UNL d   1      -2.481  -5.016  -6.000  0.00  0.00    -0.070 Cl
ENDROOT
TORSDOF 0
ENDMDL
