MODEL 1
REMARK minimizedAffinity 16.2021847
REMARK minimizedRMSD -1
REMARK  0 active torsions:
REMARK  status: ('A' for Active; 'I' for Inactive)
ROOT
ATOM      1  C   UNL d   1       2.242   2.978  -2.646  0.00  0.00     0.020 A 
ATOM      2  C1  UNL d   1       2.339   2.960  -4.037  0.00  0.00     0.020 A 
ATOM      3  C2  UNL d   1       3.507   3.401  -4.662  0.00  0.00     0.034 A 
ATOM      4  C3  UNL d   1       4.585   3.861  -3.895  0.00  0.00     0.017 A 
ATOM      5  C4  UNL d   1       4.487   3.878  -2.499  0.00  0.00     0.017 A 
ATOM      6  C5  UNL d   1       3.314   3.436  -1.879  0.00  0.00     0.034 A 
ATOM      7 Cl   UNL d   1       5.774   4.431  -1.487  0.00  0.00    -0.070 Cl
ATOM      8 Cl1  UNL d   1       5.999   4.390  -4.734  0.00  0.00    -0.070 Cl
ENDROOT
TORSDOF 0
ENDMDL
