MODEL 1
REMARK minimizedAffinity 20.2584591
REMARK minimizedRMSD -1
REMARK  0 active torsions:
REMARK  status: ('A' for Active; 'I' for Inactive)
ROOT
ATOM      1  C   UNL d   1      -5.672   5.257   4.754  0.00  0.00     0.020 A 
ATOM      2  C1  UNL d   1      -4.627   5.317   5.676  0.00  0.00     0.020 A 
ATOM      3  C2  UNL d   1      -3.909   4.163   5.994  0.00  0.00     0.034 A 
ATOM      4  C3  UNL d   1      -4.234   2.943   5.389  0.00  0.00     0.017 A 
ATOM      5  C4  UNL d   1      -5.283   2.883   4.464  0.00  0.00     0.017 A 
ATOM      6  C5  UNL d   1      -5.998   4.043   4.150  0.00  0.00     0.034 A 
ATOM      7 Cl   UNL d   1      -5.742   1.415   3.677  0.00  0.00    -0.070 Cl
ATOM      8 Cl1  UNL d   1      -3.304   1.555   5.829  0.00  0.00    -0.070 Cl
ENDROOT
TORSDOF 0
ENDMDL
