MODEL 1
REMARK minimizedAffinity 19.4330463
REMARK minimizedRMSD -1
REMARK  0 active torsions:
REMARK  status: ('A' for Active; 'I' for Inactive)
ROOT
ATOM      1  C   UNL d   1      -5.340   1.875  -2.024  0.00  0.00     0.020 A 
ATOM      2  C1  UNL d   1      -4.959   1.902  -0.683  0.00  0.00     0.020 A 
ATOM      3  C2  UNL d   1      -4.888   0.713   0.046  0.00  0.00     0.034 A 
ATOM      4  C3  UNL d   1      -5.198  -0.507  -0.566  0.00  0.00     0.017 A 
ATOM      5  C4  UNL d   1      -5.580  -0.533  -1.912  0.00  0.00     0.017 A 
ATOM      6  C5  UNL d   1      -5.650   0.660  -2.637  0.00  0.00     0.034 A 
ATOM      7 Cl   UNL d   1      -5.977  -2.000  -2.735  0.00  0.00    -0.070 Cl
ATOM      8 Cl1  UNL d   1      -5.087  -1.939   0.396  0.00  0.00    -0.070 Cl
ENDROOT
TORSDOF 0
ENDMDL
