MODEL 1
REMARK minimizedAffinity 11.9139557
REMARK minimizedRMSD -1
REMARK  0 active torsions:
REMARK  status: ('A' for Active; 'I' for Inactive)
ROOT
ATOM      1  C   UNL d   1       0.516  -1.374   4.324  0.00  0.00     0.020 A 
ATOM      2  C1  UNL d   1       0.618  -2.418   3.406  0.00  0.00     0.020 A 
ATOM      3  C2  UNL d   1      -0.109  -2.374   2.214  0.00  0.00     0.034 A 
ATOM      4  C3  UNL d   1      -0.942  -1.284   1.938  0.00  0.00     0.017 A 
ATOM      5  C4  UNL d   1      -1.044  -0.236   2.861  0.00  0.00     0.017 A 
ATOM      6  C5  UNL d   1      -0.314  -0.286   4.052  0.00  0.00     0.034 A 
ATOM      7 Cl   UNL d   1      -2.051   1.142   2.590  0.00  0.00    -0.070 Cl
ATOM      8 Cl1  UNL d   1      -1.811  -1.295   0.445  0.00  0.00    -0.070 Cl
ENDROOT
TORSDOF 0
ENDMDL
