MODEL 1
REMARK minimizedAffinity 13.4920349
REMARK minimizedRMSD -1
REMARK  0 active torsions:
REMARK  status: ('A' for Active; 'I' for Inactive)
ROOT
ATOM      1  C   UNL d   1       3.310   3.502  -5.802  0.00  0.00     0.020 A 
ATOM      2  C1  UNL d   1       4.641   3.919  -5.768  0.00  0.00     0.020 A 
ATOM      3  C2  UNL d   1       5.250   4.207  -4.545  0.00  0.00     0.034 A 
ATOM      4  C3  UNL d   1       4.530   4.080  -3.352  0.00  0.00     0.017 A 
ATOM      5  C4  UNL d   1       3.195   3.661  -3.388  0.00  0.00     0.017 A 
ATOM      6  C5  UNL d   1       2.589   3.374  -4.615  0.00  0.00     0.034 A 
ATOM      7 Cl   UNL d   1       2.241   3.481  -1.957  0.00  0.00    -0.070 Cl
ATOM      8 Cl1  UNL d   1       5.347   4.453  -1.876  0.00  0.00    -0.070 Cl
ENDROOT
TORSDOF 0
ENDMDL
