MODEL 1
REMARK minimizedAffinity 18.9540577
REMARK minimizedRMSD -1
REMARK  0 active torsions:
REMARK  status: ('A' for Active; 'I' for Inactive)
ROOT
ATOM      1  C   UNL d   1       2.662   3.181  -2.996  0.00  0.00     0.020 A 
ATOM      2  C1  UNL d   1       2.999   2.993  -4.336  0.00  0.00     0.020 A 
ATOM      3  C2  UNL d   1       4.032   3.738  -4.907  0.00  0.00     0.034 A 
ATOM      4  C3  UNL d   1       4.733   4.675  -4.138  0.00  0.00     0.017 A 
ATOM      5  C4  UNL d   1       4.394   4.863  -2.793  0.00  0.00     0.017 A 
ATOM      6  C5  UNL d   1       3.358   4.114  -2.226  0.00  0.00     0.034 A 
ATOM      7 Cl   UNL d   1       5.213   6.000  -1.781  0.00  0.00    -0.070 Cl
ATOM      8 Cl1  UNL d   1       6.000   5.561  -4.909  0.00  0.00    -0.070 Cl
ENDROOT
TORSDOF 0
ENDMDL
