MODEL 1
REMARK minimizedAffinity 16.0217075
REMARK minimizedRMSD -1
REMARK  0 active torsions:
REMARK  status: ('A' for Active; 'I' for Inactive)
ROOT
ATOM      1  C   UNL d   1       5.224  -5.992  -0.056  0.00  0.00     0.020 A 
ATOM      2  C1  UNL d   1       5.998  -5.095  -0.791  0.00  0.00     0.020 A 
ATOM      3  C2  UNL d   1       5.514  -3.814  -1.062  0.00  0.00     0.034 A 
ATOM      4  C3  UNL d   1       4.251  -3.427  -0.600  0.00  0.00     0.017 A 
ATOM      5  C4  UNL d   1       3.474  -4.328   0.137  0.00  0.00     0.017 A 
ATOM      6  C5  UNL d   1       3.964  -5.609   0.407  0.00  0.00     0.034 A 
ATOM      7 Cl   UNL d   1       1.907  -3.922   0.742  0.00  0.00    -0.070 Cl
ATOM      8 Cl1  UNL d   1       3.715  -1.827  -0.972  0.00  0.00    -0.070 Cl
ENDROOT
TORSDOF 0
ENDMDL
