MODEL 1
REMARK minimizedAffinity 9.83987141
REMARK minimizedRMSD -1
REMARK  0 active torsions:
REMARK  status: ('A' for Active; 'I' for Inactive)
ROOT
ATOM      1  C   UNL d   1       2.240   3.628  -2.417  0.00  0.00     0.020 A 
ATOM      2  C1  UNL d   1       2.459   2.966  -3.624  0.00  0.00     0.020 A 
ATOM      3  C2  UNL d   1       3.626   3.208  -4.352  0.00  0.00     0.034 A 
ATOM      4  C3  UNL d   1       4.578   4.116  -3.874  0.00  0.00     0.017 A 
ATOM      5  C4  UNL d   1       4.357   4.780  -2.662  0.00  0.00     0.017 A 
ATOM      6  C5  UNL d   1       3.187   4.533  -1.937  0.00  0.00     0.034 A 
ATOM      7 Cl   UNL d   1       5.486   5.913  -2.007  0.00  0.00    -0.070 Cl
ATOM      8 Cl1  UNL d   1       5.998   4.367  -4.825  0.00  0.00    -0.070 Cl
ENDROOT
TORSDOF 0
ENDMDL
