MODEL 1
REMARK minimizedAffinity 16.960535
REMARK minimizedRMSD -1
REMARK  0 active torsions:
REMARK  status: ('A' for Active; 'I' for Inactive)
ROOT
ATOM      1  C   UNL d   1       2.515   2.703  -3.311  0.00  0.00     0.020 A 
ATOM      2  C1  UNL d   1       3.039   2.358  -4.557  0.00  0.00     0.020 A 
ATOM      3  C2  UNL d   1       4.115   3.075  -5.084  0.00  0.00     0.034 A 
ATOM      4  C3  UNL d   1       4.670   4.140  -4.367  0.00  0.00     0.017 A 
ATOM      5  C4  UNL d   1       4.144   4.485  -3.117  0.00  0.00     0.017 A 
ATOM      6  C5  UNL d   1       3.066   3.764  -2.593  0.00  0.00     0.034 A 
ATOM      7 Cl   UNL d   1       4.776   5.788  -2.172  0.00  0.00    -0.070 Cl
ATOM      8 Cl1  UNL d   1       6.000   4.983  -5.080  0.00  0.00    -0.070 Cl
ENDROOT
TORSDOF 0
ENDMDL
