MODEL 1
REMARK minimizedAffinity 13.9480667
REMARK minimizedRMSD -1
REMARK  0 active torsions:
REMARK  status: ('A' for Active; 'I' for Inactive)
ROOT
ATOM      1  C   UNL d   1      -3.557  -4.163   1.385  0.00  0.00     0.020 A 
ATOM      2  C1  UNL d   1      -4.039  -2.855   1.408  0.00  0.00     0.020 A 
ATOM      3  C2  UNL d   1      -3.152  -1.786   1.557  0.00  0.00     0.034 A 
ATOM      4  C3  UNL d   1      -1.778  -2.024   1.683  0.00  0.00     0.017 A 
ATOM      5  C4  UNL d   1      -1.295  -3.337   1.659  0.00  0.00     0.017 A 
ATOM      6  C5  UNL d   1      -2.188  -4.403   1.510  0.00  0.00     0.034 A 
ATOM      7 Cl   UNL d   1       0.386  -3.709   1.808  0.00  0.00    -0.070 Cl
ATOM      8 Cl1  UNL d   1      -0.740  -0.655   1.863  0.00  0.00    -0.070 Cl
ENDROOT
TORSDOF 0
ENDMDL
