MODEL 1
REMARK minimizedAffinity 4.32658005
REMARK minimizedRMSD -1
REMARK  0 active torsions:
REMARK  status: ('A' for Active; 'I' for Inactive)
ROOT
ATOM      1  C   UNL d   1       0.902  -1.524   1.850  0.00  0.00     0.020 A 
ATOM      2  C1  UNL d   1       0.200  -2.017   0.750  0.00  0.00     0.020 A 
ATOM      3  C2  UNL d   1      -1.111  -1.598   0.514  0.00  0.00     0.034 A 
ATOM      4  C3  UNL d   1      -1.724  -0.684   1.378  0.00  0.00     0.017 A 
ATOM      5  C4  UNL d   1      -1.019  -0.190   2.481  0.00  0.00     0.017 A 
ATOM      6  C5  UNL d   1       0.293  -0.613   2.714  0.00  0.00     0.034 A 
ATOM      7 Cl   UNL d   1      -1.709   0.941   3.592  0.00  0.00    -0.070 Cl
ATOM      8 Cl1  UNL d   1      -3.347  -0.209   1.024  0.00  0.00    -0.070 Cl
ENDROOT
TORSDOF 0
ENDMDL
