MODEL 1
REMARK minimizedAffinity -4.97155046
REMARK minimizedRMSD -1
REMARK  1 active torsions:
REMARK  status: ('A' for Active; 'I' for Inactive)
REMARK    1  A    between atoms: N_2  and  C1_3 
ROOT
ATOM      1  C1  UNL d   1      -0.265  -0.795  -0.648  0.00  0.00     0.143 A 
ATOM      2  C2  UNL d   1      -0.275  -1.547   0.532  0.00  0.00    -0.057 A 
ATOM      3  C3  UNL d   1      -0.037  -2.926   0.516  0.00  0.00     0.033 A 
ATOM      4  C4  UNL d   1       0.188  -3.585  -0.688  0.00  0.00    -0.042 A 
ATOM      5  C5  UNL d   1       0.177  -2.863  -1.876  0.00  0.00     0.033 A 
ATOM      6  C6  UNL d   1      -0.055  -1.484  -1.853  0.00  0.00    -0.057 A 
ENDROOT
BRANCH   1   7
ATOM      7  N   UNL d   1      -0.592   0.562  -0.709  0.00  0.00    -0.732 N 
ATOM      8  C   UNL d   1       0.446   1.570  -0.746  0.00  0.00     0.284 C 
ATOM      9  H3  UNL d   1      -1.373   0.746  -1.335  0.00  0.00     0.395 HD
ENDBRANCH   1   7
TORSDOF 1
ENDMDL
