MODEL 1
REMARK minimizedAffinity -5.25289726
REMARK minimizedRMSD -1
REMARK  1 active torsions:
REMARK  status: ('A' for Active; 'I' for Inactive)
REMARK    1  A    between atoms: N_2  and  C1_3 
ROOT
ATOM      1  C1  UNL d   1       0.049  -1.345  -0.066  0.00  0.00     0.143 A 
ATOM      2  C2  UNL d   1      -0.147  -2.635   0.439  0.00  0.00    -0.057 A 
ATOM      3  C3  UNL d   1       0.096  -3.767  -0.348  0.00  0.00     0.033 A 
ATOM      4  C4  UNL d   1       0.511  -3.628  -1.668  0.00  0.00    -0.042 A 
ATOM      5  C5  UNL d   1       0.688  -2.355  -2.199  0.00  0.00     0.033 A 
ATOM      6  C6  UNL d   1       0.451  -1.228  -1.406  0.00  0.00    -0.057 A 
ENDROOT
BRANCH   1   7
ATOM      7  N   UNL d   1      -0.269  -0.179   0.635  0.00  0.00    -0.732 N 
ATOM      8  C   UNL d   1      -0.041   1.122   0.043  0.00  0.00     0.284 C 
ATOM      9  H3  UNL d   1      -1.148  -0.257   1.141  0.00  0.00     0.395 HD
ENDBRANCH   1   7
TORSDOF 1
ENDMDL
