MODEL 1
REMARK minimizedAffinity -4.02849913
REMARK minimizedRMSD -1
REMARK  1 active torsions:
REMARK  status: ('A' for Active; 'I' for Inactive)
REMARK    1  A    between atoms: N_2  and  C1_3 
ROOT
ATOM      1  C1  UNL d   1       0.134  -1.360  -0.400  0.00  0.00     0.143 A 
ATOM      2  C2  UNL d   1       0.414  -1.660  -1.738  0.00  0.00    -0.057 A 
ATOM      3  C3  UNL d   1       0.538  -2.985  -2.175  0.00  0.00     0.033 A 
ATOM      4  C4  UNL d   1       0.413  -4.035  -1.272  0.00  0.00    -0.042 A 
ATOM      5  C5  UNL d   1       0.160  -3.760   0.067  0.00  0.00     0.033 A 
ATOM      6  C6  UNL d   1       0.030  -2.436   0.496  0.00  0.00    -0.057 A 
ENDROOT
BRANCH   1   7
ATOM      7  N   UNL d   1       0.096  -0.062   0.114  0.00  0.00    -0.732 N 
ATOM      8  C   UNL d   1       0.113   1.083  -0.771  0.00  0.00     0.284 C 
ATOM      9  H3  UNL d   1      -0.549   0.027   0.897  0.00  0.00     0.395 HD
ENDBRANCH   1   7
TORSDOF 1
ENDMDL
