MODEL 1
REMARK minimizedAffinity -4.14281416
REMARK minimizedRMSD -1
REMARK  1 active torsions:
REMARK  status: ('A' for Active; 'I' for Inactive)
REMARK    1  A    between atoms: N_2  and  C1_3 
ROOT
ATOM      1  C1  UNL d   1      -0.117  -0.405  -0.072  0.00  0.00     0.143 A 
ATOM      2  C2  UNL d   1      -0.781  -0.993   1.010  0.00  0.00    -0.057 A 
ATOM      3  C3  UNL d   1      -0.790  -2.382   1.188  0.00  0.00     0.033 A 
ATOM      4  C4  UNL d   1      -0.157  -3.211   0.269  0.00  0.00    -0.042 A 
ATOM      5  C5  UNL d   1       0.488  -2.651  -0.828  0.00  0.00     0.033 A 
ATOM      6  C6  UNL d   1       0.499  -1.263  -0.997  0.00  0.00    -0.057 A 
ENDROOT
BRANCH   1   7
ATOM      7  N   UNL d   1      -0.155   0.962  -0.359  0.00  0.00    -0.732 N 
ATOM      8  C   UNL d   1       0.963   1.817  -0.022  0.00  0.00     0.284 C 
ATOM      9  H3  UNL d   1      -0.569   1.157  -1.268  0.00  0.00     0.395 HD
ENDBRANCH   1   7
TORSDOF 1
ENDMDL
