MODEL 1
REMARK minimizedAffinity -3.70130634
REMARK minimizedRMSD -1
REMARK  1 active torsions:
REMARK  status: ('A' for Active; 'I' for Inactive)
REMARK    1  A    between atoms: N_2  and  C1_3 
ROOT
ATOM      1  C1  UNL d   1      -0.186  -1.040  -0.427  0.00  0.00     0.143 A 
ATOM      2  C2  UNL d   1      -0.692  -2.290  -0.055  0.00  0.00    -0.057 A 
ATOM      3  C3  UNL d   1      -0.685  -3.371  -0.946  0.00  0.00     0.033 A 
ATOM      4  C4  UNL d   1      -0.196  -3.211  -2.238  0.00  0.00    -0.042 A 
ATOM      5  C5  UNL d   1       0.289  -1.971  -2.638  0.00  0.00     0.033 A 
ATOM      6  C6  UNL d   1       0.285  -0.897  -1.742  0.00  0.00    -0.057 A 
ENDROOT
BRANCH   1   7
ATOM      7  N   UNL d   1      -0.256   0.098   0.380  0.00  0.00    -0.732 N 
ATOM      8  C   UNL d   1      -0.176   1.421  -0.203  0.00  0.00     0.284 C 
ATOM      9  H3  UNL d   1      -0.951   0.010   1.117  0.00  0.00     0.395 HD
ENDBRANCH   1   7
TORSDOF 1
ENDMDL
