MODEL 1
REMARK minimizedAffinity -3.28778458
REMARK minimizedRMSD -1
REMARK  1 active torsions:
REMARK  status: ('A' for Active; 'I' for Inactive)
REMARK    1  A    between atoms: N_2  and  C1_3 
ROOT
ATOM      1  C1  UNL d   1      -0.235   0.734  -0.059  0.00  0.00     0.143 A 
ATOM      2  C2  UNL d   1      -0.391  -0.514  -0.671  0.00  0.00    -0.057 A 
ATOM      3  C3  UNL d   1      -0.828  -1.629   0.054  0.00  0.00     0.033 A 
ATOM      4  C4  UNL d   1      -1.090  -1.521   1.416  0.00  0.00    -0.042 A 
ATOM      5  C5  UNL d   1      -0.919  -0.296   2.050  0.00  0.00     0.033 A 
ATOM      6  C6  UNL d   1      -0.489   0.815   1.319  0.00  0.00    -0.057 A 
ENDROOT
BRANCH   1   7
ATOM      7  N   UNL d   1       0.290   1.857  -0.704  0.00  0.00    -0.732 N 
ATOM      8  C   UNL d   1       0.776   2.986   0.060  0.00  0.00     0.284 C 
ATOM      9  H3  UNL d   1       0.875   1.610  -1.499  0.00  0.00     0.395 HD
ENDBRANCH   1   7
TORSDOF 1
ENDMDL
