MODEL 1
REMARK minimizedAffinity -5.06332922
REMARK minimizedRMSD -1
REMARK  1 active torsions:
REMARK  status: ('A' for Active; 'I' for Inactive)
REMARK    1  A    between atoms: N_2  and  C1_3 
ROOT
ATOM      1  C1  UNL d   1      -0.382  -0.037   0.007  0.00  0.00     0.143 A 
ATOM      2  C2  UNL d   1      -0.894  -0.751   1.095  0.00  0.00    -0.057 A 
ATOM      3  C3  UNL d   1      -0.840  -2.149   1.137  0.00  0.00     0.033 A 
ATOM      4  C4  UNL d   1      -0.296  -2.862   0.073  0.00  0.00    -0.042 A 
ATOM      5  C5  UNL d   1       0.196  -2.175  -1.030  0.00  0.00     0.033 A 
ATOM      6  C6  UNL d   1       0.145  -0.778  -1.063  0.00  0.00    -0.057 A 
ENDROOT
BRANCH   1   7
ATOM      7  N   UNL d   1      -0.495   1.348  -0.138  0.00  0.00    -0.732 N 
ATOM      8  C   UNL d   1       0.670   2.198  -0.024  0.00  0.00     0.284 C 
ATOM      9  H3  UNL d   1      -1.128   1.609  -0.890  0.00  0.00     0.395 HD
ENDBRANCH   1   7
TORSDOF 1
ENDMDL
