MODEL 1
REMARK minimizedAffinity -3.83973622
REMARK minimizedRMSD -1
REMARK  1 active torsions:
REMARK  status: ('A' for Active; 'I' for Inactive)
REMARK    1  A    between atoms: N_2  and  C1_3 
ROOT
ATOM      1  C1  UNL d   1      -0.470  -1.778   0.221  0.00  0.00     0.143 A 
ATOM      2  C2  UNL d   1       0.081  -0.789  -0.601  0.00  0.00    -0.057 A 
ATOM      3  C3  UNL d   1      -0.194   0.567  -0.390  0.00  0.00     0.033 A 
ATOM      4  C4  UNL d   1      -1.052   0.958   0.633  0.00  0.00    -0.042 A 
ATOM      5  C5  UNL d   1      -1.632  -0.009   1.447  0.00  0.00     0.033 A 
ATOM      6  C6  UNL d   1      -1.347  -1.362   1.235  0.00  0.00    -0.057 A 
ENDROOT
BRANCH   1   7
ATOM      7  N   UNL d   1      -0.313  -3.148   0.002  0.00  0.00    -0.732 N 
ATOM      8  C   UNL d   1      -0.439  -3.701  -1.330  0.00  0.00     0.284 C 
ATOM      9  H3  UNL d   1       0.451  -3.544   0.545  0.00  0.00     0.395 HD
ENDBRANCH   1   7
TORSDOF 1
ENDMDL
