MODEL 1
REMARK minimizedAffinity -2.44614339
REMARK minimizedRMSD -1
REMARK  1 active torsions:
REMARK  status: ('A' for Active; 'I' for Inactive)
REMARK    1  A    between atoms: N_2  and  C1_3 
ROOT
ATOM      1  C1  UNL d   1       0.600   1.069  -0.133  0.00  0.00     0.143 A 
ATOM      2  C2  UNL d   1      -0.117   2.254   0.063  0.00  0.00    -0.057 A 
ATOM      3  C3  UNL d   1       0.538   3.484   0.203  0.00  0.00     0.033 A 
ATOM      4  C4  UNL d   1       1.928   3.545   0.179  0.00  0.00    -0.042 A 
ATOM      5  C5  UNL d   1       2.661   2.376   0.010  0.00  0.00     0.033 A 
ATOM      6  C6  UNL d   1       2.001   1.152  -0.136  0.00  0.00    -0.057 A 
ENDROOT
BRANCH   1   7
ATOM      7  N   UNL d   1       0.011  -0.197  -0.180  0.00  0.00    -0.732 N 
ATOM      8  C   UNL d   1      -0.738  -0.705   0.949  0.00  0.00     0.284 C 
ATOM      9  H3  UNL d   1      -0.414  -0.394  -1.083  0.00  0.00     0.395 HD
ENDBRANCH   1   7
TORSDOF 1
ENDMDL
