MODEL 1
REMARK minimizedAffinity -3.9310329
REMARK minimizedRMSD -1
REMARK  1 active torsions:
REMARK  status: ('A' for Active; 'I' for Inactive)
REMARK    1  A    between atoms: N_2  and  C1_3 
ROOT
ATOM      1  C1  UNL d   1      -0.359  -1.598  -0.553  0.00  0.00     0.143 A 
ATOM      2  C2  UNL d   1      -0.604  -1.738   0.817  0.00  0.00    -0.057 A 
ATOM      3  C3  UNL d   1      -0.926  -0.633   1.614  0.00  0.00     0.033 A 
ATOM      4  C4  UNL d   1      -0.981   0.641   1.058  0.00  0.00    -0.042 A 
ATOM      5  C5  UNL d   1      -0.717   0.808  -0.296  0.00  0.00     0.033 A 
ATOM      6  C6  UNL d   1      -0.402  -0.301  -1.088  0.00  0.00    -0.057 A 
ENDROOT
BRANCH   1   7
ATOM      7  N   UNL d   1       0.063  -2.642  -1.379  0.00  0.00    -0.732 N 
ATOM      8  C   UNL d   1      -0.015  -2.521  -2.819  0.00  0.00     0.284 C 
ATOM      9  H3  UNL d   1       0.918  -3.081  -1.045  0.00  0.00     0.395 HD
ENDBRANCH   1   7
TORSDOF 1
ENDMDL
