MODEL 1
REMARK minimizedAffinity 13.9668989
REMARK minimizedRMSD -1
REMARK  0 active torsions:
REMARK  status: ('A' for Active; 'I' for Inactive)
ROOT
ATOM      1  C   UNL d   1      -2.428  -0.760   2.868  0.00  0.00     0.124 A 
ATOM      2  C1  UNL d   1      -1.885  -0.692   4.144  0.00  0.00     0.062 A 
ATOM      3  C2  UNL d   1      -0.886   0.235   4.430  0.00  0.00     0.162 A 
ATOM      4  C3  UNL d   1      -0.425   1.101   3.439  0.00  0.00    -0.034 A 
ATOM      5  C4  UNL d   1      -0.975   1.026   2.159  0.00  0.00     0.162 A 
ATOM      6  C5  UNL d   1      -1.973   0.098   1.877  0.00  0.00     0.062 A 
ATOM      7  F   UNL d   1      -2.497   0.034   0.645  0.00  0.00    -0.097 F 
ATOM      8  F1  UNL d   1      -0.555   1.844   1.183  0.00  0.00    -0.096 F 
ATOM      9  I   UNL d   1       1.069   2.488   3.864  0.00  0.00    -0.060 I 
ATOM     10  F2  UNL d   1      -0.379   0.279   5.671  0.00  0.00    -0.096 F 
ATOM     11  F3  UNL d   1      -2.322  -1.520   5.103  0.00  0.00    -0.097 F 
ATOM     12  F4  UNL d   1      -3.388  -1.653   2.595  0.00  0.00    -0.092 F 
ENDROOT
TORSDOF 0
ENDMDL
