MODEL 1
REMARK minimizedAffinity 4.87579823
REMARK minimizedRMSD -1
REMARK  0 active torsions:
REMARK  status: ('A' for Active; 'I' for Inactive)
ROOT
ATOM      1  C   UNL d   1      -3.848  -1.118  -0.410  0.00  0.00     0.124 A 
ATOM      2  C1  UNL d   1      -4.752  -1.248   0.635  0.00  0.00     0.062 A 
ATOM      3  C2  UNL d   1      -4.369  -0.931   1.935  0.00  0.00     0.162 A 
ATOM      4  C3  UNL d   1      -3.076  -0.479   2.197  0.00  0.00    -0.034 A 
ATOM      5  C4  UNL d   1      -2.172  -0.352   1.141  0.00  0.00     0.162 A 
ATOM      6  C5  UNL d   1      -2.559  -0.670  -0.156  0.00  0.00     0.062 A 
ATOM      7  F   UNL d   1      -1.685  -0.544  -1.165  0.00  0.00    -0.097 F 
ATOM      8  F1  UNL d   1      -0.920   0.079   1.358  0.00  0.00    -0.096 F 
ATOM      9  I   UNL d   1      -2.499  -0.004   4.140  0.00  0.00    -0.060 I 
ATOM     10  F2  UNL d   1      -5.263  -1.066   2.926  0.00  0.00    -0.096 F 
ATOM     11  F3  UNL d   1      -5.998  -1.681   0.392  0.00  0.00    -0.097 F 
ATOM     12  F4  UNL d   1      -4.219  -1.424  -1.660  0.00  0.00    -0.092 F 
ENDROOT
TORSDOF 0
ENDMDL
