MODEL 1
REMARK minimizedAffinity 24.8248615
REMARK minimizedRMSD -1
REMARK  0 active torsions:
REMARK  status: ('A' for Active; 'I' for Inactive)
ROOT
ATOM      1  C   UNL d   1      -1.929  -1.376  -0.727  0.00  0.00     0.124 A 
ATOM      2  C1  UNL d   1      -1.472  -1.889  -1.934  0.00  0.00     0.062 A 
ATOM      3  C2  UNL d   1      -1.037  -3.208  -2.014  0.00  0.00     0.162 A 
ATOM      4  C3  UNL d   1      -1.057  -4.026  -0.884  0.00  0.00    -0.034 A 
ATOM      5  C4  UNL d   1      -1.516  -3.503   0.326  0.00  0.00     0.162 A 
ATOM      6  C5  UNL d   1      -1.950  -2.184   0.401  0.00  0.00     0.062 A 
ATOM      7  F   UNL d   1      -2.391  -1.691   1.568  0.00  0.00    -0.097 F 
ATOM      8  F1  UNL d   1      -1.549  -4.262   1.432  0.00  0.00    -0.096 F 
ATOM      9  I   UNL d   1      -0.407  -6.000  -1.000  0.00  0.00    -0.060 I 
ATOM     10  F2  UNL d   1      -0.601  -3.677  -3.193  0.00  0.00    -0.096 F 
ATOM     11  F3  UNL d   1      -1.450  -1.110  -3.025  0.00  0.00    -0.097 F 
ATOM     12  F4  UNL d   1      -2.346  -0.106  -0.653  0.00  0.00    -0.092 F 
ENDROOT
TORSDOF 0
ENDMDL
