MODEL 1
REMARK minimizedAffinity 15.0099077
REMARK minimizedRMSD -1
REMARK  0 active torsions:
REMARK  status: ('A' for Active; 'I' for Inactive)
ROOT
ATOM      1  C   UNL d   1      -2.917   0.158   1.652  0.00  0.00     0.124 A 
ATOM      2  C1  UNL d   1      -3.472  -0.746   2.547  0.00  0.00     0.062 A 
ATOM      3  C2  UNL d   1      -2.878  -0.957   3.788  0.00  0.00     0.162 A 
ATOM      4  C3  UNL d   1      -1.722  -0.262   4.142  0.00  0.00    -0.034 A 
ATOM      5  C4  UNL d   1      -1.169   0.645   3.236  0.00  0.00     0.162 A 
ATOM      6  C5  UNL d   1      -1.766   0.852   1.997  0.00  0.00     0.062 A 
ATOM      7  F   UNL d   1      -1.228   1.726   1.134  0.00  0.00    -0.097 F 
ATOM      8  F1  UNL d   1      -0.058   1.331   3.544  0.00  0.00    -0.096 F 
ATOM      9  I   UNL d   1      -0.831  -0.574   5.997  0.00  0.00    -0.060 I 
ATOM     10  F2  UNL d   1      -3.436  -1.836   4.633  0.00  0.00    -0.096 F 
ATOM     11  F3  UNL d   1      -4.583  -1.419   2.215  0.00  0.00    -0.097 F 
ATOM     12  F4  UNL d   1      -3.489   0.358   0.458  0.00  0.00    -0.092 F 
ENDROOT
TORSDOF 0
ENDMDL
