MODEL 1
REMARK minimizedAffinity 9.14392376
REMARK minimizedRMSD -1
REMARK  0 active torsions:
REMARK  status: ('A' for Active; 'I' for Inactive)
ROOT
ATOM      1  C   UNL d   1      -3.879  -0.756  -1.048  0.00  0.00     0.124 A 
ATOM      2  C1  UNL d   1      -4.614  -0.302   0.039  0.00  0.00     0.062 A 
ATOM      3  C2  UNL d   1      -4.029  -0.238   1.300  0.00  0.00     0.162 A 
ATOM      4  C3  UNL d   1      -2.702  -0.626   1.482  0.00  0.00    -0.034 A 
ATOM      5  C4  UNL d   1      -1.970  -1.082   0.384  0.00  0.00     0.162 A 
ATOM      6  C5  UNL d   1      -2.558  -1.145  -0.875  0.00  0.00     0.062 A 
ATOM      7  F   UNL d   1      -1.847  -1.583  -1.924  0.00  0.00    -0.097 F 
ATOM      8  F1  UNL d   1      -0.692  -1.463   0.523  0.00  0.00    -0.096 F 
ATOM      9  I   UNL d   1      -1.825  -0.531   3.367  0.00  0.00    -0.060 I 
ATOM     10  F2  UNL d   1      -4.763   0.205   2.333  0.00  0.00    -0.096 F 
ATOM     11  F3  UNL d   1      -5.890   0.073  -0.126  0.00  0.00    -0.097 F 
ATOM     12  F4  UNL d   1      -4.444  -0.818  -2.261  0.00  0.00    -0.092 F 
ENDROOT
TORSDOF 0
ENDMDL
