MODEL 1
REMARK minimizedAffinity 21.6641006
REMARK minimizedRMSD -1
REMARK  0 active torsions:
REMARK  status: ('A' for Active; 'I' for Inactive)
ROOT
ATOM      1  C   UNL d   1      -2.427   0.013   2.285  0.00  0.00     0.124 A 
ATOM      2  C1  UNL d   1      -2.818   0.690   1.138  0.00  0.00     0.062 A 
ATOM      3  C2  UNL d   1      -3.837   0.181   0.338  0.00  0.00     0.162 A 
ATOM      4  C3  UNL d   1      -4.473  -1.012   0.682  0.00  0.00    -0.034 A 
ATOM      5  C4  UNL d   1      -4.074  -1.688   1.836  0.00  0.00     0.162 A 
ATOM      6  C5  UNL d   1      -3.055  -1.175   2.633  0.00  0.00     0.062 A 
ATOM      7  F   UNL d   1      -2.679  -1.830   3.741  0.00  0.00    -0.097 F 
ATOM      8  F1  UNL d   1      -4.664  -2.837   2.197  0.00  0.00    -0.096 F 
ATOM      9  I   UNL d   1      -5.996  -1.777  -0.512  0.00  0.00    -0.060 I 
ATOM     10  F2  UNL d   1      -4.194   0.856  -0.765  0.00  0.00    -0.096 F 
ATOM     11  F3  UNL d   1      -2.213   1.837   0.799  0.00  0.00    -0.097 F 
ATOM     12  F4  UNL d   1      -1.446   0.504   3.053  0.00  0.00    -0.092 F 
ENDROOT
TORSDOF 0
ENDMDL
