MODEL 1
REMARK minimizedAffinity 9.34544373
REMARK minimizedRMSD -1
REMARK  0 active torsions:
REMARK  status: ('A' for Active; 'I' for Inactive)
ROOT
ATOM      1  C   UNL d   1      -0.822  -4.120  -0.833  0.00  0.00     0.124 A 
ATOM      2  C1  UNL d   1      -0.808  -2.948  -1.577  0.00  0.00     0.062 A 
ATOM      3  C2  UNL d   1      -1.605  -1.871  -1.201  0.00  0.00     0.162 A 
ATOM      4  C3  UNL d   1      -2.424  -1.960  -0.076  0.00  0.00    -0.034 A 
ATOM      5  C4  UNL d   1      -2.434  -3.142   0.666  0.00  0.00     0.162 A 
ATOM      6  C5  UNL d   1      -1.635  -4.216   0.287  0.00  0.00     0.062 A 
ATOM      7  F   UNL d   1      -1.651  -5.347   1.007  0.00  0.00    -0.097 F 
ATOM      8  F1  UNL d   1      -3.210  -3.262   1.754  0.00  0.00    -0.096 F 
ATOM      9  I   UNL d   1      -3.618  -0.352   0.489  0.00  0.00    -0.060 I 
ATOM     10  F2  UNL d   1      -1.571  -0.751  -1.939  0.00  0.00    -0.096 F 
ATOM     11  F3  UNL d   1      -0.024  -2.853  -2.660  0.00  0.00    -0.097 F 
ATOM     12  F4  UNL d   1      -0.054  -5.155  -1.197  0.00  0.00    -0.092 F 
ENDROOT
TORSDOF 0
ENDMDL
