MODEL 1
REMARK minimizedAffinity 25.5324459
REMARK minimizedRMSD -1
REMARK  0 active torsions:
REMARK  status: ('A' for Active; 'I' for Inactive)
ROOT
ATOM      1  C   UNL d   1      -1.291  -5.713   4.676  0.00  0.00     0.124 A 
ATOM      2  C1  UNL d   1      -2.366  -5.637   3.801  0.00  0.00     0.062 A 
ATOM      3  C2  UNL d   1      -2.151  -5.642   2.426  0.00  0.00     0.162 A 
ATOM      4  C3  UNL d   1      -0.855  -5.724   1.917  0.00  0.00    -0.034 A 
ATOM      5  C4  UNL d   1       0.221  -5.800   2.803  0.00  0.00     0.162 A 
ATOM      6  C5  UNL d   1       0.001  -5.794   4.177  0.00  0.00     0.062 A 
ATOM      7  F   UNL d   1       1.040  -5.868   5.020  0.00  0.00    -0.097 F 
ATOM      8  F1  UNL d   1       1.480  -5.880   2.347  0.00  0.00    -0.096 F 
ATOM      9  I   UNL d   1      -0.529  -5.732  -0.139  0.00  0.00    -0.060 I 
ATOM     10  F2  UNL d   1      -3.208  -5.567   1.604  0.00  0.00    -0.096 F 
ATOM     11  F3  UNL d   1      -3.616  -5.557   4.282  0.00  0.00    -0.097 F 
ATOM     12  F4  UNL d   1      -1.501  -5.707   5.999  0.00  0.00    -0.092 F 
ENDROOT
TORSDOF 0
ENDMDL
