MODEL 1
REMARK minimizedAffinity 2.08497763
REMARK minimizedRMSD -1
REMARK  0 active torsions:
REMARK  status: ('A' for Active; 'I' for Inactive)
ROOT
ATOM      1  C   UNL d   1      -2.374   5.760   1.772  0.00  0.00     0.124 A 
ATOM      2  C1  UNL d   1      -2.070   5.846   3.124  0.00  0.00     0.062 A 
ATOM      3  C2  UNL d   1      -3.090   5.873   4.071  0.00  0.00     0.162 A 
ATOM      4  C3  UNL d   1      -4.424   5.815   3.669  0.00  0.00    -0.034 A 
ATOM      5  C4  UNL d   1      -4.722   5.730   2.308  0.00  0.00     0.162 A 
ATOM      6  C5  UNL d   1      -3.699   5.702   1.366  0.00  0.00     0.062 A 
ATOM      7  F   UNL d   1      -3.995   5.620   0.060  0.00  0.00    -0.097 F 
ATOM      8  F1  UNL d   1      -5.995   5.671   1.887  0.00  0.00    -0.096 F 
ATOM      9  I   UNL d   1      -5.952   5.856   5.081  0.00  0.00    -0.060 I 
ATOM     10  F2  UNL d   1      -2.767   5.956   5.370  0.00  0.00    -0.096 F 
ATOM     11  F3  UNL d   1      -0.790   5.903   3.519  0.00  0.00    -0.097 F 
ATOM     12  F4  UNL d   1      -1.390   5.735   0.864  0.00  0.00    -0.092 F 
ENDROOT
TORSDOF 0
ENDMDL
