MODEL 1
REMARK minimizedAffinity 12.4844198
REMARK minimizedRMSD -1
REMARK  0 active torsions:
REMARK  status: ('A' for Active; 'I' for Inactive)
ROOT
ATOM      1  N1  IND d   1       3.600  -5.230   5.650  0.00  0.00    -0.196 N 
ATOM      2  C2  IND d   1       4.711  -5.992   5.882  0.00  0.00     0.054 A 
ATOM      3  C3  IND d   1       5.807  -5.208   5.981  0.00  0.00    -0.031 A 
ATOM      4  C4  IND d   1       5.995  -2.642   5.896  0.00  0.00     0.051 A 
ATOM      5  C5  IND d   1       5.257  -1.514   5.667  0.00  0.00    -0.031 A 
ATOM      6  C6  IND d   1       3.900  -1.569   5.418  0.00  0.00     0.015 A 
ATOM      7  C7  IND d   1       3.227  -2.758   5.401  0.00  0.00    -0.016 A 
ATOM      8  C8  IND d   1       3.975  -3.905   5.626  0.00  0.00    -0.047 A 
ATOM      9  C9  IND d   1       5.359  -3.859   5.836  0.00  0.00    -0.096 A 
ATOM     10  HN1 IND d   1       2.801  -5.529   5.538  0.00  0.00     0.298 HD
ENDROOT
TORSDOF 0
ENDMDL
