MODEL 1
REMARK minimizedAffinity 16.3014393
REMARK minimizedRMSD -1
REMARK  0 active torsions:
REMARK  status: ('A' for Active; 'I' for Inactive)
ROOT
ATOM      1  N1  IND d   1       3.757  -5.100   5.603  0.00  0.00    -0.196 N 
ATOM      2  C2  IND d   1       4.902  -5.765   5.943  0.00  0.00     0.054 A 
ATOM      3  C3  IND d   1       5.950  -4.912   5.976  0.00  0.00    -0.031 A 
ATOM      4  C4  IND d   1       5.999  -2.365   5.604  0.00  0.00     0.051 A 
ATOM      5  C5  IND d   1       5.206  -1.316   5.232  0.00  0.00    -0.031 A 
ATOM      6  C6  IND d   1       3.862  -1.476   4.963  0.00  0.00     0.015 A 
ATOM      7  C7  IND d   1       3.256  -2.696   5.066  0.00  0.00    -0.016 A 
ATOM      8  C8  IND d   1       4.059  -3.766   5.436  0.00  0.00    -0.047 A 
ATOM      9  C9  IND d   1       5.432  -3.617   5.669  0.00  0.00    -0.096 A 
ATOM     10  HN1 IND d   1       2.980  -5.454   5.508  0.00  0.00     0.298 HD
ENDROOT
TORSDOF 0
ENDMDL
