MODEL 1
REMARK minimizedAffinity 2.23873019
REMARK minimizedRMSD -1
REMARK  0 active torsions:
REMARK  status: ('A' for Active; 'I' for Inactive)
ROOT
ATOM      1  N1  IND d   1      -3.483   2.438   5.505  0.00  0.00    -0.196 N 
ATOM      2  C2  IND d   1      -4.761   2.880   5.702  0.00  0.00     0.054 A 
ATOM      3  C3  IND d   1      -4.767   4.210   5.947  0.00  0.00    -0.031 A 
ATOM      4  C4  IND d   1      -2.804   5.876   5.973  0.00  0.00     0.051 A 
ATOM      5  C5  IND d   1      -1.442   5.937   5.884  0.00  0.00    -0.031 A 
ATOM      6  C6  IND d   1      -0.675   4.813   5.657  0.00  0.00     0.015 A 
ATOM      7  C7  IND d   1      -1.245   3.581   5.498  0.00  0.00    -0.016 A 
ATOM      8  C8  IND d   1      -2.628   3.514   5.595  0.00  0.00    -0.047 A 
ATOM      9  C9  IND d   1      -3.408   4.645   5.868  0.00  0.00    -0.096 A 
ATOM     10  HN1 IND d   1      -3.252   1.624   5.351  0.00  0.00     0.298 HD
ENDROOT
TORSDOF 0
ENDMDL
