MODEL 1
REMARK minimizedAffinity 5.85402346
REMARK minimizedRMSD -1
REMARK  0 active torsions:
REMARK  status: ('A' for Active; 'I' for Inactive)
ROOT
ATOM      1  N1  IND d   1       0.599  -2.267   0.876  0.00  0.00    -0.196 N 
ATOM      2  C2  IND d   1       0.859  -1.149   1.618  0.00  0.00     0.054 A 
ATOM      3  C3  IND d   1       2.123  -1.184   2.095  0.00  0.00    -0.031 A 
ATOM      4  C4  IND d   1       3.973  -2.930   1.699  0.00  0.00     0.051 A 
ATOM      5  C5  IND d   1       4.199  -4.147   1.119  0.00  0.00    -0.031 A 
ATOM      6  C6  IND d   1       3.218  -4.811   0.412  0.00  0.00     0.015 A 
ATOM      7  C7  IND d   1       1.972  -4.276   0.248  0.00  0.00    -0.016 A 
ATOM      8  C8  IND d   1       1.736  -3.044   0.841  0.00  0.00    -0.047 A 
ATOM      9  C9  IND d   1       2.715  -2.385   1.596  0.00  0.00    -0.096 A 
ATOM     10  HN1 IND d   1      -0.149  -2.454   0.495  0.00  0.00     0.298 HD
ENDROOT
TORSDOF 0
ENDMDL
