MODEL 1
REMARK minimizedAffinity 19.9868698
REMARK minimizedRMSD -1
REMARK  0 active torsions:
REMARK  status: ('A' for Active; 'I' for Inactive)
ROOT
ATOM      1  N1  IND d   1      -3.777  -1.493  -1.437  0.00  0.00    -0.196 N 
ATOM      2  C2  IND d   1      -3.653  -0.201  -1.009  0.00  0.00     0.054 A 
ATOM      3  C3  IND d   1      -4.273   0.640  -1.868  0.00  0.00    -0.031 A 
ATOM      4  C4  IND d   1      -5.638   0.104  -3.984  0.00  0.00     0.051 A 
ATOM      5  C5  IND d   1      -6.000  -0.933  -4.798  0.00  0.00    -0.031 A 
ATOM      6  C6  IND d   1      -5.635  -2.235  -4.526  0.00  0.00     0.015 A 
ATOM      7  C7  IND d   1      -4.900  -2.553  -3.419  0.00  0.00    -0.016 A 
ATOM      8  C8  IND d   1      -4.524  -1.502  -2.594  0.00  0.00    -0.047 A 
ATOM      9  C9  IND d   1      -4.855  -0.173  -2.888  0.00  0.00    -0.096 A 
ATOM     10  HN1 IND d   1      -3.443  -2.184  -1.049  0.00  0.00     0.298 HD
ENDROOT
TORSDOF 0
ENDMDL
