MODEL 1
REMARK minimizedAffinity 7.87155676
REMARK minimizedRMSD -1
REMARK  0 active torsions:
REMARK  status: ('A' for Active; 'I' for Inactive)
ROOT
ATOM      1  N1  IND d   1       4.085  -1.335   4.815  0.00  0.00    -0.196 N 
ATOM      2  C2  IND d   1       5.146  -2.082   4.384  0.00  0.00     0.054 A 
ATOM      3  C3  IND d   1       4.912  -2.557   3.140  0.00  0.00    -0.031 A 
ATOM      4  C4  IND d   1       2.901  -2.151   1.585  0.00  0.00     0.051 A 
ATOM      5  C5  IND d   1       1.667  -1.565   1.551  0.00  0.00    -0.031 A 
ATOM      6  C6  IND d   1       1.167  -0.856   2.625  0.00  0.00     0.015 A 
ATOM      7  C7  IND d   1       1.890  -0.696   3.772  0.00  0.00    -0.016 A 
ATOM      8  C8  IND d   1       3.141  -1.296   3.813  0.00  0.00    -0.047 A 
ATOM      9  C9  IND d   1       3.636  -2.052   2.743  0.00  0.00    -0.096 A 
ATOM     10  HN1 IND d   1       4.019  -0.955   5.583  0.00  0.00     0.298 HD
ENDROOT
TORSDOF 0
ENDMDL
