MODEL 1
REMARK minimizedAffinity 8.50320244
REMARK minimizedRMSD -1
REMARK  0 active torsions:
REMARK  status: ('A' for Active; 'I' for Inactive)
ROOT
ATOM      1  N1  IND d   1       1.457  -2.843  -0.716  0.00  0.00    -0.196 N 
ATOM      2  C2  IND d   1       2.823  -2.857  -0.650  0.00  0.00     0.054 A 
ATOM      3  C3  IND d   1       3.245  -2.248   0.481  0.00  0.00    -0.031 A 
ATOM      4  C4  IND d   1       1.867  -1.248   2.412  0.00  0.00     0.051 A 
ATOM      5  C5  IND d   1       0.583  -0.968   2.787  0.00  0.00    -0.031 A 
ATOM      6  C6  IND d   1      -0.497  -1.308   1.999  0.00  0.00     0.015 A 
ATOM      7  C7  IND d   1      -0.334  -1.954   0.806  0.00  0.00    -0.016 A 
ATOM      8  C8  IND d   1       0.969  -2.233   0.419  0.00  0.00    -0.047 A 
ATOM      9  C9  IND d   1       2.072  -1.853   1.194  0.00  0.00    -0.096 A 
ATOM     10  HN1 IND d   1       0.983  -3.161  -1.359  0.00  0.00     0.298 HD
ENDROOT
TORSDOF 0
ENDMDL
