MODEL 1
REMARK minimizedAffinity 14.4461308
REMARK minimizedRMSD -1
REMARK  0 active torsions:
REMARK  status: ('A' for Active; 'I' for Inactive)
ROOT
ATOM      1  O1  BZF d   1       1.811   1.004  -4.486  0.00  0.00    -0.204 OA
ATOM      2  C2  BZF d   1       1.014   1.263  -5.584  0.00  0.00     0.174 A 
ATOM      3  C3  BZF d   1      -0.176   1.771  -5.202  0.00  0.00    -0.012 A 
ATOM      4  C3A BZF d   1      -0.083   1.919  -3.782  0.00  0.00    -0.107 A 
ATOM      5  C4  BZF d   1      -0.941   2.389  -2.829  0.00  0.00     0.055 A 
ATOM      6  C5  BZF d   1      -0.573   2.331  -1.522  0.00  0.00    -0.016 A 
ATOM      7  C6  BZF d   1       0.642   1.805  -1.133  0.00  0.00     0.022 A 
ATOM      8  C7  BZF d   1       1.528   1.331  -2.042  0.00  0.00     0.029 A 
ATOM      9  C7A BZF d   1       1.173   1.419  -3.366  0.00  0.00     0.058 A 
ENDROOT
TORSDOF 0
ENDMDL
