MODEL 1
REMARK minimizedAffinity 21.6170101
REMARK minimizedRMSD -1
REMARK  0 active torsions:
REMARK  status: ('A' for Active; 'I' for Inactive)
ROOT
ATOM      1  O1  BZF d   1      -3.589   2.083   1.991  0.00  0.00    -0.204 OA
ATOM      2  C2  BZF d   1      -3.669   2.590   0.708  0.00  0.00     0.174 A 
ATOM      3  C3  BZF d   1      -2.478   2.500   0.083  0.00  0.00    -0.012 A 
ATOM      4  C3A BZF d   1      -1.621   1.815   1.001  0.00  0.00    -0.107 A 
ATOM      5  C4  BZF d   1      -0.317   1.413   0.948  0.00  0.00     0.055 A 
ATOM      6  C5  BZF d   1       0.240   0.832   2.042  0.00  0.00    -0.016 A 
ATOM      7  C6  BZF d   1      -0.474   0.643   3.207  0.00  0.00     0.022 A 
ATOM      8  C7  BZF d   1      -1.772   1.020   3.306  0.00  0.00     0.029 A 
ATOM      9  C7A BZF d   1      -2.348   1.577   2.191  0.00  0.00     0.058 A 
ENDROOT
TORSDOF 0
ENDMDL
