MODEL 1
REMARK minimizedAffinity 10.729598
REMARK minimizedRMSD -1
REMARK  0 active torsions:
REMARK  status: ('A' for Active; 'I' for Inactive)
ROOT
ATOM      1  O1  BZF d   1      -4.517   3.777  -5.264  0.00  0.00    -0.204 OA
ATOM      2  C2  BZF d   1      -4.365   2.408  -5.155  0.00  0.00     0.174 A 
ATOM      3  C3  BZF d   1      -3.092   2.091  -4.841  0.00  0.00    -0.012 A 
ATOM      4  C3A BZF d   1      -2.427   3.344  -4.657  0.00  0.00    -0.107 A 
ATOM      5  C4  BZF d   1      -1.150   3.688  -4.317  0.00  0.00     0.055 A 
ATOM      6  C5  BZF d   1      -0.804   5.002  -4.293  0.00  0.00    -0.016 A 
ATOM      7  C6  BZF d   1      -1.706   5.996  -4.608  0.00  0.00     0.022 A 
ATOM      8  C7  BZF d   1      -2.986   5.704  -4.947  0.00  0.00     0.029 A 
ATOM      9  C7A BZF d   1      -3.348   4.379  -4.939  0.00  0.00     0.058 A 
ENDROOT
TORSDOF 0
ENDMDL
