MODEL 1
REMARK minimizedAffinity 7.37047243
REMARK minimizedRMSD -1
REMARK  0 active torsions:
REMARK  status: ('A' for Active; 'I' for Inactive)
ROOT
ATOM      1  O1  BZF d   1      -3.773   2.335  -4.733  0.00  0.00    -0.204 OA
ATOM      2  C2  BZF d   1      -4.869   2.513  -5.556  0.00  0.00     0.174 A 
ATOM      3  C3  BZF d   1      -4.933   3.784  -6.000  0.00  0.00    -0.012 A 
ATOM      4  C3A BZF d   1      -3.755   4.419  -5.493  0.00  0.00    -0.107 A 
ATOM      5  C4  BZF d   1      -3.246   5.682  -5.607  0.00  0.00     0.055 A 
ATOM      6  C5  BZF d   1      -2.112   6.000  -4.929  0.00  0.00    -0.016 A 
ATOM      7  C6  BZF d   1      -1.465   5.084  -4.125  0.00  0.00     0.022 A 
ATOM      8  C7  BZF d   1      -1.929   3.818  -3.985  0.00  0.00     0.029 A 
ATOM      9  C7A BZF d   1      -3.057   3.484  -4.695  0.00  0.00     0.058 A 
ENDROOT
TORSDOF 0
ENDMDL
