MODEL 1
REMARK minimizedAffinity 16.6469383
REMARK minimizedRMSD -1
REMARK  0 active torsions:
REMARK  status: ('A' for Active; 'I' for Inactive)
ROOT
ATOM      1  O1  BZF d   1      -0.520   2.064  -0.124  0.00  0.00    -0.204 OA
ATOM      2  C2  BZF d   1      -1.834   2.416  -0.362  0.00  0.00     0.174 A 
ATOM      3  C3  BZF d   1      -2.638   1.954   0.618  0.00  0.00    -0.012 A 
ATOM      4  C3A BZF d   1      -1.759   1.350   1.572  0.00  0.00    -0.107 A 
ATOM      5  C4  BZF d   1      -1.960   0.728   2.771  0.00  0.00     0.055 A 
ATOM      6  C5  BZF d   1      -0.896   0.183   3.419  0.00  0.00    -0.016 A 
ATOM      7  C6  BZF d   1       0.378   0.237   2.894  0.00  0.00     0.022 A 
ATOM      8  C7  BZF d   1       0.628   0.847   1.710  0.00  0.00     0.029 A 
ATOM      9  C7A BZF d   1      -0.440   1.428   1.069  0.00  0.00     0.058 A 
ENDROOT
TORSDOF 0
ENDMDL
