MODEL 1
REMARK minimizedAffinity 20.811758
REMARK minimizedRMSD -1
REMARK  0 active torsions:
REMARK  status: ('A' for Active; 'I' for Inactive)
ROOT
ATOM      1  O1  BZF d   1      -5.065   4.280   1.706  0.00  0.00    -0.204 OA
ATOM      2  C2  BZF d   1      -4.975   5.588   1.271  0.00  0.00     0.174 A 
ATOM      3  C3  BZF d   1      -3.894   5.756   0.481  0.00  0.00    -0.012 A 
ATOM      4  C3A BZF d   1      -3.322   4.452   0.344  0.00  0.00    -0.107 A 
ATOM      5  C4  BZF d   1      -2.239   3.969  -0.334  0.00  0.00     0.055 A 
ATOM      6  C5  BZF d   1      -1.909   2.657  -0.201  0.00  0.00    -0.016 A 
ATOM      7  C6  BZF d   1      -2.635   1.803   0.603  0.00  0.00     0.022 A 
ATOM      8  C7  BZF d   1      -3.720   2.236   1.291  0.00  0.00     0.029 A 
ATOM      9  C7A BZF d   1      -4.075   3.553   1.133  0.00  0.00     0.058 A 
ENDROOT
TORSDOF 0
ENDMDL
