MODEL 1
REMARK minimizedAffinity 21.2670307
REMARK minimizedRMSD -1
REMARK  0 active torsions:
REMARK  status: ('A' for Active; 'I' for Inactive)
ROOT
ATOM      1  O1  BZF d   1      -1.879   0.480   4.501  0.00  0.00    -0.204 OA
ATOM      2  C2  BZF d   1      -0.744   0.709   3.747  0.00  0.00     0.174 A 
ATOM      3  C3  BZF d   1       0.042  -0.385   3.721  0.00  0.00    -0.012 A 
ATOM      4  C3A BZF d   1      -0.688  -1.391   4.431  0.00  0.00    -0.107 A 
ATOM      5  C4  BZF d   1      -0.435  -2.699   4.730  0.00  0.00     0.055 A 
ATOM      6  C5  BZF d   1      -1.320  -3.382   5.502  0.00  0.00    -0.016 A 
ATOM      7  C6  BZF d   1      -2.463  -2.788   5.996  0.00  0.00     0.022 A 
ATOM      8  C7  BZF d   1      -2.759  -1.494   5.722  0.00  0.00     0.029 A 
ATOM      9  C7A BZF d   1      -1.883  -0.810   4.914  0.00  0.00     0.058 A 
ENDROOT
TORSDOF 0
ENDMDL
