MODEL 1
REMARK minimizedAffinity 2.06463647
REMARK minimizedRMSD -1
REMARK  0 active torsions:
REMARK  status: ('A' for Active; 'I' for Inactive)
ROOT
ATOM      1  O1  BZF d   1      -4.698   3.430  -5.269  0.00  0.00    -0.204 OA
ATOM      2  C2  BZF d   1      -4.405   2.134  -4.892  0.00  0.00     0.174 A 
ATOM      3  C3  BZF d   1      -3.098   2.009  -4.583  0.00  0.00    -0.012 A 
ATOM      4  C3A BZF d   1      -2.558   3.330  -4.691  0.00  0.00    -0.107 A 
ATOM      5  C4  BZF d   1      -1.313   3.855  -4.492  0.00  0.00     0.055 A 
ATOM      6  C5  BZF d   1      -1.101   5.171  -4.755  0.00  0.00    -0.016 A 
ATOM      7  C6  BZF d   1      -2.109   5.990  -5.221  0.00  0.00     0.022 A 
ATOM      8  C7  BZF d   1      -3.362   5.516  -5.429  0.00  0.00     0.029 A 
ATOM      9  C7A BZF d   1      -3.587   4.193  -5.133  0.00  0.00     0.058 A 
ENDROOT
TORSDOF 0
ENDMDL
