MODEL 1
REMARK minimizedAffinity 4.46894407
REMARK minimizedRMSD -1
REMARK  0 active torsions:
REMARK  status: ('A' for Active; 'I' for Inactive)
ROOT
ATOM      1  O1  BZF d   1      -5.143   2.876  -6.000  0.00  0.00    -0.204 OA
ATOM      2  C2  BZF d   1      -4.804   1.593  -5.616  0.00  0.00     0.174 A 
ATOM      3  C3  BZF d   1      -3.543   1.554  -5.140  0.00  0.00    -0.012 A 
ATOM      4  C3A BZF d   1      -3.097   2.914  -5.144  0.00  0.00    -0.107 A 
ATOM      5  C4  BZF d   1      -1.932   3.521  -4.769  0.00  0.00     0.055 A 
ATOM      6  C5  BZF d   1      -1.790   4.857  -4.971  0.00  0.00    -0.016 A 
ATOM      7  C6  BZF d   1      -2.788   5.615  -5.548  0.00  0.00     0.022 A 
ATOM      8  C7  BZF d   1      -3.962   5.058  -5.932  0.00  0.00     0.029 A 
ATOM      9  C7A BZF d   1      -4.122   3.714  -5.699  0.00  0.00     0.058 A 
ENDROOT
TORSDOF 0
ENDMDL
