MODEL 1
REMARK minimizedAffinity 16.326334
REMARK minimizedRMSD -1
REMARK  0 active torsions:
REMARK  status: ('A' for Active; 'I' for Inactive)
ROOT
ATOM      1  O1  BZF d   1       0.824  -3.403  -0.398  0.00  0.00    -0.204 OA
ATOM      2  C2  BZF d   1       1.497  -2.626   0.524  0.00  0.00     0.174 A 
ATOM      3  C3  BZF d   1       2.785  -3.013   0.626  0.00  0.00    -0.012 A 
ATOM      4  C3A BZF d   1       2.949  -4.040  -0.356  0.00  0.00    -0.107 A 
ATOM      5  C4  BZF d   1       4.010  -4.804  -0.748  0.00  0.00     0.055 A 
ATOM      6  C5  BZF d   1       3.819  -5.769  -1.686  0.00  0.00    -0.016 A 
ATOM      7  C6  BZF d   1       2.581  -5.999  -2.249  0.00  0.00     0.022 A 
ATOM      8  C7  BZF d   1       1.499  -5.263  -1.896  0.00  0.00     0.029 A 
ATOM      9  C7A BZF d   1       1.696  -4.266  -0.973  0.00  0.00     0.058 A 
ENDROOT
TORSDOF 0
ENDMDL
