MODEL 1
REMARK minimizedAffinity 0.657207012
REMARK minimizedRMSD -1
REMARK  0 active torsions:
REMARK  status: ('A' for Active; 'I' for Inactive)
ROOT
ATOM      1  O1  BZF d   1      -3.494   2.115  -5.250  0.00  0.00    -0.204 OA
ATOM      2  C2  BZF d   1      -4.803   2.141  -5.690  0.00  0.00     0.174 A 
ATOM      3  C3  BZF d   1      -5.179   3.399  -5.999  0.00  0.00    -0.012 A 
ATOM      4  C3A BZF d   1      -4.004   4.197  -5.823  0.00  0.00    -0.107 A 
ATOM      5  C4  BZF d   1      -3.738   5.526  -5.991  0.00  0.00     0.055 A 
ATOM      6  C5  BZF d   1      -2.507   5.999  -5.662  0.00  0.00    -0.016 A 
ATOM      7  C6  BZF d   1      -1.522   5.174  -5.160  0.00  0.00     0.022 A 
ATOM      8  C7  BZF d   1      -1.738   3.848  -4.981  0.00  0.00     0.029 A 
ATOM      9  C7A BZF d   1      -2.970   3.361  -5.343  0.00  0.00     0.058 A 
ENDROOT
TORSDOF 0
ENDMDL
