MODEL 1
REMARK minimizedAffinity -0.150379419
REMARK minimizedRMSD -1
REMARK  0 active torsions:
REMARK  status: ('A' for Active; 'I' for Inactive)
ROOT
ATOM      1  O1  BZF d   1      -5.683   4.504  -5.985  0.00  0.00    -0.204 OA
ATOM      2  C2  BZF d   1      -5.918   3.151  -5.839  0.00  0.00     0.174 A 
ATOM      3  C3  BZF d   1      -4.866   2.543  -5.253  0.00  0.00    -0.012 A 
ATOM      4  C3A BZF d   1      -3.952   3.596  -4.935  0.00  0.00    -0.107 A 
ATOM      5  C4  BZF d   1      -2.730   3.627  -4.326  0.00  0.00     0.055 A 
ATOM      6  C5  BZF d   1      -2.067   4.809  -4.235  0.00  0.00    -0.016 A 
ATOM      7  C6  BZF d   1      -2.593   5.978  -4.744  0.00  0.00     0.022 A 
ATOM      8  C7  BZF d   1      -3.805   5.999  -5.352  0.00  0.00     0.029 A 
ATOM      9  C7A BZF d   1      -4.492   4.811  -5.417  0.00  0.00     0.058 A 
ENDROOT
TORSDOF 0
ENDMDL
