MODEL 1
REMARK minimizedAffinity 4.55489779
REMARK minimizedRMSD -1
REMARK  0 active torsions:
REMARK  status: ('A' for Active; 'I' for Inactive)
ROOT
ATOM      1  O1  BZF d   1      -1.371   4.728  -3.573  0.00  0.00    -0.204 OA
ATOM      2  C2  BZF d   1      -1.479   5.994  -4.116  0.00  0.00     0.174 A 
ATOM      3  C3  BZF d   1      -2.347   6.000  -5.148  0.00  0.00    -0.012 A 
ATOM      4  C3A BZF d   1      -2.880   4.673  -5.199  0.00  0.00    -0.107 A 
ATOM      5  C4  BZF d   1      -3.802   4.061  -6.000  0.00  0.00     0.055 A 
ATOM      6  C5  BZF d   1      -4.044   2.734  -5.834  0.00  0.00    -0.016 A 
ATOM      7  C6  BZF d   1      -3.381   1.988  -4.882  0.00  0.00     0.022 A 
ATOM      8  C7  BZF d   1      -2.462   2.552  -4.060  0.00  0.00     0.029 A 
ATOM      9  C7A BZF d   1      -2.239   3.900  -4.203  0.00  0.00     0.058 A 
ENDROOT
TORSDOF 0
ENDMDL
