MODEL 1
REMARK minimizedAffinity 9.6477232
REMARK minimizedRMSD -1
REMARK  0 active torsions:
REMARK  status: ('A' for Active; 'I' for Inactive)
ROOT
ATOM      1  O1  BZF d   1      -5.428  -3.003   5.998  0.00  0.00    -0.204 OA
ATOM      2  C2  BZF d   1      -5.941  -4.135   5.394  0.00  0.00     0.174 A 
ATOM      3  C3  BZF d   1      -5.009  -4.729   4.621  0.00  0.00    -0.012 A 
ATOM      4  C3A BZF d   1      -3.813  -3.969   4.823  0.00  0.00    -0.107 A 
ATOM      5  C4  BZF d   1      -2.541  -4.076   4.339  0.00  0.00     0.055 A 
ATOM      6  C5  BZF d   1      -1.625  -3.130   4.674  0.00  0.00    -0.016 A 
ATOM      7  C6  BZF d   1      -1.948  -2.062   5.486  0.00  0.00     0.022 A 
ATOM      8  C7  BZF d   1      -3.196  -1.917   5.995  0.00  0.00     0.029 A 
ATOM      9  C7A BZF d   1      -4.115  -2.889   5.684  0.00  0.00     0.058 A 
ENDROOT
TORSDOF 0
ENDMDL
