MODEL 1
REMARK minimizedAffinity 15.0063953
REMARK minimizedRMSD -1
REMARK  0 active torsions:
REMARK  status: ('A' for Active; 'I' for Inactive)
ROOT
ATOM      1  O1  BZF d   1      -0.668  -4.697   4.955  0.00  0.00    -0.204 OA
ATOM      2  C2  BZF d   1       0.544  -4.396   5.545  0.00  0.00     0.174 A 
ATOM      3  C3  BZF d   1       0.552  -3.126   6.000  0.00  0.00    -0.012 A 
ATOM      4  C3A BZF d   1      -0.767  -2.630   5.755  0.00  0.00    -0.107 A 
ATOM      5  C4  BZF d   1      -1.381  -1.435   6.000  0.00  0.00     0.055 A 
ATOM      6  C5  BZF d   1      -2.657  -1.248   5.571  0.00  0.00    -0.016 A 
ATOM      7  C6  BZF d   1      -3.346  -2.231   4.890  0.00  0.00     0.022 A 
ATOM      8  C7  BZF d   1      -2.780  -3.434   4.628  0.00  0.00     0.029 A 
ATOM      9  C7A BZF d   1      -1.502  -3.638   5.089  0.00  0.00     0.058 A 
ENDROOT
TORSDOF 0
ENDMDL
