MODEL 1
REMARK minimizedAffinity 2.09131575
REMARK minimizedRMSD -1
REMARK  0 active torsions:
REMARK  status: ('A' for Active; 'I' for Inactive)
ROOT
ATOM      1  O1  BZF d   1      -4.039   1.953  -5.114  0.00  0.00    -0.204 OA
ATOM      2  C2  BZF d   1      -5.310   1.841  -5.643  0.00  0.00     0.174 A 
ATOM      3  C3  BZF d   1      -5.789   3.051  -5.997  0.00  0.00    -0.012 A 
ATOM      4  C3A BZF d   1      -4.715   3.966  -5.755  0.00  0.00    -0.107 A 
ATOM      5  C4  BZF d   1      -4.573   5.313  -5.926  0.00  0.00     0.055 A 
ATOM      6  C5  BZF d   1      -3.422   5.913  -5.523  0.00  0.00    -0.016 A 
ATOM      7  C6  BZF d   1      -2.396   5.197  -4.941  0.00  0.00     0.022 A 
ATOM      8  C7  BZF d   1      -2.489   3.858  -4.756  0.00  0.00     0.029 A 
ATOM      9  C7A BZF d   1      -3.637   3.244  -5.192  0.00  0.00     0.058 A 
ENDROOT
TORSDOF 0
ENDMDL
