MODEL 1
REMARK minimizedAffinity -0.600970685
REMARK minimizedRMSD -1
REMARK  0 active torsions:
REMARK  status: ('A' for Active; 'I' for Inactive)
ROOT
ATOM      1  C1  DEN d   1      -0.868  -1.759   1.504  0.00  0.00     0.130 A 
ATOM      2  C2  DEN d   1      -1.259  -0.968   2.668  0.00  0.00    -0.031 A 
ATOM      3  C3  DEN d   1      -0.348   0.190   2.759  0.00  0.00     0.027 A 
ATOM      4  C4  DEN d   1       1.616   0.836   1.217  0.00  0.00     0.027 A 
ATOM      5  C5  DEN d   1       2.338   0.465   0.104  0.00  0.00    -0.003 A 
ATOM      6  C6  DEN d   1       2.066  -0.682  -0.594  0.00  0.00     0.001 A 
ATOM      7  C7  DEN d   1       1.017  -1.475  -0.214  0.00  0.00     0.017 A 
ATOM      8  C8  DEN d   1       0.289  -1.112   0.912  0.00  0.00    -0.094 A 
ATOM      9  C9  DEN d   1       0.571   0.057   1.597  0.00  0.00    -0.072 A 
ENDROOT
TORSDOF 0
ENDMDL
