MODEL 1
REMARK minimizedAffinity 0.468503326
REMARK minimizedRMSD -1
REMARK  0 active torsions:
REMARK  status: ('A' for Active; 'I' for Inactive)
ROOT
ATOM      1  C1  DEN d   1       4.344  -0.885  -2.398  0.00  0.00     0.130 A 
ATOM      2  C2  DEN d   1       4.846   0.444  -2.735  0.00  0.00    -0.031 A 
ATOM      3  C3  DEN d   1       3.959   1.442  -2.104  0.00  0.00     0.027 A 
ATOM      4  C4  DEN d   1       1.870   1.060  -0.640  0.00  0.00     0.027 A 
ATOM      5  C5  DEN d   1       1.047   0.104  -0.087  0.00  0.00    -0.003 A 
ATOM      6  C6  DEN d   1       1.243  -1.236  -0.292  0.00  0.00     0.001 A 
ATOM      7  C7  DEN d   1       2.314  -1.660  -1.032  0.00  0.00     0.017 A 
ATOM      8  C8  DEN d   1       3.145  -0.702  -1.599  0.00  0.00    -0.094 A 
ATOM      9  C9  DEN d   1       2.937   0.648  -1.371  0.00  0.00    -0.072 A 
ENDROOT
TORSDOF 0
ENDMDL
