MODEL 1
REMARK minimizedAffinity -0.838110447
REMARK minimizedRMSD -1
REMARK  0 active torsions:
REMARK  status: ('A' for Active; 'I' for Inactive)
ROOT
ATOM      1  C1  DEN d   1       0.841   0.534   0.768  0.00  0.00     0.130 A 
ATOM      2  C2  DEN d   1       0.408  -0.672   1.469  0.00  0.00    -0.031 A 
ATOM      3  C3  DEN d   1       1.163  -1.816   0.919  0.00  0.00     0.027 A 
ATOM      4  C4  DEN d   1       2.954  -1.836  -0.937  0.00  0.00     0.027 A 
ATOM      5  C5  DEN d   1       3.647  -1.056  -1.836  0.00  0.00    -0.003 A 
ATOM      6  C6  DEN d   1       3.431   0.291  -1.954  0.00  0.00     0.001 A 
ATOM      7  C7  DEN d   1       2.530   0.908  -1.126  0.00  0.00     0.017 A 
ATOM      8  C8  DEN d   1       1.822   0.128  -0.222  0.00  0.00    -0.094 A 
ATOM      9  C9  DEN d   1       2.064  -1.231  -0.110  0.00  0.00    -0.072 A 
ENDROOT
TORSDOF 0
ENDMDL
