MODEL 1
REMARK minimizedAffinity 2.21224999
REMARK minimizedRMSD -1
REMARK  0 active torsions:
REMARK  status: ('A' for Active; 'I' for Inactive)
ROOT
ATOM      1  C1  DEN d   1       4.065  -0.219  -1.047  0.00  0.00     0.130 A 
ATOM      2  C2  DEN d   1       4.108  -1.605  -1.505  0.00  0.00    -0.031 A 
ATOM      3  C3  DEN d   1       2.857  -2.265  -1.081  0.00  0.00     0.027 A 
ATOM      4  C4  DEN d   1       0.865  -1.279   0.228  0.00  0.00     0.027 A 
ATOM      5  C5  DEN d   1       0.376  -0.148   0.843  0.00  0.00    -0.003 A 
ATOM      6  C6  DEN d   1       1.090   1.020   0.900  0.00  0.00     0.001 A 
ATOM      7  C7  DEN d   1       2.316   1.096   0.293  0.00  0.00     0.017 A 
ATOM      8  C8  DEN d   1       2.819  -0.043  -0.323  0.00  0.00    -0.094 A 
ATOM      9  C9  DEN d   1       2.076  -1.209  -0.381  0.00  0.00    -0.072 A 
ENDROOT
TORSDOF 0
ENDMDL
