MODEL 1
REMARK minimizedAffinity -0.0227814037
REMARK minimizedRMSD -1
REMARK  0 active torsions:
REMARK  status: ('A' for Active; 'I' for Inactive)
ROOT
ATOM      1  C1  DEN d   1       4.737  -1.144  -2.057  0.00  0.00     0.130 A 
ATOM      2  C2  DEN d   1       5.205   0.150  -2.545  0.00  0.00    -0.031 A 
ATOM      3  C3  DEN d   1       4.284   1.188  -2.040  0.00  0.00     0.027 A 
ATOM      4  C4  DEN d   1       2.193   0.918  -0.553  0.00  0.00     0.027 A 
ATOM      5  C5  DEN d   1       1.393   0.009   0.103  0.00  0.00    -0.003 A 
ATOM      6  C6  DEN d   1       1.629  -1.339   0.058  0.00  0.00     0.001 A 
ATOM      7  C7  DEN d   1       2.719  -1.815  -0.622  0.00  0.00     0.017 A 
ATOM      8  C8  DEN d   1       3.527  -0.905  -1.293  0.00  0.00    -0.094 A 
ATOM      9  C9  DEN d   1       3.278   0.455  -1.224  0.00  0.00    -0.072 A 
ENDROOT
TORSDOF 0
ENDMDL
