MODEL 1
REMARK minimizedAffinity 3.26089334
REMARK minimizedRMSD -1
REMARK  0 active torsions:
REMARK  status: ('A' for Active; 'I' for Inactive)
ROOT
ATOM      1  C1  DEN d   1       0.948  -1.194   0.317  0.00  0.00     0.130 A 
ATOM      2  C2  DEN d   1       0.553   0.094   0.880  0.00  0.00    -0.031 A 
ATOM      3  C3  DEN d   1       1.397   1.139   0.266  0.00  0.00     0.027 A 
ATOM      4  C4  DEN d   1       3.265   0.889  -1.494  0.00  0.00     0.027 A 
ATOM      5  C5  DEN d   1       3.968  -0.010  -2.265  0.00  0.00    -0.003 A 
ATOM      6  C6  DEN d   1       3.740  -1.360  -2.204  0.00  0.00     0.001 A 
ATOM      7  C7  DEN d   1       2.752  -1.844  -1.388  0.00  0.00     0.017 A 
ATOM      8  C8  DEN d   1       2.044  -0.944  -0.602  0.00  0.00    -0.094 A 
ATOM      9  C9  DEN d   1       2.282   0.417  -0.687  0.00  0.00    -0.072 A 
ENDROOT
TORSDOF 0
ENDMDL
