MODEL 1
REMARK minimizedAffinity 2.72149682
REMARK minimizedRMSD -1
REMARK  0 active torsions:
REMARK  status: ('A' for Active; 'I' for Inactive)
ROOT
ATOM      1  C1  DEN d   1      -1.540  -1.902   1.418  0.00  0.00     0.130 A 
ATOM      2  C2  DEN d   1      -2.247  -1.043   2.365  0.00  0.00    -0.031 A 
ATOM      3  C3  DEN d   1      -1.372   0.103   2.682  0.00  0.00     0.027 A 
ATOM      4  C4  DEN d   1       0.993   0.632   1.800  0.00  0.00     0.027 A 
ATOM      5  C5  DEN d   1       2.012   0.191   0.985  0.00  0.00    -0.003 A 
ATOM      6  C6  DEN d   1       1.933  -0.987   0.290  0.00  0.00     0.001 A 
ATOM      7  C7  DEN d   1       0.792  -1.741   0.361  0.00  0.00     0.017 A 
ATOM      8  C8  DEN d   1      -0.237  -1.306   1.186  0.00  0.00    -0.094 A 
ATOM      9  C9  DEN d   1      -0.143  -0.107   1.871  0.00  0.00    -0.072 A 
ENDROOT
TORSDOF 0
ENDMDL
