MODEL 1
REMARK minimizedAffinity 2.83227992
REMARK minimizedRMSD -1
REMARK  0 active torsions:
REMARK  status: ('A' for Active; 'I' for Inactive)
ROOT
ATOM      1  C1  DEN d   1       3.412   1.724  -1.528  0.00  0.00     0.130 A 
ATOM      2  C2  DEN d   1       2.704   2.814  -0.864  0.00  0.00    -0.031 A 
ATOM      3  C3  DEN d   1       1.668   2.223   0.006  0.00  0.00     0.027 A 
ATOM      4  C4  DEN d   1       1.099  -0.263   0.392  0.00  0.00     0.027 A 
ATOM      5  C5  DEN d   1       1.419  -1.555   0.041  0.00  0.00    -0.003 A 
ATOM      6  C6  DEN d   1       2.395  -1.842  -0.876  0.00  0.00     0.001 A 
ATOM      7  C7  DEN d   1       3.117  -0.824  -1.440  0.00  0.00     0.017 A 
ATOM      8  C8  DEN d   1       2.795   0.483  -1.096  0.00  0.00    -0.094 A 
ATOM      9  C9  DEN d   1       1.813   0.751  -0.158  0.00  0.00    -0.072 A 
ENDROOT
TORSDOF 0
ENDMDL
