MODEL 1
REMARK minimizedAffinity -0.124300063
REMARK minimizedRMSD -1
REMARK  0 active torsions:
REMARK  status: ('A' for Active; 'I' for Inactive)
ROOT
ATOM      1  C1  DEN d   1       3.129  -1.696  -1.333  0.00  0.00     0.130 A 
ATOM      2  C2  DEN d   1       3.821  -0.818  -2.272  0.00  0.00    -0.031 A 
ATOM      3  C3  DEN d   1       3.380   0.567  -2.011  0.00  0.00     0.027 A 
ATOM      4  C4  DEN d   1       1.706   1.433  -0.250  0.00  0.00     0.027 A 
ATOM      5  C5  DEN d   1       0.854   1.062   0.766  0.00  0.00    -0.003 A 
ATOM      6  C6  DEN d   1       0.676  -0.247   1.129  0.00  0.00     0.001 A 
ATOM      7  C7  DEN d   1       1.394  -1.229   0.499  0.00  0.00     0.017 A 
ATOM      8  C8  DEN d   1       2.250  -0.863  -0.531  0.00  0.00    -0.094 A 
ATOM      9  C9  DEN d   1       2.425   0.467  -0.875  0.00  0.00    -0.072 A 
ENDROOT
TORSDOF 0
ENDMDL
