MODEL 1
REMARK minimizedAffinity -1.32181644
REMARK minimizedRMSD -1
REMARK  0 active torsions:
REMARK  status: ('A' for Active; 'I' for Inactive)
ROOT
ATOM      1  C1  DEN d   1       3.912  -0.922  -2.102  0.00  0.00     0.130 A 
ATOM      2  C2  DEN d   1       4.267   0.427  -2.533  0.00  0.00    -0.031 A 
ATOM      3  C3  DEN d   1       3.472   1.385  -1.739  0.00  0.00     0.027 A 
ATOM      4  C4  DEN d   1       1.739   0.912   0.111  0.00  0.00     0.027 A 
ATOM      5  C5  DEN d   1       1.093  -0.078   0.818  0.00  0.00    -0.003 A 
ATOM      6  C6  DEN d   1       1.314  -1.408   0.579  0.00  0.00     0.001 A 
ATOM      7  C7  DEN d   1       2.238  -1.785  -0.359  0.00  0.00     0.017 A 
ATOM      8  C8  DEN d   1       2.888  -0.792  -1.081  0.00  0.00    -0.094 A 
ATOM      9  C9  DEN d   1       2.659   0.547  -0.816  0.00  0.00    -0.072 A 
ENDROOT
TORSDOF 0
ENDMDL
