MODEL 1
REMARK minimizedAffinity 0.399148047
REMARK minimizedRMSD -1
REMARK  0 active torsions:
REMARK  status: ('A' for Active; 'I' for Inactive)
ROOT
ATOM      1  C1  DEN d   1      -1.585  -1.994   1.390  0.00  0.00     0.130 A 
ATOM      2  C2  DEN d   1      -2.277  -1.077   2.293  0.00  0.00    -0.031 A 
ATOM      3  C3  DEN d   1      -1.376   0.061   2.566  0.00  0.00     0.027 A 
ATOM      4  C4  DEN d   1       1.007   0.494   1.680  0.00  0.00     0.027 A 
ATOM      5  C5  DEN d   1       2.021  -0.008   0.894  0.00  0.00    -0.003 A 
ATOM      6  C6  DEN d   1       1.918  -1.213   0.251  0.00  0.00     0.001 A 
ATOM      7  C7  DEN d   1       0.758  -1.936   0.346  0.00  0.00     0.017 A 
ATOM      8  C8  DEN d   1      -0.265  -1.440   1.143  0.00  0.00    -0.094 A 
ATOM      9  C9  DEN d   1      -0.147  -0.214   1.775  0.00  0.00    -0.072 A 
ENDROOT
TORSDOF 0
ENDMDL
