MODEL 1
REMARK minimizedAffinity 2.72490454
REMARK minimizedRMSD -1
REMARK  0 active torsions:
REMARK  status: ('A' for Active; 'I' for Inactive)
ROOT
ATOM      1  C1  DEN d   1      -0.286  -1.945   1.894  0.00  0.00     0.130 A 
ATOM      2  C2  DEN d   1      -1.312  -1.021   2.368  0.00  0.00    -0.031 A 
ATOM      3  C3  DEN d   1      -0.916   0.345   1.971  0.00  0.00     0.027 A 
ATOM      4  C4  DEN d   1       1.174   1.114   0.670  0.00  0.00     0.027 A 
ATOM      5  C5  DEN d   1       2.339   0.693   0.067  0.00  0.00    -0.003 A 
ATOM      6  C6  DEN d   1       2.724  -0.621   0.060  0.00  0.00     0.001 A 
ATOM      7  C7  DEN d   1       1.915  -1.568   0.629  0.00  0.00     0.017 A 
ATOM      8  C8  DEN d   1       0.743  -1.151   1.246  0.00  0.00    -0.094 A 
ATOM      9  C9  DEN d   1       0.365   0.181   1.231  0.00  0.00    -0.072 A 
ENDROOT
TORSDOF 0
ENDMDL
