MODEL 1
REMARK minimizedAffinity -4.76705551
REMARK minimizedRMSD -1
REMARK  0 active torsions:
REMARK  status: ('A' for Active; 'I' for Inactive)
ROOT
ATOM      1  C1  DEN d   1       1.416   1.228   0.153  0.00  0.00     0.130 A 
ATOM      2  C2  DEN d   1       0.675   0.124   0.756  0.00  0.00    -0.031 A 
ATOM      3  C3  DEN d   1       1.219  -1.139   0.217  0.00  0.00     0.027 A 
ATOM      4  C4  DEN d   1       3.128  -1.489  -1.482  0.00  0.00     0.027 A 
ATOM      5  C5  DEN d   1       4.049  -0.851  -2.282  0.00  0.00    -0.003 A 
ATOM      6  C6  DEN d   1       4.135   0.514  -2.352  0.00  0.00     0.001 A 
ATOM      7  C7  DEN d   1       3.313   1.286  -1.574  0.00  0.00     0.017 A 
ATOM      8  C8  DEN d   1       2.376   0.650  -0.770  0.00  0.00    -0.094 A 
ATOM      9  C9  DEN d   1       2.314  -0.731  -0.704  0.00  0.00    -0.072 A 
ENDROOT
TORSDOF 0
ENDMDL
