MODEL 1
REMARK minimizedAffinity -2.0135622
REMARK minimizedRMSD -1
REMARK  0 active torsions:
REMARK  status: ('A' for Active; 'I' for Inactive)
ROOT
ATOM      1  C1  DEN d   1       0.255  -2.771   1.465  0.00  0.00     0.130 A 
ATOM      2  C2  DEN d   1       1.333  -1.861   1.843  0.00  0.00    -0.031 A 
ATOM      3  C3  DEN d   1       0.732  -0.554   2.175  0.00  0.00     0.027 A 
ATOM      4  C4  DEN d   1      -1.750   0.145   2.146  0.00  0.00     0.027 A 
ATOM      5  C5  DEN d   1      -3.033  -0.280   1.881  0.00  0.00    -0.003 A 
ATOM      6  C6  DEN d   1      -3.305  -1.545   1.431  0.00  0.00     0.001 A 
ATOM      7  C7  DEN d   1      -2.283  -2.444   1.274  0.00  0.00     0.017 A 
ATOM      8  C8  DEN d   1      -0.986  -2.020   1.532  0.00  0.00    -0.094 A 
ATOM      9  C9  DEN d   1      -0.733  -0.741   1.998  0.00  0.00    -0.072 A 
ENDROOT
TORSDOF 0
ENDMDL
