MODEL 1
REMARK minimizedAffinity 11.9985323
REMARK minimizedRMSD -1
REMARK  0 active torsions:
REMARK  status: ('A' for Active; 'I' for Inactive)
ROOT
ATOM      1  N1  IND d   1      -5.364   0.502   3.554  0.00  0.00    -0.196 N 
ATOM      2  C2  IND d   1      -4.981   0.397   4.862  0.00  0.00     0.054 A 
ATOM      3  C3  IND d   1      -3.639   0.259   4.950  0.00  0.00    -0.031 A 
ATOM      4  C4  IND d   1      -1.867   0.280   3.082  0.00  0.00     0.051 A 
ATOM      5  C5  IND d   1      -1.736   0.313   1.722  0.00  0.00    -0.031 A 
ATOM      6  C6  IND d   1      -2.829   0.416   0.886  0.00  0.00     0.015 A 
ATOM      7  C7  IND d   1      -4.100   0.501   1.383  0.00  0.00    -0.016 A 
ATOM      8  C8  IND d   1      -4.237   0.460   2.763  0.00  0.00    -0.047 A 
ATOM      9  C9  IND d   1      -3.134   0.313   3.614  0.00  0.00    -0.096 A 
ATOM     10  HN1 IND d   1      -6.173   0.580   3.273  0.00  0.00     0.298 HD
ENDROOT
TORSDOF 0
ENDMDL
