MODEL 1
REMARK minimizedAffinity 6.1781745
REMARK minimizedRMSD -1
REMARK  0 active torsions:
REMARK  status: ('A' for Active; 'I' for Inactive)
ROOT
ATOM      1  N1  IND d   1      -0.953  -0.409   4.123  0.00  0.00    -0.196 N 
ATOM      2  C2  IND d   1      -1.001   0.404   3.025  0.00  0.00     0.054 A 
ATOM      3  C3  IND d   1      -2.269   0.816   2.800  0.00  0.00    -0.031 A 
ATOM      4  C4  IND d   1      -4.404   0.360   4.164  0.00  0.00     0.051 A 
ATOM      5  C5  IND d   1      -4.868  -0.358   5.230  0.00  0.00    -0.031 A 
ATOM      6  C6  IND d   1      -4.034  -1.144   5.999  0.00  0.00     0.015 A 
ATOM      7  C7  IND d   1      -2.696  -1.231   5.736  0.00  0.00    -0.016 A 
ATOM      8  C8  IND d   1      -2.222  -0.509   4.650  0.00  0.00    -0.047 A 
ATOM      9  C9  IND d   1      -3.072   0.256   3.840  0.00  0.00    -0.096 A 
ATOM     10  HN1 IND d   1      -0.249  -0.793   4.433  0.00  0.00     0.298 HD
ENDROOT
TORSDOF 0
ENDMDL
