MODEL 1
REMARK minimizedAffinity 3.06119919
REMARK minimizedRMSD -1
REMARK  0 active torsions:
REMARK  status: ('A' for Active; 'I' for Inactive)
ROOT
ATOM      1  N1  IND d   1      -5.300  -4.106  -5.991  0.00  0.00    -0.196 N 
ATOM      2  C2  IND d   1      -5.997  -2.930  -5.961  0.00  0.00     0.054 A 
ATOM      3  C3  IND d   1      -5.147  -1.880  -5.919  0.00  0.00    -0.031 A 
ATOM      4  C4  IND d   1      -2.574  -1.855  -5.996  0.00  0.00     0.051 A 
ATOM      5  C5  IND d   1      -1.488  -2.684  -5.990  0.00  0.00    -0.031 A 
ATOM      6  C6  IND d   1      -1.620  -4.058  -5.986  0.00  0.00     0.015 A 
ATOM      7  C7  IND d   1      -2.848  -4.656  -6.000  0.00  0.00    -0.016 A 
ATOM      8  C8  IND d   1      -3.953  -3.816  -5.999  0.00  0.00    -0.047 A 
ATOM      9  C9  IND d   1      -3.826  -2.422  -5.960  0.00  0.00    -0.096 A 
ATOM     10  HN1 IND d   1      -5.645  -4.893  -6.002  0.00  0.00     0.298 HD
ENDROOT
TORSDOF 0
ENDMDL
