MODEL 1
REMARK minimizedAffinity 2.83163333
REMARK minimizedRMSD -1
REMARK  0 active torsions:
REMARK  status: ('A' for Active; 'I' for Inactive)
ROOT
ATOM      1  N1  IND d   1      -3.572  -5.177  -5.995  0.00  0.00    -0.196 N 
ATOM      2  C2  IND d   1      -4.871  -4.751  -5.972  0.00  0.00     0.054 A 
ATOM      3  C3  IND d   1      -4.921  -3.400  -5.932  0.00  0.00    -0.031 A 
ATOM      4  C4  IND d   1      -2.999  -1.689  -6.000  0.00  0.00     0.051 A 
ATOM      5  C5  IND d   1      -1.635  -1.599  -5.985  0.00  0.00    -0.031 A 
ATOM      6  C6  IND d   1      -0.831  -2.721  -5.976  0.00  0.00     0.015 A 
ATOM      7  C7  IND d   1      -1.363  -3.979  -5.992  0.00  0.00    -0.016 A 
ATOM      8  C8  IND d   1      -2.748  -4.074  -5.999  0.00  0.00    -0.047 A 
ATOM      9  C9  IND d   1      -3.569  -2.940  -5.966  0.00  0.00    -0.096 A 
ATOM     10  HN1 IND d   1      -3.314  -5.998  -6.004  0.00  0.00     0.298 HD
ENDROOT
TORSDOF 0
ENDMDL
