MODEL 1
REMARK minimizedAffinity 19.2940063
REMARK minimizedRMSD -1
REMARK  0 active torsions:
REMARK  status: ('A' for Active; 'I' for Inactive)
ROOT
ATOM      1  N1  IND d   1      -5.919   3.169   3.782  0.00  0.00    -0.196 N 
ATOM      2  C2  IND d   1      -5.999   3.856   4.961  0.00  0.00     0.054 A 
ATOM      3  C3  IND d   1      -5.702   3.043   6.000  0.00  0.00    -0.031 A 
ATOM      4  C4  IND d   1      -4.960   0.579   5.987  0.00  0.00     0.051 A 
ATOM      5  C5  IND d   1      -4.777  -0.487   5.151  0.00  0.00    -0.031 A 
ATOM      6  C6  IND d   1      -4.966  -0.386   3.788  0.00  0.00     0.015 A 
ATOM      7  C7  IND d   1      -5.337   0.794   3.207  0.00  0.00    -0.016 A 
ATOM      8  C8  IND d   1      -5.531   1.876   4.053  0.00  0.00    -0.047 A 
ATOM      9  C9  IND d   1      -5.381   1.768   5.442  0.00  0.00    -0.096 A 
ATOM     10  HN1 IND d   1      -6.085   3.491   3.002  0.00  0.00     0.298 HD
ENDROOT
TORSDOF 0
ENDMDL
