MODEL 1
REMARK minimizedAffinity 10.5959873
REMARK minimizedRMSD -1
REMARK  0 active torsions:
REMARK  status: ('A' for Active; 'I' for Inactive)
ROOT
ATOM      1  N1  IND d   1      -4.505   5.103   3.927  0.00  0.00    -0.196 N 
ATOM      2  C2  IND d   1      -4.870   5.907   4.971  0.00  0.00     0.054 A 
ATOM      3  C3  IND d   1      -5.518   5.187   5.914  0.00  0.00    -0.031 A 
ATOM      4  C4  IND d   1      -6.000   2.660   6.000  0.00  0.00     0.051 A 
ATOM      5  C5  IND d   1      -5.892   1.517   5.258  0.00  0.00    -0.031 A 
ATOM      6  C6  IND d   1      -5.301   1.510   4.011  0.00  0.00     0.015 A 
ATOM      7  C7  IND d   1      -4.785   2.650   3.461  0.00  0.00    -0.016 A 
ATOM      8  C8  IND d   1      -4.899   3.813   4.208  0.00  0.00    -0.047 A 
ATOM      9  C9  IND d   1      -5.535   3.834   5.456  0.00  0.00    -0.096 A 
ATOM     10  HN1 IND d   1      -4.098   5.360   3.215  0.00  0.00     0.298 HD
ENDROOT
TORSDOF 0
ENDMDL
