MODEL 1
REMARK minimizedAffinity -1.76145113
REMARK minimizedRMSD -1
REMARK  0 active torsions:
REMARK  status: ('A' for Active; 'I' for Inactive)
ROOT
ATOM      1  N1  IND d   1      -3.363   1.573   1.553  0.00  0.00    -0.196 N 
ATOM      2  C2  IND d   1      -3.454   0.342   0.968  0.00  0.00     0.054 A 
ATOM      3  C3  IND d   1      -2.416  -0.437   1.346  0.00  0.00    -0.031 A 
ATOM      4  C4  IND d   1      -0.506   0.071   2.995  0.00  0.00     0.051 A 
ATOM      5  C5  IND d   1       0.023   1.077   3.754  0.00  0.00    -0.031 A 
ATOM      6  C6  IND d   1      -0.564   2.324   3.822  0.00  0.00     0.015 A 
ATOM      7  C7  IND d   1      -1.712   2.610   3.139  0.00  0.00    -0.016 A 
ATOM      8  C8  IND d   1      -2.247   1.593   2.362  0.00  0.00    -0.047 A 
ATOM      9  C9  IND d   1      -1.634   0.338   2.255  0.00  0.00    -0.096 A 
ATOM     10  HN1 IND d   1      -3.910   2.227   1.436  0.00  0.00     0.298 HD
ENDROOT
TORSDOF 0
ENDMDL
