MODEL 1
REMARK minimizedAffinity 8.28868961
REMARK minimizedRMSD -1
REMARK  0 active torsions:
REMARK  status: ('A' for Active; 'I' for Inactive)
ROOT
ATOM      1  N1  IND d   1       5.324  -3.795   2.063  0.00  0.00    -0.196 N 
ATOM      2  C2  IND d   1       6.000  -4.968   2.254  0.00  0.00     0.054 A 
ATOM      3  C3  IND d   1       5.131  -5.997   2.373  0.00  0.00    -0.031 A 
ATOM      4  C4  IND d   1       2.564  -6.000   2.185  0.00  0.00     0.051 A 
ATOM      5  C5  IND d   1       1.493  -5.162   2.051  0.00  0.00    -0.031 A 
ATOM      6  C6  IND d   1       1.647  -3.798   1.908  0.00  0.00     0.015 A 
ATOM      7  C7  IND d   1       2.885  -3.220   1.883  0.00  0.00    -0.016 A 
ATOM      8  C8  IND d   1       3.975  -4.067   2.026  0.00  0.00    -0.047 A 
ATOM      9  C9  IND d   1       3.822  -5.447   2.213  0.00  0.00    -0.096 A 
ATOM     10  HN1 IND d   1       5.682  -3.017   1.979  0.00  0.00     0.298 HD
ENDROOT
TORSDOF 0
ENDMDL
