MODEL 1
REMARK minimizedAffinity 8.33312798
REMARK minimizedRMSD -1
REMARK  0 active torsions:
REMARK  status: ('A' for Active; 'I' for Inactive)
ROOT
ATOM      1  N1  IND d   1       3.187  -0.745  -5.999  0.00  0.00    -0.196 N 
ATOM      2  C2  IND d   1       4.341  -0.012  -6.000  0.00  0.00     0.054 A 
ATOM      3  C3  IND d   1       4.488   0.635  -4.822  0.00  0.00    -0.031 A 
ATOM      4  C4  IND d   1       3.010   0.554  -2.716  0.00  0.00     0.051 A 
ATOM      5  C5  IND d   1       1.828   0.051  -2.248  0.00  0.00    -0.031 A 
ATOM      6  C6  IND d   1       1.025  -0.762  -3.021  0.00  0.00     0.015 A 
ATOM      7  C7  IND d   1       1.380  -1.113  -4.293  0.00  0.00    -0.016 A 
ATOM      8  C8  IND d   1       2.575  -0.598  -4.774  0.00  0.00    -0.047 A 
ATOM      9  C9  IND d   1       3.374   0.262  -4.009  0.00  0.00    -0.096 A 
ATOM     10  HN1 IND d   1       2.893  -1.218  -6.654  0.00  0.00     0.298 HD
ENDROOT
TORSDOF 0
ENDMDL
