MODEL 1
REMARK minimizedAffinity 11.6503181
REMARK minimizedRMSD -1
REMARK  0 active torsions:
REMARK  status: ('A' for Active; 'I' for Inactive)
ROOT
ATOM      1  N1  IND d   1       0.644   3.276   2.197  0.00  0.00    -0.196 N 
ATOM      2  C2  IND d   1       1.640   2.679   2.918  0.00  0.00     0.054 A 
ATOM      3  C3  IND d   1       1.227   1.482   3.390  0.00  0.00    -0.031 A 
ATOM      4  C4  IND d   1      -1.009   0.260   3.017  0.00  0.00     0.051 A 
ATOM      5  C5  IND d   1      -2.245   0.423   2.458  0.00  0.00    -0.031 A 
ATOM      6  C6  IND d   1      -2.588   1.567   1.767  0.00  0.00     0.015 A 
ATOM      7  C7  IND d   1      -1.699   2.591   1.599  0.00  0.00    -0.016 A 
ATOM      8  C8  IND d   1      -0.445   2.432   2.171  0.00  0.00    -0.047 A 
ATOM      9  C9  IND d   1      -0.106   1.292   2.910  0.00  0.00    -0.096 A 
ATOM     10  HN1 IND d   1       0.689   4.049   1.823  0.00  0.00     0.298 HD
ENDROOT
TORSDOF 0
ENDMDL
