MODEL 1
REMARK minimizedAffinity 8.03729916
REMARK minimizedRMSD -1
REMARK  0 active torsions:
REMARK  status: ('A' for Active; 'I' for Inactive)
ROOT
ATOM      1  N1  IND d   1      -2.557   1.410   1.787  0.00  0.00    -0.196 N 
ATOM      2  C2  IND d   1      -1.373   0.866   2.202  0.00  0.00     0.054 A 
ATOM      3  C3  IND d   1      -1.358  -0.465   1.964  0.00  0.00    -0.031 A 
ATOM      4  C4  IND d   1      -3.124  -1.941   0.811  0.00  0.00     0.051 A 
ATOM      5  C5  IND d   1      -4.388  -1.902   0.293  0.00  0.00    -0.031 A 
ATOM      6  C6  IND d   1      -5.120  -0.733   0.242  0.00  0.00     0.015 A 
ATOM      7  C7  IND d   1      -4.608   0.448   0.700  0.00  0.00    -0.016 A 
ATOM      8  C8  IND d   1      -3.328   0.411   1.234  0.00  0.00    -0.047 A 
ATOM      9  C9  IND d   1      -2.597  -0.780   1.327  0.00  0.00    -0.096 A 
ATOM     10  HN1 IND d   1      -2.782   2.236   1.859  0.00  0.00     0.298 HD
ENDROOT
TORSDOF 0
ENDMDL
