MODEL 1
REMARK minimizedAffinity 7.63933468
REMARK minimizedRMSD -1
REMARK  0 active torsions:
REMARK  status: ('A' for Active; 'I' for Inactive)
ROOT
ATOM      1  N1  IND d   1      -1.714   1.466   2.002  0.00  0.00    -0.196 N 
ATOM      2  C2  IND d   1      -0.407   1.179   2.281  0.00  0.00     0.054 A 
ATOM      3  C3  IND d   1      -0.100  -0.071   1.866  0.00  0.00    -0.031 A 
ATOM      4  C4  IND d   1      -1.560  -1.782   0.614  0.00  0.00     0.051 A 
ATOM      5  C5  IND d   1      -2.835  -1.989   0.169  0.00  0.00    -0.031 A 
ATOM      6  C6  IND d   1      -3.822  -1.034   0.313  0.00  0.00     0.015 A 
ATOM      7  C7  IND d   1      -3.565   0.172   0.900  0.00  0.00    -0.016 A 
ATOM      8  C8  IND d   1      -2.272   0.383   1.359  0.00  0.00    -0.047 A 
ATOM      9  C9  IND d   1      -1.278  -0.598   1.254  0.00  0.00    -0.096 A 
ATOM     10  HN1 IND d   1      -2.119   2.199   2.196  0.00  0.00     0.298 HD
ENDROOT
TORSDOF 0
ENDMDL
