MODEL 1
REMARK minimizedAffinity 6.38583755
REMARK minimizedRMSD -1
REMARK  0 active torsions:
REMARK  status: ('A' for Active; 'I' for Inactive)
ROOT
ATOM      1  N1  IND d   1      -4.069  -3.810  -5.948  0.00  0.00    -0.196 N 
ATOM      2  C2  IND d   1      -3.124  -4.797  -5.960  0.00  0.00     0.054 A 
ATOM      3  C3  IND d   1      -1.884  -4.260  -6.000  0.00  0.00    -0.031 A 
ATOM      4  C4  IND d   1      -1.170  -1.787  -5.950  0.00  0.00     0.051 A 
ATOM      5  C5  IND d   1      -1.679  -0.518  -5.977  0.00  0.00    -0.031 A 
ATOM      6  C6  IND d   1      -3.037  -0.278  -5.992  0.00  0.00     0.015 A 
ATOM      7  C7  IND d   1      -3.942  -1.301  -5.971  0.00  0.00    -0.016 A 
ATOM      8  C8  IND d   1      -3.430  -2.590  -5.951  0.00  0.00    -0.047 A 
ATOM      9  C9  IND d   1      -2.052  -2.842  -5.978  0.00  0.00    -0.096 A 
ATOM     10  HN1 IND d   1      -4.921  -3.931  -5.941  0.00  0.00     0.298 HD
ENDROOT
TORSDOF 0
ENDMDL
