MODEL 1
REMARK minimizedAffinity 5.69998503
REMARK minimizedRMSD -1
REMARK  0 active torsions:
REMARK  status: ('A' for Active; 'I' for Inactive)
ROOT
ATOM      1  N1  IND d   1      -1.520   0.787   1.190  0.00  0.00    -0.196 N 
ATOM      2  C2  IND d   1      -0.568   0.668   2.164  0.00  0.00     0.054 A 
ATOM      3  C3  IND d   1      -1.148   0.457   3.366  0.00  0.00    -0.031 A 
ATOM      4  C4  IND d   1      -3.639   0.168   3.952  0.00  0.00     0.051 A 
ATOM      5  C5  IND d   1      -4.889   0.231   3.403  0.00  0.00    -0.031 A 
ATOM      6  C6  IND d   1      -5.083   0.485   2.060  0.00  0.00     0.015 A 
ATOM      7  C7  IND d   1      -4.030   0.675   1.211  0.00  0.00    -0.016 A 
ATOM      8  C8  IND d   1      -2.760   0.619   1.767  0.00  0.00    -0.047 A 
ATOM      9  C9  IND d   1      -2.557   0.404   3.136  0.00  0.00    -0.096 A 
ATOM     10  HN1 IND d   1      -1.370   0.941   0.358  0.00  0.00     0.298 HD
ENDROOT
TORSDOF 0
ENDMDL
