MODEL 1
REMARK minimizedAffinity 4.08084249
REMARK minimizedRMSD -1
REMARK  0 active torsions:
REMARK  status: ('A' for Active; 'I' for Inactive)
ROOT
ATOM      1  N1  IND d   1      -1.930   1.310   2.495  0.00  0.00    -0.196 N 
ATOM      2  C2  IND d   1      -2.347   2.349   3.279  0.00  0.00     0.054 A 
ATOM      3  C3  IND d   1      -1.315   2.836   4.003  0.00  0.00    -0.031 A 
ATOM      4  C4  IND d   1       1.166   2.147   3.984  0.00  0.00     0.051 A 
ATOM      5  C5  IND d   1       2.022   1.221   3.457  0.00  0.00    -0.031 A 
ATOM      6  C6  IND d   1       1.598   0.261   2.562  0.00  0.00     0.015 A 
ATOM      7  C7  IND d   1       0.297   0.196   2.151  0.00  0.00    -0.016 A 
ATOM      8  C8  IND d   1      -0.578   1.130   2.689  0.00  0.00    -0.047 A 
ATOM      9  C9  IND d   1      -0.161   2.080   3.630  0.00  0.00    -0.096 A 
ATOM     10  HN1 IND d   1      -2.428   0.846   1.969  0.00  0.00     0.298 HD
ENDROOT
TORSDOF 0
ENDMDL
