MODEL 1
REMARK minimizedAffinity -5.09130049
REMARK minimizedRMSD -1
REMARK  0 active torsions:
REMARK  status: ('A' for Active; 'I' for Inactive)
ROOT
ATOM      1  C   UNL d   1      -1.547   2.340   1.057  0.00  0.00     0.124 A 
ATOM      2  C1  UNL d   1      -0.934   2.638  -0.152  0.00  0.00     0.062 A 
ATOM      3  C2  UNL d   1      -0.033   1.742  -0.720  0.00  0.00     0.162 A 
ATOM      4  C3  UNL d   1       0.259   0.537  -0.080  0.00  0.00    -0.034 A 
ATOM      5  C4  UNL d   1      -0.361   0.245   1.136  0.00  0.00     0.162 A 
ATOM      6  C5  UNL d   1      -1.260   1.144   1.699  0.00  0.00     0.062 A 
ATOM      7  F   UNL d   1      -1.852   0.853   2.868  0.00  0.00    -0.097 F 
ATOM      8  F1  UNL d   1      -0.102  -0.904   1.778  0.00  0.00    -0.096 F 
ATOM      9  I   UNL d   1       1.606  -0.805  -0.926  0.00  0.00    -0.060 I 
ATOM     10  F2  UNL d   1       0.544   2.056  -1.889  0.00  0.00    -0.096 F 
ATOM     11  F3  UNL d   1      -1.209   3.793  -0.774  0.00  0.00    -0.097 F 
ATOM     12  F4  UNL d   1      -2.413   3.204   1.602  0.00  0.00    -0.092 F 
ENDROOT
TORSDOF 0
ENDMDL
