MODEL 1
REMARK minimizedAffinity -3.05722427
REMARK minimizedRMSD -1
REMARK  0 active torsions:
REMARK  status: ('A' for Active; 'I' for Inactive)
ROOT
ATOM      1  C   UNL d   1       0.894   0.253  -0.069  0.00  0.00     0.124 A 
ATOM      2  C1  UNL d   1       0.148   0.153   1.098  0.00  0.00     0.062 A 
ATOM      3  C2  UNL d   1      -0.716   1.180   1.466  0.00  0.00     0.162 A 
ATOM      4  C3  UNL d   1      -0.840   2.316   0.667  0.00  0.00    -0.034 A 
ATOM      5  C4  UNL d   1      -0.086   2.410  -0.504  0.00  0.00     0.162 A 
ATOM      6  C5  UNL d   1       0.776   1.381  -0.868  0.00  0.00     0.062 A 
ATOM      7  F   UNL d   1       1.496   1.479  -1.996  0.00  0.00    -0.097 F 
ATOM      8  F1  UNL d   1      -0.181   3.489  -1.296  0.00  0.00    -0.096 F 
ATOM      9  I   UNL d   1      -2.131   3.854   1.214  0.00  0.00    -0.060 I 
ATOM     10  F2  UNL d   1      -1.424   1.057   2.599  0.00  0.00    -0.096 F 
ATOM     11  F3  UNL d   1       0.261  -0.935   1.873  0.00  0.00    -0.097 F 
ATOM     12  F4  UNL d   1       1.725  -0.736  -0.420  0.00  0.00    -0.092 F 
ENDROOT
TORSDOF 0
ENDMDL
