MODEL 1
REMARK minimizedAffinity -2.6241703
REMARK minimizedRMSD -1
REMARK  0 active torsions:
REMARK  status: ('A' for Active; 'I' for Inactive)
ROOT
ATOM      1  C   UNL d   1      -1.311   1.741   0.725  0.00  0.00     0.124 A 
ATOM      2  C1  UNL d   1      -1.153   0.728   1.661  0.00  0.00     0.062 A 
ATOM      3  C2  UNL d   1      -0.343  -0.368   1.378  0.00  0.00     0.162 A 
ATOM      4  C3  UNL d   1       0.317  -0.456   0.152  0.00  0.00    -0.034 A 
ATOM      5  C4  UNL d   1       0.153   0.566  -0.785  0.00  0.00     0.162 A 
ATOM      6  C5  UNL d   1      -0.658   1.659  -0.497  0.00  0.00     0.062 A 
ATOM      7  F   UNL d   1      -0.809   2.636  -1.402  0.00  0.00    -0.097 F 
ATOM      8  F1  UNL d   1       0.773   0.512  -1.973  0.00  0.00    -0.096 F 
ATOM      9  I   UNL d   1       1.529  -2.093  -0.276  0.00  0.00    -0.060 I 
ATOM     10  F2  UNL d   1      -0.209  -1.331   2.301  0.00  0.00    -0.096 F 
ATOM     11  F3  UNL d   1      -1.784   0.805   2.842  0.00  0.00    -0.097 F 
ATOM     12  F4  UNL d   1      -2.091   2.794   1.000  0.00  0.00    -0.092 F 
ENDROOT
TORSDOF 0
ENDMDL
