MODEL 1
REMARK minimizedAffinity -0.376976579
REMARK minimizedRMSD -1
REMARK  0 active torsions:
REMARK  status: ('A' for Active; 'I' for Inactive)
ROOT
ATOM      1  C   UNL d   1      -1.087   2.355   1.014  0.00  0.00     0.124 A 
ATOM      2  C1  UNL d   1      -0.296   2.359  -0.127  0.00  0.00     0.062 A 
ATOM      3  C2  UNL d   1       0.278   1.176  -0.584  0.00  0.00     0.162 A 
ATOM      4  C3  UNL d   1       0.062  -0.021   0.098  0.00  0.00    -0.034 A 
ATOM      5  C4  UNL d   1      -0.735  -0.017   1.245  0.00  0.00     0.162 A 
ATOM      6  C5  UNL d   1      -1.306   1.168   1.698  0.00  0.00     0.062 A 
ATOM      7  F   UNL d   1      -2.070   1.163   2.800  0.00  0.00    -0.097 F 
ATOM      8  F1  UNL d   1      -0.963  -1.150   1.925  0.00  0.00    -0.096 F 
ATOM      9  I   UNL d   1       0.918  -1.792  -0.582  0.00  0.00    -0.060 I 
ATOM     10  F2  UNL d   1       1.038   1.209  -1.689  0.00  0.00    -0.096 F 
ATOM     11  F3  UNL d   1      -0.082   3.504  -0.790  0.00  0.00    -0.097 F 
ATOM     12  F4  UNL d   1      -1.637   3.495   1.452  0.00  0.00    -0.092 F 
ENDROOT
TORSDOF 0
ENDMDL
