MODEL 1
REMARK minimizedAffinity 0.187582806
REMARK minimizedRMSD -1
REMARK  0 active torsions:
REMARK  status: ('A' for Active; 'I' for Inactive)
ROOT
ATOM      1  C   UNL d   1       1.657  -0.833  -1.151  0.00  0.00     0.124 A 
ATOM      2  C1  UNL d   1       1.378   0.492  -1.456  0.00  0.00     0.062 A 
ATOM      3  C2  UNL d   1       0.459   1.208  -0.693  0.00  0.00     0.162 A 
ATOM      4  C3  UNL d   1      -0.187   0.600   0.384  0.00  0.00    -0.034 A 
ATOM      5  C4  UNL d   1       0.098  -0.734   0.684  0.00  0.00     0.162 A 
ATOM      6  C5  UNL d   1       1.017  -1.444  -0.082  0.00  0.00     0.062 A 
ATOM      7  F   UNL d   1       1.285  -2.725   0.214  0.00  0.00    -0.097 F 
ATOM      8  F1  UNL d   1      -0.505  -1.349   1.712  0.00  0.00    -0.096 F 
ATOM      9  I   UNL d   1      -1.560   1.666   1.527  0.00  0.00    -0.060 I 
ATOM     10  F2  UNL d   1       0.209   2.487  -1.010  0.00  0.00    -0.096 F 
ATOM     11  F3  UNL d   1       1.994   1.085  -2.489  0.00  0.00    -0.097 F 
ATOM     12  F4  UNL d   1       2.540  -1.519  -1.887  0.00  0.00    -0.092 F 
ENDROOT
TORSDOF 0
ENDMDL
