MODEL 1
REMARK minimizedAffinity 5.74085569
REMARK minimizedRMSD -1
REMARK  0 active torsions:
REMARK  status: ('A' for Active; 'I' for Inactive)
ROOT
ATOM      1  C   UNL d   1      -0.642   1.292   0.866  0.00  0.00     0.124 A 
ATOM      2  C1  UNL d   1      -0.939   0.096   1.505  0.00  0.00     0.062 A 
ATOM      3  C2  UNL d   1      -0.490  -1.111   0.975  0.00  0.00     0.162 A 
ATOM      4  C3  UNL d   1       0.263  -1.127  -0.199  0.00  0.00    -0.034 A 
ATOM      5  C4  UNL d   1       0.556   0.080  -0.836  0.00  0.00     0.162 A 
ATOM      6  C5  UNL d   1       0.105   1.283  -0.304  0.00  0.00     0.062 A 
ATOM      7  F   UNL d   1       0.393   2.437  -0.922  0.00  0.00    -0.097 F 
ATOM      8  F1  UNL d   1       1.277   0.100  -1.967  0.00  0.00    -0.096 F 
ATOM      9  I   UNL d   1       0.936  -2.929  -0.994  0.00  0.00    -0.060 I 
ATOM     10  F2  UNL d   1      -0.791  -2.251   1.614  0.00  0.00    -0.096 F 
ATOM     11  F3  UNL d   1      -1.661   0.102   2.634  0.00  0.00    -0.097 F 
ATOM     12  F4  UNL d   1      -1.076   2.451   1.377  0.00  0.00    -0.092 F 
ENDROOT
TORSDOF 0
ENDMDL
