MODEL 1
REMARK minimizedAffinity -3.96670485
REMARK minimizedRMSD -1
REMARK  0 active torsions:
REMARK  status: ('A' for Active; 'I' for Inactive)
ROOT
ATOM      1  C   UNL d   1      -0.769   2.783   0.470  0.00  0.00     0.124 A 
ATOM      2  C1  UNL d   1      -1.205   1.583   1.015  0.00  0.00     0.062 A 
ATOM      3  C2  UNL d   1      -0.661   0.378   0.578  0.00  0.00     0.162 A 
ATOM      4  C3  UNL d   1       0.325   0.367  -0.408  0.00  0.00    -0.034 A 
ATOM      5  C4  UNL d   1       0.757   1.578  -0.952  0.00  0.00     0.162 A 
ATOM      6  C5  UNL d   1       0.211   2.780  -0.512  0.00  0.00     0.062 A 
ATOM      7  F   UNL d   1       0.633   3.938  -1.040  0.00  0.00    -0.097 F 
ATOM      8  F1  UNL d   1       1.704   1.604  -1.902  0.00  0.00    -0.096 F 
ATOM      9  I   UNL d   1       1.140  -1.432  -1.063  0.00  0.00    -0.060 I 
ATOM     10  F2  UNL d   1      -1.101  -0.766   1.122  0.00  0.00    -0.096 F 
ATOM     11  F3  UNL d   1      -2.152   1.584   1.964  0.00  0.00    -0.097 F 
ATOM     12  F4  UNL d   1      -1.294   3.941   0.891  0.00  0.00    -0.092 F 
ENDROOT
TORSDOF 0
ENDMDL
