MODEL 1
REMARK minimizedAffinity -4.39196157
REMARK minimizedRMSD -1
REMARK  0 active torsions:
REMARK  status: ('A' for Active; 'I' for Inactive)
ROOT
ATOM      1  C   UNL d   1      -1.452   2.627   1.063  0.00  0.00     0.124 A 
ATOM      2  C1  UNL d   1      -0.699   2.944  -0.059  0.00  0.00     0.062 A 
ATOM      3  C2  UNL d   1       0.147   1.996  -0.625  0.00  0.00     0.162 A 
ATOM      4  C3  UNL d   1       0.245   0.719  -0.071  0.00  0.00    -0.034 A 
ATOM      5  C4  UNL d   1      -0.514   0.408   1.059  0.00  0.00     0.162 A 
ATOM      6  C5  UNL d   1      -1.359   1.360   1.621  0.00  0.00     0.062 A 
ATOM      7  F   UNL d   1      -2.085   1.052   2.705  0.00  0.00    -0.097 F 
ATOM      8  F1  UNL d   1      -0.444  -0.809   1.617  0.00  0.00    -0.096 F 
ATOM      9  I   UNL d   1       1.510  -0.702  -0.914  0.00  0.00    -0.060 I 
ATOM     10  F2  UNL d   1       0.863   2.330  -1.709  0.00  0.00    -0.096 F 
ATOM     11  F3  UNL d   1      -0.787   4.168  -0.599  0.00  0.00    -0.097 F 
ATOM     12  F4  UNL d   1      -2.265   3.542   1.606  0.00  0.00    -0.092 F 
ENDROOT
TORSDOF 0
ENDMDL
