MODEL 1
REMARK minimizedAffinity -0.968185723
REMARK minimizedRMSD -1
REMARK  0 active torsions:
REMARK  status: ('A' for Active; 'I' for Inactive)
ROOT
ATOM      1  C   UNL d   1      -0.593   0.643   1.639  0.00  0.00     0.124 A 
ATOM      2  C1  UNL d   1      -1.491   0.834   0.598  0.00  0.00     0.062 A 
ATOM      3  C2  UNL d   1      -1.282   0.213  -0.629  0.00  0.00     0.162 A 
ATOM      4  C3  UNL d   1      -0.170  -0.607  -0.823  0.00  0.00    -0.034 A 
ATOM      5  C4  UNL d   1       0.729  -0.794   0.228  0.00  0.00     0.162 A 
ATOM      6  C5  UNL d   1       0.515  -0.171   1.454  0.00  0.00     0.062 A 
ATOM      7  F   UNL d   1       1.384  -0.357   2.458  0.00  0.00    -0.097 F 
ATOM      8  F1  UNL d   1       1.808  -1.576   0.077  0.00  0.00    -0.096 F 
ATOM      9  I   UNL d   1       0.146  -1.538  -2.657  0.00  0.00    -0.060 I 
ATOM     10  F2  UNL d   1      -2.166   0.416  -1.618  0.00  0.00    -0.096 F 
ATOM     11  F3  UNL d   1      -2.563   1.621   0.775  0.00  0.00    -0.097 F 
ATOM     12  F4  UNL d   1      -0.796   1.243   2.819  0.00  0.00    -0.092 F 
ENDROOT
TORSDOF 0
ENDMDL
