MODEL 1
REMARK minimizedAffinity -2.79764628
REMARK minimizedRMSD -1
REMARK  0 active torsions:
REMARK  status: ('A' for Active; 'I' for Inactive)
ROOT
ATOM      1  C   UNL d   1      -1.192   3.429  -0.828  0.00  0.00     0.124 A 
ATOM      2  C1  UNL d   1      -1.712   2.878   0.335  0.00  0.00     0.062 A 
ATOM      3  C2  UNL d   1      -1.262   1.641   0.787  0.00  0.00     0.162 A 
ATOM      4  C3  UNL d   1      -0.284   0.946   0.075  0.00  0.00    -0.034 A 
ATOM      5  C4  UNL d   1       0.234   1.506  -1.095  0.00  0.00     0.162 A 
ATOM      6  C5  UNL d   1      -0.220   2.742  -1.541  0.00  0.00     0.062 A 
ATOM      7  F   UNL d   1       0.283   3.273  -2.665  0.00  0.00    -0.097 F 
ATOM      8  F1  UNL d   1       1.175   0.864  -1.803  0.00  0.00    -0.096 F 
ATOM      9  I   UNL d   1       0.393  -0.904   0.746  0.00  0.00    -0.060 I 
ATOM     10  F2  UNL d   1      -1.782   1.133   1.914  0.00  0.00    -0.096 F 
ATOM     11  F3  UNL d   1      -2.653   3.539   1.026  0.00  0.00    -0.097 F 
ATOM     12  F4  UNL d   1      -1.629   4.619  -1.260  0.00  0.00    -0.092 F 
ENDROOT
TORSDOF 0
ENDMDL
