MODEL 1
REMARK minimizedAffinity -1.87054145
REMARK minimizedRMSD -1
REMARK  0 active torsions:
REMARK  status: ('A' for Active; 'I' for Inactive)
ROOT
ATOM      1  C   UNL d   1      -1.125   1.421   0.001  0.00  0.00     0.124 A 
ATOM      2  C1  UNL d   1       0.087   1.437  -0.675  0.00  0.00     0.062 A 
ATOM      3  C2  UNL d   1       0.790   0.253  -0.879  0.00  0.00     0.162 A 
ATOM      4  C3  UNL d   1       0.282  -0.957  -0.407  0.00  0.00    -0.034 A 
ATOM      5  C4  UNL d   1      -0.937  -0.965   0.273  0.00  0.00     0.162 A 
ATOM      6  C5  UNL d   1      -1.636   0.221   0.475  0.00  0.00     0.062 A 
ATOM      7  F   UNL d   1      -2.806   0.204   1.129  0.00  0.00    -0.097 F 
ATOM      8  F1  UNL d   1      -1.454  -2.111   0.740  0.00  0.00    -0.096 F 
ATOM      9  I   UNL d   1       1.330  -2.730  -0.710  0.00  0.00    -0.060 I 
ATOM     10  F2  UNL d   1       1.958   0.298  -1.536  0.00  0.00    -0.096 F 
ATOM     11  F3  UNL d   1       0.583   2.596  -1.132  0.00  0.00    -0.097 F 
ATOM     12  F4  UNL d   1      -1.799   2.562   0.197  0.00  0.00    -0.092 F 
ENDROOT
TORSDOF 0
ENDMDL
