MODEL 1
REMARK minimizedAffinity -0.265507698
REMARK minimizedRMSD -1
REMARK  0 active torsions:
REMARK  status: ('A' for Active; 'I' for Inactive)
ROOT
ATOM      1  C   UNL d   1      -0.552   2.188   0.941  0.00  0.00     0.124 A 
ATOM      2  C1  UNL d   1       0.133   2.186  -0.266  0.00  0.00     0.062 A 
ATOM      3  C2  UNL d   1       0.544   0.985  -0.836  0.00  0.00     0.162 A 
ATOM      4  C3  UNL d   1       0.270  -0.226  -0.199  0.00  0.00    -0.034 A 
ATOM      5  C4  UNL d   1      -0.418  -0.216   1.015  0.00  0.00     0.162 A 
ATOM      6  C5  UNL d   1      -0.827   0.988   1.580  0.00  0.00     0.062 A 
ATOM      7  F   UNL d   1      -1.489   0.988   2.747  0.00  0.00    -0.097 F 
ATOM      8  F1  UNL d   1      -0.698  -1.362   1.654  0.00  0.00    -0.096 F 
ATOM      9  I   UNL d   1       0.884  -2.025  -1.047  0.00  0.00    -0.060 I 
ATOM     10  F2  UNL d   1       1.204   1.012  -2.003  0.00  0.00    -0.096 F 
ATOM     11  F3  UNL d   1       0.400   3.345  -0.886  0.00  0.00    -0.097 F 
ATOM     12  F4  UNL d   1      -0.946   3.346   1.487  0.00  0.00    -0.092 F 
ENDROOT
TORSDOF 0
ENDMDL
