MODEL 1
REMARK minimizedAffinity -5.15412903
REMARK minimizedRMSD -1
REMARK  0 active torsions:
REMARK  status: ('A' for Active; 'I' for Inactive)
ROOT
ATOM      1  C   UNL d   1      -1.498   2.833   1.172  0.00  0.00     0.124 A 
ATOM      2  C1  UNL d   1      -0.841   3.053  -0.031  0.00  0.00     0.062 A 
ATOM      3  C2  UNL d   1      -0.066   2.046  -0.599  0.00  0.00     0.162 A 
ATOM      4  C3  UNL d   1       0.056   0.809   0.034  0.00  0.00    -0.034 A 
ATOM      5  C4  UNL d   1      -0.607   0.596   1.243  0.00  0.00     0.162 A 
ATOM      6  C5  UNL d   1      -1.381   1.605   1.808  0.00  0.00     0.062 A 
ATOM      7  F   UNL d   1      -2.015   1.390   2.970  0.00  0.00    -0.097 F 
ATOM      8  F1  UNL d   1      -0.511  -0.582   1.879  0.00  0.00    -0.096 F 
ATOM      9  I   UNL d   1       1.214  -0.698  -0.813  0.00  0.00    -0.060 I 
ATOM     10  F2  UNL d   1       0.558   2.287  -1.762  0.00  0.00    -0.096 F 
ATOM     11  F3  UNL d   1      -0.952   4.239  -0.646  0.00  0.00    -0.097 F 
ATOM     12  F4  UNL d   1      -2.243   3.803   1.717  0.00  0.00    -0.092 F 
ENDROOT
TORSDOF 0
ENDMDL
