MODEL 1
REMARK minimizedAffinity -4.2783289
REMARK minimizedRMSD -1
REMARK  0 active torsions:
REMARK  status: ('A' for Active; 'I' for Inactive)
ROOT
ATOM      1  C   UNL d   1      -0.920   2.724   0.927  0.00  0.00     0.124 A 
ATOM      2  C1  UNL d   1       0.030   2.833  -0.079  0.00  0.00     0.062 A 
ATOM      3  C2  UNL d   1       0.662   1.695  -0.572  0.00  0.00     0.162 A 
ATOM      4  C3  UNL d   1       0.345   0.436  -0.059  0.00  0.00    -0.034 A 
ATOM      5  C4  UNL d   1      -0.610   0.335   0.953  0.00  0.00     0.162 A 
ATOM      6  C5  UNL d   1      -1.239   1.475   1.442  0.00  0.00     0.062 A 
ATOM      7  F   UNL d   1      -2.156   1.368   2.415  0.00  0.00    -0.097 F 
ATOM      8  F1  UNL d   1      -0.938  -0.859   1.469  0.00  0.00    -0.096 F 
ATOM      9  I   UNL d   1       1.288  -1.268  -0.793  0.00  0.00    -0.060 I 
ATOM     10  F2  UNL d   1       1.575   1.830  -1.544  0.00  0.00    -0.096 F 
ATOM     11  F3  UNL d   1       0.340   4.038  -0.578  0.00  0.00    -0.097 F 
ATOM     12  F4  UNL d   1      -1.526   3.820   1.400  0.00  0.00    -0.092 F 
ENDROOT
TORSDOF 0
ENDMDL
