MODEL 1
REMARK minimizedAffinity -0.625881433
REMARK minimizedRMSD -1
REMARK  0 active torsions:
REMARK  status: ('A' for Active; 'I' for Inactive)
ROOT
ATOM      1  C   UNL d   1       3.849  -1.540  -4.495  0.00  0.00    -0.002 A 
ATOM      2  C1  UNL d   1       4.038  -2.130  -5.737  0.00  0.00     0.010 A 
ATOM      3  C2  UNL d   1       3.889  -3.509  -5.899  0.00  0.00     0.041 A 
ATOM      4  C3  UNL d   1       3.541  -4.292  -4.781  0.00  0.00    -0.075 A 
ATOM      5  S   UNL d   1       3.303  -5.999  -4.741  0.00  0.00     0.015 SA
ATOM      6  C4  UNL d   1       2.944  -5.986  -3.075  0.00  0.00     0.022 A 
ATOM      7  C5  UNL d   1       3.000  -4.718  -2.546  0.00  0.00     0.026 A 
ATOM      8  C6  UNL d   1       3.345  -3.721  -3.520  0.00  0.00    -0.082 A 
ATOM      9  C7  UNL d   1       3.504  -2.321  -3.388  0.00  0.00     0.045 A 
ENDROOT
TORSDOF 0
ENDMDL
