MODEL 1
REMARK minimizedAffinity 13.2730169
REMARK minimizedRMSD -1
REMARK  0 active torsions:
REMARK  status: ('A' for Active; 'I' for Inactive)
ROOT
ATOM      1  C   UNL d   1      -0.297   2.739  -0.691  0.00  0.00    -0.002 A 
ATOM      2  C1  UNL d   1      -0.558   3.587   0.376  0.00  0.00     0.010 A 
ATOM      3  C2  UNL d   1       0.230   3.540   1.529  0.00  0.00     0.041 A 
ATOM      4  C3  UNL d   1       1.295   2.620   1.590  0.00  0.00    -0.075 A 
ATOM      5  S   UNL d   1       2.392   2.386   2.899  0.00  0.00     0.015 SA
ATOM      6  C4  UNL d   1       3.234   1.156   2.071  0.00  0.00     0.022 A 
ATOM      7  C5  UNL d   1       2.703   0.917   0.825  0.00  0.00     0.026 A 
ATOM      8  C6  UNL d   1       1.577   1.757   0.527  0.00  0.00    -0.082 A 
ATOM      9  C7  UNL d   1       0.760   1.828  -0.627  0.00  0.00     0.045 A 
ENDROOT
TORSDOF 0
ENDMDL
