MODEL 1
REMARK minimizedAffinity 5.94055891
REMARK minimizedRMSD -1
REMARK  0 active torsions:
REMARK  status: ('A' for Active; 'I' for Inactive)
ROOT
ATOM      1  C   UNL d   1       1.955   2.040   0.768  0.00  0.00    -0.002 A 
ATOM      2  C1  UNL d   1       0.925   1.583  -0.043  0.00  0.00     0.010 A 
ATOM      3  C2  UNL d   1       0.339   0.337   0.188  0.00  0.00     0.041 A 
ATOM      4  C3  UNL d   1       0.808  -0.449   1.259  0.00  0.00    -0.075 A 
ATOM      5  S   UNL d   1       0.240  -2.007   1.731  0.00  0.00     0.015 SA
ATOM      6  C4  UNL d   1       1.350  -2.103   3.021  0.00  0.00     0.022 A 
ATOM      7  C5  UNL d   1       2.143  -0.983   3.103  0.00  0.00     0.026 A 
ATOM      8  C6  UNL d   1       1.843  -0.011   2.089  0.00  0.00    -0.082 A 
ATOM      9  C7  UNL d   1       2.417   1.257   1.829  0.00  0.00     0.045 A 
ENDROOT
TORSDOF 0
ENDMDL
