MODEL 1
REMARK minimizedAffinity -0.4299438
REMARK minimizedRMSD -1
REMARK  0 active torsions:
REMARK  status: ('A' for Active; 'I' for Inactive)
ROOT
ATOM      1  C   UNL d   1       3.028   0.703   2.738  0.00  0.00    -0.002 A 
ATOM      2  C1  UNL d   1       2.544  -0.511   3.205  0.00  0.00     0.010 A 
ATOM      3  C2  UNL d   1       1.424  -1.102   2.616  0.00  0.00     0.041 A 
ATOM      4  C3  UNL d   1       0.795  -0.448   1.539  0.00  0.00    -0.075 A 
ATOM      5  S   UNL d   1      -0.589  -0.985   0.662  0.00  0.00     0.015 SA
ATOM      6  C4  UNL d   1      -0.569   0.383  -0.353  0.00  0.00     0.022 A 
ATOM      7  C5  UNL d   1       0.461   1.239  -0.045  0.00  0.00     0.026 A 
ATOM      8  C6  UNL d   1       1.265   0.774   1.050  0.00  0.00    -0.082 A 
ATOM      9  C7  UNL d   1       2.401   1.349   1.669  0.00  0.00     0.045 A 
ENDROOT
TORSDOF 0
ENDMDL
