MODEL 1
REMARK minimizedAffinity 6.85697222
REMARK minimizedRMSD -1
REMARK  0 active torsions:
REMARK  status: ('A' for Active; 'I' for Inactive)
ROOT
ATOM      1  C   UNL d   1       1.601   2.728   0.035  0.00  0.00    -0.002 A 
ATOM      2  C1  UNL d   1       0.508   2.119  -0.565  0.00  0.00     0.010 A 
ATOM      3  C2  UNL d   1       0.017   0.906  -0.080  0.00  0.00     0.041 A 
ATOM      4  C3  UNL d   1       0.648   0.310   1.030  0.00  0.00    -0.075 A 
ATOM      5  S   UNL d   1       0.219  -1.174   1.797  0.00  0.00     0.015 SA
ATOM      6  C4  UNL d   1       1.477  -1.034   2.938  0.00  0.00     0.022 A 
ATOM      7  C5  UNL d   1       2.216   0.111   2.754  0.00  0.00     0.026 A 
ATOM      8  C6  UNL d   1       1.750   0.904   1.651  0.00  0.00    -0.082 A 
ATOM      9  C7  UNL d   1       2.225   2.134   1.135  0.00  0.00     0.045 A 
ENDROOT
TORSDOF 0
ENDMDL
