MODEL 1
REMARK minimizedAffinity 15.715476
REMARK minimizedRMSD -1
REMARK  0 active torsions:
REMARK  status: ('A' for Active; 'I' for Inactive)
ROOT
ATOM      1  C   UNL d   1      -5.026   3.292  -4.195  0.00  0.00    -0.002 A 
ATOM      2  C1  UNL d   1      -4.923   3.290  -2.811  0.00  0.00     0.010 A 
ATOM      3  C2  UNL d   1      -4.265   2.251  -2.150  0.00  0.00     0.041 A 
ATOM      4  C3  UNL d   1      -3.706   1.205  -2.910  0.00  0.00    -0.075 A 
ATOM      5  S   UNL d   1      -2.853  -0.171  -2.316  0.00  0.00     0.015 SA
ATOM      6  C4  UNL d   1      -2.605  -0.787  -3.885  0.00  0.00     0.022 A 
ATOM      7  C5  UNL d   1      -3.153   0.024  -4.851  0.00  0.00     0.026 A 
ATOM      8  C6  UNL d   1      -3.796   1.186  -4.305  0.00  0.00    -0.082 A 
ATOM      9  C7  UNL d   1      -4.470   2.253  -4.946  0.00  0.00     0.045 A 
ENDROOT
TORSDOF 0
ENDMDL
