MODEL 1
REMARK minimizedAffinity 9.00893211
REMARK minimizedRMSD -1
REMARK  0 active torsions:
REMARK  status: ('A' for Active; 'I' for Inactive)
ROOT
ATOM      1  C   UNL d   1       0.249   5.445   0.416  0.00  0.00    -0.002 A 
ATOM      2  C1  UNL d   1      -0.147   5.000   1.670  0.00  0.00     0.010 A 
ATOM      3  C2  UNL d   1      -0.211   3.633   1.951  0.00  0.00     0.041 A 
ATOM      4  C3  UNL d   1       0.136   2.713   0.942  0.00  0.00    -0.075 A 
ATOM      5  S   UNL d   1       0.134   0.993   1.058  0.00  0.00     0.015 SA
ATOM      6  C4  UNL d   1       0.660   0.809  -0.553  0.00  0.00     0.022 A 
ATOM      7  C5  UNL d   1       0.837   2.020  -1.179  0.00  0.00     0.026 A 
ATOM      8  C6  UNL d   1       0.538   3.137  -0.328  0.00  0.00    -0.082 A 
ATOM      9  C7  UNL d   1       0.592   4.529  -0.582  0.00  0.00     0.045 A 
ENDROOT
TORSDOF 0
ENDMDL
