MODEL 1
REMARK minimizedAffinity 6.33499813
REMARK minimizedRMSD -1
REMARK  1 active torsions:
REMARK  status: ('A' for Active; 'I' for Inactive)
REMARK    1  A    between atoms: C1_2  and  C2_3 
ROOT
ATOM      1  C2  UNL d   1      -5.168   2.720  -3.722  0.00  0.00    -0.076 A 
ATOM      2  C3  UNL d   1      -5.995   3.602  -3.003  0.00  0.00     0.004 A 
ATOM      3  C4  UNL d   1      -6.000   3.605  -1.610  0.00  0.00    -0.003 A 
ATOM      4  C5  UNL d   1      -5.179   2.726  -0.912  0.00  0.00     0.000 A 
ATOM      5  C6  UNL d   1      -4.340   1.857  -1.608  0.00  0.00     0.000 A 
ATOM      6  C7  UNL d   1      -4.310   1.853  -3.013  0.00  0.00    -0.073 A 
ATOM      7  C8  UNL d   1      -3.391   0.890  -3.713  0.00  0.00     0.078 C 
ENDROOT
BRANCH   1   8
ATOM      8  C1  UNL d   1      -5.225   2.744  -5.233  0.00  0.00     0.053 C 
ATOM      9  C   UNL d   1      -5.977   1.552  -5.806  0.00  0.00     0.018 C 
ENDBRANCH   1   8
TORSDOF 1
ENDMDL
