MODEL 1
REMARK minimizedAffinity 7.08399248
REMARK minimizedRMSD -1
REMARK  1 active torsions:
REMARK  status: ('A' for Active; 'I' for Inactive)
REMARK    1  A    between atoms: C1_2  and  C2_3 
ROOT
ATOM      1  C2  UNL d   1       2.144  -2.504   3.651  0.00  0.00    -0.076 A 
ATOM      2  C3  UNL d   1       2.361  -1.770   4.830  0.00  0.00     0.004 A 
ATOM      3  C4  UNL d   1       2.813  -2.394   5.991  0.00  0.00    -0.003 A 
ATOM      4  C5  UNL d   1       3.057  -3.763   5.992  0.00  0.00     0.000 A 
ATOM      5  C6  UNL d   1       2.865  -4.504   4.826  0.00  0.00     0.000 A 
ATOM      6  C7  UNL d   1       2.424  -3.887   3.643  0.00  0.00    -0.073 A 
ATOM      7  C8  UNL d   1       2.228  -4.736   2.416  0.00  0.00     0.078 C 
ENDROOT
BRANCH   1   8
ATOM      8  C1  UNL d   1       1.626  -1.778   2.430  0.00  0.00     0.053 C 
ATOM      9  C   UNL d   1       2.018  -0.308   2.417  0.00  0.00     0.018 C 
ENDBRANCH   1   8
TORSDOF 1
ENDMDL
