MODEL 1
REMARK minimizedAffinity 2.22859287
REMARK minimizedRMSD -1
REMARK  1 active torsions:
REMARK  status: ('A' for Active; 'I' for Inactive)
REMARK    1  A    between atoms: C1_2  and  C2_3 
ROOT
ATOM      1  C2  UNL d   1       2.536   0.985   1.202  0.00  0.00    -0.076 A 
ATOM      2  C3  UNL d   1       2.038  -0.238   0.720  0.00  0.00     0.004 A 
ATOM      3  C4  UNL d   1       1.802  -1.306   1.583  0.00  0.00    -0.003 A 
ATOM      4  C5  UNL d   1       2.060  -1.169   2.942  0.00  0.00     0.000 A 
ATOM      5  C6  UNL d   1       2.538   0.042   3.441  0.00  0.00     0.000 A 
ATOM      6  C7  UNL d   1       2.765   1.135   2.586  0.00  0.00    -0.073 A 
ATOM      7  C8  UNL d   1       3.287   2.416   3.177  0.00  0.00     0.078 C 
ENDROOT
BRANCH   1   8
ATOM      8  C1  UNL d   1       2.798   2.100   0.215  0.00  0.00     0.053 C 
ATOM      9  C   UNL d   1       1.525   2.823  -0.199  0.00  0.00     0.018 C 
ENDBRANCH   1   8
TORSDOF 1
ENDMDL
