MODEL 1
REMARK minimizedAffinity 6.34706259
REMARK minimizedRMSD -1
REMARK  1 active torsions:
REMARK  status: ('A' for Active; 'I' for Inactive)
REMARK    1  A    between atoms: C1_2  and  C2_3 
ROOT
ATOM      1  C2  UNL d   1       1.918   0.182   3.662  0.00  0.00    -0.076 A 
ATOM      2  C3  UNL d   1       1.675  -0.940   4.474  0.00  0.00     0.004 A 
ATOM      3  C4  UNL d   1       1.848  -2.232   3.982  0.00  0.00    -0.003 A 
ATOM      4  C5  UNL d   1       2.267  -2.424   2.670  0.00  0.00     0.000 A 
ATOM      5  C6  UNL d   1       2.529  -1.322   1.856  0.00  0.00     0.000 A 
ATOM      6  C7  UNL d   1       2.376  -0.012   2.342  0.00  0.00    -0.073 A 
ATOM      7  C8  UNL d   1       2.667   1.139   1.418  0.00  0.00     0.078 C 
ENDROOT
BRANCH   1   8
ATOM      8  C1  UNL d   1       1.687   1.559   4.242  0.00  0.00     0.053 C 
ATOM      9  C   UNL d   1       2.964   2.381   4.319  0.00  0.00     0.018 C 
ENDBRANCH   1   8
TORSDOF 1
ENDMDL
