MODEL 1
REMARK minimizedAffinity 11.3199005
REMARK minimizedRMSD -1
REMARK  1 active torsions:
REMARK  status: ('A' for Active; 'I' for Inactive)
REMARK    1  A    between atoms: C1_2  and  C2_3 
ROOT
ATOM      1  C2  UNL d   1       2.538  -0.445   2.695  0.00  0.00    -0.076 A 
ATOM      2  C3  UNL d   1       2.681  -0.808   1.345  0.00  0.00     0.004 A 
ATOM      3  C4  UNL d   1       2.734   0.160   0.343  0.00  0.00    -0.003 A 
ATOM      4  C5  UNL d   1       2.644   1.507   0.676  0.00  0.00     0.000 A 
ATOM      5  C6  UNL d   1       2.519   1.886   2.012  0.00  0.00     0.000 A 
ATOM      6  C7  UNL d   1       2.481   0.924   3.035  0.00  0.00    -0.073 A 
ATOM      7  C8  UNL d   1       2.339   1.389   4.459  0.00  0.00     0.078 C 
ENDROOT
BRANCH   1   8
ATOM      8  C1  UNL d   1       2.459  -1.540   3.735  0.00  0.00     0.053 C 
ATOM      9  C   UNL d   1       3.810  -2.182   4.008  0.00  0.00     0.018 C 
ENDBRANCH   1   8
TORSDOF 1
ENDMDL
