MODEL 1
REMARK minimizedAffinity 3.45632243
REMARK minimizedRMSD -1
REMARK  1 active torsions:
REMARK  status: ('A' for Active; 'I' for Inactive)
REMARK    1  A    between atoms: C1_2  and  C2_3 
ROOT
ATOM      1  C2  UNL d   1       1.449   0.547   1.390  0.00  0.00    -0.076 A 
ATOM      2  C3  UNL d   1       0.455   1.492   1.698  0.00  0.00     0.004 A 
ATOM      3  C4  UNL d   1       0.529   2.796   1.212  0.00  0.00    -0.003 A 
ATOM      4  C5  UNL d   1       1.599   3.177   0.408  0.00  0.00     0.000 A 
ATOM      5  C6  UNL d   1       2.585   2.248   0.078  0.00  0.00     0.000 A 
ATOM      6  C7  UNL d   1       2.517   0.924   0.547  0.00  0.00    -0.073 A 
ATOM      7  C8  UNL d   1       3.611  -0.034   0.164  0.00  0.00     0.078 C 
ENDROOT
BRANCH   1   8
ATOM      8  C1  UNL d   1       1.330  -0.844   1.968  0.00  0.00     0.053 C 
ATOM      9  C   UNL d   1       2.262  -1.066   3.150  0.00  0.00     0.018 C 
ENDBRANCH   1   8
TORSDOF 1
ENDMDL
