MODEL 1
REMARK minimizedAffinity 6.82254553
REMARK minimizedRMSD -1
REMARK  1 active torsions:
REMARK  status: ('A' for Active; 'I' for Inactive)
REMARK    1  A    between atoms: C1_2  and  C2_3 
ROOT
ATOM      1  C2  UNL d   1      -3.898   2.686  -1.433  0.00  0.00    -0.076 A 
ATOM      2  C3  UNL d   1      -3.281   2.190  -2.595  0.00  0.00     0.004 A 
ATOM      3  C4  UNL d   1      -4.014   1.979  -3.762  0.00  0.00    -0.003 A 
ATOM      4  C5  UNL d   1      -5.375   2.261  -3.786  0.00  0.00     0.000 A 
ATOM      5  C6  UNL d   1      -6.000   2.771  -2.648  0.00  0.00     0.000 A 
ATOM      6  C7  UNL d   1      -5.272   3.005  -1.468  0.00  0.00    -0.073 A 
ATOM      7  C8  UNL d   1      -5.998   3.550  -0.269  0.00  0.00     0.078 C 
ENDROOT
BRANCH   1   8
ATOM      8  C1  UNL d   1      -3.058   2.870  -0.189  0.00  0.00     0.053 C 
ATOM      9  C   UNL d   1      -3.408   1.870   0.902  0.00  0.00     0.018 C 
ENDBRANCH   1   8
TORSDOF 1
ENDMDL
