MODEL 1
REMARK minimizedAffinity 7.50459814
REMARK minimizedRMSD -1
REMARK  1 active torsions:
REMARK  status: ('A' for Active; 'I' for Inactive)
REMARK    1  A    between atoms: C1_2  and  C2_3 
ROOT
ATOM      1  C2  UNL d   1       3.092  -0.756   2.047  0.00  0.00    -0.076 A 
ATOM      2  C3  UNL d   1       1.755  -0.854   2.468  0.00  0.00     0.004 A 
ATOM      3  C4  UNL d   1       1.370  -1.794   3.423  0.00  0.00    -0.003 A 
ATOM      4  C5  UNL d   1       2.318  -2.649   3.974  0.00  0.00     0.000 A 
ATOM      5  C6  UNL d   1       3.652  -2.553   3.582  0.00  0.00     0.000 A 
ATOM      6  C7  UNL d   1       4.059  -1.601   2.632  0.00  0.00    -0.073 A 
ATOM      7  C8  UNL d   1       5.511  -1.546   2.241  0.00  0.00     0.078 C 
ENDROOT
BRANCH   1   8
ATOM      8  C1  UNL d   1       3.445   0.264   0.988  0.00  0.00     0.053 C 
ATOM      9  C   UNL d   1       2.759   1.601   1.215  0.00  0.00     0.018 C 
ENDBRANCH   1   8
TORSDOF 1
ENDMDL
