MODEL 1
REMARK minimizedAffinity -2.09751821
REMARK minimizedRMSD -1
REMARK  0 active torsions:
REMARK  status: ('A' for Active; 'I' for Inactive)
ROOT
ATOM      1  C1  BNZ d   1       0.068   1.242  -0.476  0.00  0.00     0.000 A 
ATOM      2  C2  BNZ d   1       1.133   1.173   0.382  0.00  0.00     0.000 A 
ATOM      3  C3  BNZ d   1       1.311   0.085   1.190  0.00  0.00     0.000 A 
ATOM      4  C4  BNZ d   1       0.404  -0.913   1.169  0.00  0.00     0.000 A 
ATOM      5  C5  BNZ d   1      -0.680  -0.853   0.316  0.00  0.00     0.000 A 
ATOM      6  C6  BNZ d   1      -0.835   0.226  -0.524  0.00  0.00     0.000 A 
ENDROOT
TORSDOF 0
ENDMDL
