MODEL 1
REMARK minimizedAffinity -3.41533184
REMARK minimizedRMSD -1
REMARK  0 active torsions:
REMARK  status: ('A' for Active; 'I' for Inactive)
ROOT
ATOM      1  C1  BNZ d   1      -0.474   0.488  -0.284  0.00  0.00     0.000 A 
ATOM      2  C2  BNZ d   1       0.670   0.641  -1.021  0.00  0.00     0.000 A 
ATOM      3  C3  BNZ d   1       0.666   0.426  -2.371  0.00  0.00     0.000 A 
ATOM      4  C4  BNZ d   1      -0.469   0.020  -2.975  0.00  0.00     0.000 A 
ATOM      5  C5  BNZ d   1      -1.628  -0.148  -2.244  0.00  0.00     0.000 A 
ATOM      6  C6  BNZ d   1      -1.631   0.107  -0.892  0.00  0.00     0.000 A 
ENDROOT
TORSDOF 0
ENDMDL
