MODEL 1
REMARK minimizedAffinity -2.61511445
REMARK minimizedRMSD -1
REMARK  0 active torsions:
REMARK  status: ('A' for Active; 'I' for Inactive)
ROOT
ATOM      1  C1  BNZ d   1       0.000   1.133   0.191  0.00  0.00     0.000 A 
ATOM      2  C2  BNZ d   1       1.333   0.818   0.216  0.00  0.00     0.000 A 
ATOM      3  C3  BNZ d   1       1.750  -0.476   0.070  0.00  0.00     0.000 A 
ATOM      4  C4  BNZ d   1       0.833  -1.457  -0.061  0.00  0.00     0.000 A 
ATOM      5  C5  BNZ d   1      -0.514  -1.157  -0.078  0.00  0.00     0.000 A 
ATOM      6  C6  BNZ d   1      -0.929   0.151   0.030  0.00  0.00     0.000 A 
ENDROOT
TORSDOF 0
ENDMDL
