MODEL 1
REMARK minimizedAffinity -3.47609568
REMARK minimizedRMSD -1
REMARK  0 active torsions:
REMARK  status: ('A' for Active; 'I' for Inactive)
ROOT
ATOM      1  C1  BNZ d   1      -0.050  -1.111   1.126  0.00  0.00     0.000 A 
ATOM      2  C2  BNZ d   1       0.178   0.076   0.482  0.00  0.00     0.000 A 
ATOM      3  C3  BNZ d   1       1.328   0.781   0.701  0.00  0.00     0.000 A 
ATOM      4  C4  BNZ d   1       2.229   0.320   1.592  0.00  0.00     0.000 A 
ATOM      5  C5  BNZ d   1       2.010  -0.871   2.255  0.00  0.00     0.000 A 
ATOM      6  C6  BNZ d   1       0.869  -1.598   2.003  0.00  0.00     0.000 A 
ENDROOT
TORSDOF 0
ENDMDL
