MODEL 1
REMARK minimizedAffinity -2.81841421
REMARK minimizedRMSD -1
REMARK  0 active torsions:
REMARK  status: ('A' for Active; 'I' for Inactive)
ROOT
ATOM      1  C1  BNZ d   1       2.102   0.325   1.177  0.00  0.00     0.000 A 
ATOM      2  C2  BNZ d   1       1.209  -0.518   0.572  0.00  0.00     0.000 A 
ATOM      3  C3  BNZ d   1      -0.015  -0.066   0.165  0.00  0.00     0.000 A 
ATOM      4  C4  BNZ d   1      -0.359   1.217   0.399  0.00  0.00     0.000 A 
ATOM      5  C5  BNZ d   1       0.527   2.077   1.017  0.00  0.00     0.000 A 
ATOM      6  C6  BNZ d   1       1.773   1.628   1.390  0.00  0.00     0.000 A 
ENDROOT
TORSDOF 0
ENDMDL
