MODEL 1
REMARK minimizedAffinity -3.61004424
REMARK minimizedRMSD -1
REMARK  0 active torsions:
REMARK  status: ('A' for Active; 'I' for Inactive)
ROOT
ATOM      1  C1  BNZ d   1      -2.594   1.184  -3.428  0.00  0.00     0.000 A 
ATOM      2  C2  BNZ d   1      -2.624  -0.096  -3.914  0.00  0.00     0.000 A 
ATOM      3  C3  BNZ d   1      -2.308  -1.157  -3.113  0.00  0.00     0.000 A 
ATOM      4  C4  BNZ d   1      -1.924  -0.934  -1.839  0.00  0.00     0.000 A 
ATOM      5  C5  BNZ d   1      -1.879   0.351  -1.337  0.00  0.00     0.000 A 
ATOM      6  C6  BNZ d   1      -2.235   1.414  -2.135  0.00  0.00     0.000 A 
ENDROOT
TORSDOF 0
ENDMDL
