MODEL 1
REMARK minimizedAffinity -2.92976618
REMARK minimizedRMSD -1
REMARK  0 active torsions:
REMARK  status: ('A' for Active; 'I' for Inactive)
ROOT
ATOM      1  C1  BNZ d   1       2.247   1.226   0.620  0.00  0.00     0.000 A 
ATOM      2  C2  BNZ d   1       1.134   1.505  -0.126  0.00  0.00     0.000 A 
ATOM      3  C3  BNZ d   1       0.029   0.702  -0.063  0.00  0.00     0.000 A 
ATOM      4  C4  BNZ d   1       0.055  -0.400   0.714  0.00  0.00     0.000 A 
ATOM      5  C5  BNZ d   1       1.174  -0.700   1.465  0.00  0.00     0.000 A 
ATOM      6  C6  BNZ d   1       2.269   0.132   1.429  0.00  0.00     0.000 A 
ENDROOT
TORSDOF 0
ENDMDL
