MODEL 1
REMARK minimizedAffinity -3.72256637
REMARK minimizedRMSD -1
REMARK  0 active torsions:
REMARK  status: ('A' for Active; 'I' for Inactive)
ROOT
ATOM      1  C1  BNZ d   1       2.199   1.007   0.016  0.00  0.00     0.000 A 
ATOM      2  C2  BNZ d   1       1.079   1.370  -0.685  0.00  0.00     0.000 A 
ATOM      3  C3  BNZ d   1      -0.134   0.804  -0.407  0.00  0.00     0.000 A 
ATOM      4  C4  BNZ d   1      -0.219  -0.151   0.541  0.00  0.00     0.000 A 
ATOM      5  C5  BNZ d   1       0.903  -0.535   1.249  0.00  0.00     0.000 A 
ATOM      6  C6  BNZ d   1       2.115   0.065   0.994  0.00  0.00     0.000 A 
ENDROOT
TORSDOF 0
ENDMDL
