MODEL 1
REMARK minimizedAffinity -2.78075123
REMARK minimizedRMSD -1
REMARK  0 active torsions:
REMARK  status: ('A' for Active; 'I' for Inactive)
ROOT
ATOM      1  C1  BNZ d   1      -2.576   1.297  -3.225  0.00  0.00     0.000 A 
ATOM      2  C2  BNZ d   1      -2.465   0.021  -3.709  0.00  0.00     0.000 A 
ATOM      3  C3  BNZ d   1      -2.476  -1.052  -2.862  0.00  0.00     0.000 A 
ATOM      4  C4  BNZ d   1      -2.558  -0.846  -1.532  0.00  0.00     0.000 A 
ATOM      5  C5  BNZ d   1      -2.661   0.435  -1.028  0.00  0.00     0.000 A 
ATOM      6  C6  BNZ d   1      -2.688   1.510  -1.886  0.00  0.00     0.000 A 
ENDROOT
TORSDOF 0
ENDMDL
