MODEL 1
REMARK minimizedAffinity -3.78411269
REMARK minimizedRMSD -1
REMARK  0 active torsions:
REMARK  status: ('A' for Active; 'I' for Inactive)
ROOT
ATOM      1  N1  IND d   1       0.293   1.229   2.302  0.00  0.00    -0.196 N 
ATOM      2  C2  IND d   1      -0.975   1.705   2.490  0.00  0.00     0.054 A 
ATOM      3  C3  IND d   1      -1.789   1.281   1.498  0.00  0.00    -0.031 A 
ATOM      4  C4  IND d   1      -1.278  -0.285  -0.480  0.00  0.00     0.051 A 
ATOM      5  C5  IND d   1      -0.251  -0.946  -1.093  0.00  0.00    -0.031 A 
ATOM      6  C6  IND d   1       1.035  -0.917  -0.595  0.00  0.00     0.015 A 
ATOM      7  C7  IND d   1       1.341  -0.233   0.547  0.00  0.00    -0.016 A 
ATOM      8  C8  IND d   1       0.302   0.445   1.169  0.00  0.00    -0.047 A 
ATOM      9  C9  IND d   1      -0.996   0.455   0.644  0.00  0.00    -0.096 A 
ATOM     10  HN1 IND d   1       0.970   1.392   2.806  0.00  0.00     0.298 HD
ENDROOT
TORSDOF 0
ENDMDL
