MODEL 1
REMARK minimizedAffinity -0.850087285
REMARK minimizedRMSD -1
REMARK  0 active torsions:
REMARK  status: ('A' for Active; 'I' for Inactive)
ROOT
ATOM      1  N1  IND d   1       0.489   1.305   2.147  0.00  0.00    -0.196 N 
ATOM      2  C2  IND d   1      -0.756   1.676   2.574  0.00  0.00     0.054 A 
ATOM      3  C3  IND d   1      -1.699   1.238   1.710  0.00  0.00    -0.031 A 
ATOM      4  C4  IND d   1      -1.434  -0.191  -0.415  0.00  0.00     0.051 A 
ATOM      5  C5  IND d   1      -0.486  -0.743  -1.230  0.00  0.00    -0.031 A 
ATOM      6  C6  IND d   1       0.862  -0.641  -0.955  0.00  0.00     0.015 A 
ATOM      7  C7  IND d   1       1.314   0.010   0.158  0.00  0.00    -0.016 A 
ATOM      8  C8  IND d   1       0.355   0.578   0.984  0.00  0.00    -0.047 A 
ATOM      9  C9  IND d   1      -1.013   0.515   0.687  0.00  0.00    -0.096 A 
ATOM     10  HN1 IND d   1       1.230   1.495   2.538  0.00  0.00     0.298 HD
ENDROOT
TORSDOF 0
ENDMDL
