MODEL 1
REMARK minimizedAffinity -1.24783862
REMARK minimizedRMSD -1
REMARK  0 active torsions:
REMARK  status: ('A' for Active; 'I' for Inactive)
ROOT
ATOM      1  N1  IND d   1       1.000   1.126  -0.394  0.00  0.00    -0.196 N 
ATOM      2  C2  IND d   1       0.406   0.063   0.228  0.00  0.00     0.054 A 
ATOM      3  C3  IND d   1       0.013  -0.855  -0.683  0.00  0.00    -0.031 A 
ATOM      4  C4  IND d   1       0.335  -0.867  -3.237  0.00  0.00     0.051 A 
ATOM      5  C5  IND d   1       0.790  -0.095  -4.269  0.00  0.00    -0.031 A 
ATOM      6  C6  IND d   1       1.353   1.147  -4.058  0.00  0.00     0.015 A 
ATOM      7  C7  IND d   1       1.492   1.661  -2.799  0.00  0.00    -0.016 A 
ATOM      8  C8  IND d   1       1.024   0.883  -1.750  0.00  0.00    -0.047 A 
ATOM      9  C9  IND d   1       0.414  -0.360  -1.962  0.00  0.00    -0.096 A 
ATOM     10  HN1 IND d   1       1.307   1.827  -0.004  0.00  0.00     0.298 HD
ENDROOT
TORSDOF 0
ENDMDL
