MODEL 1
REMARK minimizedAffinity -3.94968128
REMARK minimizedRMSD -1
REMARK  0 active torsions:
REMARK  status: ('A' for Active; 'I' for Inactive)
ROOT
ATOM      1  N1  IND d   1       1.308   1.081  -0.439  0.00  0.00    -0.196 N 
ATOM      2  C2  IND d   1       1.014   0.179  -1.423  0.00  0.00     0.054 A 
ATOM      3  C3  IND d   1      -0.156  -0.443  -1.156  0.00  0.00    -0.031 A 
ATOM      4  C4  IND d   1      -1.806  -0.062   0.783  0.00  0.00     0.051 A 
ATOM      5  C5  IND d   1      -1.954   0.633   1.950  0.00  0.00    -0.031 A 
ATOM      6  C6  IND d   1      -1.005   1.534   2.388  0.00  0.00     0.015 A 
ATOM      7  C7  IND d   1       0.128   1.782   1.666  0.00  0.00    -0.016 A 
ATOM      8  C8  IND d   1       0.285   1.072   0.484  0.00  0.00    -0.047 A 
ATOM      9  C9  IND d   1      -0.654   0.126   0.056  0.00  0.00    -0.096 A 
ATOM     10  HN1 IND d   1       2.013   1.572  -0.403  0.00  0.00     0.298 HD
ENDROOT
TORSDOF 0
ENDMDL
