MODEL 1
REMARK minimizedAffinity -6.19392872
REMARK minimizedRMSD -1
REMARK  0 active torsions:
REMARK  status: ('A' for Active; 'I' for Inactive)
ROOT
ATOM      1  N1  IND d   1       0.255   0.726   2.406  0.00  0.00    -0.196 N 
ATOM      2  C2  IND d   1      -0.789   1.318   3.060  0.00  0.00     0.054 A 
ATOM      3  C3  IND d   1      -1.874   1.381   2.255  0.00  0.00    -0.031 A 
ATOM      4  C4  IND d   1      -2.190   0.481  -0.136  0.00  0.00     0.051 A 
ATOM      5  C5  IND d   1      -1.509  -0.105  -1.165  0.00  0.00    -0.031 A 
ATOM      6  C6  IND d   1      -0.178  -0.454  -1.054  0.00  0.00     0.015 A 
ATOM      7  C7  IND d   1       0.520  -0.239   0.101  0.00  0.00    -0.016 A 
ATOM      8  C8  IND d   1      -0.167   0.363   1.145  0.00  0.00    -0.047 A 
ATOM      9  C9  IND d   1      -1.505   0.758   1.024  0.00  0.00    -0.096 A 
ATOM     10  HN1 IND d   1       1.043   0.601   2.727  0.00  0.00     0.298 HD
ENDROOT
TORSDOF 0
ENDMDL
