MODEL 1
REMARK minimizedAffinity -2.13258386
REMARK minimizedRMSD -1
REMARK  0 active torsions:
REMARK  status: ('A' for Active; 'I' for Inactive)
ROOT
ATOM      1  N1  IND d   1       0.993   0.891  -0.203  0.00  0.00    -0.196 N 
ATOM      2  C2  IND d   1       0.489  -0.303   0.232  0.00  0.00     0.054 A 
ATOM      3  C3  IND d   1       0.291  -1.138  -0.813  0.00  0.00    -0.031 A 
ATOM      4  C4  IND d   1       0.820  -0.791  -3.308  0.00  0.00     0.051 A 
ATOM      5  C5  IND d   1       1.257   0.152  -4.195  0.00  0.00    -0.031 A 
ATOM      6  C6  IND d   1       1.639   1.414  -3.789  0.00  0.00     0.015 A 
ATOM      7  C7  IND d   1       1.608   1.778  -2.472  0.00  0.00    -0.016 A 
ATOM      8  C8  IND d   1       1.158   0.826  -1.569  0.00  0.00    -0.047 A 
ATOM      9  C9  IND d   1       0.729  -0.443  -1.981  0.00  0.00    -0.096 A 
ATOM     10  HN1 IND d   1       1.176   1.569   0.293  0.00  0.00     0.298 HD
ENDROOT
TORSDOF 0
ENDMDL
