MODEL 1
REMARK minimizedAffinity -4.54102707
REMARK minimizedRMSD -1
REMARK  0 active torsions:
REMARK  status: ('A' for Active; 'I' for Inactive)
ROOT
ATOM      1  N1  IND d   1      -1.845   0.859   0.714  0.00  0.00    -0.196 N 
ATOM      2  C2  IND d   1      -1.513   1.584   1.825  0.00  0.00     0.054 A 
ATOM      3  C3  IND d   1      -0.234   1.335   2.183  0.00  0.00    -0.031 A 
ATOM      4  C4  IND d   1       1.529  -0.147   1.032  0.00  0.00     0.051 A 
ATOM      5  C5  IND d   1       1.684  -1.036   0.007  0.00  0.00    -0.031 A 
ATOM      6  C6  IND d   1       0.651  -1.344  -0.855  0.00  0.00     0.015 A 
ATOM      7  C7  IND d   1      -0.578  -0.762  -0.729  0.00  0.00    -0.016 A 
ATOM      8  C8  IND d   1      -0.742   0.137   0.316  0.00  0.00    -0.047 A 
ATOM      9  C9  IND d   1       0.291   0.421   1.219  0.00  0.00    -0.096 A 
ATOM     10  HN1 IND d   1      -2.614   0.855   0.330  0.00  0.00     0.298 HD
ENDROOT
TORSDOF 0
ENDMDL
