MODEL 1
REMARK minimizedAffinity -1.5517354
REMARK minimizedRMSD -1
REMARK  0 active torsions:
REMARK  status: ('A' for Active; 'I' for Inactive)
ROOT
ATOM      1  N1  IND d   1      -1.883   0.989   2.739  0.00  0.00    -0.196 N 
ATOM      2  C2  IND d   1      -1.114   1.886   3.425  0.00  0.00     0.054 A 
ATOM      3  C3  IND d   1      -0.069   2.287   2.666  0.00  0.00    -0.031 A 
ATOM      4  C4  IND d   1       0.516   1.676   0.235  0.00  0.00     0.051 A 
ATOM      5  C5  IND d   1       0.129   0.865  -0.795  0.00  0.00    -0.031 A 
ATOM      6  C6  IND d   1      -0.972   0.039  -0.698  0.00  0.00     0.015 A 
ATOM      7  C7  IND d   1      -1.738   0.002   0.433  0.00  0.00    -0.016 A 
ATOM      8  C8  IND d   1      -1.344   0.819   1.483  0.00  0.00    -0.047 A 
ATOM      9  C9  IND d   1      -0.203   1.628   1.406  0.00  0.00    -0.096 A 
ATOM     10  HN1 IND d   1      -2.587   0.597   3.041  0.00  0.00     0.298 HD
ENDROOT
TORSDOF 0
ENDMDL
