MODEL 1
REMARK minimizedAffinity 3.64622951
REMARK minimizedRMSD -1
REMARK  1 active torsions:
REMARK  status: ('A' for Active; 'I' for Inactive)
REMARK    1  A    between atoms: C1_2  and  C2_3 
ROOT
ATOM      1  C2  UNL d   1       3.810   1.197   0.265  0.00  0.00    -0.076 A 
ATOM      2  C3  UNL d   1       3.940   2.189   1.253  0.00  0.00     0.004 A 
ATOM      3  C4  UNL d   1       2.825   2.678   1.931  0.00  0.00    -0.003 A 
ATOM      4  C5  UNL d   1       1.560   2.182   1.632  0.00  0.00     0.000 A 
ATOM      5  C6  UNL d   1       1.414   1.186   0.667  0.00  0.00     0.000 A 
ATOM      6  C7  UNL d   1       2.530   0.671  -0.013  0.00  0.00    -0.073 A 
ATOM      7  C8  UNL d   1       2.314  -0.399  -1.049  0.00  0.00     0.078 C 
ENDROOT
BRANCH   1   8
ATOM      8  C1  UNL d   1       5.052   0.725  -0.455  0.00  0.00     0.053 C 
ATOM      9  C   UNL d   1       5.999  -0.040   0.456  0.00  0.00     0.018 C 
ENDBRANCH   1   8
TORSDOF 1
ENDMDL
