MODEL 1
REMARK minimizedAffinity 23.1381187
REMARK minimizedRMSD -1
REMARK  1 active torsions:
REMARK  status: ('A' for Active; 'I' for Inactive)
REMARK    1  A    between atoms: C1_2  and  C2_3 
ROOT
ATOM      1  C2  UNL d   1      -4.126   2.339  -4.252  0.00  0.00    -0.076 A 
ATOM      2  C3  UNL d   1      -3.293   3.141  -5.052  0.00  0.00     0.004 A 
ATOM      3  C4  UNL d   1      -2.363   2.569  -5.918  0.00  0.00    -0.003 A 
ATOM      4  C5  UNL d   1      -2.251   1.186  -5.999  0.00  0.00     0.000 A 
ATOM      5  C6  UNL d   1      -3.082   0.375  -5.227  0.00  0.00     0.000 A 
ATOM      6  C7  UNL d   1      -4.036   0.935  -4.360  0.00  0.00    -0.073 A 
ATOM      7  C8  UNL d   1      -4.901   0.013  -3.546  0.00  0.00     0.078 C 
ENDROOT
BRANCH   1   8
ATOM      8  C1  UNL d   1      -5.097   3.016  -3.312  0.00  0.00     0.053 C 
ATOM      9  C   UNL d   1      -5.457   4.424  -3.759  0.00  0.00     0.018 C 
ENDBRANCH   1   8
TORSDOF 1
ENDMDL
