MODEL 1
REMARK minimizedAffinity 10.2739544
REMARK minimizedRMSD -1
REMARK  1 active torsions:
REMARK  status: ('A' for Active; 'I' for Inactive)
REMARK    1  A    between atoms: C1_2  and  C2_3 
ROOT
ATOM      1  C2  UNL d   1       3.911  -0.820  -0.368  0.00  0.00    -0.076 A 
ATOM      2  C3  UNL d   1       5.316  -0.773  -0.355  0.00  0.00     0.004 A 
ATOM      3  C4  UNL d   1       5.998   0.384  -0.731  0.00  0.00    -0.003 A 
ATOM      4  C5  UNL d   1       5.286   1.511  -1.124  0.00  0.00     0.000 A 
ATOM      5  C6  UNL d   1       3.892   1.488  -1.125  0.00  0.00     0.000 A 
ATOM      6  C7  UNL d   1       3.189   0.335  -0.734  0.00  0.00    -0.073 A 
ATOM      7  C8  UNL d   1       1.685   0.364  -0.761  0.00  0.00     0.078 C 
ENDROOT
BRANCH   1   8
ATOM      8  C1  UNL d   1       3.227  -2.110   0.024  0.00  0.00     0.053 C 
ATOM      9  C   UNL d   1       2.653  -2.852  -1.174  0.00  0.00     0.018 C 
ENDBRANCH   1   8
TORSDOF 1
ENDMDL
