MODEL 1
REMARK minimizedAffinity 10.259635
REMARK minimizedRMSD -1
REMARK  1 active torsions:
REMARK  status: ('A' for Active; 'I' for Inactive)
REMARK    1  A    between atoms: C1_2  and  C2_3 
ROOT
ATOM      1  C2  UNL d   1       3.317   0.111  -0.861  0.00  0.00    -0.076 A 
ATOM      2  C3  UNL d   1       3.953   1.264  -1.353  0.00  0.00     0.004 A 
ATOM      3  C4  UNL d   1       5.283   1.540  -1.037  0.00  0.00    -0.003 A 
ATOM      4  C5  UNL d   1       5.997   0.667  -0.224  0.00  0.00     0.000 A 
ATOM      5  C6  UNL d   1       5.387  -0.490   0.259  0.00  0.00     0.000 A 
ATOM      6  C7  UNL d   1       4.053  -0.791  -0.063  0.00  0.00    -0.073 A 
ATOM      7  C8  UNL d   1       3.443  -2.050   0.490  0.00  0.00     0.078 C 
ENDROOT
BRANCH   1   8
ATOM      8  C1  UNL d   1       1.866  -0.122  -1.215  0.00  0.00     0.053 C 
ATOM      9  C   UNL d   1       0.926   0.808  -0.463  0.00  0.00     0.018 C 
ENDBRANCH   1   8
TORSDOF 1
ENDMDL
