MODEL 1
REMARK minimizedAffinity 11.2837448
REMARK minimizedRMSD -1
REMARK  1 active torsions:
REMARK  status: ('A' for Active; 'I' for Inactive)
REMARK    1  A    between atoms: C1_2  and  C2_3 
ROOT
ATOM      1  C2  UNL d   1       3.740  -1.185  -0.699  0.00  0.00    -0.076 A 
ATOM      2  C3  UNL d   1       5.134  -1.362  -0.742  0.00  0.00     0.004 A 
ATOM      3  C4  UNL d   1       5.999  -0.280  -0.589  0.00  0.00    -0.003 A 
ATOM      4  C5  UNL d   1       5.484   0.996  -0.389  0.00  0.00     0.000 A 
ATOM      5  C6  UNL d   1       4.104   1.187  -0.326  0.00  0.00     0.000 A 
ATOM      6  C7  UNL d   1       3.218   0.105  -0.463  0.00  0.00    -0.073 A 
ATOM      7  C8  UNL d   1       1.739   0.369  -0.392  0.00  0.00     0.078 C 
ENDROOT
BRANCH   1   8
ATOM      8  C1  UNL d   1       2.850  -2.391  -0.900  0.00  0.00     0.053 C 
ATOM      9  C   UNL d   1       3.017  -3.016  -2.276  0.00  0.00     0.018 C 
ENDBRANCH   1   8
TORSDOF 1
ENDMDL
