MODEL 1
REMARK minimizedAffinity 1.87638748
REMARK minimizedRMSD -1
REMARK  1 active torsions:
REMARK  status: ('A' for Active; 'I' for Inactive)
REMARK    1  A    between atoms: C1_2  and  C2_3 
ROOT
ATOM      1  C2  UNL d   1      -0.732  -2.320  -2.243  0.00  0.00    -0.076 A 
ATOM      2  C3  UNL d   1      -0.891  -1.667  -3.478  0.00  0.00     0.004 A 
ATOM      3  C4  UNL d   1      -1.373  -2.348  -4.593  0.00  0.00    -0.003 A 
ATOM      4  C5  UNL d   1      -1.706  -3.695  -4.493  0.00  0.00     0.000 A 
ATOM      5  C6  UNL d   1      -1.571  -4.355  -3.272  0.00  0.00     0.000 A 
ATOM      6  C7  UNL d   1      -1.102  -3.678  -2.133  0.00  0.00    -0.073 A 
ATOM      7  C8  UNL d   1      -0.971  -4.440  -0.843  0.00  0.00     0.078 C 
ENDROOT
BRANCH   1   8
ATOM      8  C1  UNL d   1      -0.179  -1.536  -1.075  0.00  0.00     0.053 C 
ATOM      9  C   UNL d   1       1.214  -1.997  -0.671  0.00  0.00     0.018 C 
ENDBRANCH   1   8
TORSDOF 1
ENDMDL
