MODEL 1
REMARK minimizedAffinity 16.6847496
REMARK minimizedRMSD -1
REMARK  1 active torsions:
REMARK  status: ('A' for Active; 'I' for Inactive)
REMARK    1  A    between atoms: C1_2  and  C2_3 
ROOT
ATOM      1  C2  UNL d   1       3.046  -1.381  -1.688  0.00  0.00    -0.076 A 
ATOM      2  C3  UNL d   1       3.664  -0.434  -2.522  0.00  0.00     0.004 A 
ATOM      3  C4  UNL d   1       4.283   0.696  -1.990  0.00  0.00    -0.003 A 
ATOM      4  C5  UNL d   1       4.296   0.896  -0.614  0.00  0.00     0.000 A 
ATOM      5  C6  UNL d   1       3.703  -0.043   0.230  0.00  0.00     0.000 A 
ATOM      6  C7  UNL d   1       3.089  -1.195  -0.289  0.00  0.00    -0.073 A 
ATOM      7  C8  UNL d   1       2.460  -2.172   0.667  0.00  0.00     0.078 C 
ENDROOT
BRANCH   1   8
ATOM      8  C1  UNL d   1       2.366  -2.573  -2.324  0.00  0.00     0.053 C 
ATOM      9  C   UNL d   1       3.017  -2.984  -3.635  0.00  0.00     0.018 C 
ENDBRANCH   1   8
TORSDOF 1
ENDMDL
