MODEL 1
REMARK minimizedAffinity 9.00961113
REMARK minimizedRMSD -1
REMARK  1 active torsions:
REMARK  status: ('A' for Active; 'I' for Inactive)
REMARK    1  A    between atoms: C1_2  and  C2_3 
ROOT
ATOM      1  C2  UNL d   1       3.073  -1.717  -1.301  0.00  0.00    -0.076 A 
ATOM      2  C3  UNL d   1       2.541  -1.633  -0.003  0.00  0.00     0.004 A 
ATOM      3  C4  UNL d   1       1.569  -2.531   0.434  0.00  0.00    -0.003 A 
ATOM      4  C5  UNL d   1       1.114  -3.530  -0.420  0.00  0.00     0.000 A 
ATOM      5  C6  UNL d   1       1.643  -3.639  -1.705  0.00  0.00     0.000 A 
ATOM      6  C7  UNL d   1       2.635  -2.752  -2.156  0.00  0.00    -0.073 A 
ATOM      7  C8  UNL d   1       3.166  -2.913  -3.554  0.00  0.00     0.078 C 
ENDROOT
BRANCH   1   8
ATOM      8  C1  UNL d   1       4.105  -0.699  -1.729  0.00  0.00     0.053 C 
ATOM      9  C   UNL d   1       3.994   0.605  -0.953  0.00  0.00     0.018 C 
ENDBRANCH   1   8
TORSDOF 1
ENDMDL
