MODEL 1
REMARK minimizedAffinity 6.13844824
REMARK minimizedRMSD -1
REMARK  1 active torsions:
REMARK  status: ('A' for Active; 'I' for Inactive)
REMARK    1  A    between atoms: C3_4  and  O_7 
ROOT
ATOM      1  C   UNL d   1       1.882  -1.753   2.916  0.00  0.00    -0.033 A 
ATOM      2  C1  UNL d   1       1.734  -2.007   4.281  0.00  0.00     0.039 A 
ATOM      3  C2  UNL d   1       1.614  -0.946   5.181  0.00  0.00    -0.080 A 
ATOM      4  C3  UNL d   1       1.643   0.361   4.704  0.00  0.00     0.150 A 
ATOM      5  C4  UNL d   1       1.787   0.621   3.345  0.00  0.00    -0.007 A 
ATOM      6  C5  UNL d   1       1.907  -0.439   2.448  0.00  0.00     0.039 A 
ENDROOT
BRANCH   4   7
ATOM      7  O   UNL d   1       1.535   1.429   5.545  0.00  0.00    -0.526 OA
ATOM      8  H5  UNL d   1       1.471   1.098   6.456  0.00  0.00     0.418 HD
ENDBRANCH   4   7
TORSDOF 1
ENDMDL
