MODEL 1
REMARK minimizedAffinity 4.31013584
REMARK minimizedRMSD -1
REMARK  1 active torsions:
REMARK  status: ('A' for Active; 'I' for Inactive)
REMARK    1  A    between atoms: C3_4  and  O_7 
ROOT
ATOM      1  C   UNL d   1      -1.824  -3.300  -0.734  0.00  0.00    -0.033 A 
ATOM      2  C1  UNL d   1      -2.566  -2.123  -0.625  0.00  0.00     0.039 A 
ATOM      3  C2  UNL d   1      -3.025  -1.477  -1.775  0.00  0.00    -0.080 A 
ATOM      4  C3  UNL d   1      -2.737  -2.018  -3.024  0.00  0.00     0.150 A 
ATOM      5  C4  UNL d   1      -2.001  -3.193  -3.140  0.00  0.00    -0.007 A 
ATOM      6  C5  UNL d   1      -1.543  -3.836  -1.991  0.00  0.00     0.039 A 
ENDROOT
BRANCH   4   7
ATOM      7  O   UNL d   1      -3.160  -1.421  -4.175  0.00  0.00    -0.526 OA
ATOM      8  H5  UNL d   1      -3.631  -0.604  -3.942  0.00  0.00     0.418 HD
ENDBRANCH   4   7
TORSDOF 1
ENDMDL
