MODEL 1
REMARK minimizedAffinity -0.424712181
REMARK minimizedRMSD -1
REMARK  1 active torsions:
REMARK  status: ('A' for Active; 'I' for Inactive)
REMARK    1  A    between atoms: C3_4  and  O_7 
ROOT
ATOM      1  C   UNL d   1       1.867  -2.683  -0.489  0.00  0.00    -0.033 A 
ATOM      2  C1  UNL d   1       0.595  -2.882  -1.030  0.00  0.00     0.039 A 
ATOM      3  C2  UNL d   1      -0.532  -2.392  -0.367  0.00  0.00    -0.080 A 
ATOM      4  C3  UNL d   1      -0.374  -1.705   0.833  0.00  0.00     0.150 A 
ATOM      5  C4  UNL d   1       0.891  -1.499   1.376  0.00  0.00    -0.007 A 
ATOM      6  C5  UNL d   1       2.015  -1.990   0.713  0.00  0.00     0.039 A 
ENDROOT
BRANCH   4   7
ATOM      7  O   UNL d   1      -1.444  -1.212   1.519  0.00  0.00    -0.526 OA
ATOM      8  H5  UNL d   1      -2.254  -1.455   1.040  0.00  0.00     0.418 HD
ENDBRANCH   4   7
TORSDOF 1
ENDMDL
