MODEL 1
REMARK minimizedAffinity -0.816046715
REMARK minimizedRMSD -1
REMARK  1 active torsions:
REMARK  status: ('A' for Active; 'I' for Inactive)
REMARK    1  A    between atoms: C3_4  and  O_7 
ROOT
ATOM      1  C   UNL d   1       4.813   3.006  -4.574  0.00  0.00    -0.033 A 
ATOM      2  C1  UNL d   1       6.000   3.404  -3.955  0.00  0.00     0.039 A 
ATOM      3  C2  UNL d   1       5.989   3.826  -2.625  0.00  0.00    -0.080 A 
ATOM      4  C3  UNL d   1       4.786   3.845  -1.924  0.00  0.00     0.150 A 
ATOM      5  C4  UNL d   1       3.600   3.446  -2.533  0.00  0.00    -0.007 A 
ATOM      6  C5  UNL d   1       3.613   3.026  -3.862  0.00  0.00     0.039 A 
ENDROOT
BRANCH   4   7
ATOM      7  O   UNL d   1       4.724   4.253  -0.625  0.00  0.00    -0.526 OA
ATOM      8  H5  UNL d   1       5.614   4.526  -0.346  0.00  0.00     0.418 HD
ENDBRANCH   4   7
TORSDOF 1
ENDMDL
