MODEL 1
REMARK minimizedAffinity 0.621521652
REMARK minimizedRMSD -1
REMARK  1 active torsions:
REMARK  status: ('A' for Active; 'I' for Inactive)
REMARK    1  A    between atoms: C3_4  and  O_7 
ROOT
ATOM      1  C   UNL d   1       4.848  -0.088  -5.987  0.00  0.00    -0.033 A 
ATOM      2  C1  UNL d   1       3.527  -0.539  -5.976  0.00  0.00     0.039 A 
ATOM      3  C2  UNL d   1       3.255  -1.909  -5.978  0.00  0.00    -0.080 A 
ATOM      4  C3  UNL d   1       4.312  -2.815  -5.992  0.00  0.00     0.150 A 
ATOM      5  C4  UNL d   1       5.630  -2.372  -6.000  0.00  0.00    -0.007 A 
ATOM      6  C5  UNL d   1       5.900  -1.004  -5.998  0.00  0.00     0.039 A 
ENDROOT
BRANCH   4   7
ATOM      7  O   UNL d   1       4.096  -4.161  -6.000  0.00  0.00    -0.526 OA
ATOM      8  H5  UNL d   1       3.138  -4.319  -6.022  0.00  0.00     0.418 HD
ENDBRANCH   4   7
TORSDOF 1
ENDMDL
