MODEL 1
REMARK minimizedAffinity 0.257924974
REMARK minimizedRMSD -1
REMARK  0 active torsions:
REMARK  status: ('A' for Active; 'I' for Inactive)
ROOT
ATOM      1  C2' OXE d   1       5.649   5.789  -5.500  0.00  0.00     0.078 C 
ATOM      2  C1' OXE d   1       5.143   3.397  -4.120  0.00  0.00     0.078 C 
ATOM      3  C1  OXE d   1       3.969   4.117  -4.735  0.00  0.00    -0.078 A 
ATOM      4  C2  OXE d   1       4.219   5.310  -5.368  0.00  0.00    -0.078 A 
ATOM      5  C3  OXE d   1       3.180   5.987  -6.000  0.00  0.00     0.003 A 
ATOM      6  C4  OXE d   1       1.859   5.543  -5.865  0.00  0.00    -0.002 A 
ATOM      7  C5  OXE d   1       1.577   4.350  -5.190  0.00  0.00    -0.002 A 
ATOM      8  C6  OXE d   1       2.623   3.605  -4.657  0.00  0.00     0.003 A 
ENDROOT
TORSDOF 0
ENDMDL
