MODEL 1
REMARK minimizedAffinity 2.90535355
REMARK minimizedRMSD -1
REMARK  0 active torsions:
REMARK  status: ('A' for Active; 'I' for Inactive)
ROOT
ATOM      1  C2' OXE d   1       2.140   5.997  -5.882  0.00  0.00     0.078 C 
ATOM      2  C1' OXE d   1       4.944   5.956  -6.000  0.00  0.00     0.078 C 
ATOM      3  C1  OXE d   1       4.254   4.827  -5.277  0.00  0.00    -0.078 A 
ATOM      4  C2  OXE d   1       2.884   4.879  -5.184  0.00  0.00    -0.078 A 
ATOM      5  C3  OXE d   1       2.195   3.834  -4.575  0.00  0.00     0.003 A 
ATOM      6  C4  OXE d   1       2.891   2.809  -3.924  0.00  0.00    -0.002 A 
ATOM      7  C5  OXE d   1       4.288   2.758  -3.972  0.00  0.00    -0.002 A 
ATOM      8  C6  OXE d   1       4.982   3.734  -4.679  0.00  0.00     0.003 A 
ENDROOT
TORSDOF 0
ENDMDL
