MODEL 1
REMARK minimizedAffinity 10.0733471
REMARK minimizedRMSD -1
REMARK  0 active torsions:
REMARK  status: ('A' for Active; 'I' for Inactive)
ROOT
ATOM      1  C2' OXE d   1       3.105   2.948  -1.995  0.00  0.00     0.078 C 
ATOM      2  C1' OXE d   1       4.125   1.783  -4.336  0.00  0.00     0.078 C 
ATOM      3  C1  OXE d   1       3.615   3.200  -4.420  0.00  0.00    -0.078 A 
ATOM      4  C2  OXE d   1       3.075   3.746  -3.281  0.00  0.00    -0.078 A 
ATOM      5  C3  OXE d   1       2.640   5.068  -3.289  0.00  0.00     0.003 A 
ATOM      6  C4  OXE d   1       2.607   5.795  -4.485  0.00  0.00    -0.002 A 
ATOM      7  C5  OXE d   1       3.116   5.244  -5.666  0.00  0.00    -0.002 A 
ATOM      8  C6  OXE d   1       3.661   3.965  -5.641  0.00  0.00     0.003 A 
ENDROOT
TORSDOF 0
ENDMDL
