MODEL 1
REMARK minimizedAffinity 0.638687193
REMARK minimizedRMSD -1
REMARK  0 active torsions:
REMARK  status: ('A' for Active; 'I' for Inactive)
ROOT
ATOM      1  C2' OXE d   1       3.510   2.969  -3.372  0.00  0.00     0.078 C 
ATOM      2  C1' OXE d   1       1.790   4.872  -4.512  0.00  0.00     0.078 C 
ATOM      3  C1  OXE d   1       3.255   4.949  -4.862  0.00  0.00    -0.078 A 
ATOM      4  C2  OXE d   1       4.096   4.043  -4.263  0.00  0.00    -0.078 A 
ATOM      5  C3  OXE d   1       5.448   4.035  -4.593  0.00  0.00     0.003 A 
ATOM      6  C4  OXE d   1       5.984   5.037  -5.411  0.00  0.00    -0.002 A 
ATOM      7  C5  OXE d   1       5.151   5.994  -6.000  0.00  0.00    -0.002 A 
ATOM      8  C6  OXE d   1       3.781   5.938  -5.770  0.00  0.00     0.003 A 
ENDROOT
TORSDOF 0
ENDMDL
