MODEL 1
REMARK minimizedAffinity 4.31555414
REMARK minimizedRMSD -1
REMARK  0 active torsions:
REMARK  status: ('A' for Active; 'I' for Inactive)
ROOT
ATOM      1  C2' OXE d   1       1.335   3.342   1.031  0.00  0.00     0.078 C 
ATOM      2  C1' OXE d   1       0.806   0.829   2.164  0.00  0.00     0.078 C 
ATOM      3  C1  OXE d   1       2.107   1.006   1.422  0.00  0.00    -0.078 A 
ATOM      4  C2  OXE d   1       2.336   2.225   0.830  0.00  0.00    -0.078 A 
ATOM      5  C3  OXE d   1       3.544   2.460   0.180  0.00  0.00     0.003 A 
ATOM      6  C4  OXE d   1       4.461   1.418  -0.010  0.00  0.00    -0.002 A 
ATOM      7  C5  OXE d   1       4.229   0.158   0.551  0.00  0.00    -0.002 A 
ATOM      8  C6  OXE d   1       3.079  -0.052   1.304  0.00  0.00     0.003 A 
ENDROOT
TORSDOF 0
ENDMDL
