MODEL 1
REMARK minimizedAffinity 3.45837259
REMARK minimizedRMSD -1
REMARK  0 active torsions:
REMARK  status: ('A' for Active; 'I' for Inactive)
ROOT
ATOM      1  C2' OXE d   1       2.148   2.714  -4.495  0.00  0.00     0.078 C 
ATOM      2  C1' OXE d   1       4.854   2.650  -3.750  0.00  0.00     0.078 C 
ATOM      3  C1  OXE d   1       4.365   3.849  -4.523  0.00  0.00    -0.078 A 
ATOM      4  C2  OXE d   1       3.051   3.851  -4.924  0.00  0.00    -0.078 A 
ATOM      5  C3  OXE d   1       2.535   4.957  -5.592  0.00  0.00     0.003 A 
ATOM      6  C4  OXE d   1       3.379   6.000  -5.993  0.00  0.00    -0.002 A 
ATOM      7  C5  OXE d   1       4.730   6.000  -5.630  0.00  0.00    -0.002 A 
ATOM      8  C6  OXE d   1       5.228   4.955  -4.860  0.00  0.00     0.003 A 
ENDROOT
TORSDOF 0
ENDMDL
