MODEL 1
REMARK minimizedAffinity 7.84665251
REMARK minimizedRMSD -1
REMARK  0 active torsions:
REMARK  status: ('A' for Active; 'I' for Inactive)
ROOT
ATOM      1  C2' OXE d   1       5.938   2.898   1.751  0.00  0.00     0.078 C 
ATOM      2  C1' OXE d   1       3.485   1.722   1.057  0.00  0.00     0.078 C 
ATOM      3  C1  OXE d   1       3.547   3.227   1.134  0.00  0.00    -0.078 A 
ATOM      4  C2  OXE d   1       4.739   3.792   1.520  0.00  0.00    -0.078 A 
ATOM      5  C3  OXE d   1       4.866   5.178   1.554  0.00  0.00     0.003 A 
ATOM      6  C4  OXE d   1       3.749   5.997   1.349  0.00  0.00    -0.002 A 
ATOM      7  C5  OXE d   1       2.516   5.441   0.994  0.00  0.00    -0.002 A 
ATOM      8  C6  OXE d   1       2.409   4.063   0.841  0.00  0.00     0.003 A 
ENDROOT
TORSDOF 0
ENDMDL
