MODEL 1
REMARK minimizedAffinity 1.19797945
REMARK minimizedRMSD -1
REMARK  0 active torsions:
REMARK  status: ('A' for Active; 'I' for Inactive)
ROOT
ATOM      1  C2' OXE d   1      -0.316   1.534   2.492  0.00  0.00     0.078 C 
ATOM      2  C1' OXE d   1      -1.271  -1.106   2.477  0.00  0.00     0.078 C 
ATOM      3  C1  OXE d   1      -2.216  -0.019   2.924  0.00  0.00    -0.078 A 
ATOM      4  C2  OXE d   1      -1.726   1.264   2.972  0.00  0.00    -0.078 A 
ATOM      5  C3  OXE d   1      -2.572   2.312   3.325  0.00  0.00     0.003 A 
ATOM      6  C4  OXE d   1      -3.871   2.053   3.778  0.00  0.00    -0.002 A 
ATOM      7  C5  OXE d   1      -4.377   0.749   3.774  0.00  0.00    -0.002 A 
ATOM      8  C6  OXE d   1      -3.579  -0.291   3.311  0.00  0.00     0.003 A 
ENDROOT
TORSDOF 0
ENDMDL
