MODEL 1
REMARK minimizedAffinity 7.03389215
REMARK minimizedRMSD -1
REMARK  0 active torsions:
REMARK  status: ('A' for Active; 'I' for Inactive)
ROOT
ATOM      1  C2' OXE d   1      -3.174  -0.025   3.140  0.00  0.00     0.078 C 
ATOM      2  C1' OXE d   1      -2.250   2.625   3.075  0.00  0.00     0.078 C 
ATOM      3  C1  OXE d   1      -3.268   2.261   4.126  0.00  0.00    -0.078 A 
ATOM      4  C2  OXE d   1      -3.750   0.974   4.121  0.00  0.00    -0.078 A 
ATOM      5  C3  OXE d   1      -4.650   0.571   5.103  0.00  0.00     0.003 A 
ATOM      6  C4  OXE d   1      -5.185   1.504   6.000  0.00  0.00    -0.002 A 
ATOM      7  C5  OXE d   1      -4.738   2.829   5.997  0.00  0.00    -0.002 A 
ATOM      8  C6  OXE d   1      -3.750   3.213   5.096  0.00  0.00     0.003 A 
ENDROOT
TORSDOF 0
ENDMDL
