MODEL 1
REMARK minimizedAffinity 3.88896108
REMARK minimizedRMSD -1
REMARK  0 active torsions:
REMARK  status: ('A' for Active; 'I' for Inactive)
ROOT
ATOM      1  C2' OXE d   1      -4.334   1.435   3.884  0.00  0.00     0.078 C 
ATOM      2  C1' OXE d   1      -3.105  -1.066   3.547  0.00  0.00     0.078 C 
ATOM      3  C1  OXE d   1      -2.318   0.162   3.162  0.00  0.00    -0.078 A 
ATOM      4  C2  OXE d   1      -2.945   1.379   3.286  0.00  0.00    -0.078 A 
ATOM      5  C3  OXE d   1      -2.246   2.547   2.997  0.00  0.00     0.003 A 
ATOM      6  C4  OXE d   1      -0.965   2.486   2.435  0.00  0.00    -0.002 A 
ATOM      7  C5  OXE d   1      -0.323   1.255   2.262  0.00  0.00    -0.002 A 
ATOM      8  C6  OXE d   1      -0.969   0.089   2.660  0.00  0.00     0.003 A 
ENDROOT
TORSDOF 0
ENDMDL
