MODEL 1
REMARK minimizedAffinity 4.79621363
REMARK minimizedRMSD -1
REMARK  0 active torsions:
REMARK  status: ('A' for Active; 'I' for Inactive)
ROOT
ATOM      1  C2' OXE d   1      -0.670   1.907   2.056  0.00  0.00     0.078 C 
ATOM      2  C1' OXE d   1      -1.326  -0.810   2.320  0.00  0.00     0.078 C 
ATOM      3  C1  OXE d   1      -2.294   0.205   2.876  0.00  0.00    -0.078 A 
ATOM      4  C2  OXE d   1      -1.943   1.530   2.784  0.00  0.00    -0.078 A 
ATOM      5  C3  OXE d   1      -2.825   2.510   3.231  0.00  0.00     0.003 A 
ATOM      6  C4  OXE d   1      -3.995   2.152   3.911  0.00  0.00    -0.002 A 
ATOM      7  C5  OXE d   1      -4.352   0.807   4.051  0.00  0.00    -0.002 A 
ATOM      8  C6  OXE d   1      -3.536  -0.176   3.503  0.00  0.00     0.003 A 
ENDROOT
TORSDOF 0
ENDMDL
