MODEL 1
REMARK minimizedAffinity -3.76058149
REMARK minimizedRMSD -1
REMARK  0 active torsions:
REMARK  status: ('A' for Active; 'I' for Inactive)
ROOT
ATOM      1  C2' OXE d   1      -3.347   1.058   3.203  0.00  0.00     0.078 C 
ATOM      2  C1' OXE d   1      -2.307  -1.195   1.893  0.00  0.00     0.078 C 
ATOM      3  C1  OXE d   1      -1.458   0.051   1.930  0.00  0.00    -0.078 A 
ATOM      4  C2  OXE d   1      -1.994   1.163   2.533  0.00  0.00    -0.078 A 
ATOM      5  C3  OXE d   1      -1.232   2.323   2.643  0.00  0.00     0.003 A 
ATOM      6  C4  OXE d   1       0.014   2.414   2.011  0.00  0.00    -0.002 A 
ATOM      7  C5  OXE d   1       0.562   1.305   1.357  0.00  0.00    -0.002 A 
ATOM      8  C6  OXE d   1      -0.141   0.106   1.344  0.00  0.00     0.003 A 
ENDROOT
TORSDOF 0
ENDMDL
