MODEL 1
REMARK minimizedAffinity 12.6940794
REMARK minimizedRMSD -1
REMARK  0 active torsions:
REMARK  status: ('A' for Active; 'I' for Inactive)
ROOT
ATOM      1  C2' OXE d   1       3.568   1.674  -4.501  0.00  0.00     0.078 C 
ATOM      2  C1' OXE d   1       1.800   3.269  -3.014  0.00  0.00     0.078 C 
ATOM      3  C1  OXE d   1       2.806   3.967  -3.895  0.00  0.00    -0.078 A 
ATOM      4  C2  OXE d   1       3.698   3.180  -4.583  0.00  0.00    -0.078 A 
ATOM      5  C3  OXE d   1       4.611   3.771  -5.452  0.00  0.00     0.003 A 
ATOM      6  C4  OXE d   1       4.730   5.164  -5.515  0.00  0.00    -0.002 A 
ATOM      7  C5  OXE d   1       3.858   5.985  -4.792  0.00  0.00    -0.002 A 
ATOM      8  C6  OXE d   1       2.864   5.403  -4.012  0.00  0.00     0.003 A 
ENDROOT
TORSDOF 0
ENDMDL
