MODEL 1
REMARK minimizedAffinity 4.82412815
REMARK minimizedRMSD -1
REMARK  0 active torsions:
REMARK  status: ('A' for Active; 'I' for Inactive)
ROOT
ATOM      1  C2' OXE d   1      -1.265   2.269   2.221  0.00  0.00     0.078 C 
ATOM      2  C1' OXE d   1      -3.717   2.021   3.565  0.00  0.00     0.078 C 
ATOM      3  C1  OXE d   1      -3.000   0.755   3.171  0.00  0.00    -0.078 A 
ATOM      4  C2  OXE d   1      -1.824   0.885   2.472  0.00  0.00    -0.078 A 
ATOM      5  C3  OXE d   1      -1.094  -0.251   2.132  0.00  0.00     0.003 A 
ATOM      6  C4  OXE d   1      -1.623  -1.527   2.360  0.00  0.00    -0.002 A 
ATOM      7  C5  OXE d   1      -2.838  -1.682   3.035  0.00  0.00    -0.002 A 
ATOM      8  C6  OXE d   1      -3.517  -0.555   3.484  0.00  0.00     0.003 A 
ENDROOT
TORSDOF 0
ENDMDL
