MODEL 1
REMARK minimizedAffinity 9.32987499
REMARK minimizedRMSD -1
REMARK  0 active torsions:
REMARK  status: ('A' for Active; 'I' for Inactive)
ROOT
ATOM      1  C2' OXE d   1      -2.629  -0.213   3.360  0.00  0.00     0.078 C 
ATOM      2  C1' OXE d   1       0.115  -0.791   3.495  0.00  0.00     0.078 C 
ATOM      3  C1  OXE d   1      -0.295   0.548   2.935  0.00  0.00    -0.078 A 
ATOM      4  C2  OXE d   1      -1.642   0.804   2.830  0.00  0.00    -0.078 A 
ATOM      5  C3  OXE d   1      -2.074   2.045   2.372  0.00  0.00     0.003 A 
ATOM      6  C4  OXE d   1      -1.155   2.976   1.874  0.00  0.00    -0.002 A 
ATOM      7  C5  OXE d   1       0.219   2.720   1.935  0.00  0.00    -0.002 A 
ATOM      8  C6  OXE d   1       0.666   1.531   2.501  0.00  0.00     0.003 A 
ENDROOT
TORSDOF 0
ENDMDL
