MODEL 1
REMARK minimizedAffinity 1.83238423
REMARK minimizedRMSD -1
REMARK  0 active torsions:
REMARK  status: ('A' for Active; 'I' for Inactive)
ROOT
ATOM      1  C2' OXE d   1       0.750   2.644   1.786  0.00  0.00     0.078 C 
ATOM      2  C1' OXE d   1       1.142   0.033   2.738  0.00  0.00     0.078 C 
ATOM      3  C1  OXE d   1      -0.272   0.551   2.669  0.00  0.00    -0.078 A 
ATOM      4  C2  OXE d   1      -0.451   1.846   2.246  0.00  0.00    -0.078 A 
ATOM      5  C3  OXE d   1      -1.740   2.356   2.111  0.00  0.00     0.003 A 
ATOM      6  C4  OXE d   1      -2.844   1.615   2.549  0.00  0.00    -0.002 A 
ATOM      7  C5  OXE d   1      -2.681   0.308   3.020  0.00  0.00    -0.002 A 
ATOM      8  C6  OXE d   1      -1.409  -0.253   3.047  0.00  0.00     0.003 A 
ENDROOT
TORSDOF 0
ENDMDL
