MODEL 1
REMARK minimizedAffinity 5.05396223
REMARK minimizedRMSD -1
REMARK  0 active torsions:
REMARK  status: ('A' for Active; 'I' for Inactive)
ROOT
ATOM      1  C2' OXE d   1      -3.813   2.144   3.491  0.00  0.00     0.078 C 
ATOM      2  C1' OXE d   1      -3.553   3.970   1.375  0.00  0.00     0.078 C 
ATOM      3  C1  OXE d   1      -2.314   3.243   1.833  0.00  0.00    -0.078 A 
ATOM      4  C2  OXE d   1      -2.441   2.386   2.900  0.00  0.00    -0.078 A 
ATOM      5  C3  OXE d   1      -1.341   1.649   3.327  0.00  0.00     0.003 A 
ATOM      6  C4  OXE d   1      -0.073   1.886   2.781  0.00  0.00    -0.002 A 
ATOM      7  C5  OXE d   1       0.086   2.784   1.720  0.00  0.00    -0.002 A 
ATOM      8  C6  OXE d   1      -1.029   3.437   1.207  0.00  0.00     0.003 A 
ENDROOT
TORSDOF 0
ENDMDL
