MODEL 1
REMARK minimizedAffinity 4.85786676
REMARK minimizedRMSD -1
REMARK  0 active torsions:
REMARK  status: ('A' for Active; 'I' for Inactive)
ROOT
ATOM      1  C2' OXE d   1       5.997  -1.057  -0.363  0.00  0.00     0.078 C 
ATOM      2  C1' OXE d   1       3.308  -1.328  -1.123  0.00  0.00     0.078 C 
ATOM      3  C1  OXE d   1       3.603  -1.018   0.323  0.00  0.00    -0.078 A 
ATOM      4  C2  OXE d   1       4.923  -0.933   0.696  0.00  0.00    -0.078 A 
ATOM      5  C3  OXE d   1       5.249  -0.596   2.006  0.00  0.00     0.003 A 
ATOM      6  C4  OXE d   1       4.250  -0.493   2.981  0.00  0.00    -0.002 A 
ATOM      7  C5  OXE d   1       2.901  -0.614   2.631  0.00  0.00    -0.002 A 
ATOM      8  C6  OXE d   1       2.559  -0.834   1.301  0.00  0.00     0.003 A 
ENDROOT
TORSDOF 0
ENDMDL
