MODEL 1
REMARK minimizedAffinity 6.55691481
REMARK minimizedRMSD -1
REMARK  0 active torsions:
REMARK  status: ('A' for Active; 'I' for Inactive)
ROOT
ATOM      1  C2' OXE d   1      -1.020   2.391   2.082  0.00  0.00     0.078 C 
ATOM      2  C1' OXE d   1      -1.879  -0.274   2.285  0.00  0.00     0.078 C 
ATOM      3  C1  OXE d   1      -2.717   0.788   2.952  0.00  0.00    -0.078 A 
ATOM      4  C2  OXE d   1      -2.264   2.084   2.887  0.00  0.00    -0.078 A 
ATOM      5  C3  OXE d   1      -3.027   3.109   3.439  0.00  0.00     0.003 A 
ATOM      6  C4  OXE d   1      -4.171   2.815   4.191  0.00  0.00    -0.002 A 
ATOM      7  C5  OXE d   1      -4.628   1.498   4.303  0.00  0.00    -0.002 A 
ATOM      8  C6  OXE d   1      -3.938   0.480   3.655  0.00  0.00     0.003 A 
ENDROOT
TORSDOF 0
ENDMDL
