MODEL 1
REMARK minimizedAffinity 3.03815889
REMARK minimizedRMSD -1
REMARK  0 active torsions:
REMARK  status: ('A' for Active; 'I' for Inactive)
ROOT
ATOM      1  C2' OXE d   1       2.584   0.004  -3.443  0.00  0.00     0.078 C 
ATOM      2  C1' OXE d   1       1.846  -2.219  -1.897  0.00  0.00     0.078 C 
ATOM      3  C1  OXE d   1       2.482  -1.049  -1.188  0.00  0.00    -0.078 A 
ATOM      4  C2  OXE d   1       2.882   0.015  -1.959  0.00  0.00    -0.078 A 
ATOM      5  C3  OXE d   1       3.424   1.143  -1.349  0.00  0.00     0.003 A 
ATOM      6  C4  OXE d   1       3.706   1.141   0.022  0.00  0.00    -0.002 A 
ATOM      7  C5  OXE d   1       3.342   0.051   0.820  0.00  0.00    -0.002 A 
ATOM      8  C6  OXE d   1       2.692  -1.032   0.239  0.00  0.00     0.003 A 
ENDROOT
TORSDOF 0
ENDMDL
