MODEL 1
REMARK minimizedAffinity 3.94162583
REMARK minimizedRMSD -1
REMARK  2 active torsions:
REMARK  status: ('A' for Active; 'I' for Inactive)
REMARK    1  A    between atoms: C1_2  and  C2_3 
REMARK    2  A    between atoms: C2_3  and  C3_4 
ROOT
ATOM      1  C3  UNL d   1       3.335   1.390   0.630  0.00  0.00    -0.075 A 
ATOM      2  C4  UNL d   1       3.237   0.526   1.731  0.00  0.00     0.002 A 
ATOM      3  C5  UNL d   1       2.103  -0.267   1.910  0.00  0.00     0.002 A 
ATOM      4  C6  UNL d   1       1.051  -0.200   0.999  0.00  0.00    -0.004 A 
ATOM      5  C7  UNL d   1       1.131   0.667  -0.089  0.00  0.00     0.002 A 
ATOM      6  C8  UNL d   1       2.266   1.459  -0.273  0.00  0.00     0.002 A 
ENDROOT
BRANCH   1   7
ATOM      7  C2  UNL d   1       4.572   2.230   0.415  0.00  0.00     0.056 C 
BRANCH   7   8
ATOM      8  C1  UNL d   1       4.386   3.712   0.754  0.00  0.00     0.007 C 
ATOM      9  C   UNL d   1       5.672   4.391   1.207  0.00  0.00     0.009 C 
ENDBRANCH   7   8
ENDBRANCH   1   7
TORSDOF 2
ENDMDL
