MODEL 1
REMARK minimizedAffinity 7.39587212
REMARK minimizedRMSD -1
REMARK  2 active torsions:
REMARK  status: ('A' for Active; 'I' for Inactive)
REMARK    1  A    between atoms: C1_2  and  C2_3 
REMARK    2  A    between atoms: C2_3  and  C3_4 
ROOT
ATOM      1  C3  UNL d   1      -5.914   2.636   3.566  0.00  0.00    -0.075 A 
ATOM      2  C4  UNL d   1      -5.837   1.947   4.785  0.00  0.00     0.002 A 
ATOM      3  C5  UNL d   1      -5.855   2.643   5.994  0.00  0.00     0.002 A 
ATOM      4  C6  UNL d   1      -5.940   4.033   6.000  0.00  0.00    -0.004 A 
ATOM      5  C7  UNL d   1      -6.000   4.729   4.795  0.00  0.00     0.002 A 
ATOM      6  C8  UNL d   1      -5.986   4.035   3.583  0.00  0.00     0.002 A 
ENDROOT
BRANCH   1   7
ATOM      7  C2  UNL d   1      -5.925   1.887   2.254  0.00  0.00     0.056 C 
BRANCH   7   8
ATOM      8  C1  UNL d   1      -4.541   1.415   1.795  0.00  0.00     0.007 C 
ATOM      9  C   UNL d   1      -4.522  -0.041   1.348  0.00  0.00     0.009 C 
ENDBRANCH   7   8
ENDBRANCH   1   7
TORSDOF 2
ENDMDL
