MODEL 1
REMARK minimizedAffinity 3.80303717
REMARK minimizedRMSD -1
REMARK  2 active torsions:
REMARK  status: ('A' for Active; 'I' for Inactive)
REMARK    1  A    between atoms: C1_2  and  C2_3 
REMARK    2  A    between atoms: C2_3  and  C3_4 
ROOT
ATOM      1  C3  UNL d   1      -1.011   0.674   2.132  0.00  0.00    -0.075 A 
ATOM      2  C4  UNL d   1      -2.102   1.462   2.528  0.00  0.00     0.002 A 
ATOM      3  C5  UNL d   1      -3.257   1.515   1.748  0.00  0.00     0.002 A 
ATOM      4  C6  UNL d   1      -3.334   0.792   0.560  0.00  0.00    -0.004 A 
ATOM      5  C7  UNL d   1      -2.250   0.019   0.148  0.00  0.00     0.002 A 
ATOM      6  C8  UNL d   1      -1.094  -0.040   0.929  0.00  0.00     0.002 A 
ENDROOT
BRANCH   1   7
ATOM      7  C2  UNL d   1       0.231   0.588   2.987  0.00  0.00     0.056 C 
BRANCH   7   8
ATOM      8  C1  UNL d   1       0.552   1.876   3.751  0.00  0.00     0.007 C 
ATOM      9  C   UNL d   1       0.215   3.139   2.968  0.00  0.00     0.009 C 
ENDBRANCH   7   8
ENDBRANCH   1   7
TORSDOF 2
ENDMDL
