MODEL 1
REMARK minimizedAffinity 13.4545336
REMARK minimizedRMSD -1
REMARK  2 active torsions:
REMARK  status: ('A' for Active; 'I' for Inactive)
REMARK    1  A    between atoms: C1_2  and  C2_3 
REMARK    2  A    between atoms: C2_3  and  C3_4 
ROOT
ATOM      1  C3  UNL d   1       3.369  -0.293   1.540  0.00  0.00    -0.075 A 
ATOM      2  C4  UNL d   1       4.374  -0.767   2.395  0.00  0.00     0.002 A 
ATOM      3  C5  UNL d   1       5.680  -0.286   2.288  0.00  0.00     0.002 A 
ATOM      4  C6  UNL d   1       5.998   0.665   1.321  0.00  0.00    -0.004 A 
ATOM      5  C7  UNL d   1       5.010   1.130   0.455  0.00  0.00     0.002 A 
ATOM      6  C8  UNL d   1       3.702   0.654   0.563  0.00  0.00     0.002 A 
ENDROOT
BRANCH   1   7
ATOM      7  C2  UNL d   1       1.948  -0.788   1.670  0.00  0.00     0.056 C 
BRANCH   7   8
ATOM      8  C1  UNL d   1       1.108  -0.011   2.689  0.00  0.00     0.007 C 
ATOM      9  C   UNL d   1      -0.239   0.439   2.138  0.00  0.00     0.009 C 
ENDBRANCH   7   8
ENDBRANCH   1   7
TORSDOF 2
ENDMDL
