MODEL 1
REMARK minimizedAffinity 0.204250231
REMARK minimizedRMSD -1
REMARK  2 active torsions:
REMARK  status: ('A' for Active; 'I' for Inactive)
REMARK    1  A    between atoms: C1_2  and  C2_3 
REMARK    2  A    between atoms: C2_3  and  C3_4 
ROOT
ATOM      1  C3  UNL d   1      -1.482   0.261   1.589  0.00  0.00    -0.075 A 
ATOM      2  C4  UNL d   1      -1.974   0.793   2.790  0.00  0.00     0.002 A 
ATOM      3  C5  UNL d   1      -3.229   1.400   2.834  0.00  0.00     0.002 A 
ATOM      4  C6  UNL d   1      -4.002   1.494   1.679  0.00  0.00    -0.004 A 
ATOM      5  C7  UNL d   1      -3.516   0.984   0.477  0.00  0.00     0.002 A 
ATOM      6  C8  UNL d   1      -2.262   0.371   0.431  0.00  0.00     0.002 A 
ENDROOT
BRANCH   1   7
ATOM      7  C2  UNL d   1      -0.137  -0.424   1.541  0.00  0.00     0.056 C 
BRANCH   7   8
ATOM      8  C1  UNL d   1       0.886   0.273   0.638  0.00  0.00     0.007 C 
ATOM      9  C   UNL d   1       2.192  -0.500   0.503  0.00  0.00     0.009 C 
ENDBRANCH   7   8
ENDBRANCH   1   7
TORSDOF 2
ENDMDL
