MODEL 1
REMARK minimizedAffinity 7.62821817
REMARK minimizedRMSD -1
REMARK  2 active torsions:
REMARK  status: ('A' for Active; 'I' for Inactive)
REMARK    1  A    between atoms: C1_2  and  C2_3 
REMARK    2  A    between atoms: C2_3  and  C3_4 
ROOT
ATOM      1  C3  UNL d   1      -2.415  -0.482   0.376  0.00  0.00    -0.075 A 
ATOM      2  C4  UNL d   1      -1.293   0.030   1.044  0.00  0.00     0.002 A 
ATOM      3  C5  UNL d   1      -1.428   1.078   1.955  0.00  0.00     0.002 A 
ATOM      4  C6  UNL d   1      -2.682   1.633   2.202  0.00  0.00    -0.004 A 
ATOM      5  C7  UNL d   1      -3.801   1.143   1.532  0.00  0.00     0.002 A 
ATOM      6  C8  UNL d   1      -3.669   0.091   0.623  0.00  0.00     0.002 A 
ENDROOT
BRANCH   1   7
ATOM      7  C2  UNL d   1      -2.279  -1.636  -0.588  0.00  0.00     0.056 C 
BRANCH   7   8
ATOM      8  C1  UNL d   1      -1.292  -2.717  -0.134  0.00  0.00     0.007 C 
ATOM      9  C   UNL d   1      -1.806  -3.546   1.035  0.00  0.00     0.009 C 
ENDBRANCH   7   8
ENDBRANCH   1   7
TORSDOF 2
ENDMDL
