MODEL 1
REMARK minimizedAffinity 6.5238409
REMARK minimizedRMSD -1
REMARK  2 active torsions:
REMARK  status: ('A' for Active; 'I' for Inactive)
REMARK    1  A    between atoms: C1_2  and  C2_3 
REMARK    2  A    between atoms: C2_3  and  C3_4 
ROOT
ATOM      1  C3  UNL d   1      -1.784   1.637   2.653  0.00  0.00    -0.075 A 
ATOM      2  C4  UNL d   1      -2.309   1.176   1.437  0.00  0.00     0.002 A 
ATOM      3  C5  UNL d   1      -1.523   0.417   0.568  0.00  0.00     0.002 A 
ATOM      4  C6  UNL d   1      -0.204   0.118   0.899  0.00  0.00    -0.004 A 
ATOM      5  C7  UNL d   1       0.333   0.585   2.097  0.00  0.00     0.002 A 
ATOM      6  C8  UNL d   1      -0.452   1.341   2.970  0.00  0.00     0.002 A 
ENDROOT
BRANCH   1   7
ATOM      7  C2  UNL d   1      -2.638   2.434   3.610  0.00  0.00     0.056 C 
BRANCH   7   8
ATOM      8  C1  UNL d   1      -3.968   1.762   3.967  0.00  0.00     0.007 C 
ATOM      9  C   UNL d   1      -4.243   1.733   5.465  0.00  0.00     0.009 C 
ENDBRANCH   7   8
ENDBRANCH   1   7
TORSDOF 2
ENDMDL
