MODEL 1
REMARK minimizedAffinity -0.267287612
REMARK minimizedRMSD -1
REMARK  2 active torsions:
REMARK  status: ('A' for Active; 'I' for Inactive)
REMARK    1  A    between atoms: C1_2  and  C2_3 
REMARK    2  A    between atoms: C2_3  and  C3_4 
ROOT
ATOM      1  C3  UNL d   1      -1.834   0.470   1.243  0.00  0.00    -0.075 A 
ATOM      2  C4  UNL d   1      -2.624   1.189   2.151  0.00  0.00     0.002 A 
ATOM      3  C5  UNL d   1      -2.031   2.025   3.098  0.00  0.00     0.002 A 
ATOM      4  C6  UNL d   1      -0.644   2.144   3.155  0.00  0.00    -0.004 A 
ATOM      5  C7  UNL d   1       0.151   1.421   2.269  0.00  0.00     0.002 A 
ATOM      6  C8  UNL d   1      -0.440   0.587   1.317  0.00  0.00     0.002 A 
ENDROOT
BRANCH   1   7
ATOM      7  C2  UNL d   1      -2.471  -0.414   0.197  0.00  0.00     0.056 C 
BRANCH   7   8
ATOM      8  C1  UNL d   1      -3.214  -1.624   0.771  0.00  0.00     0.007 C 
ATOM      9  C   UNL d   1      -2.570  -2.954   0.403  0.00  0.00     0.009 C 
ENDBRANCH   7   8
ENDBRANCH   1   7
TORSDOF 2
ENDMDL
