MODEL 1
REMARK minimizedAffinity 2.29383445
REMARK minimizedRMSD -1
REMARK  2 active torsions:
REMARK  status: ('A' for Active; 'I' for Inactive)
REMARK    1  A    between atoms: C1_2  and  C2_3 
REMARK    2  A    between atoms: C2_3  and  C3_4 
ROOT
ATOM      1  C3  UNL d   1      -1.060   0.601   1.534  0.00  0.00    -0.075 A 
ATOM      2  C4  UNL d   1      -2.002   1.487   2.076  0.00  0.00     0.002 A 
ATOM      3  C5  UNL d   1      -1.613   2.457   3.000  0.00  0.00     0.002 A 
ATOM      4  C6  UNL d   1      -0.282   2.547   3.401  0.00  0.00    -0.004 A 
ATOM      5  C7  UNL d   1       0.660   1.661   2.881  0.00  0.00     0.002 A 
ATOM      6  C8  UNL d   1       0.274   0.693   1.953  0.00  0.00     0.002 A 
ENDROOT
BRANCH   1   7
ATOM      7  C2  UNL d   1      -1.470  -0.431   0.511  0.00  0.00     0.056 C 
BRANCH   7   8
ATOM      8  C1  UNL d   1      -1.392  -1.875   1.017  0.00  0.00     0.007 C 
ATOM      9  C   UNL d   1      -2.473  -2.775   0.434  0.00  0.00     0.009 C 
ENDBRANCH   7   8
ENDBRANCH   1   7
TORSDOF 2
ENDMDL
