MODEL 1
REMARK minimizedAffinity 8.31600666
REMARK minimizedRMSD -1
REMARK  2 active torsions:
REMARK  status: ('A' for Active; 'I' for Inactive)
REMARK    1  A    between atoms: C1_2  and  C2_3 
REMARK    2  A    between atoms: C2_3  and  C3_4 
ROOT
ATOM      1  C3  UNL d   1       0.166   0.457   1.583  0.00  0.00    -0.075 A 
ATOM      2  C4  UNL d   1      -1.009   0.605   0.832  0.00  0.00     0.002 A 
ATOM      3  C5  UNL d   1      -2.108   1.281   1.362  0.00  0.00     0.002 A 
ATOM      4  C6  UNL d   1      -2.050   1.808   2.650  0.00  0.00    -0.004 A 
ATOM      5  C7  UNL d   1      -0.894   1.653   3.412  0.00  0.00     0.002 A 
ATOM      6  C8  UNL d   1       0.209   0.981   2.882  0.00  0.00     0.002 A 
ENDROOT
BRANCH   1   7
ATOM      7  C2  UNL d   1       1.369  -0.248   1.004  0.00  0.00     0.056 C 
BRANCH   7   8
ATOM      8  C1  UNL d   1       2.331   0.676   0.251  0.00  0.00     0.007 C 
ATOM      9  C   UNL d   1       3.698   0.050   0.007  0.00  0.00     0.009 C 
ENDBRANCH   7   8
ENDBRANCH   1   7
TORSDOF 2
ENDMDL
