MODEL 1
REMARK minimizedAffinity -3.2752707
REMARK minimizedRMSD -1
REMARK  0 active torsions:
REMARK  status: ('A' for Active; 'I' for Inactive)
ROOT
ATOM      1  C   UNL d   1       2.061  -2.632   0.923  0.00  0.00    -0.002 A 
ATOM      2  C1  UNL d   1       0.747  -2.960   1.226  0.00  0.00     0.010 A 
ATOM      3  C2  UNL d   1      -0.289  -2.063   0.958  0.00  0.00     0.041 A 
ATOM      4  C3  UNL d   1       0.020  -0.819   0.373  0.00  0.00    -0.075 A 
ATOM      5  S   UNL d   1      -1.084   0.436  -0.045  0.00  0.00     0.015 SA
ATOM      6  C4  UNL d   1       0.162   1.438  -0.636  0.00  0.00     0.022 A 
ATOM      7  C5  UNL d   1       1.397   0.845  -0.524  0.00  0.00     0.026 A 
ATOM      8  C6  UNL d   1       1.336  -0.466   0.059  0.00  0.00    -0.082 A 
ATOM      9  C7  UNL d   1       2.364  -1.397   0.344  0.00  0.00     0.045 A 
ENDROOT
TORSDOF 0
ENDMDL
