MODEL 1
REMARK minimizedAffinity -3.83363748
REMARK minimizedRMSD -1
REMARK  0 active torsions:
REMARK  status: ('A' for Active; 'I' for Inactive)
ROOT
ATOM      1  C   UNL d   1       0.461  -2.214   3.074  0.00  0.00    -0.002 A 
ATOM      2  C1  UNL d   1      -0.722  -1.490   3.094  0.00  0.00     0.010 A 
ATOM      3  C2  UNL d   1      -1.031  -0.607   2.058  0.00  0.00     0.041 A 
ATOM      4  C3  UNL d   1      -0.123  -0.463   0.991  0.00  0.00    -0.075 A 
ATOM      5  S   UNL d   1      -0.291   0.560  -0.387  0.00  0.00     0.015 SA
ATOM      6  C4  UNL d   1       1.203   0.059  -1.034  0.00  0.00     0.022 A 
ATOM      7  C5  UNL d   1       1.829  -0.865  -0.232  0.00  0.00     0.026 A 
ATOM      8  C6  UNL d   1       1.075  -1.181   0.948  0.00  0.00    -0.082 A 
ATOM      9  C7  UNL d   1       1.360  -2.069   2.014  0.00  0.00     0.045 A 
ENDROOT
TORSDOF 0
ENDMDL
