MODEL 1
REMARK minimizedAffinity -3.15629005
REMARK minimizedRMSD -1
REMARK  0 active torsions:
REMARK  status: ('A' for Active; 'I' for Inactive)
ROOT
ATOM      1  C   UNL d   1      -2.347   0.334  -3.649  0.00  0.00    -0.002 A 
ATOM      2  C1  UNL d   1      -2.662   1.609  -3.198  0.00  0.00     0.010 A 
ATOM      3  C2  UNL d   1      -2.167   2.073  -1.978  0.00  0.00     0.041 A 
ATOM      4  C3  UNL d   1      -1.340   1.228  -1.212  0.00  0.00    -0.075 A 
ATOM      5  S   UNL d   1      -0.618   1.584   0.312  0.00  0.00     0.015 SA
ATOM      6  C4  UNL d   1       0.126   0.053   0.401  0.00  0.00     0.022 A 
ATOM      7  C5  UNL d   1      -0.159  -0.723  -0.697  0.00  0.00     0.026 A 
ATOM      8  C6  UNL d   1      -1.008  -0.059  -1.645  0.00  0.00    -0.082 A 
ATOM      9  C7  UNL d   1      -1.527  -0.501  -2.886  0.00  0.00     0.045 A 
ENDROOT
TORSDOF 0
ENDMDL
