MODEL 1
REMARK minimizedAffinity -5.25208998
REMARK minimizedRMSD -1
REMARK  0 active torsions:
REMARK  status: ('A' for Active; 'I' for Inactive)
ROOT
ATOM      1  C   UNL d   1       1.313  -2.900   1.932  0.00  0.00    -0.002 A 
ATOM      2  C1  UNL d   1       0.076  -2.539   2.447  0.00  0.00     0.010 A 
ATOM      3  C2  UNL d   1      -0.579  -1.396   1.983  0.00  0.00     0.041 A 
ATOM      4  C3  UNL d   1       0.034  -0.617   0.983  0.00  0.00    -0.075 A 
ATOM      5  S   UNL d   1      -0.583   0.823   0.263  0.00  0.00     0.015 SA
ATOM      6  C4  UNL d   1       0.780   0.991  -0.746  0.00  0.00     0.022 A 
ATOM      7  C5  UNL d   1       1.694  -0.017  -0.551  0.00  0.00     0.026 A 
ATOM      8  C6  UNL d   1       1.279  -0.961   0.448  0.00  0.00    -0.082 A 
ATOM      9  C7  UNL d   1       1.919  -2.124   0.939  0.00  0.00     0.045 A 
ENDROOT
TORSDOF 0
ENDMDL
