MODEL 1
REMARK minimizedAffinity -1.25541317
REMARK minimizedRMSD -1
REMARK  0 active torsions:
REMARK  status: ('A' for Active; 'I' for Inactive)
ROOT
ATOM      1  C   UNL d   1       0.913  -3.115   1.952  0.00  0.00    -0.002 A 
ATOM      2  C1  UNL d   1       2.192  -2.992   1.426  0.00  0.00     0.010 A 
ATOM      3  C2  UNL d   1       2.569  -1.838   0.738  0.00  0.00     0.041 A 
ATOM      4  C3  UNL d   1       1.632  -0.797   0.587  0.00  0.00    -0.075 A 
ATOM      5  S   UNL d   1       1.871   0.709  -0.216  0.00  0.00     0.015 SA
ATOM      6  C4  UNL d   1       0.282   1.226   0.120  0.00  0.00     0.022 A 
ATOM      7  C5  UNL d   1      -0.428   0.285   0.827  0.00  0.00     0.026 A 
ATOM      8  C6  UNL d   1       0.339  -0.897   1.109  0.00  0.00    -0.082 A 
ATOM      9  C7  UNL d   1      -0.014  -2.080   1.800  0.00  0.00     0.045 A 
ENDROOT
TORSDOF 0
ENDMDL
