MODEL 1
REMARK minimizedAffinity -2.26237535
REMARK minimizedRMSD -1
REMARK  0 active torsions:
REMARK  status: ('A' for Active; 'I' for Inactive)
ROOT
ATOM      1  C   UNL d   1      -2.611   0.883  -3.847  0.00  0.00    -0.002 A 
ATOM      2  C1  UNL d   1      -2.334   2.185  -3.454  0.00  0.00     0.010 A 
ATOM      3  C2  UNL d   1      -1.617   2.435  -2.282  0.00  0.00     0.041 A 
ATOM      4  C3  UNL d   1      -1.177   1.345  -1.507  0.00  0.00    -0.075 A 
ATOM      5  S   UNL d   1      -0.281   1.410  -0.035  0.00  0.00     0.015 SA
ATOM      6  C4  UNL d   1      -0.244  -0.288   0.105  0.00  0.00     0.022 A 
ATOM      7  C5  UNL d   1      -0.895  -0.906  -0.936  0.00  0.00     0.026 A 
ATOM      8  C6  UNL d   1      -1.442   0.025  -1.883  0.00  0.00    -0.082 A 
ATOM      9  C7  UNL d   1      -2.173  -0.196  -3.075  0.00  0.00     0.045 A 
ENDROOT
TORSDOF 0
ENDMDL
