MODEL 1
REMARK minimizedAffinity -0.12012504
REMARK minimizedRMSD -1
REMARK  0 active torsions:
REMARK  status: ('A' for Active; 'I' for Inactive)
ROOT
ATOM      1  C   UNL d   1       0.407   0.812  -0.053  0.00  0.00    -0.002 A 
ATOM      2  C1  UNL d   1       0.752  -0.085  -1.055  0.00  0.00     0.010 A 
ATOM      3  C2  UNL d   1      -0.009  -0.175  -2.221  0.00  0.00     0.041 A 
ATOM      4  C3  UNL d   1      -1.134   0.660  -2.367  0.00  0.00    -0.075 A 
ATOM      5  S   UNL d   1      -2.214   0.724  -3.709  0.00  0.00     0.015 SA
ATOM      6  C4  UNL d   1      -3.160   1.944  -2.986  0.00  0.00     0.022 A 
ATOM      7  C5  UNL d   1      -2.678   2.305  -1.750  0.00  0.00     0.026 A 
ATOM      8  C6  UNL d   1      -1.502   1.572  -1.373  0.00  0.00    -0.082 A 
ATOM      9  C7  UNL d   1      -0.710   1.639  -0.202  0.00  0.00     0.045 A 
ENDROOT
TORSDOF 0
ENDMDL
