MODEL 1
REMARK minimizedAffinity 9.87445545
REMARK minimizedRMSD -1
REMARK  3 active torsions:
REMARK  status: ('A' for Active; 'I' for Inactive)
REMARK    1  A    between atoms: C3'_2  and  C2'_3 
REMARK    2  A    between atoms: C2'_3  and  C1'_4 
REMARK    3  A    between atoms: C1'_4  and  C1_5 
ROOT
ATOM      1  C1  N4B d   1       2.477  -5.620  -2.252  0.00  0.00    -0.075 A 
ATOM      2  C2  N4B d   1       3.703  -5.999  -1.663  0.00  0.00     0.002 A 
ATOM      3  C3  N4B d   1       4.878  -5.828  -2.352  0.00  0.00     0.002 A 
ATOM      4  C4  N4B d   1       4.851  -5.299  -3.634  0.00  0.00    -0.004 A 
ATOM      5  C5  N4B d   1       3.665  -4.912  -4.186  0.00  0.00     0.002 A 
ATOM      6  C6  N4B d   1       2.476  -5.075  -3.503  0.00  0.00     0.002 A 
ENDROOT
BRANCH   1   7
ATOM      7  C1' N4B d   1       1.159  -5.867  -1.571  0.00  0.00     0.057 C 
BRANCH   7   8
ATOM      8  C2' N4B d   1       0.301  -4.609  -1.668  0.00  0.00     0.009 C 
BRANCH   8   9
ATOM      9  C3' N4B d   1      -0.991  -4.859  -2.426  0.00  0.00     0.004 C 
ATOM     10  C4' N4B d   1      -1.149  -3.962  -3.617  0.00  0.00     0.003 C 
ENDBRANCH   8   9
ENDBRANCH   7   8
ENDBRANCH   1   7
TORSDOF 3
ENDMDL
