MODEL 1
REMARK minimizedAffinity 7.7444458
REMARK minimizedRMSD -1
REMARK  3 active torsions:
REMARK  status: ('A' for Active; 'I' for Inactive)
REMARK    1  A    between atoms: C3'_2  and  C2'_3 
REMARK    2  A    between atoms: C2'_3  and  C1'_4 
REMARK    3  A    between atoms: C1'_4  and  C1_5 
ROOT
ATOM      1  C1  N4B d   1       0.135   3.188  -0.053  0.00  0.00    -0.075 A 
ATOM      2  C2  N4B d   1      -0.470   2.392   0.944  0.00  0.00     0.002 A 
ATOM      3  C3  N4B d   1       0.074   2.339   2.204  0.00  0.00     0.002 A 
ATOM      4  C4  N4B d   1       1.229   3.054   2.483  0.00  0.00    -0.004 A 
ATOM      5  C5  N4B d   1       1.793   3.841   1.521  0.00  0.00     0.002 A 
ATOM      6  C6  N4B d   1       1.254   3.907   0.252  0.00  0.00     0.002 A 
ENDROOT
BRANCH   1   7
ATOM      7  C1' N4B d   1      -0.375   3.211  -1.468  0.00  0.00     0.057 C 
BRANCH   7   8
ATOM      8  C2' N4B d   1      -1.533   4.200  -1.567  0.00  0.00     0.009 C 
BRANCH   8   9
ATOM      9  C3' N4B d   1      -2.578   3.752  -2.575  0.00  0.00     0.004 C 
ATOM     10  C4' N4B d   1      -3.857   3.311  -1.927  0.00  0.00     0.003 C 
ENDBRANCH   8   9
ENDBRANCH   7   8
ENDBRANCH   1   7
TORSDOF 3
ENDMDL
