MODEL 1
REMARK minimizedAffinity 2.39357257
REMARK minimizedRMSD -1
REMARK  3 active torsions:
REMARK  status: ('A' for Active; 'I' for Inactive)
REMARK    1  A    between atoms: C3'_2  and  C2'_3 
REMARK    2  A    between atoms: C2'_3  and  C1'_4 
REMARK    3  A    between atoms: C1'_4  and  C1_5 
ROOT
ATOM      1  C1  N4B d   1      -0.055   3.465   1.572  0.00  0.00    -0.075 A 
ATOM      2  C2  N4B d   1       1.261   3.580   1.072  0.00  0.00     0.002 A 
ATOM      3  C3  N4B d   1       1.596   4.632   0.255  0.00  0.00     0.002 A 
ATOM      4  C4  N4B d   1       0.631   5.566  -0.090  0.00  0.00    -0.004 A 
ATOM      5  C5  N4B d   1      -0.631   5.462   0.417  0.00  0.00     0.002 A 
ATOM      6  C6  N4B d   1      -0.980   4.413   1.243  0.00  0.00     0.002 A 
ENDROOT
BRANCH   1   7
ATOM      7  C1' N4B d   1      -0.490   2.287   2.398  0.00  0.00     0.057 C 
BRANCH   7   8
ATOM      8  C2' N4B d   1       0.717   1.722   3.141  0.00  0.00     0.009 C 
BRANCH   8   9
ATOM      9  C3' N4B d   1       1.167   0.390   2.564  0.00  0.00     0.004 C 
ATOM     10  C4' N4B d   1       1.134  -0.720   3.572  0.00  0.00     0.003 C 
ENDBRANCH   8   9
ENDBRANCH   7   8
ENDBRANCH   1   7
TORSDOF 3
ENDMDL
