MODEL 1
REMARK minimizedAffinity 5.88753986
REMARK minimizedRMSD -1
REMARK  3 active torsions:
REMARK  status: ('A' for Active; 'I' for Inactive)
REMARK    1  A    between atoms: C3'_2  and  C2'_3 
REMARK    2  A    between atoms: C2'_3  and  C1'_4 
REMARK    3  A    between atoms: C1'_4  and  C1_5 
ROOT
ATOM      1  C1  N4B d   1      -5.121   3.190  -2.843  0.00  0.00    -0.075 A 
ATOM      2  C2  N4B d   1      -3.825   2.638  -2.941  0.00  0.00     0.002 A 
ATOM      3  C3  N4B d   1      -3.455   1.604  -2.117  0.00  0.00     0.002 A 
ATOM      4  C4  N4B d   1      -4.354   1.121  -1.178  0.00  0.00    -0.004 A 
ATOM      5  C5  N4B d   1      -5.613   1.643  -1.107  0.00  0.00     0.002 A 
ATOM      6  C6  N4B d   1      -5.999   2.679  -1.932  0.00  0.00     0.002 A 
ENDROOT
BRANCH   1   7
ATOM      7  C1' N4B d   1      -5.542   4.379  -3.664  0.00  0.00     0.057 C 
BRANCH   7   8
ATOM      8  C2' N4B d   1      -5.982   3.902  -5.045  0.00  0.00     0.009 C 
BRANCH   8   9
ATOM      9  C3' N4B d   1      -4.811   3.402  -5.874  0.00  0.00     0.004 C 
ATOM     10  C4' N4B d   1      -3.712   4.415  -5.996  0.00  0.00     0.003 C 
ENDBRANCH   8   9
ENDBRANCH   7   8
ENDBRANCH   1   7
TORSDOF 3
ENDMDL
