MODEL 1
REMARK minimizedAffinity 7.06550074
REMARK minimizedRMSD -1
REMARK  3 active torsions:
REMARK  status: ('A' for Active; 'I' for Inactive)
REMARK    1  A    between atoms: C3'_2  and  C2'_3 
REMARK    2  A    between atoms: C2'_3  and  C1'_4 
REMARK    3  A    between atoms: C1'_4  and  C1_5 
ROOT
ATOM      1  C1  N4B d   1      -3.624   4.059  -2.614  0.00  0.00    -0.075 A 
ATOM      2  C2  N4B d   1      -3.617   3.071  -3.623  0.00  0.00     0.002 A 
ATOM      3  C3  N4B d   1      -4.801   2.638  -4.169  0.00  0.00     0.002 A 
ATOM      4  C4  N4B d   1      -6.000   3.163  -3.710  0.00  0.00    -0.004 A 
ATOM      5  C5  N4B d   1      -5.997   4.136  -2.753  0.00  0.00     0.002 A 
ATOM      6  C6  N4B d   1      -4.814   4.583  -2.199  0.00  0.00     0.002 A 
ENDROOT
BRANCH   1   7
ATOM      7  C1' N4B d   1      -2.361   4.502  -1.928  0.00  0.00     0.057 C 
BRANCH   7   8
ATOM      8  C2' N4B d   1      -1.650   3.282  -1.351  0.00  0.00     0.009 C 
BRANCH   8   9
ATOM      9  C3' N4B d   1      -0.716   3.653  -0.212  0.00  0.00     0.004 C 
ATOM     10  C4' N4B d   1      -0.007   2.466   0.368  0.00  0.00     0.003 C 
ENDBRANCH   8   9
ENDBRANCH   7   8
ENDBRANCH   1   7
TORSDOF 3
ENDMDL
