MODEL 1
REMARK minimizedAffinity 9.00904655
REMARK minimizedRMSD -1
REMARK  3 active torsions:
REMARK  status: ('A' for Active; 'I' for Inactive)
REMARK    1  A    between atoms: C3'_2  and  C2'_3 
REMARK    2  A    between atoms: C2'_3  and  C1'_4 
REMARK    3  A    between atoms: C1'_4  and  C1_5 
ROOT
ATOM      1  C1  N4B d   1      -4.719   3.645  -3.388  0.00  0.00    -0.075 A 
ATOM      2  C2  N4B d   1      -3.552   3.765  -4.176  0.00  0.00     0.002 A 
ATOM      3  C3  N4B d   1      -3.640   4.223  -5.467  0.00  0.00     0.002 A 
ATOM      4  C4  N4B d   1      -4.880   4.547  -5.997  0.00  0.00    -0.004 A 
ATOM      5  C5  N4B d   1      -5.999   4.453  -5.222  0.00  0.00     0.002 A 
ATOM      6  C6  N4B d   1      -5.925   3.998  -3.920  0.00  0.00     0.002 A 
ENDROOT
BRANCH   1   7
ATOM      7  C1' N4B d   1      -4.683   3.067  -2.000  0.00  0.00     0.057 C 
BRANCH   7   8
ATOM      8  C2' N4B d   1      -5.993   2.333  -1.729  0.00  0.00     0.009 C 
BRANCH   8   9
ATOM      9  C3' N4B d   1      -5.855   0.833  -1.925  0.00  0.00     0.004 C 
ATOM     10  C4' N4B d   1      -5.049   0.177  -0.844  0.00  0.00     0.003 C 
ENDBRANCH   8   9
ENDBRANCH   7   8
ENDBRANCH   1   7
TORSDOF 3
ENDMDL
