MODEL 1
REMARK minimizedAffinity 15.4944849
REMARK minimizedRMSD -1
REMARK  3 active torsions:
REMARK  status: ('A' for Active; 'I' for Inactive)
REMARK    1  A    between atoms: C3'_2  and  C2'_3 
REMARK    2  A    between atoms: C2'_3  and  C1'_4 
REMARK    3  A    between atoms: C1'_4  and  C1_5 
ROOT
ATOM      1  C1  N4B d   1       3.892   0.506  -2.258  0.00  0.00    -0.075 A 
ATOM      2  C2  N4B d   1       4.954   1.350  -2.652  0.00  0.00     0.002 A 
ATOM      3  C3  N4B d   1       5.992   0.845  -3.395  0.00  0.00     0.002 A 
ATOM      4  C4  N4B d   1       6.000  -0.498  -3.739  0.00  0.00    -0.004 A 
ATOM      5  C5  N4B d   1       4.958  -1.301  -3.377  0.00  0.00     0.002 A 
ATOM      6  C6  N4B d   1       3.906  -0.806  -2.633  0.00  0.00     0.002 A 
ENDROOT
BRANCH   1   7
ATOM      7  C1' N4B d   1       2.778   0.993  -1.372  0.00  0.00     0.057 C 
BRANCH   7   8
ATOM      8  C2' N4B d   1       2.867   2.511  -1.243  0.00  0.00     0.009 C 
BRANCH   8   9
ATOM      9  C3' N4B d   1       3.574   2.932   0.033  0.00  0.00     0.004 C 
ATOM     10  C4' N4B d   1       4.574   4.028  -0.191  0.00  0.00     0.003 C 
ENDBRANCH   8   9
ENDBRANCH   7   8
ENDBRANCH   1   7
TORSDOF 3
ENDMDL
