MODEL 1
REMARK minimizedAffinity 21.9794159
REMARK minimizedRMSD -1
REMARK  3 active torsions:
REMARK  status: ('A' for Active; 'I' for Inactive)
REMARK    1  A    between atoms: C3'_2  and  C2'_3 
REMARK    2  A    between atoms: C2'_3  and  C1'_4 
REMARK    3  A    between atoms: C1'_4  and  C1_5 
ROOT
ATOM      1  C1  N4B d   1      -0.790  -3.242  -0.239  0.00  0.00    -0.075 A 
ATOM      2  C2  N4B d   1      -0.824  -3.947  -1.462  0.00  0.00     0.002 A 
ATOM      3  C3  N4B d   1      -1.199  -3.303  -2.615  0.00  0.00     0.002 A 
ATOM      4  C4  N4B d   1      -1.560  -1.965  -2.567  0.00  0.00    -0.004 A 
ATOM      5  C5  N4B d   1      -1.500  -1.284  -1.386  0.00  0.00     0.002 A 
ATOM      6  C6  N4B d   1      -1.121  -1.918  -0.220  0.00  0.00     0.002 A 
ENDROOT
BRANCH   1   7
ATOM      7  C1' N4B d   1      -0.470  -3.925   1.063  0.00  0.00     0.057 C 
BRANCH   7   8
ATOM      8  C2' N4B d   1      -0.848  -5.400   0.961  0.00  0.00     0.009 C 
BRANCH   8   9
ATOM      9  C3' N4B d   1      -1.229  -5.983   2.311  0.00  0.00     0.004 C 
ATOM     10  C4' N4B d   1      -0.085  -5.999   3.280  0.00  0.00     0.003 C 
ENDBRANCH   8   9
ENDBRANCH   7   8
ENDBRANCH   1   7
TORSDOF 3
ENDMDL
