MODEL 1
REMARK minimizedAffinity 11.7111378
REMARK minimizedRMSD -1
REMARK  3 active torsions:
REMARK  status: ('A' for Active; 'I' for Inactive)
REMARK    1  A    between atoms: C3'_2  and  C2'_3 
REMARK    2  A    between atoms: C2'_3  and  C1'_4 
REMARK    3  A    between atoms: C1'_4  and  C1_5 
ROOT
ATOM      1  C1  N4B d   1      -0.798   0.864  -4.008  0.00  0.00    -0.075 A 
ATOM      2  C2  N4B d   1       0.134   1.605  -4.768  0.00  0.00     0.002 A 
ATOM      3  C3  N4B d   1      -0.297   2.638  -5.564  0.00  0.00     0.002 A 
ATOM      4  C4  N4B d   1      -1.650   2.934  -5.631  0.00  0.00    -0.004 A 
ATOM      5  C5  N4B d   1      -2.541   2.230  -4.874  0.00  0.00     0.002 A 
ATOM      6  C6  N4B d   1      -2.121   1.192  -4.066  0.00  0.00     0.002 A 
ENDROOT
BRANCH   1   7
ATOM      7  C1' N4B d   1      -0.385  -0.328  -3.189  0.00  0.00     0.057 C 
BRANCH   7   8
ATOM      8  C2' N4B d   1       1.133  -0.474  -3.247  0.00  0.00     0.009 C 
BRANCH   8   9
ATOM      9  C3' N4B d   1       1.820   0.282  -2.124  0.00  0.00     0.004 C 
ATOM     10  C4' N4B d   1       3.315   0.167  -2.175  0.00  0.00     0.003 C 
ENDBRANCH   8   9
ENDBRANCH   7   8
ENDBRANCH   1   7
TORSDOF 3
ENDMDL
