MODEL 1
REMARK minimizedAffinity 15.0929346
REMARK minimizedRMSD -1
REMARK  3 active torsions:
REMARK  status: ('A' for Active; 'I' for Inactive)
REMARK    1  A    between atoms: C3'_2  and  C2'_3 
REMARK    2  A    between atoms: C2'_3  and  C1'_4 
REMARK    3  A    between atoms: C1'_4  and  C1_5 
ROOT
ATOM      1  C1  N4B d   1       5.150   3.170   3.153  0.00  0.00    -0.075 A 
ATOM      2  C2  N4B d   1       4.260   3.735   2.213  0.00  0.00     0.002 A 
ATOM      3  C3  N4B d   1       4.264   3.294   0.913  0.00  0.00     0.002 A 
ATOM      4  C4  N4B d   1       5.157   2.306   0.526  0.00  0.00    -0.004 A 
ATOM      5  C5  N4B d   1       5.996   1.747   1.446  0.00  0.00     0.002 A 
ATOM      6  C6  N4B d   1       6.000   2.178   2.757  0.00  0.00     0.002 A 
ENDROOT
BRANCH   1   7
ATOM      7  C1' N4B d   1       5.242   3.680   4.565  0.00  0.00     0.057 C 
BRANCH   7   8
ATOM      8  C2' N4B d   1       3.878   3.546   5.236  0.00  0.00     0.009 C 
BRANCH   8   9
ATOM      9  C3' N4B d   1       3.392   4.868   5.805  0.00  0.00     0.004 C 
ATOM     10  C4' N4B d   1       4.474   5.904   5.870  0.00  0.00     0.003 C 
ENDBRANCH   8   9
ENDBRANCH   7   8
ENDBRANCH   1   7
TORSDOF 3
ENDMDL
