MODEL 1
REMARK minimizedAffinity 22.2480145
REMARK minimizedRMSD -1
REMARK  3 active torsions:
REMARK  status: ('A' for Active; 'I' for Inactive)
REMARK    1  A    between atoms: C3'_2  and  C2'_3 
REMARK    2  A    between atoms: C2'_3  and  C1'_4 
REMARK    3  A    between atoms: C1'_4  and  C1_5 
ROOT
ATOM      1  C1  N4B d   1       5.022   4.327   1.853  0.00  0.00    -0.075 A 
ATOM      2  C2  N4B d   1       5.473   5.582   1.389  0.00  0.00     0.002 A 
ATOM      3  C3  N4B d   1       5.367   5.899   0.057  0.00  0.00     0.002 A 
ATOM      4  C4  N4B d   1       4.834   4.974  -0.829  0.00  0.00    -0.004 A 
ATOM      5  C5  N4B d   1       4.378   3.774  -0.368  0.00  0.00     0.002 A 
ATOM      6  C6  N4B d   1       4.474   3.443   0.969  0.00  0.00     0.002 A 
ENDROOT
BRANCH   1   7
ATOM      7  C1' N4B d   1       5.195   3.901   3.286  0.00  0.00     0.057 C 
BRANCH   7   8
ATOM      8  C2' N4B d   1       5.966   4.981   4.039  0.00  0.00     0.009 C 
BRANCH   8   9
ATOM      9  C3' N4B d   1       5.863   4.807   5.545  0.00  0.00     0.004 C 
ATOM     10  C4' N4B d   1       4.469   4.491   5.999  0.00  0.00     0.003 C 
ENDBRANCH   8   9
ENDBRANCH   7   8
ENDBRANCH   1   7
TORSDOF 3
ENDMDL
