MODEL 1
REMARK minimizedAffinity 17.9516697
REMARK minimizedRMSD -1
REMARK  3 active torsions:
REMARK  status: ('A' for Active; 'I' for Inactive)
REMARK    1  A    between atoms: C3'_2  and  C2'_3 
REMARK    2  A    between atoms: C2'_3  and  C1'_4 
REMARK    3  A    between atoms: C1'_4  and  C1_5 
ROOT
ATOM      1  C1  N4B d   1      -1.311   0.754   2.373  0.00  0.00    -0.075 A 
ATOM      2  C2  N4B d   1      -1.088  -0.164   1.323  0.00  0.00     0.002 A 
ATOM      3  C3  N4B d   1      -0.841  -1.485   1.607  0.00  0.00     0.002 A 
ATOM      4  C4  N4B d   1      -0.794  -1.906   2.928  0.00  0.00    -0.004 A 
ATOM      5  C5  N4B d   1      -1.036  -1.018   3.935  0.00  0.00     0.002 A 
ATOM      6  C6  N4B d   1      -1.289   0.312   3.664  0.00  0.00     0.002 A 
ENDROOT
BRANCH   1   7
ATOM      7  C1' N4B d   1      -1.499   2.224   2.115  0.00  0.00     0.057 C 
BRANCH   7   8
ATOM      8  C2' N4B d   1      -2.988   2.554   2.164  0.00  0.00     0.009 C 
BRANCH   8   9
ATOM      9  C3' N4B d   1      -3.445   3.304   0.925  0.00  0.00     0.004 C 
ATOM     10  C4' N4B d   1      -4.794   3.937   1.094  0.00  0.00     0.003 C 
ENDBRANCH   8   9
ENDBRANCH   7   8
ENDBRANCH   1   7
TORSDOF 3
ENDMDL
