MODEL 1
REMARK minimizedAffinity 14.4404612
REMARK minimizedRMSD -1
REMARK  3 active torsions:
REMARK  status: ('A' for Active; 'I' for Inactive)
REMARK    1  A    between atoms: C3'_2  and  C2'_3 
REMARK    2  A    between atoms: C2'_3  and  C1'_4 
REMARK    3  A    between atoms: C1'_4  and  C1_5 
ROOT
ATOM      1  C1  N4B d   1      -2.348  -1.038  -2.214  0.00  0.00    -0.075 A 
ATOM      2  C2  N4B d   1      -2.711  -1.498  -0.930  0.00  0.00     0.002 A 
ATOM      3  C3  N4B d   1      -2.283  -2.728  -0.494  0.00  0.00     0.002 A 
ATOM      4  C4  N4B d   1      -1.509  -3.520  -1.329  0.00  0.00    -0.004 A 
ATOM      5  C5  N4B d   1      -1.141  -3.057  -2.559  0.00  0.00     0.002 A 
ATOM      6  C6  N4B d   1      -1.561  -1.821  -3.008  0.00  0.00     0.002 A 
ENDROOT
BRANCH   1   7
ATOM      7  C1' N4B d   1      -2.863   0.263  -2.767  0.00  0.00     0.057 C 
BRANCH   7   8
ATOM      8  C2' N4B d   1      -1.810   0.865  -3.693  0.00  0.00     0.009 C 
BRANCH   8   9
ATOM      9  C3' N4B d   1      -2.260   2.194  -4.276  0.00  0.00     0.004 C 
ATOM     10  C4' N4B d   1      -1.116   3.024  -4.779  0.00  0.00     0.003 C 
ENDBRANCH   8   9
ENDBRANCH   7   8
ENDBRANCH   1   7
TORSDOF 3
ENDMDL
