MODEL 1
REMARK minimizedAffinity 6.46084213
REMARK minimizedRMSD -1
REMARK  3 active torsions:
REMARK  status: ('A' for Active; 'I' for Inactive)
REMARK    1  A    between atoms: C3'_2  and  C2'_3 
REMARK    2  A    between atoms: C2'_3  and  C1'_4 
REMARK    3  A    between atoms: C1'_4  and  C1_5 
ROOT
ATOM      1  C1  N4B d   1      -0.953  -4.182   0.030  0.00  0.00    -0.075 A 
ATOM      2  C2  N4B d   1      -0.788  -4.432  -1.350  0.00  0.00     0.002 A 
ATOM      3  C3  N4B d   1      -0.811  -3.391  -2.244  0.00  0.00     0.002 A 
ATOM      4  C4  N4B d   1      -1.016  -2.098  -1.786  0.00  0.00    -0.004 A 
ATOM      5  C5  N4B d   1      -1.149  -1.861  -0.449  0.00  0.00     0.002 A 
ATOM      6  C6  N4B d   1      -1.124  -2.898   0.462  0.00  0.00     0.002 A 
ENDROOT
BRANCH   1   7
ATOM      7  C1' N4B d   1      -1.021  -5.297   1.037  0.00  0.00     0.057 C 
BRANCH   7   8
ATOM      8  C2' N4B d   1      -0.317  -4.859   2.318  0.00  0.00     0.009 C 
BRANCH   8   9
ATOM      9  C3' N4B d   1      -0.190  -5.999   3.315  0.00  0.00     0.004 C 
ATOM     10  C4' N4B d   1      -0.686  -5.632   4.682  0.00  0.00     0.003 C 
ENDBRANCH   8   9
ENDBRANCH   7   8
ENDBRANCH   1   7
TORSDOF 3
ENDMDL
