MODEL 1
REMARK minimizedAffinity -4.3852005
REMARK minimizedRMSD -1
REMARK  1 active torsions:
REMARK  status: ('A' for Active; 'I' for Inactive)
REMARK    1  A    between atoms: C1_2  and  C2_3 
ROOT
ATOM      1  C2  UNL d   1      -0.255  -0.260  -0.101  0.00  0.00    -0.073 A 
ATOM      2  C3  UNL d   1      -1.321  -0.213   0.804  0.00  0.00    -0.002 A 
ATOM      3  C4  UNL d   1      -1.879   1.012   1.172  0.00  0.00     0.004 A 
ATOM      4  C5  UNL d   1      -1.383   2.200   0.635  0.00  0.00    -0.004 A 
ATOM      5  C6  UNL d   1      -0.326   2.173  -0.280  0.00  0.00    -0.075 A 
ATOM      6  C7  UNL d   1       0.220   3.441  -0.866  0.00  0.00     0.076 C 
ATOM      7  C8  UNL d   1       0.231   0.939  -0.643  0.00  0.00     0.001 A 
ENDROOT
BRANCH   1   8
ATOM      8  C1  UNL d   1       0.347  -1.580  -0.507  0.00  0.00     0.053 C 
ATOM      9  C   UNL d   1      -0.268  -2.117  -1.789  0.00  0.00     0.018 C 
ENDBRANCH   1   8
TORSDOF 1
ENDMDL
