MODEL 1
REMARK minimizedAffinity -5.60197878
REMARK minimizedRMSD -1
REMARK  1 active torsions:
REMARK  status: ('A' for Active; 'I' for Inactive)
REMARK    1  A    between atoms: C1_2  and  C2_3 
ROOT
ATOM      1  C2  UNL d   1      -0.264  -0.237   0.512  0.00  0.00    -0.073 A 
ATOM      2  C3  UNL d   1      -1.537  -0.036   1.057  0.00  0.00    -0.002 A 
ATOM      3  C4  UNL d   1      -2.073   1.250   1.140  0.00  0.00     0.004 A 
ATOM      4  C5  UNL d   1      -1.346   2.345   0.674  0.00  0.00    -0.004 A 
ATOM      5  C6  UNL d   1      -0.077   2.163   0.116  0.00  0.00    -0.075 A 
ATOM      6  C7  UNL d   1       0.719   3.332  -0.388  0.00  0.00     0.076 C 
ATOM      7  C8  UNL d   1       0.456   0.870   0.038  0.00  0.00     0.001 A 
ENDROOT
BRANCH   1   8
ATOM      8  C1  UNL d   1       0.317  -1.624   0.414  0.00  0.00     0.053 C 
ATOM      9  C   UNL d   1      -0.089  -2.322  -0.874  0.00  0.00     0.018 C 
ENDBRANCH   1   8
TORSDOF 1
ENDMDL
