MODEL 1
REMARK minimizedAffinity -0.57175374
REMARK minimizedRMSD -1
REMARK  1 active torsions:
REMARK  status: ('A' for Active; 'I' for Inactive)
REMARK    1  A    between atoms: C1_2  and  C2_3 
ROOT
ATOM      1  C2  UNL d   1       1.331   1.384  -0.409  0.00  0.00    -0.073 A 
ATOM      2  C3  UNL d   1       1.098   2.763  -0.358  0.00  0.00    -0.002 A 
ATOM      3  C4  UNL d   1      -0.075   3.259   0.213  0.00  0.00     0.004 A 
ATOM      4  C5  UNL d   1      -1.022   2.384   0.745  0.00  0.00    -0.004 A 
ATOM      5  C6  UNL d   1      -0.801   1.003   0.715  0.00  0.00    -0.075 A 
ATOM      6  C7  UNL d   1      -1.811   0.048   1.281  0.00  0.00     0.076 C 
ATOM      7  C8  UNL d   1       0.377   0.512   0.137  0.00  0.00     0.001 A 
ENDROOT
BRANCH   1   8
ATOM      8  C1  UNL d   1       2.598   0.844  -1.019  0.00  0.00     0.053 C 
ATOM      9  C   UNL d   1       3.474   0.147   0.010  0.00  0.00     0.018 C 
ENDBRANCH   1   8
TORSDOF 1
ENDMDL
