MODEL 1
REMARK minimizedAffinity -4.38836956
REMARK minimizedRMSD -1
REMARK  1 active torsions:
REMARK  status: ('A' for Active; 'I' for Inactive)
REMARK    1  A    between atoms: C1_2  and  C2_3 
ROOT
ATOM      1  C2  UNL d   1      -0.140  -1.379  -1.217  0.00  0.00    -0.073 A 
ATOM      2  C3  UNL d   1       0.215  -1.983  -0.006  0.00  0.00    -0.002 A 
ATOM      3  C4  UNL d   1       0.067  -1.291   1.197  0.00  0.00     0.004 A 
ATOM      4  C5  UNL d   1      -0.442   0.007   1.202  0.00  0.00    -0.004 A 
ATOM      5  C6  UNL d   1      -0.814   0.624   0.003  0.00  0.00    -0.075 A 
ATOM      6  C7  UNL d   1      -1.361   2.021  -0.009  0.00  0.00     0.076 C 
ATOM      7  C8  UNL d   1      -0.660  -0.077  -1.201  0.00  0.00     0.001 A 
ENDROOT
BRANCH   1   8
ATOM      8  C1  UNL d   1       0.012  -2.124  -2.518  0.00  0.00     0.053 C 
ATOM      9  C   UNL d   1      -1.296  -2.754  -2.970  0.00  0.00     0.018 C 
ENDBRANCH   1   8
TORSDOF 1
ENDMDL
