MODEL 1
REMARK minimizedAffinity -5.93661785
REMARK minimizedRMSD -1
REMARK  1 active torsions:
REMARK  status: ('A' for Active; 'I' for Inactive)
REMARK    1  A    between atoms: C1_2  and  C2_3 
ROOT
ATOM      1  C2  UNL d   1       0.468   1.093  -0.622  0.00  0.00    -0.073 A 
ATOM      2  C3  UNL d   1       1.776   0.982  -0.135  0.00  0.00    -0.002 A 
ATOM      3  C4  UNL d   1       2.273  -0.256   0.275  0.00  0.00     0.004 A 
ATOM      4  C5  UNL d   1       1.472  -1.395   0.196  0.00  0.00    -0.004 A 
ATOM      5  C6  UNL d   1       0.166  -1.306  -0.298  0.00  0.00    -0.075 A 
ATOM      6  C7  UNL d   1      -0.709  -2.522  -0.386  0.00  0.00     0.076 C 
ATOM      7  C8  UNL d   1      -0.326  -0.059  -0.705  0.00  0.00     0.001 A 
ENDROOT
BRANCH   1   8
ATOM      8  C1  UNL d   1      -0.070   2.426  -1.072  0.00  0.00     0.053 C 
ATOM      9  C   UNL d   1      -0.048   3.457   0.046  0.00  0.00     0.018 C 
ENDBRANCH   1   8
TORSDOF 1
ENDMDL
