MODEL 1
REMARK minimizedAffinity -3.65421939
REMARK minimizedRMSD -1
REMARK  1 active torsions:
REMARK  status: ('A' for Active; 'I' for Inactive)
REMARK    1  A    between atoms: C1_2  and  C2_3 
ROOT
ATOM      1  C2  UNL d   1      -0.043  -0.544  -0.240  0.00  0.00    -0.073 A 
ATOM      2  C3  UNL d   1       1.210  -0.322  -0.823  0.00  0.00    -0.002 A 
ATOM      3  C4  UNL d   1       1.755   0.963  -0.856  0.00  0.00     0.004 A 
ATOM      4  C5  UNL d   1       1.057   2.035  -0.300  0.00  0.00    -0.004 A 
ATOM      5  C6  UNL d   1      -0.190   1.831   0.298  0.00  0.00    -0.075 A 
ATOM      6  C7  UNL d   1      -0.954   2.975   0.898  0.00  0.00     0.076 C 
ATOM      7  C8  UNL d   1      -0.732   0.539   0.325  0.00  0.00     0.001 A 
ENDROOT
BRANCH   1   8
ATOM      8  C1  UNL d   1      -0.632  -1.930  -0.196  0.00  0.00     0.053 C 
ATOM      9  C   UNL d   1      -0.810  -2.518  -1.587  0.00  0.00     0.018 C 
ENDBRANCH   1   8
TORSDOF 1
ENDMDL
