MODEL 1
REMARK minimizedAffinity -4.33433771
REMARK minimizedRMSD -1
REMARK  1 active torsions:
REMARK  status: ('A' for Active; 'I' for Inactive)
REMARK    1  A    between atoms: C1_2  and  C2_3 
ROOT
ATOM      1  C2  UNL d   1      -0.150  -0.840  -0.587  0.00  0.00    -0.073 A 
ATOM      2  C3  UNL d   1      -1.168  -0.834   0.372  0.00  0.00    -0.002 A 
ATOM      3  C4  UNL d   1      -1.472   0.336   1.070  0.00  0.00     0.004 A 
ATOM      4  C5  UNL d   1      -0.767   1.511   0.811  0.00  0.00    -0.004 A 
ATOM      5  C6  UNL d   1       0.246   1.528  -0.153  0.00  0.00    -0.075 A 
ATOM      6  C7  UNL d   1       1.016   2.783  -0.442  0.00  0.00     0.076 C 
ATOM      7  C8  UNL d   1       0.548   0.348  -0.848  0.00  0.00     0.001 A 
ENDROOT
BRANCH   1   8
ATOM      8  C1  UNL d   1       0.178  -2.099  -1.348  0.00  0.00     0.053 C 
ATOM      9  C   UNL d   1      -1.039  -2.994  -1.519  0.00  0.00     0.018 C 
ENDBRANCH   1   8
TORSDOF 1
ENDMDL
