MODEL 1
REMARK minimizedAffinity -5.93645191
REMARK minimizedRMSD -1
REMARK  1 active torsions:
REMARK  status: ('A' for Active; 'I' for Inactive)
REMARK    1  A    between atoms: C1_2  and  C2_3 
ROOT
ATOM      1  C2  UNL d   1       0.030  -0.804   0.068  0.00  0.00    -0.073 A 
ATOM      2  C3  UNL d   1       1.391  -0.997   0.329  0.00  0.00    -0.002 A 
ATOM      3  C4  UNL d   1       2.254   0.097   0.415  0.00  0.00     0.004 A 
ATOM      4  C5  UNL d   1       1.764   1.392   0.247  0.00  0.00    -0.004 A 
ATOM      5  C6  UNL d   1       0.405   1.605  -0.003  0.00  0.00    -0.075 A 
ATOM      6  C7  UNL d   1      -0.137   2.992  -0.187  0.00  0.00     0.076 C 
ATOM      7  C8  UNL d   1      -0.455   0.502  -0.090  0.00  0.00     0.001 A 
ENDROOT
BRANCH   1   8
ATOM      8  C1  UNL d   1      -0.907  -1.982  -0.020  0.00  0.00     0.053 C 
ATOM      9  C   UNL d   1      -0.353  -3.086  -0.906  0.00  0.00     0.018 C 
ENDBRANCH   1   8
TORSDOF 1
ENDMDL
