MODEL 1
REMARK minimizedAffinity 1.07656741
REMARK minimizedRMSD -1
REMARK  1 active torsions:
REMARK  status: ('A' for Active; 'I' for Inactive)
REMARK    1  A    between atoms: C1_2  and  C2_3 
ROOT
ATOM      1  C2  UNL d   1       0.891   1.967   0.883  0.00  0.00    -0.073 A 
ATOM      2  C3  UNL d   1      -0.330   2.647   0.959  0.00  0.00    -0.002 A 
ATOM      3  C4  UNL d   1      -1.525   1.981   0.685  0.00  0.00     0.004 A 
ATOM      4  C5  UNL d   1      -1.513   0.629   0.342  0.00  0.00    -0.004 A 
ATOM      5  C6  UNL d   1      -0.304  -0.070   0.273  0.00  0.00    -0.075 A 
ATOM      6  C7  UNL d   1      -0.273  -1.524  -0.098  0.00  0.00     0.076 C 
ATOM      7  C8  UNL d   1       0.893   0.606   0.546  0.00  0.00     0.001 A 
ENDROOT
BRANCH   1   8
ATOM      8  C1  UNL d   1       2.184   2.681   1.184  0.00  0.00     0.053 C 
ATOM      9  C   UNL d   1       3.397   1.846   0.805  0.00  0.00     0.018 C 
ENDBRANCH   1   8
TORSDOF 1
ENDMDL
