MODEL 1
REMARK minimizedAffinity -5.3444767
REMARK minimizedRMSD -1
REMARK  1 active torsions:
REMARK  status: ('A' for Active; 'I' for Inactive)
REMARK    1  A    between atoms: C1_2  and  C2_3 
ROOT
ATOM      1  C2  UNL d   1      -0.283   0.983  -0.763  0.00  0.00    -0.073 A 
ATOM      2  C3  UNL d   1      -0.429   0.715   0.603  0.00  0.00    -0.002 A 
ATOM      3  C4  UNL d   1      -0.474  -0.603   1.061  0.00  0.00     0.004 A 
ATOM      4  C5  UNL d   1      -0.366  -1.663   0.162  0.00  0.00    -0.004 A 
ATOM      5  C6  UNL d   1      -0.208  -1.415  -1.205  0.00  0.00    -0.075 A 
ATOM      6  C7  UNL d   1      -0.093  -2.545  -2.186  0.00  0.00     0.076 C 
ATOM      7  C8  UNL d   1      -0.167  -0.090  -1.658  0.00  0.00     0.001 A 
ENDROOT
BRANCH   1   8
ATOM      8  C1  UNL d   1      -0.228   2.404  -1.262  0.00  0.00     0.053 C 
ATOM      9  C   UNL d   1       0.213   3.372  -0.177  0.00  0.00     0.018 C 
ENDBRANCH   1   8
TORSDOF 1
ENDMDL
