MODEL 1
REMARK minimizedAffinity -6.40403891
REMARK minimizedRMSD -1
REMARK  1 active torsions:
REMARK  status: ('A' for Active; 'I' for Inactive)
REMARK    1  A    between atoms: C1_2  and  C2_3 
ROOT
ATOM      1  C2  UNL d   1       0.327   0.456   0.299  0.00  0.00    -0.073 A 
ATOM      2  C3  UNL d   1      -0.904   1.103   0.450  0.00  0.00    -0.002 A 
ATOM      3  C4  UNL d   1      -0.961   2.493   0.562  0.00  0.00     0.004 A 
ATOM      4  C5  UNL d   1       0.210   3.249   0.516  0.00  0.00    -0.004 A 
ATOM      5  C6  UNL d   1       1.449   2.622   0.353  0.00  0.00    -0.075 A 
ATOM      6  C7  UNL d   1       2.718   3.421   0.305  0.00  0.00     0.076 C 
ATOM      7  C8  UNL d   1       1.498   1.226   0.245  0.00  0.00     0.001 A 
ENDROOT
BRANCH   1   8
ATOM      8  C1  UNL d   1       0.393  -1.044   0.171  0.00  0.00     0.053 C 
ATOM      9  C   UNL d   1       0.651  -1.484  -1.261  0.00  0.00     0.018 C 
ENDBRANCH   1   8
TORSDOF 1
ENDMDL
