MODEL 1
REMARK minimizedAffinity -4.89233208
REMARK minimizedRMSD -1
REMARK  1 active torsions:
REMARK  status: ('A' for Active; 'I' for Inactive)
REMARK    1  A    between atoms: C1_2  and  C2_3 
ROOT
ATOM      1  C2  UNL d   1      -0.128  -0.366   0.277  0.00  0.00    -0.073 A 
ATOM      2  C3  UNL d   1      -1.260   0.456   0.279  0.00  0.00    -0.002 A 
ATOM      3  C4  UNL d   1      -1.148   1.809   0.605  0.00  0.00     0.004 A 
ATOM      4  C5  UNL d   1       0.096   2.353   0.923  0.00  0.00    -0.004 A 
ATOM      5  C6  UNL d   1       1.241   1.550   0.914  0.00  0.00    -0.075 A 
ATOM      6  C7  UNL d   1       2.586   2.120   1.257  0.00  0.00     0.076 C 
ATOM      7  C8  UNL d   1       1.120   0.192   0.589  0.00  0.00     0.001 A 
ENDROOT
BRANCH   1   8
ATOM      8  C1  UNL d   1      -0.243  -1.826  -0.080  0.00  0.00     0.053 C 
ATOM      9  C   UNL d   1      -0.331  -2.040  -1.583  0.00  0.00     0.018 C 
ENDBRANCH   1   8
TORSDOF 1
ENDMDL
