MODEL 1
REMARK minimizedAffinity 6.24833441
REMARK minimizedRMSD -1
REMARK  0 active torsions:
REMARK  status: ('A' for Active; 'I' for Inactive)
ROOT
ATOM      1  C4' PXY d   1       1.416  -1.931   2.674  0.00  0.00     0.077 C 
ATOM      2  C1' PXY d   1      -3.609   0.926   2.653  0.00  0.00     0.077 C 
ATOM      3  C1  PXY d   1      -2.297   0.166   2.653  0.00  0.00    -0.082 A 
ATOM      4  C2  PXY d   1      -1.340   0.514   3.498  0.00  0.00     0.003 A 
ATOM      5  C3  PXY d   1      -0.136  -0.141   3.490  0.00  0.00     0.003 A 
ATOM      6  C4  PXY d   1       0.072  -1.198   2.645  0.00  0.00    -0.082 A 
ATOM      7  C5  PXY d   1      -0.903  -1.567   1.787  0.00  0.00     0.003 A 
ATOM      8  C6  PXY d   1      -2.104  -0.862   1.783  0.00  0.00     0.003 A 
ENDROOT
TORSDOF 0
ENDMDL
