MODEL 1
REMARK minimizedAffinity 7.72558498
REMARK minimizedRMSD -1
REMARK  0 active torsions:
REMARK  status: ('A' for Active; 'I' for Inactive)
ROOT
ATOM      1  C4' PXY d   1       2.368  -0.709   2.469  0.00  0.00     0.077 C 
ATOM      2  C1' PXY d   1       1.813   1.184  -2.965  0.00  0.00     0.077 C 
ATOM      3  C1  PXY d   1       1.967   0.698  -1.537  0.00  0.00    -0.082 A 
ATOM      4  C2  PXY d   1       1.753  -0.577  -1.254  0.00  0.00     0.003 A 
ATOM      5  C3  PXY d   1       1.856  -1.028   0.037  0.00  0.00     0.003 A 
ATOM      6  C4  PXY d   1       2.234  -0.176   1.040  0.00  0.00    -0.082 A 
ATOM      7  C5  PXY d   1       2.464   1.124   0.757  0.00  0.00     0.003 A 
ATOM      8  C6  PXY d   1       2.314   1.570  -0.553  0.00  0.00     0.003 A 
ENDROOT
TORSDOF 0
ENDMDL
