MODEL 1
REMARK minimizedAffinity -2.30035901
REMARK minimizedRMSD -1
REMARK  0 active torsions:
REMARK  status: ('A' for Active; 'I' for Inactive)
ROOT
ATOM      1  C4' PXY d   1      -0.180   0.676  -1.904  0.00  0.00     0.077 C 
ATOM      2  C1' PXY d   1      -4.397  -1.886  -4.916  0.00  0.00     0.077 C 
ATOM      3  C1  PXY d   1      -3.290  -1.204  -4.135  0.00  0.00    -0.082 A 
ATOM      4  C2  PXY d   1      -2.507  -1.923  -3.348  0.00  0.00     0.003 A 
ATOM      5  C3  PXY d   1      -1.522  -1.318  -2.610  0.00  0.00     0.003 A 
ATOM      6  C4  PXY d   1      -1.303   0.029  -2.719  0.00  0.00    -0.082 A 
ATOM      7  C5  PXY d   1      -2.091   0.768  -3.528  0.00  0.00     0.003 A 
ATOM      8  C6  PXY d   1      -3.112   0.141  -4.237  0.00  0.00     0.003 A 
ENDROOT
TORSDOF 0
ENDMDL
