MODEL 1
REMARK minimizedAffinity 5.79568243
REMARK minimizedRMSD -1
REMARK  0 active torsions:
REMARK  status: ('A' for Active; 'I' for Inactive)
ROOT
ATOM      1  C4' PXY d   1       0.225  -1.500   1.298  0.00  0.00     0.077 C 
ATOM      2  C1' PXY d   1      -3.091   2.130   4.337  0.00  0.00     0.077 C 
ATOM      3  C1  PXY d   1      -2.211   1.185   3.543  0.00  0.00    -0.082 A 
ATOM      4  C2  PXY d   1      -2.739   0.464   2.567  0.00  0.00     0.003 A 
ATOM      5  C3  PXY d   1      -1.964  -0.419   1.860  0.00  0.00     0.003 A 
ATOM      6  C4  PXY d   1      -0.624  -0.526   2.119  0.00  0.00    -0.082 A 
ATOM      7  C5  PXY d   1      -0.076   0.214   3.106  0.00  0.00     0.003 A 
ATOM      8  C6  PXY d   1      -0.888   1.074   3.839  0.00  0.00     0.003 A 
ENDROOT
TORSDOF 0
ENDMDL
