MODEL 1
REMARK minimizedAffinity 6.7772522
REMARK minimizedRMSD -1
REMARK  0 active torsions:
REMARK  status: ('A' for Active; 'I' for Inactive)
ROOT
ATOM      1  C4' PXY d   1      -0.096   2.678  -2.244  0.00  0.00     0.077 C 
ATOM      2  C1' PXY d   1       3.027  -1.623   0.029  0.00  0.00     0.077 C 
ATOM      3  C1  PXY d   1       2.214  -0.487  -0.558  0.00  0.00    -0.082 A 
ATOM      4  C2  PXY d   1       1.090  -0.753  -1.204  0.00  0.00     0.003 A 
ATOM      5  C3  PXY d   1       0.358   0.260  -1.769  0.00  0.00     0.003 A 
ATOM      6  C4  PXY d   1       0.753   1.563  -1.626  0.00  0.00    -0.082 A 
ATOM      7  C5  PXY d   1       1.893   1.844  -0.960  0.00  0.00     0.003 A 
ATOM      8  C6  PXY d   1       2.643   0.798  -0.429  0.00  0.00     0.003 A 
ENDROOT
TORSDOF 0
ENDMDL
