MODEL 1
REMARK minimizedAffinity 2.16406846
REMARK minimizedRMSD -1
REMARK  0 active torsions:
REMARK  status: ('A' for Active; 'I' for Inactive)
ROOT
ATOM      1  C4' PXY d   1       1.089  -2.002   1.797  0.00  0.00     0.077 C 
ATOM      2  C1' PXY d   1       2.550   0.523  -3.193  0.00  0.00     0.077 C 
ATOM      3  C1  PXY d   1       2.176  -0.148  -1.886  0.00  0.00    -0.082 A 
ATOM      4  C2  PXY d   1       0.961   0.017  -1.390  0.00  0.00     0.003 A 
ATOM      5  C3  PXY d   1       0.616  -0.557  -0.193  0.00  0.00     0.003 A 
ATOM      6  C4  PXY d   1       1.508  -1.351   0.476  0.00  0.00    -0.082 A 
ATOM      7  C5  PXY d   1       2.746  -1.534  -0.029  0.00  0.00     0.003 A 
ATOM      8  C6  PXY d   1       3.090  -0.909  -1.224  0.00  0.00     0.003 A 
ENDROOT
TORSDOF 0
ENDMDL
