MODEL 1
REMARK minimizedAffinity 2.4254818
REMARK minimizedRMSD -1
REMARK  0 active torsions:
REMARK  status: ('A' for Active; 'I' for Inactive)
ROOT
ATOM      1  C4' PXY d   1      -3.398   1.100   2.754  0.00  0.00     0.077 C 
ATOM      2  C1' PXY d   1       1.654  -1.595   1.962  0.00  0.00     0.077 C 
ATOM      3  C1  PXY d   1       0.324  -0.895   2.159  0.00  0.00    -0.082 A 
ATOM      4  C2  PXY d   1       0.287   0.281   2.765  0.00  0.00     0.003 A 
ATOM      5  C3  PXY d   1      -0.910   0.913   2.980  0.00  0.00     0.003 A 
ATOM      6  C4  PXY d   1      -2.077   0.361   2.524  0.00  0.00    -0.082 A 
ATOM      7  C5  PXY d   1      -2.047  -0.834   1.896  0.00  0.00     0.003 A 
ATOM      8  C6  PXY d   1      -0.825  -1.478   1.724  0.00  0.00     0.003 A 
ENDROOT
TORSDOF 0
ENDMDL
