MODEL 1
REMARK minimizedAffinity -1.71975851
REMARK minimizedRMSD -1
REMARK  0 active torsions:
REMARK  status: ('A' for Active; 'I' for Inactive)
ROOT
ATOM      1  C4' PXY d   1       1.111  -1.827   1.872  0.00  0.00     0.077 C 
ATOM      2  C1' PXY d   1      -3.437   1.313   3.568  0.00  0.00     0.077 C 
ATOM      3  C1  PXY d   1      -2.236   0.497   3.130  0.00  0.00    -0.082 A 
ATOM      4  C2  PXY d   1      -2.313  -0.243   2.036  0.00  0.00     0.003 A 
ATOM      5  C3  PXY d   1      -1.247  -1.012   1.643  0.00  0.00     0.003 A 
ATOM      6  C4  PXY d   1      -0.073  -0.980   2.347  0.00  0.00    -0.082 A 
ATOM      7  C5  PXY d   1       0.016  -0.219   3.458  0.00  0.00     0.003 A 
ATOM      8  C6  PXY d   1      -1.091   0.522   3.863  0.00  0.00     0.003 A 
ENDROOT
TORSDOF 0
ENDMDL
