MODEL 1
REMARK minimizedAffinity 12.0822449
REMARK minimizedRMSD -1
REMARK  0 active torsions:
REMARK  status: ('A' for Active; 'I' for Inactive)
ROOT
ATOM      1  C4' PXY d   1       1.233   1.377   2.993  0.00  0.00     0.077 C 
ATOM      2  C1' PXY d   1      -0.768  -4.013   2.401  0.00  0.00     0.077 C 
ATOM      3  C1  PXY d   1      -0.231  -2.604   2.557  0.00  0.00    -0.082 A 
ATOM      4  C2  PXY d   1      -1.035  -1.640   2.976  0.00  0.00     0.003 A 
ATOM      5  C3  PXY d   1      -0.574  -0.354   3.093  0.00  0.00     0.003 A 
ATOM      6  C4  PXY d   1       0.737  -0.062   2.829  0.00  0.00    -0.082 A 
ATOM      7  C5  PXY d   1       1.566  -1.041   2.412  0.00  0.00     0.003 A 
ATOM      8  C6  PXY d   1       1.069  -2.332   2.260  0.00  0.00     0.003 A 
ENDROOT
TORSDOF 0
ENDMDL
