MODEL 1
REMARK minimizedAffinity 7.92455912
REMARK minimizedRMSD -1
REMARK  0 active torsions:
REMARK  status: ('A' for Active; 'I' for Inactive)
ROOT
ATOM      1  C4' PXY d   1       3.598  -2.551  -0.828  0.00  0.00     0.077 C 
ATOM      2  C1' PXY d   1      -0.014  -0.770   3.319  0.00  0.00     0.077 C 
ATOM      3  C1  PXY d   1       0.926  -1.230   2.222  0.00  0.00    -0.082 A 
ATOM      4  C2  PXY d   1       1.625  -2.342   2.385  0.00  0.00     0.003 A 
ATOM      5  C3  PXY d   1       2.504  -2.755   1.417  0.00  0.00     0.003 A 
ATOM      6  C4  PXY d   1       2.630  -2.053   0.248  0.00  0.00    -0.082 A 
ATOM      7  C5  PXY d   1       1.912  -0.924   0.071  0.00  0.00     0.003 A 
ATOM      8  C6  PXY d   1       1.055  -0.498   1.083  0.00  0.00     0.003 A 
ENDROOT
TORSDOF 0
ENDMDL
