MODEL 1
REMARK minimizedAffinity 4.51206732
REMARK minimizedRMSD -1
REMARK  0 active torsions:
REMARK  status: ('A' for Active; 'I' for Inactive)
ROOT
ATOM      1  C4' PXY d   1      -0.376  -1.216   3.102  0.00  0.00     0.077 C 
ATOM      2  C1' PXY d   1       2.637  -1.177  -1.831  0.00  0.00     0.077 C 
ATOM      3  C1  PXY d   1       1.841  -1.176  -0.541  0.00  0.00    -0.082 A 
ATOM      4  C2  PXY d   1       2.298  -1.837   0.510  0.00  0.00     0.003 A 
ATOM      5  C3  PXY d   1       1.575  -1.873   1.675  0.00  0.00     0.003 A 
ATOM      6  C4  PXY d   1       0.398  -1.182   1.781  0.00  0.00    -0.082 A 
ATOM      7  C5  PXY d   1      -0.070  -0.497   0.717  0.00  0.00     0.003 A 
ATOM      8  C6  PXY d   1       0.658  -0.507  -0.469  0.00  0.00     0.003 A 
ENDROOT
TORSDOF 0
ENDMDL
