MODEL 1
REMARK minimizedAffinity 2.9889183
REMARK minimizedRMSD -1
REMARK  0 active torsions:
REMARK  status: ('A' for Active; 'I' for Inactive)
ROOT
ATOM      1  C4' PXY d   1       2.351  -1.529   2.198  0.00  0.00     0.077 C 
ATOM      2  C1' PXY d   1       1.854   0.933  -3.008  0.00  0.00     0.077 C 
ATOM      3  C1  PXY d   1       1.977   0.277  -1.647  0.00  0.00    -0.082 A 
ATOM      4  C2  PXY d   1       2.208   1.024  -0.580  0.00  0.00     0.003 A 
ATOM      5  C3  PXY d   1       2.354   0.444   0.654  0.00  0.00     0.003 A 
ATOM      6  C4  PXY d   1       2.209  -0.909   0.805  0.00  0.00    -0.082 A 
ATOM      7  C5  PXY d   1       1.964  -1.677  -0.277  0.00  0.00     0.003 A 
ATOM      8  C6  PXY d   1       1.860  -1.073  -1.527  0.00  0.00     0.003 A 
ENDROOT
TORSDOF 0
ENDMDL
