MODEL 1
REMARK minimizedAffinity -0.0142693417
REMARK minimizedRMSD -1
REMARK  0 active torsions:
REMARK  status: ('A' for Active; 'I' for Inactive)
ROOT
ATOM      1  C2' OXE d   1       1.772  -3.367   1.099  0.00  0.00     0.078 C 
ATOM      2  C1' OXE d   1      -0.914  -2.660   0.692  0.00  0.00     0.078 C 
ATOM      3  C1  OXE d   1       0.142  -1.852  -0.021  0.00  0.00    -0.078 A 
ATOM      4  C2  OXE d   1       1.455  -2.175   0.221  0.00  0.00    -0.078 A 
ATOM      5  C3  OXE d   1       2.467  -1.497  -0.453  0.00  0.00     0.003 A 
ATOM      6  C4  OXE d   1       2.166  -0.390  -1.255  0.00  0.00    -0.002 A 
ATOM      7  C5  OXE d   1       0.837  -0.019  -1.483  0.00  0.00    -0.002 A 
ATOM      8  C6  OXE d   1      -0.187  -0.764  -0.909  0.00  0.00     0.003 A 
ENDROOT
TORSDOF 0
ENDMDL
