MODEL 1
REMARK minimizedAffinity 6.96329355
REMARK minimizedRMSD -1
REMARK  0 active torsions:
REMARK  status: ('A' for Active; 'I' for Inactive)
ROOT
ATOM      1  C2' OXE d   1       0.020   0.964  -3.572  0.00  0.00     0.078 C 
ATOM      2  C1' OXE d   1      -0.110  -1.831  -3.800  0.00  0.00     0.078 C 
ATOM      3  C1  OXE d   1       0.496  -1.255  -2.544  0.00  0.00    -0.078 A 
ATOM      4  C2  OXE d   1       0.598   0.113  -2.461  0.00  0.00    -0.078 A 
ATOM      5  C3  OXE d   1       1.098   0.698  -1.301  0.00  0.00     0.003 A 
ATOM      6  C4  OXE d   1       1.639  -0.097  -0.284  0.00  0.00    -0.002 A 
ATOM      7  C5  OXE d   1       1.582  -1.492  -0.366  0.00  0.00    -0.002 A 
ATOM      8  C6  OXE d   1       0.976  -2.085  -1.468  0.00  0.00     0.003 A 
ENDROOT
TORSDOF 0
ENDMDL
