MODEL 1
REMARK minimizedAffinity -3.08271217
REMARK minimizedRMSD -1
REMARK  0 active torsions:
REMARK  status: ('A' for Active; 'I' for Inactive)
ROOT
ATOM      1  C2' OXE d   1      -5.789   0.493   2.889  0.00  0.00     0.078 C 
ATOM      2  C1' OXE d   1      -4.021   2.059   4.405  0.00  0.00     0.078 C 
ATOM      3  C1  OXE d   1      -3.574   0.673   4.015  0.00  0.00    -0.078 A 
ATOM      4  C2  OXE d   1      -4.464  -0.104   3.313  0.00  0.00    -0.078 A 
ATOM      5  C3  OXE d   1      -4.083  -1.371   2.881  0.00  0.00     0.003 A 
ATOM      6  C4  OXE d   1      -2.860  -1.919   3.286  0.00  0.00    -0.002 A 
ATOM      7  C5  OXE d   1      -1.954  -1.160   4.035  0.00  0.00    -0.002 A 
ATOM      8  C6  OXE d   1      -2.278   0.150   4.371  0.00  0.00     0.003 A 
ENDROOT
TORSDOF 0
ENDMDL
