MODEL 1
REMARK minimizedAffinity -0.316536993
REMARK minimizedRMSD -1
REMARK  0 active torsions:
REMARK  status: ('A' for Active; 'I' for Inactive)
ROOT
ATOM      1  C2' OXE d   1       2.308   0.072  -1.529  0.00  0.00     0.078 C 
ATOM      2  C1' OXE d   1       3.130  -1.826   0.369  0.00  0.00     0.078 C 
ATOM      3  C1  OXE d   1       1.660  -1.753   0.038  0.00  0.00    -0.078 A 
ATOM      4  C2  OXE d   1       1.261  -0.789  -0.857  0.00  0.00    -0.078 A 
ATOM      5  C3  OXE d   1      -0.076  -0.714  -1.238  0.00  0.00     0.003 A 
ATOM      6  C4  OXE d   1      -1.039  -1.508  -0.605  0.00  0.00    -0.002 A 
ATOM      7  C5  OXE d   1      -0.659  -2.469   0.339  0.00  0.00    -0.002 A 
ATOM      8  C6  OXE d   1       0.688  -2.633   0.639  0.00  0.00     0.003 A 
ENDROOT
TORSDOF 0
ENDMDL
