MODEL 1
REMARK minimizedAffinity -1.1504277
REMARK minimizedRMSD -1
REMARK  0 active torsions:
REMARK  status: ('A' for Active; 'I' for Inactive)
ROOT
ATOM      1  C2' OXE d   1       0.417  -0.189  -1.531  0.00  0.00     0.078 C 
ATOM      2  C1' OXE d   1      -1.744  -1.792  -0.732  0.00  0.00     0.078 C 
ATOM      3  C1  OXE d   1      -0.366  -2.185  -0.262  0.00  0.00    -0.078 A 
ATOM      4  C2  OXE d   1       0.691  -1.421  -0.696  0.00  0.00    -0.078 A 
ATOM      5  C3  OXE d   1       1.978  -1.707  -0.247  0.00  0.00     0.003 A 
ATOM      6  C4  OXE d   1       2.223  -2.854   0.517  0.00  0.00    -0.002 A 
ATOM      7  C5  OXE d   1       1.166  -3.667   0.938  0.00  0.00    -0.002 A 
ATOM      8  C6  OXE d   1      -0.137  -3.323   0.593  0.00  0.00     0.003 A 
ENDROOT
TORSDOF 0
ENDMDL
