MODEL 1
REMARK minimizedAffinity 4.18909264
REMARK minimizedRMSD -1
REMARK  0 active torsions:
REMARK  status: ('A' for Active; 'I' for Inactive)
ROOT
ATOM      1  C2' OXE d   1       1.197  -2.211  -2.971  0.00  0.00     0.078 C 
ATOM      2  C1' OXE d   1       0.977  -1.131  -0.389  0.00  0.00     0.078 C 
ATOM      3  C1  OXE d   1       0.944  -0.177  -1.556  0.00  0.00    -0.078 A 
ATOM      4  C2  OXE d   1       1.099  -0.709  -2.813  0.00  0.00    -0.078 A 
ATOM      5  C3  OXE d   1       1.022   0.121  -3.928  0.00  0.00     0.003 A 
ATOM      6  C4  OXE d   1       0.941   1.510  -3.773  0.00  0.00    -0.002 A 
ATOM      7  C5  OXE d   1       0.822   2.077  -2.499  0.00  0.00    -0.002 A 
ATOM      8  C6  OXE d   1       0.779   1.246  -1.385  0.00  0.00     0.003 A 
ENDROOT
TORSDOF 0
ENDMDL
