MODEL 1
REMARK minimizedAffinity 8.41005421
REMARK minimizedRMSD -1
REMARK  0 active torsions:
REMARK  status: ('A' for Active; 'I' for Inactive)
ROOT
ATOM      1  C2' OXE d   1       3.119   1.903  -5.484  0.00  0.00     0.078 C 
ATOM      2  C1' OXE d   1       1.129   3.846  -5.108  0.00  0.00     0.078 C 
ATOM      3  C1  OXE d   1       1.244   2.749  -4.080  0.00  0.00    -0.078 A 
ATOM      4  C2  OXE d   1       2.190   1.776  -4.296  0.00  0.00    -0.078 A 
ATOM      5  C3  OXE d   1       2.374   0.771  -3.351  0.00  0.00     0.003 A 
ATOM      6  C4  OXE d   1       1.503   0.656  -2.261  0.00  0.00    -0.002 A 
ATOM      7  C5  OXE d   1       0.507   1.613  -2.043  0.00  0.00    -0.002 A 
ATOM      8  C6  OXE d   1       0.392   2.688  -2.918  0.00  0.00     0.003 A 
ENDROOT
TORSDOF 0
ENDMDL
