MODEL 1
REMARK minimizedAffinity 10.1738119
REMARK minimizedRMSD -1
REMARK  0 active torsions:
REMARK  status: ('A' for Active; 'I' for Inactive)
ROOT
ATOM      1  C2' OXE d   1      -3.176   5.987   5.997  0.00  0.00     0.078 C 
ATOM      2  C1' OXE d   1      -5.983   5.998   5.997  0.00  0.00     0.078 C 
ATOM      3  C1  OXE d   1      -5.281   5.738   4.688  0.00  0.00    -0.078 A 
ATOM      4  C2  OXE d   1      -3.907   5.781   4.688  0.00  0.00    -0.078 A 
ATOM      5  C3  OXE d   1      -3.209   5.494   3.519  0.00  0.00     0.003 A 
ATOM      6  C4  OXE d   1      -3.892   5.315   2.310  0.00  0.00    -0.002 A 
ATOM      7  C5  OXE d   1      -5.291   5.307   2.280  0.00  0.00    -0.002 A 
ATOM      8  C6  OXE d   1      -5.999   5.475   3.465  0.00  0.00     0.003 A 
ENDROOT
TORSDOF 0
ENDMDL
