MODEL 1
REMARK minimizedAffinity 3.34966874
REMARK minimizedRMSD -1
REMARK  0 active torsions:
REMARK  status: ('A' for Active; 'I' for Inactive)
ROOT
ATOM      1  C2' OXE d   1       0.606  -1.939   0.300  0.00  0.00     0.078 C 
ATOM      2  C1' OXE d   1       0.299  -2.762  -2.367  0.00  0.00     0.078 C 
ATOM      3  C1  OXE d   1       0.520  -1.293  -2.105  0.00  0.00    -0.078 A 
ATOM      4  C2  OXE d   1       0.622  -0.893  -0.794  0.00  0.00    -0.078 A 
ATOM      5  C3  OXE d   1       0.880   0.443  -0.499  0.00  0.00     0.003 A 
ATOM      6  C4  OXE d   1       0.883   1.405  -1.516  0.00  0.00    -0.002 A 
ATOM      7  C5  OXE d   1       0.741   1.024  -2.855  0.00  0.00    -0.002 A 
ATOM      8  C6  OXE d   1       0.601  -0.323  -3.169  0.00  0.00     0.003 A 
ENDROOT
TORSDOF 0
ENDMDL
