MODEL 1
REMARK minimizedAffinity 12.6150036
REMARK minimizedRMSD -1
REMARK  0 active torsions:
REMARK  status: ('A' for Active; 'I' for Inactive)
ROOT
ATOM      1  C2' OXE d   1       0.852  -2.811  -2.542  0.00  0.00     0.078 C 
ATOM      2  C1' OXE d   1      -0.172  -1.980  -0.063  0.00  0.00     0.078 C 
ATOM      3  C1  OXE d   1       0.334  -0.918  -1.008  0.00  0.00    -0.078 A 
ATOM      4  C2  OXE d   1       0.875  -1.337  -2.199  0.00  0.00    -0.078 A 
ATOM      5  C3  OXE d   1       1.306  -0.396  -3.129  0.00  0.00     0.003 A 
ATOM      6  C4  OXE d   1       1.334   0.965  -2.800  0.00  0.00    -0.002 A 
ATOM      7  C5  OXE d   1       0.823   1.410  -1.576  0.00  0.00    -0.002 A 
ATOM      8  C6  OXE d   1       0.281   0.487  -0.688  0.00  0.00     0.003 A 
ENDROOT
TORSDOF 0
ENDMDL
