MODEL 1
REMARK minimizedAffinity 2.01210809
REMARK minimizedRMSD -1
REMARK  0 active torsions:
REMARK  status: ('A' for Active; 'I' for Inactive)
ROOT
ATOM      1  C2' OXE d   1       0.421  -0.915   0.173  0.00  0.00     0.078 C 
ATOM      2  C1' OXE d   1       0.153   1.477  -1.272  0.00  0.00     0.078 C 
ATOM      3  C1  OXE d   1       0.663   0.263  -2.008  0.00  0.00    -0.078 A 
ATOM      4  C2  OXE d   1       0.836  -0.891  -1.282  0.00  0.00    -0.078 A 
ATOM      5  C3  OXE d   1       1.252  -2.054  -1.924  0.00  0.00     0.003 A 
ATOM      6  C4  OXE d   1       1.643  -2.020  -3.268  0.00  0.00    -0.002 A 
ATOM      7  C5  OXE d   1       1.512  -0.846  -4.016  0.00  0.00    -0.002 A 
ATOM      8  C6  OXE d   1       0.985   0.291  -3.414  0.00  0.00     0.003 A 
ENDROOT
TORSDOF 0
ENDMDL
