MODEL 1
REMARK minimizedAffinity 0.527952075
REMARK minimizedRMSD -1
REMARK  0 active torsions:
REMARK  status: ('A' for Active; 'I' for Inactive)
ROOT
ATOM      1  C2' OXE d   1       2.644   0.970  -4.668  0.00  0.00     0.078 C 
ATOM      2  C1' OXE d   1       0.775   2.964  -4.025  0.00  0.00     0.078 C 
ATOM      3  C1  OXE d   1       0.977   1.844  -3.035  0.00  0.00    -0.078 A 
ATOM      4  C2  OXE d   1       1.859   0.848  -3.379  0.00  0.00    -0.078 A 
ATOM      5  C3  OXE d   1       2.124  -0.180  -2.478  0.00  0.00     0.003 A 
ATOM      6  C4  OXE d   1       1.387  -0.291  -1.293  0.00  0.00    -0.002 A 
ATOM      7  C5  OXE d   1       0.454   0.691  -0.942  0.00  0.00    -0.002 A 
ATOM      8  C6  OXE d   1       0.269   1.785  -1.780  0.00  0.00     0.003 A 
ENDROOT
TORSDOF 0
ENDMDL
