MODEL 1
REMARK minimizedAffinity 9.84151936
REMARK minimizedRMSD -1
REMARK  0 active torsions:
REMARK  status: ('A' for Active; 'I' for Inactive)
ROOT
ATOM      1  C2' OXE d   1       0.620   2.446  -3.225  0.00  0.00     0.078 C 
ATOM      2  C1' OXE d   1       1.995   0.272  -4.350  0.00  0.00     0.078 C 
ATOM      3  C1  OXE d   1       1.425   0.103  -2.964  0.00  0.00    -0.078 A 
ATOM      4  C2  OXE d   1       0.794   1.187  -2.403  0.00  0.00    -0.078 A 
ATOM      5  C3  OXE d   1       0.202   1.068  -1.149  0.00  0.00     0.003 A 
ATOM      6  C4  OXE d   1       0.376  -0.096  -0.391  0.00  0.00    -0.002 A 
ATOM      7  C5  OXE d   1       1.050  -1.199  -0.927  0.00  0.00    -0.002 A 
ATOM      8  C6  OXE d   1       1.542  -1.131  -2.226  0.00  0.00     0.003 A 
ENDROOT
TORSDOF 0
ENDMDL
