MODEL 1
REMARK minimizedAffinity 4.27051592
REMARK minimizedRMSD -1
REMARK  0 active torsions:
REMARK  status: ('A' for Active; 'I' for Inactive)
ROOT
ATOM      1  C2' OXE d   1       0.949   1.485  -2.276  0.00  0.00     0.078 C 
ATOM      2  C1' OXE d   1       0.719  -0.253  -0.084  0.00  0.00     0.078 C 
ATOM      3  C1  OXE d   1       1.014  -0.858  -1.434  0.00  0.00    -0.078 A 
ATOM      4  C2  OXE d   1       1.079  -0.004  -2.509  0.00  0.00    -0.078 A 
ATOM      5  C3  OXE d   1       1.402  -0.504  -3.767  0.00  0.00     0.003 A 
ATOM      6  C4  OXE d   1       1.511  -1.884  -3.975  0.00  0.00    -0.002 A 
ATOM      7  C5  OXE d   1       1.409  -2.774  -2.901  0.00  0.00    -0.002 A 
ATOM      8  C6  OXE d   1       1.204  -2.275  -1.620  0.00  0.00     0.003 A 
ENDROOT
TORSDOF 0
ENDMDL
