MODEL 1
REMARK minimizedAffinity 2.49246264
REMARK minimizedRMSD -1
REMARK  0 active torsions:
REMARK  status: ('A' for Active; 'I' for Inactive)
ROOT
ATOM      1  C2' OXE d   1       0.749   2.045  -0.709  0.00  0.00     0.078 C 
ATOM      2  C1' OXE d   1       0.672  -0.571   0.308  0.00  0.00     0.078 C 
ATOM      3  C1  OXE d   1       0.899  -0.398  -1.173  0.00  0.00    -0.078 A 
ATOM      4  C2  OXE d   1       0.889   0.884  -1.669  0.00  0.00    -0.078 A 
ATOM      5  C3  OXE d   1       1.148   1.102  -3.019  0.00  0.00     0.003 A 
ATOM      6  C4  OXE d   1       1.266   0.022  -3.902  0.00  0.00    -0.002 A 
ATOM      7  C5  OXE d   1       1.240  -1.292  -3.424  0.00  0.00    -0.002 A 
ATOM      8  C6  OXE d   1       1.100  -1.518  -2.059  0.00  0.00     0.003 A 
ENDROOT
TORSDOF 0
ENDMDL
