MODEL 1
REMARK minimizedAffinity 13.2128639
REMARK minimizedRMSD -1
REMARK  0 active torsions:
REMARK  status: ('A' for Active; 'I' for Inactive)
ROOT
ATOM      1  C2' OXE d   1       1.722  -5.731   2.851  0.00  0.00     0.078 C 
ATOM      2  C1' OXE d   1       1.916  -5.738   5.651  0.00  0.00     0.078 C 
ATOM      3  C1  OXE d   1       3.196  -5.814   4.857  0.00  0.00    -0.078 A 
ATOM      4  C2  OXE d   1       3.089  -5.857   3.488  0.00  0.00    -0.078 A 
ATOM      5  C3  OXE d   1       4.241  -5.873   2.706  0.00  0.00     0.003 A 
ATOM      6  C4  OXE d   1       5.501  -6.000   3.304  0.00  0.00    -0.002 A 
ATOM      7  C5  OXE d   1       5.630  -5.998   4.697  0.00  0.00    -0.002 A 
ATOM      8  C6  OXE d   1       4.493  -5.863   5.486  0.00  0.00     0.003 A 
ENDROOT
TORSDOF 0
ENDMDL
