MODEL 1
REMARK minimizedAffinity 0.216627613
REMARK minimizedRMSD -1
REMARK  0 active torsions:
REMARK  status: ('A' for Active; 'I' for Inactive)
ROOT
ATOM      1  C2' OXE d   1       1.676   0.149  -4.257  0.00  0.00     0.078 C 
ATOM      2  C1' OXE d   1       1.319  -2.408  -3.155  0.00  0.00     0.078 C 
ATOM      3  C1  OXE d   1       1.044  -1.217  -2.271  0.00  0.00    -0.078 A 
ATOM      4  C2  OXE d   1       1.266   0.030  -2.804  0.00  0.00    -0.078 A 
ATOM      5  C3  OXE d   1       0.976   1.164  -2.051  0.00  0.00     0.003 A 
ATOM      6  C4  OXE d   1       0.607   1.045  -0.705  0.00  0.00    -0.002 A 
ATOM      7  C5  OXE d   1       0.414  -0.216  -0.131  0.00  0.00    -0.002 A 
ATOM      8  C6  OXE d   1       0.586  -1.354  -0.911  0.00  0.00     0.003 A 
ENDROOT
TORSDOF 0
ENDMDL
