MODEL 1
REMARK minimizedAffinity 1.68295979
REMARK minimizedRMSD -1
REMARK  0 active torsions:
REMARK  status: ('A' for Active; 'I' for Inactive)
ROOT
ATOM      1  C2' OXE d   1       1.335  -2.748  -2.717  0.00  0.00     0.078 C 
ATOM      2  C1' OXE d   1       1.282  -1.066  -4.964  0.00  0.00     0.078 C 
ATOM      3  C1  OXE d   1       1.124  -0.430  -3.606  0.00  0.00    -0.078 A 
ATOM      4  C2  OXE d   1       1.104  -1.266  -2.515  0.00  0.00    -0.078 A 
ATOM      5  C3  OXE d   1       1.016  -0.726  -1.235  0.00  0.00     0.003 A 
ATOM      6  C4  OXE d   1       0.793   0.645  -1.058  0.00  0.00    -0.002 A 
ATOM      7  C5  OXE d   1       0.770   1.509  -2.158  0.00  0.00    -0.002 A 
ATOM      8  C6  OXE d   1       0.976   0.994  -3.433  0.00  0.00     0.003 A 
ENDROOT
TORSDOF 0
ENDMDL
