MODEL 1
REMARK minimizedAffinity 5.14839125
REMARK minimizedRMSD -1
REMARK  0 active torsions:
REMARK  status: ('A' for Active; 'I' for Inactive)
ROOT
ATOM      1  C2' OXE d   1       1.459   1.312  -3.745  0.00  0.00     0.078 C 
ATOM      2  C1' OXE d   1       0.467   0.478  -1.255  0.00  0.00     0.078 C 
ATOM      3  C1  OXE d   1       0.850  -0.587  -2.252  0.00  0.00    -0.078 A 
ATOM      4  C2  OXE d   1       1.291  -0.169  -3.485  0.00  0.00    -0.078 A 
ATOM      5  C3  OXE d   1       1.710  -1.110  -4.422  0.00  0.00     0.003 A 
ATOM      6  C4  OXE d   1       1.542  -2.478  -4.177  0.00  0.00    -0.002 A 
ATOM      7  C5  OXE d   1       1.058  -2.924  -2.942  0.00  0.00    -0.002 A 
ATOM      8  C6  OXE d   1       0.748  -1.994  -1.956  0.00  0.00     0.003 A 
ENDROOT
TORSDOF 0
ENDMDL
