MODEL 1
REMARK minimizedAffinity -3.26810646
REMARK minimizedRMSD -1
REMARK  0 active torsions:
REMARK  status: ('A' for Active; 'I' for Inactive)
ROOT
ATOM      1  C   UNL d   1       1.228  -2.451   1.449  0.00  0.00     0.020 A 
ATOM      2  C1  UNL d   1      -0.109  -2.245   1.783  0.00  0.00     0.020 A 
ATOM      3  C2  UNL d   1      -0.793  -1.137   1.276  0.00  0.00     0.034 A 
ATOM      4  C3  UNL d   1      -0.138  -0.232   0.432  0.00  0.00     0.017 A 
ATOM      5  C4  UNL d   1       1.205  -0.441   0.097  0.00  0.00     0.017 A 
ATOM      6  C5  UNL d   1       1.884  -1.551   0.608  0.00  0.00     0.034 A 
ATOM      7 Cl   UNL d   1       2.079   0.632  -0.938  0.00  0.00    -0.070 Cl
ATOM      8 Cl1  UNL d   1      -1.045   1.115  -0.159  0.00  0.00    -0.070 Cl
ENDROOT
TORSDOF 0
ENDMDL
