MODEL 1
REMARK minimizedAffinity -4.1400218
REMARK minimizedRMSD -1
REMARK  0 active torsions:
REMARK  status: ('A' for Active; 'I' for Inactive)
ROOT
ATOM      1  C   UNL d   1       1.229  -2.599   1.072  0.00  0.00     0.020 A 
ATOM      2  C1  UNL d   1       0.688  -2.431   2.346  0.00  0.00     0.020 A 
ATOM      3  C2  UNL d   1      -0.287  -1.456   2.568  0.00  0.00     0.034 A 
ATOM      4  C3  UNL d   1      -0.723  -0.645   1.514  0.00  0.00     0.017 A 
ATOM      5  C4  UNL d   1      -0.180  -0.814   0.235  0.00  0.00     0.017 A 
ATOM      6  C5  UNL d   1       0.796  -1.792   0.019  0.00  0.00     0.034 A 
ATOM      7 Cl   UNL d   1      -0.668   0.149  -1.114  0.00  0.00    -0.070 Cl
ATOM      8 Cl1  UNL d   1      -1.932   0.541   1.860  0.00  0.00    -0.070 Cl
ENDROOT
TORSDOF 0
ENDMDL
