MODEL 1
REMARK minimizedAffinity -5.53530788
REMARK minimizedRMSD -1
REMARK  0 active torsions:
REMARK  status: ('A' for Active; 'I' for Inactive)
ROOT
ATOM      1  C   UNL d   1      -0.190  -2.339   2.315  0.00  0.00     0.020 A 
ATOM      2  C1  UNL d   1       1.112  -2.739   2.017  0.00  0.00     0.020 A 
ATOM      3  C2  UNL d   1       1.835  -2.077   1.023  0.00  0.00     0.034 A 
ATOM      4  C3  UNL d   1       1.258  -1.010   0.324  0.00  0.00     0.017 A 
ATOM      5  C4  UNL d   1      -0.049  -0.609   0.624  0.00  0.00     0.017 A 
ATOM      6  C5  UNL d   1      -0.769  -1.276   1.620  0.00  0.00     0.034 A 
ATOM      7 Cl   UNL d   1      -0.829   0.698  -0.195  0.00  0.00    -0.070 Cl
ATOM      8 Cl1  UNL d   1       2.211  -0.236  -0.892  0.00  0.00    -0.070 Cl
ENDROOT
TORSDOF 0
ENDMDL
