MODEL 1
REMARK minimizedAffinity -5.0337882
REMARK minimizedRMSD -1
REMARK  0 active torsions:
REMARK  status: ('A' for Active; 'I' for Inactive)
ROOT
ATOM      1  C   UNL d   1       1.071  -2.432   1.379  0.00  0.00     0.020 A 
ATOM      2  C1  UNL d   1       1.631  -2.044   0.162  0.00  0.00     0.020 A 
ATOM      3  C2  UNL d   1       1.084  -0.973  -0.548  0.00  0.00     0.034 A 
ATOM      4  C3  UNL d   1      -0.025  -0.286  -0.042  0.00  0.00     0.017 A 
ATOM      5  C4  UNL d   1      -0.586  -0.676   1.179  0.00  0.00     0.017 A 
ATOM      6  C5  UNL d   1      -0.035  -1.749   1.886  0.00  0.00     0.034 A 
ATOM      7 Cl   UNL d   1      -1.956   0.123   1.868  0.00  0.00    -0.070 Cl
ATOM      8 Cl1  UNL d   1      -0.649   1.029  -0.973  0.00  0.00    -0.070 Cl
ENDROOT
TORSDOF 0
ENDMDL
