MODEL 1
REMARK minimizedAffinity -4.80997181
REMARK minimizedRMSD -1
REMARK  0 active torsions:
REMARK  status: ('A' for Active; 'I' for Inactive)
ROOT
ATOM      1  C   UNL d   1       1.104  -2.753   2.026  0.00  0.00     0.020 A 
ATOM      2  C1  UNL d   1      -0.102  -2.144   2.372  0.00  0.00     0.020 A 
ATOM      3  C2  UNL d   1      -0.564  -1.047   1.643  0.00  0.00     0.034 A 
ATOM      4  C3  UNL d   1       0.179  -0.555   0.564  0.00  0.00     0.017 A 
ATOM      5  C4  UNL d   1       1.389  -1.167   0.217  0.00  0.00     0.017 A 
ATOM      6  C5  UNL d   1       1.847  -2.266   0.950  0.00  0.00     0.034 A 
ATOM      7 Cl   UNL d   1       2.361  -0.618  -1.102  0.00  0.00    -0.070 Cl
ATOM      8 Cl1  UNL d   1      -0.453   0.805  -0.294  0.00  0.00    -0.070 Cl
ENDROOT
TORSDOF 0
ENDMDL
