MODEL 1
REMARK minimizedAffinity -5.11864567
REMARK minimizedRMSD -1
REMARK  0 active torsions:
REMARK  status: ('A' for Active; 'I' for Inactive)
ROOT
ATOM      1  C   UNL d   1      -0.012  -2.663   2.316  0.00  0.00     0.020 A 
ATOM      2  C1  UNL d   1       1.228  -2.997   1.772  0.00  0.00     0.020 A 
ATOM      3  C2  UNL d   1       1.802  -2.185   0.793  0.00  0.00     0.034 A 
ATOM      4  C3  UNL d   1       1.137  -1.034   0.354  0.00  0.00     0.017 A 
ATOM      5  C4  UNL d   1      -0.107  -0.699   0.901  0.00  0.00     0.017 A 
ATOM      6  C5  UNL d   1      -0.678  -1.517   1.882  0.00  0.00     0.034 A 
ATOM      7 Cl   UNL d   1      -0.988   0.704   0.410  0.00  0.00    -0.070 Cl
ATOM      8 Cl1  UNL d   1       1.906  -0.075  -0.860  0.00  0.00    -0.070 Cl
ENDROOT
TORSDOF 0
ENDMDL
