MODEL 1
REMARK minimizedAffinity -3.6059351
REMARK minimizedRMSD -1
REMARK  0 active torsions:
REMARK  status: ('A' for Active; 'I' for Inactive)
ROOT
ATOM      1  C   UNL d   1       1.022  -3.012   2.675  0.00  0.00     0.020 A 
ATOM      2  C1  UNL d   1       2.115  -2.913   1.815  0.00  0.00     0.020 A 
ATOM      3  C2  UNL d   1       2.149  -1.912   0.841  0.00  0.00     0.034 A 
ATOM      4  C3  UNL d   1       1.088  -1.007   0.725  0.00  0.00     0.017 A 
ATOM      5  C4  UNL d   1      -0.009  -1.107   1.589  0.00  0.00     0.017 A 
ATOM      6  C5  UNL d   1      -0.038  -2.111   2.562  0.00  0.00     0.034 A 
ATOM      7 Cl   UNL d   1      -1.356  -0.027   1.506  0.00  0.00    -0.070 Cl
ATOM      8 Cl1  UNL d   1       1.196   0.205  -0.502  0.00  0.00    -0.070 Cl
ENDROOT
TORSDOF 0
ENDMDL
