MODEL 1
REMARK minimizedAffinity -4.53685617
REMARK minimizedRMSD -1
REMARK  0 active torsions:
REMARK  status: ('A' for Active; 'I' for Inactive)
ROOT
ATOM      1  C   UNL d   1       1.205  -2.673   1.623  0.00  0.00     0.020 A 
ATOM      2  C1  UNL d   1      -0.187  -2.679   1.690  0.00  0.00     0.020 A 
ATOM      3  C2  UNL d   1      -0.918  -1.622   1.142  0.00  0.00     0.034 A 
ATOM      4  C3  UNL d   1      -0.255  -0.555   0.524  0.00  0.00     0.017 A 
ATOM      5  C4  UNL d   1       1.143  -0.550   0.457  0.00  0.00     0.017 A 
ATOM      6  C5  UNL d   1       1.869  -1.610   1.008  0.00  0.00     0.034 A 
ATOM      7 Cl   UNL d   1       2.030   0.732  -0.289  0.00  0.00    -0.070 Cl
ATOM      8 Cl1  UNL d   1      -1.222   0.718  -0.133  0.00  0.00    -0.070 Cl
ENDROOT
TORSDOF 0
ENDMDL
