MODEL 1
REMARK minimizedAffinity -4.46551466
REMARK minimizedRMSD -1
REMARK  0 active torsions:
REMARK  status: ('A' for Active; 'I' for Inactive)
ROOT
ATOM      1  C   UNL d   1       1.038  -2.930   0.610  0.00  0.00     0.020 A 
ATOM      2  C1  UNL d   1       0.309  -2.910   1.798  0.00  0.00     0.020 A 
ATOM      3  C2  UNL d   1      -0.381  -1.756   2.175  0.00  0.00     0.034 A 
ATOM      4  C3  UNL d   1      -0.343  -0.617   1.362  0.00  0.00     0.017 A 
ATOM      5  C4  UNL d   1       0.389  -0.638   0.170  0.00  0.00     0.017 A 
ATOM      6  C5  UNL d   1       1.078  -1.796  -0.202  0.00  0.00     0.034 A 
ATOM      7 Cl   UNL d   1       0.482   0.728  -0.885  0.00  0.00    -0.070 Cl
ATOM      8 Cl1  UNL d   1      -1.220   0.776   1.889  0.00  0.00    -0.070 Cl
ENDROOT
TORSDOF 0
ENDMDL
