MODEL 1
REMARK minimizedAffinity -4.64644957
REMARK minimizedRMSD -1
REMARK  0 active torsions:
REMARK  status: ('A' for Active; 'I' for Inactive)
ROOT
ATOM      1  C   UNL d   1      -0.631  -2.576   2.074  0.00  0.00     0.020 A 
ATOM      2  C1  UNL d   1       0.745  -2.778   1.985  0.00  0.00     0.020 A 
ATOM      3  C2  UNL d   1       1.531  -1.908   1.227  0.00  0.00     0.034 A 
ATOM      4  C3  UNL d   1       0.941  -0.831   0.555  0.00  0.00     0.017 A 
ATOM      5  C4  UNL d   1      -0.441  -0.629   0.645  0.00  0.00     0.017 A 
ATOM      6  C5  UNL d   1      -1.223  -1.504   1.405  0.00  0.00     0.034 A 
ATOM      7 Cl   UNL d   1      -1.240   0.678  -0.155  0.00  0.00    -0.070 Cl
ATOM      8 Cl1  UNL d   1       1.974   0.207  -0.363  0.00  0.00    -0.070 Cl
ENDROOT
TORSDOF 0
ENDMDL
