MODEL 1
REMARK minimizedAffinity -5.49057341
REMARK minimizedRMSD -1
REMARK  0 active torsions:
REMARK  status: ('A' for Active; 'I' for Inactive)
ROOT
ATOM      1  C   UNL d   1       1.077  -2.234   2.403  0.00  0.00     0.020 A 
ATOM      2  C1  UNL d   1      -0.161  -1.761   2.837  0.00  0.00     0.020 A 
ATOM      3  C2  UNL d   1      -0.805  -0.742   2.132  0.00  0.00     0.034 A 
ATOM      4  C3  UNL d   1      -0.211  -0.193   0.989  0.00  0.00     0.017 A 
ATOM      5  C4  UNL d   1       1.031  -0.669   0.555  0.00  0.00     0.017 A 
ATOM      6  C5  UNL d   1       1.671  -1.689   1.264  0.00  0.00     0.034 A 
ATOM      7 Cl   UNL d   1       1.826  -0.041  -0.846  0.00  0.00    -0.070 Cl
ATOM      8 Cl1  UNL d   1      -1.064   1.064   0.166  0.00  0.00    -0.070 Cl
ENDROOT
TORSDOF 0
ENDMDL
