MODEL 1
REMARK minimizedAffinity -4.97737598
REMARK minimizedRMSD -1
REMARK  0 active torsions:
REMARK  status: ('A' for Active; 'I' for Inactive)
ROOT
ATOM      1  C   UNL d   1       1.164  -2.587   1.759  0.00  0.00     0.020 A 
ATOM      2  C1  UNL d   1      -0.075  -2.235   2.293  0.00  0.00     0.020 A 
ATOM      3  C2  UNL d   1      -0.739  -1.098   1.827  0.00  0.00     0.034 A 
ATOM      4  C3  UNL d   1      -0.165  -0.309   0.824  0.00  0.00     0.017 A 
ATOM      5  C4  UNL d   1       1.079  -0.663   0.288  0.00  0.00     0.017 A 
ATOM      6  C5  UNL d   1       1.739  -1.803   0.758  0.00  0.00     0.034 A 
ATOM      7 Cl   UNL d   1       1.850   0.260  -0.952  0.00  0.00    -0.070 Cl
ATOM      8 Cl1  UNL d   1      -1.042   1.082   0.295  0.00  0.00    -0.070 Cl
ENDROOT
TORSDOF 0
ENDMDL
