MODEL 1
REMARK minimizedAffinity -5.03257895
REMARK minimizedRMSD -1
REMARK  0 active torsions:
REMARK  status: ('A' for Active; 'I' for Inactive)
ROOT
ATOM      1  C   UNL d   1       0.468  -2.193   2.579  0.00  0.00     0.020 A 
ATOM      2  C1  UNL d   1       1.665  -2.453   1.913  0.00  0.00     0.020 A 
ATOM      3  C2  UNL d   1       2.052  -1.657   0.834  0.00  0.00     0.034 A 
ATOM      4  C3  UNL d   1       1.240  -0.596   0.415  0.00  0.00     0.017 A 
ATOM      5  C4  UNL d   1       0.038  -0.335   1.084  0.00  0.00     0.017 A 
ATOM      6  C5  UNL d   1      -0.344  -1.136   2.164  0.00  0.00     0.034 A 
ATOM      7 Cl   UNL d   1      -1.016   0.956   0.626  0.00  0.00    -0.070 Cl
ATOM      8 Cl1  UNL d   1       1.780   0.348  -0.927  0.00  0.00    -0.070 Cl
ENDROOT
TORSDOF 0
ENDMDL
