MODEL 1
REMARK minimizedAffinity -5.41369581
REMARK minimizedRMSD -1
REMARK  0 active torsions:
REMARK  status: ('A' for Active; 'I' for Inactive)
ROOT
ATOM      1  C   UNL d   1       0.167  -2.686   2.259  0.00  0.00     0.020 A 
ATOM      2  C1  UNL d   1       1.338  -2.710   1.502  0.00  0.00     0.020 A 
ATOM      3  C2  UNL d   1       1.695  -1.600   0.733  0.00  0.00     0.034 A 
ATOM      4  C3  UNL d   1       0.880  -0.462   0.719  0.00  0.00     0.017 A 
ATOM      5  C4  UNL d   1      -0.295  -0.439   1.479  0.00  0.00     0.017 A 
ATOM      6  C5  UNL d   1      -0.647  -1.553   2.247  0.00  0.00     0.034 A 
ATOM      7 Cl   UNL d   1      -1.351   0.929   1.513  0.00  0.00    -0.070 Cl
ATOM      8 Cl1  UNL d   1       1.383   0.874  -0.254  0.00  0.00    -0.070 Cl
ENDROOT
TORSDOF 0
ENDMDL
