MODEL 1
REMARK minimizedAffinity -2.33122516
REMARK minimizedRMSD -1
REMARK  0 active torsions:
REMARK  status: ('A' for Active; 'I' for Inactive)
ROOT
ATOM      1  C   UNL d   1      -1.029   1.869  -0.762  0.00  0.00     0.020 A 
ATOM      2  C1  UNL d   1      -1.720   1.648   0.429  0.00  0.00     0.020 A 
ATOM      3  C2  UNL d   1      -1.272   0.675   1.325  0.00  0.00     0.034 A 
ATOM      4  C3  UNL d   1      -0.131  -0.081   1.031  0.00  0.00     0.017 A 
ATOM      5  C4  UNL d   1       0.561   0.142  -0.164  0.00  0.00     0.017 A 
ATOM      6  C5  UNL d   1       0.109   1.118  -1.058  0.00  0.00     0.034 A 
ATOM      7 Cl   UNL d   1       1.977  -0.751  -0.596  0.00  0.00    -0.070 Cl
ATOM      8 Cl1  UNL d   1       0.365  -1.268   2.185  0.00  0.00    -0.070 Cl
ENDROOT
TORSDOF 0
ENDMDL
