MODEL 1
REMARK minimizedAffinity -4.09720039
REMARK minimizedRMSD -1
REMARK  0 active torsions:
REMARK  status: ('A' for Active; 'I' for Inactive)
ROOT
ATOM      1  C1  DEN d   1      -0.083   4.948  -3.042  0.00  0.00     0.130 A 
ATOM      2  C2  DEN d   1      -0.052   5.189  -4.482  0.00  0.00    -0.031 A 
ATOM      3  C3  DEN d   1      -0.763   4.079  -5.147  0.00  0.00     0.027 A 
ATOM      4  C4  DEN d   1      -1.908   2.023  -4.091  0.00  0.00     0.027 A 
ATOM      5  C5  DEN d   1      -2.187   1.378  -2.906  0.00  0.00    -0.003 A 
ATOM      6  C6  DEN d   1      -1.758   1.856  -1.696  0.00  0.00     0.001 A 
ATOM      7  C7  DEN d   1      -1.065   3.037  -1.640  0.00  0.00     0.017 A 
ATOM      8  C8  DEN d   1      -0.774   3.689  -2.831  0.00  0.00    -0.094 A 
ATOM      9  C9  DEN d   1      -1.227   3.196  -4.043  0.00  0.00    -0.072 A 
ENDROOT
TORSDOF 0
ENDMDL
