MODEL 1
REMARK minimizedAffinity -5.60101509
REMARK minimizedRMSD -1
REMARK  0 active torsions:
REMARK  status: ('A' for Active; 'I' for Inactive)
ROOT
ATOM      1  C1  DEN d   1      -1.036  -0.537   2.474  0.00  0.00     0.130 A 
ATOM      2  C2  DEN d   1      -0.494  -1.654   3.244  0.00  0.00    -0.031 A 
ATOM      3  C3  DEN d   1       0.794  -2.044   2.637  0.00  0.00     0.027 A 
ATOM      4  C4  DEN d   1       1.999  -1.029   0.595  0.00  0.00     0.027 A 
ATOM      5  C5  DEN d   1       1.923  -0.071  -0.392  0.00  0.00    -0.003 A 
ATOM      6  C6  DEN d   1       0.848   0.769  -0.513  0.00  0.00     0.001 A 
ATOM      7  C7  DEN d   1      -0.174   0.698   0.397  0.00  0.00     0.017 A 
ATOM      8  C8  DEN d   1      -0.108  -0.270   1.390  0.00  0.00    -0.094 A 
ATOM      9  C9  DEN d   1       0.993  -1.102   1.502  0.00  0.00    -0.072 A 
ENDROOT
TORSDOF 0
ENDMDL
