MODEL 1
REMARK minimizedAffinity -4.3886857
REMARK minimizedRMSD -1
REMARK  0 active torsions:
REMARK  status: ('A' for Active; 'I' for Inactive)
ROOT
ATOM      1  C1  DEN d   1       0.760   0.337  -0.501  0.00  0.00     0.130 A 
ATOM      2  C2  DEN d   1      -0.490   1.091  -0.457  0.00  0.00    -0.031 A 
ATOM      3  C3  DEN d   1      -1.223   0.689   0.760  0.00  0.00     0.027 A 
ATOM      4  C4  DEN d   1      -0.546  -1.015   2.575  0.00  0.00     0.027 A 
ATOM      5  C5  DEN d   1       0.422  -1.914   2.965  0.00  0.00    -0.003 A 
ATOM      6  C6  DEN d   1       1.545  -2.149   2.216  0.00  0.00     0.001 A 
ATOM      7  C7  DEN d   1       1.750  -1.443   1.060  0.00  0.00     0.017 A 
ATOM      8  C8  DEN d   1       0.775  -0.540   0.656  0.00  0.00    -0.094 A 
ATOM      9  C9  DEN d   1      -0.347  -0.308   1.433  0.00  0.00    -0.072 A 
ENDROOT
TORSDOF 0
ENDMDL
