MODEL 1
REMARK minimizedAffinity -1.67137468
REMARK minimizedRMSD -1
REMARK  0 active torsions:
REMARK  status: ('A' for Active; 'I' for Inactive)
ROOT
ATOM      1  C1  DEN d   1       2.264  -0.292  -0.882  0.00  0.00     0.130 A 
ATOM      2  C2  DEN d   1       2.522  -1.411   0.020  0.00  0.00    -0.031 A 
ATOM      3  C3  DEN d   1       1.454  -1.431   1.040  0.00  0.00     0.027 A 
ATOM      4  C4  DEN d   1      -0.565   0.153   1.306  0.00  0.00     0.027 A 
ATOM      5  C5  DEN d   1      -1.198   1.260   0.788  0.00  0.00    -0.003 A 
ATOM      6  C6  DEN d   1      -0.708   1.943  -0.294  0.00  0.00     0.001 A 
ATOM      7  C7  DEN d   1       0.426   1.497  -0.920  0.00  0.00     0.017 A 
ATOM      8  C8  DEN d   1       1.075   0.386  -0.399  0.00  0.00    -0.094 A 
ATOM      9  C9  DEN d   1       0.556  -0.298   0.688  0.00  0.00    -0.072 A 
ENDROOT
TORSDOF 0
ENDMDL
