MODEL 1
REMARK minimizedAffinity -2.67395425
REMARK minimizedRMSD -1
REMARK  0 active torsions:
REMARK  status: ('A' for Active; 'I' for Inactive)
ROOT
ATOM      1  C1  DEN d   1      -0.584   0.484   0.379  0.00  0.00     0.130 A 
ATOM      2  C2  DEN d   1       0.287   0.704  -0.772  0.00  0.00    -0.031 A 
ATOM      3  C3  DEN d   1       1.370  -0.299  -0.723  0.00  0.00     0.027 A 
ATOM      4  C4  DEN d   1       1.778  -2.163   1.012  0.00  0.00     0.027 A 
ATOM      5  C5  DEN d   1       1.313  -2.735   2.176  0.00  0.00    -0.003 A 
ATOM      6  C6  DEN d   1       0.211  -2.256   2.835  0.00  0.00     0.001 A 
ATOM      7  C7  DEN d   1      -0.489  -1.202   2.310  0.00  0.00     0.017 A 
ATOM      8  C8  DEN d   1      -0.021  -0.615   1.142  0.00  0.00    -0.094 A 
ATOM      9  C9  DEN d   1       1.087  -1.121   0.484  0.00  0.00    -0.072 A 
ENDROOT
TORSDOF 0
ENDMDL
