MODEL 1
REMARK minimizedAffinity -5.84465742
REMARK minimizedRMSD -1
REMARK  0 active torsions:
REMARK  status: ('A' for Active; 'I' for Inactive)
ROOT
ATOM      1  C1  DEN d   1      -1.095   0.550   0.330  0.00  0.00     0.130 A 
ATOM      2  C2  DEN d   1      -0.223   1.046  -0.731  0.00  0.00    -0.031 A 
ATOM      3  C3  DEN d   1       1.011   0.235  -0.725  0.00  0.00     0.027 A 
ATOM      4  C4  DEN d   1       1.650  -1.734   0.814  0.00  0.00     0.027 A 
ATOM      5  C5  DEN d   1       1.236  -2.511   1.874  0.00  0.00    -0.003 A 
ATOM      6  C6  DEN d   1       0.041  -2.301   2.510  0.00  0.00     0.001 A 
ATOM      7  C7  DEN d   1      -0.803  -1.319   2.063  0.00  0.00     0.017 A 
ATOM      8  C8  DEN d   1      -0.389  -0.527   0.999  0.00  0.00    -0.094 A 
ATOM      9  C9  DEN d   1       0.817  -0.763   0.362  0.00  0.00    -0.072 A 
ENDROOT
TORSDOF 0
ENDMDL
