MODEL 1
REMARK minimizedAffinity -3.32713294
REMARK minimizedRMSD -1
REMARK  0 active torsions:
REMARK  status: ('A' for Active; 'I' for Inactive)
ROOT
ATOM      1  C1  DEN d   1       0.537  -2.261   3.164  0.00  0.00     0.130 A 
ATOM      2  C2  DEN d   1      -0.661  -1.678   3.761  0.00  0.00    -0.031 A 
ATOM      3  C3  DEN d   1      -1.184  -0.656   2.832  0.00  0.00     0.027 A 
ATOM      4  C4  DEN d   1      -0.262   0.072   0.536  0.00  0.00     0.027 A 
ATOM      5  C5  DEN d   1       0.741  -0.129  -0.386  0.00  0.00    -0.003 A 
ATOM      6  C6  DEN d   1       1.757  -1.024  -0.176  0.00  0.00     0.001 A 
ATOM      7  C7  DEN d   1       1.768  -1.783   0.964  0.00  0.00     0.017 A 
ATOM      8  C8  DEN d   1       0.764  -1.581   1.901  0.00  0.00    -0.094 A 
ATOM      9  C9  DEN d   1      -0.261  -0.681   1.665  0.00  0.00    -0.072 A 
ENDROOT
TORSDOF 0
ENDMDL
