MODEL 1
REMARK minimizedAffinity -0.759883583
REMARK minimizedRMSD -1
REMARK  0 active torsions:
REMARK  status: ('A' for Active; 'I' for Inactive)
ROOT
ATOM      1  C1  DEN d   1      -0.761  -0.667  -0.650  0.00  0.00     0.130 A 
ATOM      2  C2  DEN d   1       0.277  -0.125   0.223  0.00  0.00    -0.031 A 
ATOM      3  C3  DEN d   1       0.369   1.328  -0.024  0.00  0.00     0.027 A 
ATOM      4  C4  DEN d   1      -0.990   2.784  -1.663  0.00  0.00     0.027 A 
ATOM      5  C5  DEN d   1      -1.977   2.770  -2.624  0.00  0.00    -0.003 A 
ATOM      6  C6  DEN d   1      -2.598   1.614  -3.016  0.00  0.00     0.001 A 
ATOM      7  C7  DEN d   1      -2.271   0.429  -2.411  0.00  0.00     0.017 A 
ATOM      8  C8  DEN d   1      -1.272   0.434  -1.446  0.00  0.00    -0.094 A 
ATOM      9  C9  DEN d   1      -0.665   1.615  -1.055  0.00  0.00    -0.072 A 
ENDROOT
TORSDOF 0
ENDMDL
