MODEL 1
REMARK minimizedAffinity -3.89741445
REMARK minimizedRMSD -1
REMARK  0 active torsions:
REMARK  status: ('A' for Active; 'I' for Inactive)
ROOT
ATOM      1  C1  DEN d   1       0.005   1.258  -1.476  0.00  0.00     0.130 A 
ATOM      2  C2  DEN d   1      -1.285   1.201  -0.795  0.00  0.00    -0.031 A 
ATOM      3  C3  DEN d   1      -1.204   0.161   0.250  0.00  0.00     0.027 A 
ATOM      4  C4  DEN d   1       0.784  -1.357   0.878  0.00  0.00     0.027 A 
ATOM      5  C5  DEN d   1       2.087  -1.684   0.573  0.00  0.00    -0.003 A 
ATOM      6  C6  DEN d   1       2.770  -1.082  -0.450  0.00  0.00     0.001 A 
ATOM      7  C7  DEN d   1       2.168  -0.089  -1.177  0.00  0.00     0.017 A 
ATOM      8  C8  DEN d   1       0.853   0.241  -0.880  0.00  0.00    -0.094 A 
ATOM      9  C9  DEN d   1       0.183  -0.370   0.167  0.00  0.00    -0.072 A 
ENDROOT
TORSDOF 0
ENDMDL
