MODEL 1
REMARK minimizedAffinity -2.47600532
REMARK minimizedRMSD -1
REMARK  0 active torsions:
REMARK  status: ('A' for Active; 'I' for Inactive)
ROOT
ATOM      1  C1  DEN d   1      -1.973   2.952  -1.639  0.00  0.00     0.130 A 
ATOM      2  C2  DEN d   1      -2.793   2.366  -2.697  0.00  0.00    -0.031 A 
ATOM      3  C3  DEN d   1      -2.477   0.926  -2.774  0.00  0.00     0.027 A 
ATOM      4  C4  DEN d   1      -0.812  -0.448  -1.363  0.00  0.00     0.027 A 
ATOM      5  C5  DEN d   1       0.121  -0.386  -0.351  0.00  0.00    -0.003 A 
ATOM      6  C6  DEN d   1       0.443   0.789   0.274  0.00  0.00     0.001 A 
ATOM      7  C7  DEN d   1      -0.206   1.944  -0.076  0.00  0.00     0.017 A 
ATOM      8  C8  DEN d   1      -1.142   1.891  -1.100  0.00  0.00    -0.094 A 
ATOM      9  C9  DEN d   1      -1.463   0.690  -1.711  0.00  0.00    -0.072 A 
ENDROOT
TORSDOF 0
ENDMDL
