MODEL 1
REMARK minimizedAffinity -4.24929571
REMARK minimizedRMSD -1
REMARK  0 active torsions:
REMARK  status: ('A' for Active; 'I' for Inactive)
ROOT
ATOM      1  C1  DEN d   1      -2.014   1.092  -3.204  0.00  0.00     0.130 A 
ATOM      2  C2  DEN d   1      -2.130   2.545  -3.288  0.00  0.00    -0.031 A 
ATOM      3  C3  DEN d   1      -1.643   3.117  -2.017  0.00  0.00     0.027 A 
ATOM      4  C4  DEN d   1      -0.720   1.900   0.061  0.00  0.00     0.027 A 
ATOM      5  C5  DEN d   1      -0.440   0.667   0.608  0.00  0.00    -0.003 A 
ATOM      6  C6  DEN d   1      -0.694  -0.502  -0.059  0.00  0.00     0.001 A 
ATOM      7  C7  DEN d   1      -1.203  -0.462  -1.330  0.00  0.00     0.017 A 
ATOM      8  C8  DEN d   1      -1.496   0.777  -1.885  0.00  0.00    -0.094 A 
ATOM      9  C9  DEN d   1      -1.220   1.948  -1.200  0.00  0.00    -0.072 A 
ENDROOT
TORSDOF 0
ENDMDL
