MODEL 1
REMARK minimizedAffinity -4.60202551
REMARK minimizedRMSD -1
REMARK  0 active torsions:
REMARK  status: ('A' for Active; 'I' for Inactive)
ROOT
ATOM      1  C1  DEN d   1       0.906  -2.156   2.862  0.00  0.00     0.130 A 
ATOM      2  C2  DEN d   1      -0.384  -1.884   3.490  0.00  0.00    -0.031 A 
ATOM      3  C3  DEN d   1      -1.080  -0.864   2.681  0.00  0.00     0.027 A 
ATOM      4  C4  DEN d   1      -0.291   0.312   0.525  0.00  0.00     0.027 A 
ATOM      5  C5  DEN d   1       0.740   0.419  -0.383  0.00  0.00    -0.003 A 
ATOM      6  C6  DEN d   1       1.903  -0.294  -0.254  0.00  0.00     0.001 A 
ATOM      7  C7  DEN d   1       2.045  -1.180   0.781  0.00  0.00     0.017 A 
ATOM      8  C8  DEN d   1       1.013  -1.288   1.704  0.00  0.00    -0.094 A 
ATOM      9  C9  DEN d   1      -0.160  -0.568   1.550  0.00  0.00    -0.072 A 
ENDROOT
TORSDOF 0
ENDMDL
