MODEL 1
REMARK minimizedAffinity -3.58709502
REMARK minimizedRMSD -1
REMARK  0 active torsions:
REMARK  status: ('A' for Active; 'I' for Inactive)
ROOT
ATOM      1  C1  DEN d   1       0.138   4.599  -2.923  0.00  0.00     0.130 A 
ATOM      2  C2  DEN d   1       0.306   4.754  -4.365  0.00  0.00    -0.031 A 
ATOM      3  C3  DEN d   1      -0.507   3.718  -5.033  0.00  0.00     0.027 A 
ATOM      4  C4  DEN d   1      -2.006   1.902  -3.981  0.00  0.00     0.027 A 
ATOM      5  C5  DEN d   1      -2.457   1.368  -2.794  0.00  0.00    -0.003 A 
ATOM      6  C6  DEN d   1      -2.051   1.847  -1.576  0.00  0.00     0.001 A 
ATOM      7  C7  DEN d   1      -1.204   2.922  -1.518  0.00  0.00     0.017 A 
ATOM      8  C8  DEN d   1      -0.739   3.461  -2.711  0.00  0.00    -0.094 A 
ATOM      9  C9  DEN d   1      -1.170   2.969  -3.931  0.00  0.00    -0.072 A 
ENDROOT
TORSDOF 0
ENDMDL
