MODEL 1
REMARK minimizedAffinity -1.23855424
REMARK minimizedRMSD -1
REMARK  1 active torsions:
REMARK  status: ('A' for Active; 'I' for Inactive)
REMARK    1  A    between atoms: C1_2  and  C2_3 
ROOT
ATOM      1  C2  UNL d   1      -5.657   4.217   4.421  0.00  0.00    -0.081 A 
ATOM      2  C3  UNL d   1      -5.610   3.289   3.373  0.00  0.00     0.006 A 
ATOM      3  C4  UNL d   1      -5.290   3.700   2.077  0.00  0.00     0.002 A 
ATOM      4  C5  UNL d   1      -5.004   5.043   1.808  0.00  0.00    -0.080 A 
ATOM      5  C6  UNL d   1      -4.629   5.491   0.427  0.00  0.00     0.076 C 
ATOM      6  C7  UNL d   1      -5.068   5.973   2.851  0.00  0.00     0.002 A 
ATOM      7  C8  UNL d   1      -5.389   5.563   4.147  0.00  0.00     0.006 A 
ENDROOT
BRANCH   1   8
ATOM      8  C1  UNL d   1      -5.939   3.767   5.831  0.00  0.00     0.054 C 
ATOM      9  C   UNL d   1      -5.969   2.249   5.932  0.00  0.00     0.018 C 
ENDBRANCH   1   8
TORSDOF 1
ENDMDL
