MODEL 1
REMARK minimizedAffinity -2.73802829
REMARK minimizedRMSD -1
REMARK  1 active torsions:
REMARK  status: ('A' for Active; 'I' for Inactive)
REMARK    1  A    between atoms: C1_2  and  C2_3 
ROOT
ATOM      1  C2  UNL d   1      -4.958   3.475   4.030  0.00  0.00    -0.081 A 
ATOM      2  C3  UNL d   1      -4.005   3.319   3.016  0.00  0.00     0.006 A 
ATOM      3  C4  UNL d   1      -4.047   4.122   1.875  0.00  0.00     0.002 A 
ATOM      4  C5  UNL d   1      -5.037   5.100   1.731  0.00  0.00    -0.080 A 
ATOM      5  C6  UNL d   1      -5.075   5.990   0.524  0.00  0.00     0.076 C 
ATOM      6  C7  UNL d   1      -6.000   5.244   2.736  0.00  0.00     0.002 A 
ATOM      7  C8  UNL d   1      -5.959   4.441   3.877  0.00  0.00     0.006 A 
ENDROOT
BRANCH   1   8
ATOM      8  C1  UNL d   1      -4.877   2.654   5.292  0.00  0.00     0.054 C 
ATOM      9  C   UNL d   1      -3.520   2.805   5.964  0.00  0.00     0.018 C 
ENDBRANCH   1   8
TORSDOF 1
ENDMDL
