MODEL 1
REMARK minimizedAffinity 12.1884642
REMARK minimizedRMSD -1
REMARK  1 active torsions:
REMARK  status: ('A' for Active; 'I' for Inactive)
REMARK    1  A    between atoms: C1_2  and  C2_3 
ROOT
ATOM      1  C2  UNL d   1      -0.645  -0.463   1.518  0.00  0.00    -0.081 A 
ATOM      2  C3  UNL d   1      -2.010  -0.759   1.421  0.00  0.00     0.006 A 
ATOM      3  C4  UNL d   1      -2.561  -1.163   0.202  0.00  0.00     0.002 A 
ATOM      4  C5  UNL d   1      -1.756  -1.284  -0.935  0.00  0.00    -0.080 A 
ATOM      5  C6  UNL d   1      -2.330  -1.746  -2.242  0.00  0.00     0.076 C 
ATOM      6  C7  UNL d   1      -0.396  -0.972  -0.842  0.00  0.00     0.002 A 
ATOM      7  C8  UNL d   1       0.156  -0.567   0.376  0.00  0.00     0.006 A 
ENDROOT
BRANCH   1   8
ATOM      8  C1  UNL d   1      -0.035  -0.090   2.845  0.00  0.00     0.054 C 
ATOM      9  C   UNL d   1       1.413  -0.550   2.938  0.00  0.00     0.018 C 
ENDBRANCH   1   8
TORSDOF 1
ENDMDL
