MODEL 1
REMARK minimizedAffinity -2.97510576
REMARK minimizedRMSD -1
REMARK  1 active torsions:
REMARK  status: ('A' for Active; 'I' for Inactive)
REMARK    1  A    between atoms: C1_2  and  C2_3 
ROOT
ATOM      1  C2  UNL d   1      -5.528   3.026   4.900  0.00  0.00    -0.081 A 
ATOM      2  C3  UNL d   1      -5.617   2.635   3.558  0.00  0.00     0.006 A 
ATOM      3  C4  UNL d   1      -5.561   3.587   2.538  0.00  0.00     0.002 A 
ATOM      4  C5  UNL d   1      -5.407   4.944   2.840  0.00  0.00    -0.080 A 
ATOM      5  C6  UNL d   1      -5.315   5.973   1.753  0.00  0.00     0.076 C 
ATOM      6  C7  UNL d   1      -5.335   5.337   4.181  0.00  0.00     0.002 A 
ATOM      7  C8  UNL d   1      -5.392   4.385   5.202  0.00  0.00     0.006 A 
ENDROOT
BRANCH   1   8
ATOM      8  C1  UNL d   1      -5.523   1.996   6.000  0.00  0.00     0.054 C 
ATOM      9  C   UNL d   1      -4.230   1.192   6.000  0.00  0.00     0.018 C 
ENDBRANCH   1   8
TORSDOF 1
ENDMDL
