MODEL 1
REMARK minimizedAffinity -2.88123631
REMARK minimizedRMSD -1
REMARK  1 active torsions:
REMARK  status: ('A' for Active; 'I' for Inactive)
REMARK    1  A    between atoms: C1_2  and  C2_3 
ROOT
ATOM      1  C2  UNL d   1      -5.666   3.781   4.694  0.00  0.00    -0.081 A 
ATOM      2  C3  UNL d   1      -5.265   3.136   3.517  0.00  0.00     0.006 A 
ATOM      3  C4  UNL d   1      -5.157   3.848   2.321  0.00  0.00     0.002 A 
ATOM      4  C5  UNL d   1      -5.442   5.217   2.281  0.00  0.00    -0.080 A 
ATOM      5  C6  UNL d   1      -5.301   6.000   1.009  0.00  0.00     0.076 C 
ATOM      6  C7  UNL d   1      -5.859   5.858   3.452  0.00  0.00     0.002 A 
ATOM      7  C8  UNL d   1      -5.968   5.147   4.649  0.00  0.00     0.006 A 
ENDROOT
BRANCH   1   8
ATOM      8  C1  UNL d   1      -5.721   3.030   5.999  0.00  0.00     0.054 C 
ATOM      9  C   UNL d   1      -4.770   1.842   5.994  0.00  0.00     0.018 C 
ENDBRANCH   1   8
TORSDOF 1
ENDMDL
