MODEL 1
REMARK minimizedAffinity -2.89800334
REMARK minimizedRMSD -1
REMARK  1 active torsions:
REMARK  status: ('A' for Active; 'I' for Inactive)
REMARK    1  A    between atoms: C1_2  and  C2_3 
ROOT
ATOM      1  C2  UNL d   1      -5.649   4.247   4.520  0.00  0.00    -0.081 A 
ATOM      2  C3  UNL d   1      -4.954   3.419   3.630  0.00  0.00     0.006 A 
ATOM      3  C4  UNL d   1      -4.607   3.880   2.358  0.00  0.00     0.002 A 
ATOM      4  C5  UNL d   1      -4.942   5.178   1.957  0.00  0.00    -0.080 A 
ATOM      5  C6  UNL d   1      -4.549   5.696   0.606  0.00  0.00     0.076 C 
ATOM      6  C7  UNL d   1      -5.652   5.999   2.840  0.00  0.00     0.002 A 
ATOM      7  C8  UNL d   1      -5.999   5.539   4.112  0.00  0.00     0.006 A 
ENDROOT
BRANCH   1   8
ATOM      8  C1  UNL d   1      -5.967   3.776   5.916  0.00  0.00     0.054 C 
ATOM      9  C   UNL d   1      -5.995   2.256   5.994  0.00  0.00     0.018 C 
ENDBRANCH   1   8
TORSDOF 1
ENDMDL
