MODEL 1
REMARK minimizedAffinity 0.244361803
REMARK minimizedRMSD -1
REMARK  1 active torsions:
REMARK  status: ('A' for Active; 'I' for Inactive)
REMARK    1  A    between atoms: C1_2  and  C2_3 
ROOT
ATOM      1  C2  UNL d   1      -1.377  -0.222  -0.691  0.00  0.00    -0.081 A 
ATOM      2  C3  UNL d   1      -2.674  -0.064  -0.186  0.00  0.00     0.006 A 
ATOM      3  C4  UNL d   1      -2.891   0.028   1.191  0.00  0.00     0.002 A 
ATOM      4  C5  UNL d   1      -1.816  -0.029   2.085  0.00  0.00    -0.080 A 
ATOM      5  C6  UNL d   1      -2.032   0.099   3.563  0.00  0.00     0.076 C 
ATOM      6  C7  UNL d   1      -0.523  -0.204   1.581  0.00  0.00     0.002 A 
ATOM      7  C8  UNL d   1      -0.305  -0.297   0.205  0.00  0.00     0.006 A 
ENDROOT
BRANCH   1   8
ATOM      8  C1  UNL d   1      -1.133  -0.257  -2.178  0.00  0.00     0.054 C 
ATOM      9  C   UNL d   1      -2.302  -0.892  -2.916  0.00  0.00     0.018 C 
ENDBRANCH   1   8
TORSDOF 1
ENDMDL
