MODEL 1
REMARK minimizedAffinity 1.51615691
REMARK minimizedRMSD -1
REMARK  1 active torsions:
REMARK  status: ('A' for Active; 'I' for Inactive)
REMARK    1  A    between atoms: C1_2  and  C2_3 
ROOT
ATOM      1  C2  UNL d   1       0.060  -0.102  -1.686  0.00  0.00    -0.081 A 
ATOM      2  C3  UNL d   1       0.417  -0.258  -0.341  0.00  0.00     0.006 A 
ATOM      3  C4  UNL d   1      -0.484  -0.816   0.570  0.00  0.00     0.002 A 
ATOM      4  C5  UNL d   1      -1.751  -1.233   0.150  0.00  0.00    -0.080 A 
ATOM      5  C6  UNL d   1      -2.716  -1.861   1.111  0.00  0.00     0.076 C 
ATOM      6  C7  UNL d   1      -2.114  -1.061  -1.190  0.00  0.00     0.002 A 
ATOM      7  C8  UNL d   1      -1.214  -0.503  -2.101  0.00  0.00     0.006 A 
ENDROOT
BRANCH   1   8
ATOM      8  C1  UNL d   1       1.052   0.440  -2.684  0.00  0.00     0.054 C 
ATOM      9  C   UNL d   1       0.535   0.303  -4.108  0.00  0.00     0.018 C 
ENDBRANCH   1   8
TORSDOF 1
ENDMDL
