MODEL 1
REMARK minimizedAffinity -2.59907842
REMARK minimizedRMSD -1
REMARK  1 active torsions:
REMARK  status: ('A' for Active; 'I' for Inactive)
REMARK    1  A    between atoms: C1_2  and  C2_3 
ROOT
ATOM      1  C2  UNL d   1      -4.613   4.239   4.646  0.00  0.00    -0.081 A 
ATOM      2  C3  UNL d   1      -4.493   3.423   3.514  0.00  0.00     0.006 A 
ATOM      3  C4  UNL d   1      -4.877   3.894   2.257  0.00  0.00     0.002 A 
ATOM      4  C5  UNL d   1      -5.381   5.191   2.109  0.00  0.00    -0.080 A 
ATOM      5  C6  UNL d   1      -5.769   5.720   0.760  0.00  0.00     0.076 C 
ATOM      6  C7  UNL d   1      -5.518   6.000   3.241  0.00  0.00     0.002 A 
ATOM      7  C8  UNL d   1      -5.134   5.529   4.499  0.00  0.00     0.006 A 
ENDROOT
BRANCH   1   8
ATOM      8  C1  UNL d   1      -4.139   3.756   5.993  0.00  0.00     0.054 C 
ATOM      9  C   UNL d   1      -3.931   2.248   5.999  0.00  0.00     0.018 C 
ENDBRANCH   1   8
TORSDOF 1
ENDMDL
