MODEL 1
REMARK minimizedAffinity 7.68085957
REMARK minimizedRMSD -1
REMARK  1 active torsions:
REMARK  status: ('A' for Active; 'I' for Inactive)
REMARK    1  A    between atoms: C1_2  and  C2_3 
ROOT
ATOM      1  C2  UNL d   1      -5.635   5.068   2.639  0.00  0.00    -0.081 A 
ATOM      2  C3  UNL d   1      -5.200   3.795   2.252  0.00  0.00     0.006 A 
ATOM      3  C4  UNL d   1      -5.094   3.464   0.899  0.00  0.00     0.002 A 
ATOM      4  C5  UNL d   1      -5.413   4.402  -0.089  0.00  0.00    -0.080 A 
ATOM      5  C6  UNL d   1      -5.275   4.070  -1.545  0.00  0.00     0.076 C 
ATOM      6  C7  UNL d   1      -5.865   5.668   0.298  0.00  0.00     0.002 A 
ATOM      7  C8  UNL d   1      -5.972   6.000   1.651  0.00  0.00     0.006 A 
ENDROOT
BRANCH   1   8
ATOM      8  C1  UNL d   1      -5.689   5.449   4.096  0.00  0.00     0.054 C 
ATOM      9  C   UNL d   1      -4.983   4.417   4.964  0.00  0.00     0.018 C 
ENDBRANCH   1   8
TORSDOF 1
ENDMDL
