MODEL 1
REMARK minimizedAffinity -2.60087204
REMARK minimizedRMSD -1
REMARK  1 active torsions:
REMARK  status: ('A' for Active; 'I' for Inactive)
REMARK    1  A    between atoms: C1_2  and  C2_3 
ROOT
ATOM      1  C2  UNL d   1      -5.179   4.256   1.971  0.00  0.00    -0.081 A 
ATOM      2  C3  UNL d   1      -4.896   3.452   3.082  0.00  0.00     0.006 A 
ATOM      3  C4  UNL d   1      -5.148   3.917   4.375  0.00  0.00     0.002 A 
ATOM      4  C5  UNL d   1      -5.694   5.189   4.578  0.00  0.00    -0.080 A 
ATOM      5  C6  UNL d   1      -5.998   5.688   5.959  0.00  0.00     0.076 C 
ATOM      6  C7  UNL d   1      -5.961   5.998   3.469  0.00  0.00     0.002 A 
ATOM      7  C8  UNL d   1      -5.708   5.535   2.176  0.00  0.00     0.006 A 
ENDROOT
BRANCH   1   8
ATOM      8  C1  UNL d   1      -4.969   3.733   0.573  0.00  0.00     0.054 C 
ATOM      9  C   UNL d   1      -4.871   2.214   0.559  0.00  0.00     0.018 C 
ENDBRANCH   1   8
TORSDOF 1
ENDMDL
