MODEL 1
REMARK minimizedAffinity -0.374793887
REMARK minimizedRMSD -1
REMARK  1 active torsions:
REMARK  status: ('A' for Active; 'I' for Inactive)
REMARK    1  A    between atoms: C1_2  and  C2_3 
ROOT
ATOM      1  C2  UNL d   1      -4.572   5.145   2.443  0.00  0.00    -0.081 A 
ATOM      2  C3  UNL d   1      -4.471   3.753   2.341  0.00  0.00     0.006 A 
ATOM      3  C4  UNL d   1      -4.434   2.959   3.489  0.00  0.00     0.002 A 
ATOM      4  C5  UNL d   1      -4.505   3.543   4.759  0.00  0.00    -0.080 A 
ATOM      5  C6  UNL d   1      -4.497   2.700   5.999  0.00  0.00     0.076 C 
ATOM      6  C7  UNL d   1      -4.588   4.936   4.862  0.00  0.00     0.002 A 
ATOM      7  C8  UNL d   1      -4.625   5.730   3.713  0.00  0.00     0.006 A 
ENDROOT
BRANCH   1   8
ATOM      8  C1  UNL d   1      -4.677   5.999   1.206  0.00  0.00     0.054 C 
ATOM      9  C   UNL d   1      -6.000   5.772   0.487  0.00  0.00     0.018 C 
ENDBRANCH   1   8
TORSDOF 1
ENDMDL
