MODEL 1
REMARK minimizedAffinity -3.2331109
REMARK minimizedRMSD -1
REMARK  1 active torsions:
REMARK  status: ('A' for Active; 'I' for Inactive)
REMARK    1  A    between atoms: C1_2  and  C2_3 
ROOT
ATOM      1  C2  UNL d   1      -5.437   4.760   3.640  0.00  0.00    -0.081 A 
ATOM      2  C3  UNL d   1      -4.707   3.679   3.129  0.00  0.00     0.006 A 
ATOM      3  C4  UNL d   1      -4.520   2.526   3.894  0.00  0.00     0.002 A 
ATOM      4  C5  UNL d   1      -5.065   2.430   5.179  0.00  0.00    -0.080 A 
ATOM      5  C6  UNL d   1      -4.897   1.186   5.999  0.00  0.00     0.076 C 
ATOM      6  C7  UNL d   1      -5.779   3.516   5.697  0.00  0.00     0.002 A 
ATOM      7  C8  UNL d   1      -5.966   4.670   4.932  0.00  0.00     0.006 A 
ENDROOT
BRANCH   1   8
ATOM      8  C1  UNL d   1      -5.696   5.979   2.793  0.00  0.00     0.054 C 
ATOM      9  C   UNL d   1      -4.798   5.999   1.564  0.00  0.00     0.018 C 
ENDBRANCH   1   8
TORSDOF 1
ENDMDL
