MODEL 1
REMARK minimizedAffinity 0.64602071
REMARK minimizedRMSD -1
REMARK  1 active torsions:
REMARK  status: ('A' for Active; 'I' for Inactive)
REMARK    1  A    between atoms: C1_2  and  C2_3 
ROOT
ATOM      1  C2  UNL d   1      -5.635   4.036   2.109  0.00  0.00    -0.081 A 
ATOM      2  C3  UNL d   1      -5.474   3.271   3.270  0.00  0.00     0.006 A 
ATOM      3  C4  UNL d   1      -5.578   3.865   4.530  0.00  0.00     0.002 A 
ATOM      4  C5  UNL d   1      -5.853   5.232   4.649  0.00  0.00    -0.080 A 
ATOM      5  C6  UNL d   1      -5.997   5.876   5.996  0.00  0.00     0.076 C 
ATOM      6  C7  UNL d   1      -5.997   6.000   3.489  0.00  0.00     0.002 A 
ATOM      7  C8  UNL d   1      -5.892   5.406   2.229  0.00  0.00     0.006 A 
ENDROOT
BRANCH   1   8
ATOM      8  C1  UNL d   1      -5.588   3.386   0.750  0.00  0.00     0.054 C 
ATOM      9  C   UNL d   1      -4.781   2.096   0.781  0.00  0.00     0.018 C 
ENDBRANCH   1   8
TORSDOF 1
ENDMDL
