MODEL 1
REMARK minimizedAffinity -4.1443944
REMARK minimizedRMSD -1
REMARK  0 active torsions:
REMARK  status: ('A' for Active; 'I' for Inactive)
ROOT
ATOM      1  O1  BZF d   1       3.605   0.494  -0.591  0.00  0.00    -0.204 OA
ATOM      2  C2  BZF d   1       3.220   1.801  -0.362  0.00  0.00     0.174 A 
ATOM      3  C3  BZF d   1       1.901   1.871  -0.091  0.00  0.00    -0.012 A 
ATOM      4  C3A BZF d   1       1.450   0.513  -0.064  0.00  0.00    -0.107 A 
ATOM      5  C4  BZF d   1       0.237  -0.069   0.169  0.00  0.00     0.055 A 
ATOM      6  C5  BZF d   1       0.117  -1.417   0.049  0.00  0.00    -0.016 A 
ATOM      7  C6  BZF d   1       1.186  -2.212  -0.309  0.00  0.00     0.022 A 
ATOM      8  C7  BZF d   1       2.410  -1.681  -0.545  0.00  0.00     0.029 A 
ATOM      9  C7A BZF d   1       2.543  -0.323  -0.392  0.00  0.00     0.058 A 
ENDROOT
TORSDOF 0
ENDMDL
