MODEL 1
REMARK minimizedAffinity -3.7094264
REMARK minimizedRMSD -1
REMARK  0 active torsions:
REMARK  status: ('A' for Active; 'I' for Inactive)
ROOT
ATOM      1  O1  BZF d   1       0.093  -1.048  -1.474  0.00  0.00    -0.204 OA
ATOM      2  C2  BZF d   1      -0.694   0.088  -1.475  0.00  0.00     0.174 A 
ATOM      3  C3  BZF d   1      -0.312   0.935  -0.498  0.00  0.00    -0.012 A 
ATOM      4  C3A BZF d   1       0.840   0.331   0.096  0.00  0.00    -0.107 A 
ATOM      5  C4  BZF d   1       1.679   0.701   1.108  0.00  0.00     0.055 A 
ATOM      6  C5  BZF d   1       2.666  -0.149   1.492  0.00  0.00    -0.016 A 
ATOM      7  C6  BZF d   1       2.841  -1.378   0.891  0.00  0.00     0.022 A 
ATOM      8  C7  BZF d   1       2.038  -1.787  -0.121  0.00  0.00     0.029 A 
ATOM      9  C7A BZF d   1       1.060  -0.916  -0.534  0.00  0.00     0.058 A 
ENDROOT
TORSDOF 0
ENDMDL
