MODEL 1
REMARK minimizedAffinity -2.73814321
REMARK minimizedRMSD -1
REMARK  0 active torsions:
REMARK  status: ('A' for Active; 'I' for Inactive)
ROOT
ATOM      1  O1  BZF d   1      -0.082   0.769  -0.499  0.00  0.00    -0.204 OA
ATOM      2  C2  BZF d   1      -0.093   1.835   0.381  0.00  0.00     0.174 A 
ATOM      3  C3  BZF d   1       0.923   1.738   1.263  0.00  0.00    -0.012 A 
ATOM      4  C3A BZF d   1       1.666   0.585   0.855  0.00  0.00    -0.107 A 
ATOM      5  C4  BZF d   1       2.796  -0.019   1.328  0.00  0.00     0.055 A 
ATOM      6  C5  BZF d   1       3.220  -1.172   0.748  0.00  0.00    -0.016 A 
ATOM      7  C6  BZF d   1       2.538  -1.751  -0.302  0.00  0.00     0.022 A 
ATOM      8  C7  BZF d   1       1.415  -1.186  -0.809  0.00  0.00     0.029 A 
ATOM      9  C7A BZF d   1       1.002  -0.003  -0.246  0.00  0.00     0.058 A 
ENDROOT
TORSDOF 0
ENDMDL
