MODEL 1
REMARK minimizedAffinity -0.749148011
REMARK minimizedRMSD -1
REMARK  0 active torsions:
REMARK  status: ('A' for Active; 'I' for Inactive)
ROOT
ATOM      1  O1  BZF d   1      -0.395   1.138  -1.117  0.00  0.00    -0.204 OA
ATOM      2  C2  BZF d   1      -1.032  -0.088  -1.107  0.00  0.00     0.174 A 
ATOM      3  C3  BZF d   1      -0.469  -0.912  -0.200  0.00  0.00    -0.012 A 
ATOM      4  C3A BZF d   1       0.526  -0.124   0.459  0.00  0.00    -0.107 A 
ATOM      5  C4  BZF d   1       1.410  -0.380   1.468  0.00  0.00     0.055 A 
ATOM      6  C5  BZF d   1       2.298   0.584   1.828  0.00  0.00    -0.016 A 
ATOM      7  C6  BZF d   1       2.333   1.811   1.199  0.00  0.00     0.022 A 
ATOM      8  C7  BZF d   1       1.472   2.113   0.197  0.00  0.00     0.029 A 
ATOM      9  C7A BZF d   1       0.552   1.153  -0.148  0.00  0.00     0.058 A 
ENDROOT
TORSDOF 0
ENDMDL
