MODEL 1
REMARK minimizedAffinity 1.97178698
REMARK minimizedRMSD -1
REMARK  0 active torsions:
REMARK  status: ('A' for Active; 'I' for Inactive)
ROOT
ATOM      1  O1  BZF d   1       0.500  -1.985  -1.968  0.00  0.00    -0.204 OA
ATOM      2  C2  BZF d   1      -0.783  -1.515  -2.169  0.00  0.00     0.174 A 
ATOM      3  C3  BZF d   1      -1.156  -0.697  -1.164  0.00  0.00    -0.012 A 
ATOM      4  C3A BZF d   1      -0.002  -0.581  -0.326  0.00  0.00    -0.107 A 
ATOM      5  C4  BZF d   1       0.258   0.108   0.824  0.00  0.00     0.055 A 
ATOM      6  C5  BZF d   1       1.463  -0.051   1.431  0.00  0.00    -0.016 A 
ATOM      7  C6  BZF d   1       2.428  -0.893   0.920  0.00  0.00     0.022 A 
ATOM      8  C7  BZF d   1       2.219  -1.593  -0.221  0.00  0.00     0.029 A 
ATOM      9  C7A BZF d   1       1.014  -1.410  -0.855  0.00  0.00     0.058 A 
ENDROOT
TORSDOF 0
ENDMDL
