MODEL 1
REMARK minimizedAffinity -4.72165632
REMARK minimizedRMSD -1
REMARK  0 active torsions:
REMARK  status: ('A' for Active; 'I' for Inactive)
ROOT
ATOM      1  O1  BZF d   1       0.105  -0.964  -1.595  0.00  0.00    -0.204 OA
ATOM      2  C2  BZF d   1      -0.705   0.135  -1.381  0.00  0.00     0.174 A 
ATOM      3  C3  BZF d   1      -0.263   0.858  -0.332  0.00  0.00    -0.012 A 
ATOM      4  C3A BZF d   1       0.949   0.220   0.082  0.00  0.00    -0.107 A 
ATOM      5  C4  BZF d   1       1.860   0.481   1.065  0.00  0.00     0.055 A 
ATOM      6  C5  BZF d   1       2.896  -0.379   1.251  0.00  0.00    -0.016 A 
ATOM      7  C6  BZF d   1       3.048  -1.511   0.478  0.00  0.00     0.022 A 
ATOM      8  C7  BZF d   1       2.173  -1.809  -0.513  0.00  0.00     0.029 A 
ATOM      9  C7A BZF d   1       1.143  -0.925  -0.726  0.00  0.00     0.058 A 
ENDROOT
TORSDOF 0
ENDMDL
