MODEL 1
REMARK minimizedAffinity -3.51344037
REMARK minimizedRMSD -1
REMARK  0 active torsions:
REMARK  status: ('A' for Active; 'I' for Inactive)
ROOT
ATOM      1  O1  BZF d   1      -0.019  -1.207  -1.327  0.00  0.00    -0.204 OA
ATOM      2  C2  BZF d   1      -0.918  -0.159  -1.301  0.00  0.00     0.174 A 
ATOM      3  C3  BZF d   1      -0.549   0.766  -0.392  0.00  0.00    -0.012 A 
ATOM      4  C3A BZF d   1       0.706   0.309   0.121  0.00  0.00    -0.107 A 
ATOM      5  C4  BZF d   1       1.581   0.808   1.044  0.00  0.00     0.055 A 
ATOM      6  C5  BZF d   1       2.681   0.081   1.371  0.00  0.00    -0.016 A 
ATOM      7  C6  BZF d   1       2.935  -1.149   0.801  0.00  0.00     0.022 A 
ATOM      8  C7  BZF d   1       2.099  -1.683  -0.122  0.00  0.00     0.029 A 
ATOM      9  C7A BZF d   1       1.003  -0.936  -0.480  0.00  0.00     0.058 A 
ENDROOT
TORSDOF 0
ENDMDL
