MODEL 1
REMARK minimizedAffinity 7.44192076
REMARK minimizedRMSD -1
REMARK  0 active torsions:
REMARK  status: ('A' for Active; 'I' for Inactive)
ROOT
ATOM      1  O1  BZF d   1      -0.743   2.016   0.013  0.00  0.00    -0.204 OA
ATOM      2  C2  BZF d   1       0.140   3.002   0.409  0.00  0.00     0.174 A 
ATOM      3  C3  BZF d   1       1.379   2.497   0.576  0.00  0.00    -0.012 A 
ATOM      4  C3A BZF d   1       1.283   1.126   0.176  0.00  0.00    -0.107 A 
ATOM      5  C4  BZF d   1       2.186   0.105   0.103  0.00  0.00     0.055 A 
ATOM      6  C5  BZF d   1       1.756  -1.133  -0.258  0.00  0.00    -0.016 A 
ATOM      7  C6  BZF d   1       0.431  -1.385  -0.547  0.00  0.00     0.022 A 
ATOM      8  C7  BZF d   1      -0.501  -0.402  -0.493  0.00  0.00     0.029 A 
ATOM      9  C7A BZF d   1      -0.063   0.857  -0.161  0.00  0.00     0.058 A 
ENDROOT
TORSDOF 0
ENDMDL
