MODEL 1
REMARK minimizedAffinity -3.24335122
REMARK minimizedRMSD -1
REMARK  0 active torsions:
REMARK  status: ('A' for Active; 'I' for Inactive)
ROOT
ATOM      1  O1  BZF d   1       2.781  -2.734  -1.370  0.00  0.00    -0.204 OA
ATOM      2  C2  BZF d   1       3.438  -2.646  -2.582  0.00  0.00     0.174 A 
ATOM      3  C3  BZF d   1       4.003  -1.431  -2.732  0.00  0.00    -0.012 A 
ATOM      4  C3A BZF d   1       3.757  -0.746  -1.500  0.00  0.00    -0.107 A 
ATOM      5  C4  BZF d   1       4.086   0.495  -1.034  0.00  0.00     0.055 A 
ATOM      6  C5  BZF d   1       3.631   0.884   0.186  0.00  0.00    -0.016 A 
ATOM      7  C6  BZF d   1       2.842   0.061   0.963  0.00  0.00     0.022 A 
ATOM      8  C7  BZF d   1       2.494  -1.180   0.545  0.00  0.00     0.029 A 
ATOM      9  C7A BZF d   1       2.980  -1.589  -0.673  0.00  0.00     0.058 A 
ENDROOT
TORSDOF 0
ENDMDL
