MODEL 1
REMARK minimizedAffinity -5.63463783
REMARK minimizedRMSD -1
REMARK  0 active torsions:
REMARK  status: ('A' for Active; 'I' for Inactive)
ROOT
ATOM      1  O1  BZF d   1      -0.277  -0.516  -1.955  0.00  0.00    -0.204 OA
ATOM      2  C2  BZF d   1      -0.434  -1.853  -2.265  0.00  0.00     0.174 A 
ATOM      3  C3  BZF d   1       0.419  -2.614  -1.549  0.00  0.00    -0.012 A 
ATOM      4  C3A BZF d   1       1.090  -1.703  -0.673  0.00  0.00    -0.107 A 
ATOM      5  C4  BZF d   1       2.043  -1.859   0.292  0.00  0.00     0.055 A 
ATOM      6  C5  BZF d   1       2.541  -0.758   0.914  0.00  0.00    -0.016 A 
ATOM      7  C6  BZF d   1       2.112   0.513   0.592  0.00  0.00     0.022 A 
ATOM      8  C7  BZF d   1       1.164   0.718  -0.355  0.00  0.00     0.029 A 
ATOM      9  C7A BZF d   1       0.636  -0.395  -0.962  0.00  0.00     0.058 A 
ENDROOT
TORSDOF 0
ENDMDL
