MODEL 1
REMARK minimizedAffinity -1.14526272
REMARK minimizedRMSD -1
REMARK  0 active torsions:
REMARK  status: ('A' for Active; 'I' for Inactive)
ROOT
ATOM      1  O1  BZF d   1       0.459   0.084  -1.345  0.00  0.00    -0.204 OA
ATOM      2  C2  BZF d   1       0.534  -1.273  -1.596  0.00  0.00     0.174 A 
ATOM      3  C3  BZF d   1       1.425  -1.863  -0.773  0.00  0.00    -0.012 A 
ATOM      4  C3A BZF d   1       1.871  -0.825   0.104  0.00  0.00    -0.107 A 
ATOM      5  C4  BZF d   1       2.748  -0.793   1.151  0.00  0.00     0.055 A 
ATOM      6  C5  BZF d   1       3.017   0.396   1.751  0.00  0.00    -0.016 A 
ATOM      7  C6  BZF d   1       2.432   1.572   1.328  0.00  0.00     0.022 A 
ATOM      8  C7  BZF d   1       1.552   1.589   0.298  0.00  0.00     0.029 A 
ATOM      9  C7A BZF d   1       1.253   0.384  -0.290  0.00  0.00     0.058 A 
ENDROOT
TORSDOF 0
ENDMDL
