MODEL 1
REMARK minimizedAffinity -2.30685544
REMARK minimizedRMSD -1
REMARK  0 active torsions:
REMARK  status: ('A' for Active; 'I' for Inactive)
ROOT
ATOM      1  O1  BZF d   1       2.081  -2.430  -1.184  0.00  0.00    -0.204 OA
ATOM      2  C2  BZF d   1       0.799  -2.594  -1.670  0.00  0.00     0.174 A 
ATOM      3  C3  BZF d   1      -0.035  -1.675  -1.140  0.00  0.00    -0.012 A 
ATOM      4  C3A BZF d   1       0.797  -0.830  -0.340  0.00  0.00    -0.107 A 
ATOM      5  C4  BZF d   1       0.553   0.274   0.426  0.00  0.00     0.055 A 
ATOM      6  C5  BZF d   1       1.572   0.821   1.140  0.00  0.00    -0.016 A 
ATOM      7  C6  BZF d   1       2.844   0.288   1.115  0.00  0.00     0.022 A 
ATOM      8  C7  BZF d   1       3.136  -0.803   0.366  0.00  0.00     0.029 A 
ATOM      9  C7A BZF d   1       2.116  -1.339  -0.382  0.00  0.00     0.058 A 
ENDROOT
TORSDOF 0
ENDMDL
