MODEL 1
REMARK minimizedAffinity 11.7654829
REMARK minimizedRMSD -1
REMARK  0 active torsions:
REMARK  status: ('A' for Active; 'I' for Inactive)
ROOT
ATOM      1  C1  BNZ d   1       0.355   2.615  -4.452  0.00  0.00     0.000 A 
ATOM      2  C2  BNZ d   1      -0.754   3.314  -4.850  0.00  0.00     0.000 A 
ATOM      3  C3  BNZ d   1      -1.998   2.965  -4.404  0.00  0.00     0.000 A 
ATOM      4  C4  BNZ d   1      -2.137   1.896  -3.594  0.00  0.00     0.000 A 
ATOM      5  C5  BNZ d   1      -1.030   1.175  -3.192  0.00  0.00     0.000 A 
ATOM      6  C6  BNZ d   1       0.225   1.553  -3.611  0.00  0.00     0.000 A 
ENDROOT
TORSDOF 0
ENDMDL
