MODEL 1
REMARK minimizedAffinity 7.636518
REMARK minimizedRMSD -1
REMARK  0 active torsions:
REMARK  status: ('A' for Active; 'I' for Inactive)
ROOT
ATOM      1  C1  BNZ d   1      -1.161  -2.530  -0.896  0.00  0.00     0.000 A 
ATOM      2  C2  BNZ d   1      -1.089  -2.036  -2.171  0.00  0.00     0.000 A 
ATOM      3  C3  BNZ d   1      -1.862  -0.976  -2.555  0.00  0.00     0.000 A 
ATOM      4  C4  BNZ d   1      -2.733  -0.438  -1.677  0.00  0.00     0.000 A 
ATOM      5  C5  BNZ d   1      -2.824  -0.931  -0.391  0.00  0.00     0.000 A 
ATOM      6  C6  BNZ d   1      -2.016  -1.973   0.004  0.00  0.00     0.000 A 
ENDROOT
TORSDOF 0
ENDMDL
