MODEL 1
REMARK minimizedAffinity 11.5487051
REMARK minimizedRMSD -1
REMARK  0 active torsions:
REMARK  status: ('A' for Active; 'I' for Inactive)
ROOT
ATOM      1  C1  BNZ d   1      -3.690   2.454   5.969  0.00  0.00     0.000 A 
ATOM      2  C2  BNZ d   1      -5.022   2.772   5.963  0.00  0.00     0.000 A 
ATOM      3  C3  BNZ d   1      -5.976   1.793   5.996  0.00  0.00     0.000 A 
ATOM      4  C4  BNZ d   1      -5.598   0.499   5.994  0.00  0.00     0.000 A 
ATOM      5  C5  BNZ d   1      -4.259   0.161   5.991  0.00  0.00     0.000 A 
ATOM      6  C6  BNZ d   1      -3.302   1.150   5.997  0.00  0.00     0.000 A 
ENDROOT
TORSDOF 0
ENDMDL
