MODEL 1
REMARK minimizedAffinity 10.9131117
REMARK minimizedRMSD -1
REMARK  0 active torsions:
REMARK  status: ('A' for Active; 'I' for Inactive)
ROOT
ATOM      1  C1  BNZ d   1      -2.449   2.690  -4.447  0.00  0.00     0.000 A 
ATOM      2  C2  BNZ d   1      -1.555   3.615  -4.917  0.00  0.00     0.000 A 
ATOM      3  C3  BNZ d   1      -0.220   3.330  -4.978  0.00  0.00     0.000 A 
ATOM      4  C4  BNZ d   1       0.224   2.137  -4.534  0.00  0.00     0.000 A 
ATOM      5  C5  BNZ d   1      -0.663   1.197  -4.049  0.00  0.00     0.000 A 
ATOM      6  C6  BNZ d   1      -2.011   1.473  -4.025  0.00  0.00     0.000 A 
ENDROOT
TORSDOF 0
ENDMDL
