MODEL 1
REMARK minimizedAffinity 7.85870647
REMARK minimizedRMSD -1
REMARK  0 active torsions:
REMARK  status: ('A' for Active; 'I' for Inactive)
ROOT
ATOM      1  C1  BNZ d   1      -4.098   3.969  -4.957  0.00  0.00     0.000 A 
ATOM      2  C2  BNZ d   1      -5.080   3.964  -5.911  0.00  0.00     0.000 A 
ATOM      3  C3  BNZ d   1      -5.987   4.984  -5.987  0.00  0.00     0.000 A 
ATOM      4  C4  BNZ d   1      -5.935   5.985  -5.086  0.00  0.00     0.000 A 
ATOM      5  C5  BNZ d   1      -4.957   6.000  -4.112  0.00  0.00     0.000 A 
ATOM      6  C6  BNZ d   1      -4.022   4.991  -4.063  0.00  0.00     0.000 A 
ENDROOT
TORSDOF 0
ENDMDL
