MODEL 1
REMARK minimizedAffinity 7.03415585
REMARK minimizedRMSD -1
REMARK  0 active torsions:
REMARK  status: ('A' for Active; 'I' for Inactive)
ROOT
ATOM      1  C1  BNZ d   1      -0.364   0.696  -3.678  0.00  0.00     0.000 A 
ATOM      2  C2  BNZ d   1       0.549   1.609  -4.134  0.00  0.00     0.000 A 
ATOM      3  C3  BNZ d   1       0.151   2.850  -4.548  0.00  0.00     0.000 A 
ATOM      4  C4  BNZ d   1      -1.161   3.161  -4.544  0.00  0.00     0.000 A 
ATOM      5  C5  BNZ d   1      -2.095   2.248  -4.096  0.00  0.00     0.000 A 
ATOM      6  C6  BNZ d   1      -1.687   1.014  -3.644  0.00  0.00     0.000 A 
ENDROOT
TORSDOF 0
ENDMDL
