MODEL 1
REMARK minimizedAffinity 11.7329359
REMARK minimizedRMSD -1
REMARK  0 active torsions:
REMARK  status: ('A' for Active; 'I' for Inactive)
ROOT
ATOM      1  C1  BNZ d   1      -2.648   2.301  -3.818  0.00  0.00     0.000 A 
ATOM      2  C2  BNZ d   1      -2.046   3.326  -4.499  0.00  0.00     0.000 A 
ATOM      3  C3  BNZ d   1      -0.701   3.309  -4.742  0.00  0.00     0.000 A 
ATOM      4  C4  BNZ d   1       0.046   2.290  -4.270  0.00  0.00     0.000 A 
ATOM      5  C5  BNZ d   1      -0.545   1.255  -3.574  0.00  0.00     0.000 A 
ATOM      6  C6  BNZ d   1      -1.905   1.255  -3.365  0.00  0.00     0.000 A 
ENDROOT
TORSDOF 0
ENDMDL
