MODEL 1
REMARK minimizedAffinity 5.2236042
REMARK minimizedRMSD -1
REMARK  0 active torsions:
REMARK  status: ('A' for Active; 'I' for Inactive)
ROOT
ATOM      1  C1  BNZ d   1      -0.968  -3.663  -0.828  0.00  0.00     0.000 A 
ATOM      2  C2  BNZ d   1      -0.733  -3.592   0.519  0.00  0.00     0.000 A 
ATOM      3  C3  BNZ d   1      -0.418  -4.713   1.235  0.00  0.00     0.000 A 
ATOM      4  C4  BNZ d   1      -0.378  -5.908   0.612  0.00  0.00     0.000 A 
ATOM      5  C5  BNZ d   1      -0.623  -5.998  -0.744  0.00  0.00     0.000 A 
ATOM      6  C6  BNZ d   1      -0.901  -4.862  -1.469  0.00  0.00     0.000 A 
ENDROOT
TORSDOF 0
ENDMDL
