MODEL 1
REMARK minimizedAffinity -0.176242322
REMARK minimizedRMSD -1
REMARK  0 active torsions:
REMARK  status: ('A' for Active; 'I' for Inactive)
ROOT
ATOM      1  C1  BNZ d   1      -3.942   4.122  -5.072  0.00  0.00     0.000 A 
ATOM      2  C2  BNZ d   1      -5.012   4.109  -5.927  0.00  0.00     0.000 A 
ATOM      3  C3  BNZ d   1      -5.998   5.050  -5.828  0.00  0.00     0.000 A 
ATOM      4  C4  BNZ d   1      -5.934   5.978  -4.851  0.00  0.00     0.000 A 
ATOM      5  C5  BNZ d   1      -4.867   5.998  -3.976  0.00  0.00     0.000 A 
ATOM      6  C6  BNZ d   1      -3.856   5.073  -4.103  0.00  0.00     0.000 A 
ENDROOT
TORSDOF 0
ENDMDL
