MODEL 1
REMARK minimizedAffinity 9.80658913
REMARK minimizedRMSD -1
REMARK  0 active torsions:
REMARK  status: ('A' for Active; 'I' for Inactive)
ROOT
ATOM      1  C1  BNZ d   1      -2.951  -1.523  -0.007  0.00  0.00     0.000 A 
ATOM      2  C2  BNZ d   1      -2.699  -0.824  -1.157  0.00  0.00     0.000 A 
ATOM      3  C3  BNZ d   1      -1.714  -1.223  -2.017  0.00  0.00     0.000 A 
ATOM      4  C4  BNZ d   1      -0.957  -2.296  -1.706  0.00  0.00     0.000 A 
ATOM      5  C5  BNZ d   1      -1.193  -3.005  -0.545  0.00  0.00     0.000 A 
ATOM      6  C6  BNZ d   1      -2.211  -2.624   0.298  0.00  0.00     0.000 A 
ENDROOT
TORSDOF 0
ENDMDL
