MODEL 1
REMARK minimizedAffinity -1.98420346
REMARK minimizedRMSD -1
REMARK  0 active torsions:
REMARK  status: ('A' for Active; 'I' for Inactive)
ROOT
ATOM      1  C1  BNZ d   1      -0.658   3.826  -5.996  0.00  0.00     0.000 A 
ATOM      2  C2  BNZ d   1       0.018   3.103  -5.050  0.00  0.00     0.000 A 
ATOM      3  C3  BNZ d   1      -0.657   2.380  -4.107  0.00  0.00     0.000 A 
ATOM      4  C4  BNZ d   1      -2.005   2.413  -4.087  0.00  0.00     0.000 A 
ATOM      5  C5  BNZ d   1      -2.701   3.144  -5.028  0.00  0.00     0.000 A 
ATOM      6  C6  BNZ d   1      -2.018   3.839  -6.000  0.00  0.00     0.000 A 
ENDROOT
TORSDOF 0
ENDMDL
