MODEL 1
REMARK minimizedAffinity 1.28442442
REMARK minimizedRMSD -1
REMARK  0 active torsions:
REMARK  status: ('A' for Active; 'I' for Inactive)
ROOT
ATOM      1  C1  BNZ d   1       0.407  -4.762   1.755  0.00  0.00     0.000 A 
ATOM      2  C2  BNZ d   1      -0.721  -4.780   2.531  0.00  0.00     0.000 A 
ATOM      3  C3  BNZ d   1      -0.716  -5.383   3.758  0.00  0.00     0.000 A 
ATOM      4  C4  BNZ d   1       0.403  -6.000   4.189  0.00  0.00     0.000 A 
ATOM      5  C5  BNZ d   1       1.545  -5.998   3.414  0.00  0.00     0.000 A 
ATOM      6  C6  BNZ d   1       1.548  -5.357   2.196  0.00  0.00     0.000 A 
ENDROOT
TORSDOF 0
ENDMDL
