MODEL 1
REMARK minimizedAffinity 13.1370783
REMARK minimizedRMSD -1
REMARK  0 active torsions:
REMARK  status: ('A' for Active; 'I' for Inactive)
ROOT
ATOM      1  C1  BNZ d   1      -1.305   2.573  -3.734  0.00  0.00     0.000 A 
ATOM      2  C2  BNZ d   1       0.038   2.303  -3.752  0.00  0.00     0.000 A 
ATOM      3  C3  BNZ d   1       0.780   2.517  -4.879  0.00  0.00     0.000 A 
ATOM      4  C4  BNZ d   1       0.173   2.964  -5.998  0.00  0.00     0.000 A 
ATOM      5  C5  BNZ d   1      -1.181   3.232  -5.999  0.00  0.00     0.000 A 
ATOM      6  C6  BNZ d   1      -1.918   3.052  -4.851  0.00  0.00     0.000 A 
ENDROOT
TORSDOF 0
ENDMDL
