MODEL 1
REMARK minimizedAffinity 7.86742687
REMARK minimizedRMSD -1
REMARK  0 active torsions:
REMARK  status: ('A' for Active; 'I' for Inactive)
ROOT
ATOM      1  C1  BNZ d   1      -2.177   2.238  -3.935  0.00  0.00     0.000 A 
ATOM      2  C2  BNZ d   1      -3.000   2.633  -4.956  0.00  0.00     0.000 A 
ATOM      3  C3  BNZ d   1      -2.516   3.371  -5.999  0.00  0.00     0.000 A 
ATOM      4  C4  BNZ d   1      -1.221   3.748  -6.000  0.00  0.00     0.000 A 
ATOM      5  C5  BNZ d   1      -0.381   3.367  -4.973  0.00  0.00     0.000 A 
ATOM      6  C6  BNZ d   1      -0.863   2.590  -3.944  0.00  0.00     0.000 A 
ENDROOT
TORSDOF 0
ENDMDL
