MODEL 1
REMARK minimizedAffinity 6.87026119
REMARK minimizedRMSD -1
REMARK  0 active torsions:
REMARK  status: ('A' for Active; 'I' for Inactive)
ROOT
ATOM      1  C1  BNZ d   1      -0.611  -5.999   0.941  0.00  0.00     0.000 A 
ATOM      2  C2  BNZ d   1      -0.662  -4.842   0.210  0.00  0.00     0.000 A 
ATOM      3  C3  BNZ d   1      -1.067  -3.669   0.784  0.00  0.00     0.000 A 
ATOM      4  C4  BNZ d   1      -1.458  -3.663   2.075  0.00  0.00     0.000 A 
ATOM      5  C5  BNZ d   1      -1.420  -4.824   2.822  0.00  0.00     0.000 A 
ATOM      6  C6  BNZ d   1      -0.975  -5.994   2.252  0.00  0.00     0.000 A 
ENDROOT
TORSDOF 0
ENDMDL
