MODEL 1
REMARK minimizedAffinity 4.41745377
REMARK minimizedRMSD -1
REMARK  0 active torsions:
REMARK  status: ('A' for Active; 'I' for Inactive)
ROOT
ATOM      1  C1  BNZ d   1      -1.877  -2.176   0.054  0.00  0.00     0.000 A 
ATOM      2  C2  BNZ d   1      -2.665  -1.932   1.147  0.00  0.00     0.000 A 
ATOM      3  C3  BNZ d   1      -2.580  -2.720   2.261  0.00  0.00     0.000 A 
ATOM      4  C4  BNZ d   1      -1.739  -3.774   2.265  0.00  0.00     0.000 A 
ATOM      5  C5  BNZ d   1      -0.945  -4.039   1.167  0.00  0.00     0.000 A 
ATOM      6  C6  BNZ d   1      -1.004  -3.220   0.063  0.00  0.00     0.000 A 
ENDROOT
TORSDOF 0
ENDMDL
