MODEL 1
REMARK minimizedAffinity 5.76942825
REMARK minimizedRMSD -1
REMARK  0 active torsions:
REMARK  status: ('A' for Active; 'I' for Inactive)
ROOT
ATOM      1  C1  BNZ d   1      -1.994  -1.965  -0.173  0.00  0.00     0.000 A 
ATOM      2  C2  BNZ d   1      -1.120  -2.809  -0.805  0.00  0.00     0.000 A 
ATOM      3  C3  BNZ d   1      -0.646  -3.926  -0.176  0.00  0.00     0.000 A 
ATOM      4  C4  BNZ d   1      -1.015  -4.177   1.097  0.00  0.00     0.000 A 
ATOM      5  C5  BNZ d   1      -1.888  -3.331   1.751  0.00  0.00     0.000 A 
ATOM      6  C6  BNZ d   1      -2.393  -2.229   1.101  0.00  0.00     0.000 A 
ENDROOT
TORSDOF 0
ENDMDL
