MODEL 1
REMARK minimizedAffinity 4.17550564
REMARK minimizedRMSD -1
REMARK  0 active torsions:
REMARK  status: ('A' for Active; 'I' for Inactive)
ROOT
ATOM      1  O1  BZF d   1       0.812  -0.724   0.801  0.00  0.00    -0.204 OA
ATOM      2  C2  BZF d   1       0.278   0.533   0.596  0.00  0.00     0.174 A 
ATOM      3  C3  BZF d   1       0.059   0.752  -0.717  0.00  0.00    -0.012 A 
ATOM      4  C3A BZF d   1       0.396  -0.479  -1.365  0.00  0.00    -0.107 A 
ATOM      5  C4  BZF d   1       0.372  -0.892  -2.666  0.00  0.00     0.055 A 
ATOM      6  C5  BZF d   1       0.834  -2.133  -2.974  0.00  0.00    -0.016 A 
ATOM      7  C6  BZF d   1       1.332  -2.982  -2.008  0.00  0.00     0.022 A 
ATOM      8  C7  BZF d   1       1.371  -2.619  -0.703  0.00  0.00     0.029 A 
ATOM      9  C7A BZF d   1       0.874  -1.379  -0.384  0.00  0.00     0.058 A 
ENDROOT
TORSDOF 0
ENDMDL
