MODEL 1
REMARK minimizedAffinity -3.31272984
REMARK minimizedRMSD -1
REMARK  0 active torsions:
REMARK  status: ('A' for Active; 'I' for Inactive)
ROOT
ATOM      1  O1  BZF d   1      -0.674  -3.392  -0.546  0.00  0.00    -0.204 OA
ATOM      2  C2  BZF d   1       0.310  -4.009  -1.294  0.00  0.00     0.174 A 
ATOM      3  C3  BZF d   1       1.254  -3.121  -1.667  0.00  0.00    -0.012 A 
ATOM      4  C3A BZF d   1       0.882  -1.890  -1.041  0.00  0.00    -0.107 A 
ATOM      5  C4  BZF d   1       1.435  -0.642  -1.021  0.00  0.00     0.055 A 
ATOM      6  C5  BZF d   1       0.783   0.359  -0.373  0.00  0.00    -0.016 A 
ATOM      7  C6  BZF d   1      -0.424   0.149   0.260  0.00  0.00     0.022 A 
ATOM      8  C7  BZF d   1      -1.010  -1.073   0.272  0.00  0.00     0.029 A 
ATOM      9  C7A BZF d   1      -0.337  -2.094  -0.354  0.00  0.00     0.058 A 
ENDROOT
TORSDOF 0
ENDMDL
