MODEL 1
REMARK minimizedAffinity -3.37426257
REMARK minimizedRMSD -1
REMARK  0 active torsions:
REMARK  status: ('A' for Active; 'I' for Inactive)
ROOT
ATOM      1  O1  BZF d   1       1.404  -4.119  -0.243  0.00  0.00    -0.204 OA
ATOM      2  C2  BZF d   1       0.790  -5.130  -0.957  0.00  0.00     0.174 A 
ATOM      3  C3  BZF d   1       0.124  -4.629  -2.018  0.00  0.00    -0.012 A 
ATOM      4  C3A BZF d   1       0.411  -3.228  -2.016  0.00  0.00    -0.107 A 
ATOM      5  C4  BZF d   1       0.050  -2.194  -2.831  0.00  0.00     0.055 A 
ATOM      6  C5  BZF d   1       0.440  -0.932  -2.511  0.00  0.00    -0.016 A 
ATOM      7  C6  BZF d   1       1.186  -0.668  -1.381  0.00  0.00     0.022 A 
ATOM      8  C7  BZF d   1       1.573  -1.661  -0.544  0.00  0.00     0.029 A 
ATOM      9  C7A BZF d   1       1.208  -2.942  -0.883  0.00  0.00     0.058 A 
ENDROOT
TORSDOF 0
ENDMDL
