MODEL 1
REMARK minimizedAffinity -5.54018736
REMARK minimizedRMSD -1
REMARK  0 active torsions:
REMARK  status: ('A' for Active; 'I' for Inactive)
ROOT
ATOM      1  O1  BZF d   1      -0.757  -4.135  -2.106  0.00  0.00    -0.204 OA
ATOM      2  C2  BZF d   1      -0.548  -2.913  -2.717  0.00  0.00     0.174 A 
ATOM      3  C3  BZF d   1       0.500  -2.273  -2.161  0.00  0.00    -0.012 A 
ATOM      4  C3A BZF d   1       1.034  -3.189  -1.200  0.00  0.00    -0.107 A 
ATOM      5  C4  BZF d   1       2.092  -3.135  -0.338  0.00  0.00     0.055 A 
ATOM      6  C5  BZF d   1       2.299  -4.169   0.519  0.00  0.00    -0.016 A 
ATOM      7  C6  BZF d   1       1.467  -5.269   0.544  0.00  0.00     0.022 A 
ATOM      8  C7  BZF d   1       0.408  -5.370  -0.295  0.00  0.00     0.029 A 
ATOM      9  C7A BZF d   1       0.215  -4.342  -1.185  0.00  0.00     0.058 A 
ENDROOT
TORSDOF 0
ENDMDL
