MODEL 1
REMARK minimizedAffinity -1.99867892
REMARK minimizedRMSD -1
REMARK  0 active torsions:
REMARK  status: ('A' for Active; 'I' for Inactive)
ROOT
ATOM      1  O1  BZF d   1       2.270  -4.374   0.684  0.00  0.00    -0.204 OA
ATOM      2  C2  BZF d   1       2.123  -5.736   0.500  0.00  0.00     0.174 A 
ATOM      3  C3  BZF d   1       1.260  -5.992  -0.504  0.00  0.00    -0.012 A 
ATOM      4  C3A BZF d   1       0.912  -4.711  -1.037  0.00  0.00    -0.107 A 
ATOM      5  C4  BZF d   1       0.102  -4.309  -2.061  0.00  0.00     0.055 A 
ATOM      6  C5  BZF d   1      -0.079  -2.980  -2.277  0.00  0.00    -0.016 A 
ATOM      7  C6  BZF d   1       0.529  -2.027  -1.486  0.00  0.00     0.022 A 
ATOM      8  C7  BZF d   1       1.344  -2.377  -0.462  0.00  0.00     0.029 A 
ATOM      9  C7A BZF d   1       1.556  -3.719  -0.262  0.00  0.00     0.058 A 
ENDROOT
TORSDOF 0
ENDMDL
