MODEL 1
REMARK minimizedAffinity -4.0321331
REMARK minimizedRMSD -1
REMARK  0 active torsions:
REMARK  status: ('A' for Active; 'I' for Inactive)
ROOT
ATOM      1  O1  BZF d   1       1.103  -0.126   1.260  0.00  0.00    -0.204 OA
ATOM      2  C2  BZF d   1       1.388  -0.744   0.058  0.00  0.00     0.174 A 
ATOM      3  C3  BZF d   1       0.391  -0.547  -0.829  0.00  0.00    -0.012 A 
ATOM      4  C3A BZF d   1      -0.535   0.320  -0.168  0.00  0.00    -0.107 A 
ATOM      5  C4  BZF d   1      -1.720   0.887  -0.540  0.00  0.00     0.055 A 
ATOM      6  C5  BZF d   1      -2.412   1.626   0.366  0.00  0.00    -0.016 A 
ATOM      7  C6  BZF d   1      -1.952   1.814   1.653  0.00  0.00     0.022 A 
ATOM      8  C7  BZF d   1      -0.779   1.276   2.067  0.00  0.00     0.029 A 
ATOM      9  C7A BZF d   1      -0.061   0.556   1.143  0.00  0.00     0.058 A 
ENDROOT
TORSDOF 0
ENDMDL
