MODEL 1
REMARK minimizedAffinity -6.48320627
REMARK minimizedRMSD -1
REMARK  0 active torsions:
REMARK  status: ('A' for Active; 'I' for Inactive)
ROOT
ATOM      1  O1  BZF d   1       0.894   1.440  -0.980  0.00  0.00    -0.204 OA
ATOM      2  C2  BZF d   1       1.287   0.177  -0.580  0.00  0.00     0.174 A 
ATOM      3  C3  BZF d   1       0.650  -0.186   0.552  0.00  0.00    -0.012 A 
ATOM      4  C3A BZF d   1      -0.262   0.882   0.829  0.00  0.00    -0.107 A 
ATOM      5  C4  BZF d   1      -1.184   1.097   1.813  0.00  0.00     0.055 A 
ATOM      6  C5  BZF d   1      -1.861   2.275   1.838  0.00  0.00    -0.016 A 
ATOM      7  C6  BZF d   1      -1.637   3.261   0.899  0.00  0.00     0.022 A 
ATOM      8  C7  BZF d   1      -0.736   3.091  -0.099  0.00  0.00     0.029 A 
ATOM      9  C7A BZF d   1      -0.075   1.888  -0.146  0.00  0.00     0.058 A 
ENDROOT
TORSDOF 0
ENDMDL
