MODEL 1
REMARK minimizedAffinity -5.35316229
REMARK minimizedRMSD -1
REMARK  0 active torsions:
REMARK  status: ('A' for Active; 'I' for Inactive)
ROOT
ATOM      1  O1  BZF d   1       0.770   1.696  -1.239  0.00  0.00    -0.204 OA
ATOM      2  C2  BZF d   1       1.224   0.394  -1.148  0.00  0.00     0.174 A 
ATOM      3  C3  BZF d   1       0.678  -0.230  -0.085  0.00  0.00    -0.012 A 
ATOM      4  C3A BZF d   1      -0.241   0.714   0.475  0.00  0.00    -0.107 A 
ATOM      5  C4  BZF d   1      -1.097   0.673   1.538  0.00  0.00     0.055 A 
ATOM      6  C5  BZF d   1      -1.802   1.789   1.860  0.00  0.00    -0.016 A 
ATOM      7  C6  BZF d   1      -1.672   2.962   1.146  0.00  0.00     0.022 A 
ATOM      8  C7  BZF d   1      -0.839   3.049   0.081  0.00  0.00     0.029 A 
ATOM      9  C7A BZF d   1      -0.150   1.913  -0.268  0.00  0.00     0.058 A 
ENDROOT
TORSDOF 0
ENDMDL
