MODEL 1
REMARK minimizedAffinity -2.112746
REMARK minimizedRMSD -1
REMARK  0 active torsions:
REMARK  status: ('A' for Active; 'I' for Inactive)
ROOT
ATOM      1  O1  BZF d   1       1.265  -0.156   1.074  0.00  0.00    -0.204 OA
ATOM      2  C2  BZF d   1       1.306  -0.620  -0.226  0.00  0.00     0.174 A 
ATOM      3  C3  BZF d   1       0.190  -0.267  -0.895  0.00  0.00    -0.012 A 
ATOM      4  C3A BZF d   1      -0.557   0.542   0.019  0.00  0.00    -0.107 A 
ATOM      5  C4  BZF d   1      -1.750   1.200  -0.069  0.00  0.00     0.055 A 
ATOM      6  C5  BZF d   1      -2.234   1.840   1.028  0.00  0.00    -0.016 A 
ATOM      7  C6  BZF d   1      -1.555   1.836   2.229  0.00  0.00     0.022 A 
ATOM      8  C7  BZF d   1      -0.365   1.201   2.363  0.00  0.00     0.029 A 
ATOM      9  C7A BZF d   1       0.142   0.582   1.247  0.00  0.00     0.058 A 
ENDROOT
TORSDOF 0
ENDMDL
