MODEL 1
REMARK minimizedAffinity 1.5403285
REMARK minimizedRMSD -1
REMARK  0 active torsions:
REMARK  status: ('A' for Active; 'I' for Inactive)
ROOT
ATOM      1  O1  BZF d   1      -1.302   0.404  -4.452  0.00  0.00    -0.204 OA
ATOM      2  C2  BZF d   1      -0.242  -0.201  -5.099  0.00  0.00     0.174 A 
ATOM      3  C3  BZF d   1       0.795  -0.380  -4.256  0.00  0.00    -0.012 A 
ATOM      4  C3A BZF d   1       0.322   0.061  -2.979  0.00  0.00    -0.107 A 
ATOM      5  C4  BZF d   1       0.886   0.117  -1.737  0.00  0.00     0.055 A 
ATOM      6  C5  BZF d   1       0.180   0.670  -0.716  0.00  0.00    -0.016 A 
ATOM      7  C6  BZF d   1      -1.088   1.181  -0.902  0.00  0.00     0.022 A 
ATOM      8  C7  BZF d   1      -1.691   1.143  -2.115  0.00  0.00     0.029 A 
ATOM      9  C7A BZF d   1      -0.993   0.555  -3.142  0.00  0.00     0.058 A 
ENDROOT
TORSDOF 0
ENDMDL
