MODEL 1
REMARK minimizedAffinity -4.62270737
REMARK minimizedRMSD -1
REMARK  0 active torsions:
REMARK  status: ('A' for Active; 'I' for Inactive)
ROOT
ATOM      1  O1  BZF d   1      -0.579   1.205  -1.787  0.00  0.00    -0.204 OA
ATOM      2  C2  BZF d   1       0.523   0.371  -1.785  0.00  0.00     0.174 A 
ATOM      3  C3  BZF d   1       0.949   0.144  -0.526  0.00  0.00    -0.012 A 
ATOM      4  C3A BZF d   1       0.002   0.807   0.317  0.00  0.00    -0.107 A 
ATOM      5  C4  BZF d   1      -0.124   0.931   1.671  0.00  0.00     0.055 A 
ATOM      6  C5  BZF d   1      -1.120   1.707   2.174  0.00  0.00    -0.016 A 
ATOM      7  C6  BZF d   1      -2.003   2.377   1.352  0.00  0.00     0.022 A 
ATOM      8  C7  BZF d   1      -1.921   2.280   0.003  0.00  0.00     0.029 A 
ATOM      9  C7A BZF d   1      -0.936   1.470  -0.507  0.00  0.00     0.058 A 
ENDROOT
TORSDOF 0
ENDMDL
