MODEL 1
REMARK minimizedAffinity 9.66021729
REMARK minimizedRMSD -1
REMARK  0 active torsions:
REMARK  status: ('A' for Active; 'I' for Inactive)
ROOT
ATOM      1  O1  BZF d   1      -2.409   0.209   2.523  0.00  0.00    -0.204 OA
ATOM      2  C2  BZF d   1      -1.506  -0.799   2.797  0.00  0.00     0.174 A 
ATOM      3  C3  BZF d   1      -0.345  -0.290   3.257  0.00  0.00    -0.012 A 
ATOM      4  C3A BZF d   1      -0.567   1.120   3.359  0.00  0.00    -0.107 A 
ATOM      5  C4  BZF d   1       0.209   2.166   3.771  0.00  0.00     0.055 A 
ATOM      6  C5  BZF d   1      -0.281   3.430   3.677  0.00  0.00    -0.016 A 
ATOM      7  C6  BZF d   1      -1.540   3.685   3.173  0.00  0.00     0.022 A 
ATOM      8  C7  BZF d   1      -2.348   2.680   2.757  0.00  0.00     0.029 A 
ATOM      9  C7A BZF d   1      -1.868   1.399   2.880  0.00  0.00     0.058 A 
ENDROOT
TORSDOF 0
ENDMDL
