MODEL 1
REMARK minimizedAffinity 7.14525366
REMARK minimizedRMSD -1
REMARK  0 active torsions:
REMARK  status: ('A' for Active; 'I' for Inactive)
ROOT
ATOM      1  O1  BZF d   1       0.271   3.132  -0.278  0.00  0.00    -0.204 OA
ATOM      2  C2  BZF d   1       0.711   2.503  -1.426  0.00  0.00     0.174 A 
ATOM      3  C3  BZF d   1       0.721   1.164  -1.264  0.00  0.00    -0.012 A 
ATOM      4  C3A BZF d   1       0.170   0.938   0.037  0.00  0.00    -0.107 A 
ATOM      5  C4  BZF d   1      -0.093  -0.188   0.763  0.00  0.00     0.055 A 
ATOM      6  C5  BZF d   1      -0.564  -0.062   2.031  0.00  0.00    -0.016 A 
ATOM      7  C6  BZF d   1      -0.777   1.174   2.606  0.00  0.00     0.022 A 
ATOM      8  C7  BZF d   1      -0.536   2.319   1.924  0.00  0.00     0.029 A 
ATOM      9  C7A BZF d   1      -0.091   2.195   0.630  0.00  0.00     0.058 A 
ENDROOT
TORSDOF 0
ENDMDL
