MODEL 1
REMARK minimizedAffinity 0.497440338
REMARK minimizedRMSD -1
REMARK  0 active torsions:
REMARK  status: ('A' for Active; 'I' for Inactive)
ROOT
ATOM      1  O1  BZF d   1       0.489   1.068  -0.429  0.00  0.00    -0.204 OA
ATOM      2  C2  BZF d   1      -0.175   1.246  -1.627  0.00  0.00     0.174 A 
ATOM      3  C3  BZF d   1      -1.466   1.573  -1.415  0.00  0.00    -0.012 A 
ATOM      4  C3A BZF d   1      -1.595   1.691   0.005  0.00  0.00    -0.107 A 
ATOM      5  C4  BZF d   1      -2.636   2.010   0.830  0.00  0.00     0.055 A 
ATOM      6  C5  BZF d   1      -2.450   1.965   2.175  0.00  0.00    -0.016 A 
ATOM      7  C6  BZF d   1      -1.241   1.601   2.730  0.00  0.00     0.022 A 
ATOM      8  C7  BZF d   1      -0.178   1.281   1.952  0.00  0.00     0.029 A 
ATOM      9  C7A BZF d   1      -0.353   1.358   0.592  0.00  0.00     0.058 A 
ENDROOT
TORSDOF 0
ENDMDL
