MODEL 1
REMARK minimizedAffinity 3.88507104
REMARK minimizedRMSD -1
REMARK  0 active torsions:
REMARK  status: ('A' for Active; 'I' for Inactive)
ROOT
ATOM      1  O1  BZF d   1      -0.047   2.643   1.258  0.00  0.00    -0.204 OA
ATOM      2  C2  BZF d   1      -0.858   2.553   2.373  0.00  0.00     0.174 A 
ATOM      3  C3  BZF d   1      -1.330   1.298   2.521  0.00  0.00    -0.012 A 
ATOM      4  C3A BZF d   1      -0.705   0.536   1.483  0.00  0.00    -0.107 A 
ATOM      5  C4  BZF d   1      -0.760  -0.779   1.120  0.00  0.00     0.055 A 
ATOM      6  C5  BZF d   1      -0.085  -1.188   0.014  0.00  0.00    -0.016 A 
ATOM      7  C6  BZF d   1       0.650  -0.309  -0.754  0.00  0.00     0.022 A 
ATOM      8  C7  BZF d   1       0.739   1.004  -0.431  0.00  0.00     0.029 A 
ATOM      9  C7A BZF d   1       0.085   1.414   0.705  0.00  0.00     0.058 A 
ENDROOT
TORSDOF 0
ENDMDL
