MODEL 1
REMARK minimizedAffinity 11.6892834
REMARK minimizedRMSD -1
REMARK  0 active torsions:
REMARK  status: ('A' for Active; 'I' for Inactive)
ROOT
ATOM      1  C   UNL d   1       1.808  -2.561   1.530  0.00  0.00     0.077 C 
ATOM      2  C1  UNL d   1       0.745  -1.845   2.310  0.00  0.00    -0.074 A 
ATOM      3  C2  UNL d   1       1.050  -1.192   3.509  0.00  0.00    -0.005 A 
ATOM      4  C3  UNL d   1       0.054  -0.523   4.219  0.00  0.00     0.006 A 
ATOM      5  C4  UNL d   1      -1.256  -0.500   3.738  0.00  0.00    -0.005 A 
ATOM      6  C5  UNL d   1      -1.580  -1.146   2.541  0.00  0.00    -0.074 A 
ATOM      7  C6  UNL d   1      -2.981  -1.123   2.005  0.00  0.00     0.077 C 
ATOM      8  C7  UNL d   1      -0.571  -1.811   1.830  0.00  0.00    -0.001 A 
ENDROOT
TORSDOF 0
ENDMDL
