MODEL 1
REMARK minimizedAffinity 1.15942633
REMARK minimizedRMSD -1
REMARK  0 active torsions:
REMARK  status: ('A' for Active; 'I' for Inactive)
ROOT
ATOM      1  C   UNL d   1       2.009   2.930   2.596  0.00  0.00     0.077 C 
ATOM      2  C1  UNL d   1       3.402   2.522   2.217  0.00  0.00    -0.074 A 
ATOM      3  C2  UNL d   1       4.506   3.290   2.601  0.00  0.00    -0.005 A 
ATOM      4  C3  UNL d   1       5.795   2.893   2.249  0.00  0.00     0.006 A 
ATOM      5  C4  UNL d   1       5.994   1.725   1.511  0.00  0.00    -0.005 A 
ATOM      6  C5  UNL d   1       4.902   0.943   1.120  0.00  0.00    -0.074 A 
ATOM      7  C6  UNL d   1       5.099  -0.320   0.335  0.00  0.00     0.077 C 
ATOM      8  C7  UNL d   1       3.610   1.346   1.483  0.00  0.00    -0.001 A 
ENDROOT
TORSDOF 0
ENDMDL
