MODEL 1
REMARK minimizedAffinity 9.59471607
REMARK minimizedRMSD -1
REMARK  0 active torsions:
REMARK  status: ('A' for Active; 'I' for Inactive)
ROOT
ATOM      1  C   UNL d   1       4.287  -3.501   3.113  0.00  0.00     0.077 C 
ATOM      2  C1  UNL d   1       2.891  -3.216   2.645  0.00  0.00    -0.074 A 
ATOM      3  C2  UNL d   1       2.204  -4.128   1.838  0.00  0.00    -0.005 A 
ATOM      4  C3  UNL d   1       0.902  -3.854   1.418  0.00  0.00     0.006 A 
ATOM      5  C4  UNL d   1       0.276  -2.667   1.800  0.00  0.00    -0.005 A 
ATOM      6  C5  UNL d   1       0.947  -1.744   2.608  0.00  0.00    -0.074 A 
ATOM      7  C6  UNL d   1       0.285  -0.468   3.036  0.00  0.00     0.077 C 
ATOM      8  C7  UNL d   1       2.252  -2.030   3.031  0.00  0.00    -0.001 A 
ENDROOT
TORSDOF 0
ENDMDL
