MODEL 1
REMARK minimizedAffinity 2.15611172
REMARK minimizedRMSD -1
REMARK  0 active torsions:
REMARK  status: ('A' for Active; 'I' for Inactive)
ROOT
ATOM      1  C   UNL d   1       2.624   3.348   4.808  0.00  0.00     0.077 C 
ATOM      2  C1  UNL d   1       2.943   2.887   3.417  0.00  0.00    -0.074 A 
ATOM      3  C2  UNL d   1       1.945   2.803   2.441  0.00  0.00    -0.005 A 
ATOM      4  C3  UNL d   1       2.258   2.382   1.149  0.00  0.00     0.006 A 
ATOM      5  C4  UNL d   1       3.571   2.041   0.820  0.00  0.00    -0.005 A 
ATOM      6  C5  UNL d   1       4.582   2.120   1.783  0.00  0.00    -0.074 A 
ATOM      7  C6  UNL d   1       6.000   1.766   1.443  0.00  0.00     0.077 C 
ATOM      8  C7  UNL d   1       4.261   2.551   3.077  0.00  0.00    -0.001 A 
ENDROOT
TORSDOF 0
ENDMDL
