MODEL 1
REMARK minimizedAffinity 0.616868556
REMARK minimizedRMSD -1
REMARK  0 active torsions:
REMARK  status: ('A' for Active; 'I' for Inactive)
ROOT
ATOM      1  C   UNL d   1      -0.268   2.781  -2.029  0.00  0.00     0.077 C 
ATOM      2  C1  UNL d   1       0.588   1.824  -1.254  0.00  0.00    -0.074 A 
ATOM      3  C2  UNL d   1       0.330   0.450  -1.276  0.00  0.00    -0.005 A 
ATOM      4  C3  UNL d   1       1.141  -0.429  -0.557  0.00  0.00     0.006 A 
ATOM      5  C4  UNL d   1       2.215   0.056   0.189  0.00  0.00    -0.005 A 
ATOM      6  C5  UNL d   1       2.489   1.427   0.221  0.00  0.00    -0.074 A 
ATOM      7  C6  UNL d   1       3.647   1.964   1.010  0.00  0.00     0.077 C 
ATOM      8  C7  UNL d   1       1.675   2.303  -0.509  0.00  0.00    -0.001 A 
ENDROOT
TORSDOF 0
ENDMDL
