MODEL 1
REMARK minimizedAffinity 2.79106617
REMARK minimizedRMSD -1
REMARK  0 active torsions:
REMARK  status: ('A' for Active; 'I' for Inactive)
ROOT
ATOM      1  C   UNL d   1      -0.069  -1.737   3.141  0.00  0.00     0.077 C 
ATOM      2  C1  UNL d   1       1.016  -2.262   2.249  0.00  0.00    -0.074 A 
ATOM      3  C2  UNL d   1       1.864  -1.390   1.558  0.00  0.00    -0.005 A 
ATOM      4  C3  UNL d   1       2.874  -1.894   0.740  0.00  0.00     0.006 A 
ATOM      5  C4  UNL d   1       3.048  -3.271   0.604  0.00  0.00    -0.005 A 
ATOM      6  C5  UNL d   1       2.210  -4.159   1.287  0.00  0.00    -0.074 A 
ATOM      7  C6  UNL d   1       2.389  -5.642   1.160  0.00  0.00     0.077 C 
ATOM      8  C7  UNL d   1       1.201  -3.645   2.113  0.00  0.00    -0.001 A 
ENDROOT
TORSDOF 0
ENDMDL
