MODEL 1
REMARK minimizedAffinity 2.96171951
REMARK minimizedRMSD -1
REMARK  0 active torsions:
REMARK  status: ('A' for Active; 'I' for Inactive)
ROOT
ATOM      1  C   UNL d   1      -2.746   0.226  -1.770  0.00  0.00     0.077 C 
ATOM      2  C1  UNL d   1      -2.371   1.595  -2.252  0.00  0.00    -0.074 A 
ATOM      3  C2  UNL d   1      -1.046   2.040  -2.191  0.00  0.00    -0.005 A 
ATOM      4  C3  UNL d   1      -0.710   3.313  -2.652  0.00  0.00     0.006 A 
ATOM      5  C4  UNL d   1      -1.693   4.153  -3.177  0.00  0.00    -0.005 A 
ATOM      6  C5  UNL d   1      -3.023   3.724  -3.247  0.00  0.00    -0.074 A 
ATOM      7  C6  UNL d   1      -4.090   4.610  -3.818  0.00  0.00     0.077 C 
ATOM      8  C7  UNL d   1      -3.351   2.441  -2.788  0.00  0.00    -0.001 A 
ENDROOT
TORSDOF 0
ENDMDL
