MODEL 1
REMARK minimizedAffinity 1.5379442
REMARK minimizedRMSD -1
REMARK  0 active torsions:
REMARK  status: ('A' for Active; 'I' for Inactive)
ROOT
ATOM      1  C   UNL d   1       5.904   1.207  -3.661  0.00  0.00     0.077 C 
ATOM      2  C1  UNL d   1       5.944   1.110  -2.165  0.00  0.00    -0.074 A 
ATOM      3  C2  UNL d   1       5.965   2.261  -1.370  0.00  0.00    -0.005 A 
ATOM      4  C3  UNL d   1       5.993   2.155   0.020  0.00  0.00     0.006 A 
ATOM      5  C4  UNL d   1       6.000   0.900   0.629  0.00  0.00    -0.005 A 
ATOM      6  C5  UNL d   1       5.978  -0.262  -0.149  0.00  0.00    -0.074 A 
ATOM      7  C6  UNL d   1       5.975  -1.619   0.491  0.00  0.00     0.077 C 
ATOM      8  C7  UNL d   1       5.943  -0.148  -1.545  0.00  0.00    -0.001 A 
ENDROOT
TORSDOF 0
ENDMDL
