MODEL 1
REMARK minimizedAffinity -3.4373126
REMARK minimizedRMSD -1
REMARK  0 active torsions:
REMARK  status: ('A' for Active; 'I' for Inactive)
ROOT
ATOM      1  C   UNL d   1       2.658  -4.537   2.273  0.00  0.00     0.077 C 
ATOM      2  C1  UNL d   1       3.457  -4.655   3.537  0.00  0.00    -0.074 A 
ATOM      3  C2  UNL d   1       3.739  -5.906   4.095  0.00  0.00    -0.005 A 
ATOM      4  C3  UNL d   1       4.491  -6.000   5.266  0.00  0.00     0.006 A 
ATOM      5  C4  UNL d   1       4.969  -4.846   5.889  0.00  0.00    -0.005 A 
ATOM      6  C5  UNL d   1       4.699  -3.587   5.344  0.00  0.00    -0.074 A 
ATOM      7  C6  UNL d   1       5.213  -2.338   5.996  0.00  0.00     0.077 C 
ATOM      8  C7  UNL d   1       3.948  -3.501   4.164  0.00  0.00    -0.001 A 
ENDROOT
TORSDOF 0
ENDMDL
