MODEL 1
REMARK minimizedAffinity 28.4190655
REMARK minimizedRMSD -1
REMARK  0 active torsions:
REMARK  status: ('A' for Active; 'I' for Inactive)
ROOT
ATOM      1  C   UNL d   1       2.901  -0.595  -0.213  0.00  0.00     0.124 A 
ATOM      2  C1  UNL d   1       4.096  -0.880   0.433  0.00  0.00     0.062 A 
ATOM      3  C2  UNL d   1       4.495  -2.201   0.616  0.00  0.00     0.162 A 
ATOM      4  C3  UNL d   1       3.699  -3.248   0.151  0.00  0.00    -0.034 A 
ATOM      5  C4  UNL d   1       2.498  -2.954  -0.497  0.00  0.00     0.162 A 
ATOM      6  C5  UNL d   1       2.103  -1.632  -0.677  0.00  0.00     0.062 A 
ATOM      7  F   UNL d   1       0.948  -1.359  -1.302  0.00  0.00    -0.097 F 
ATOM      8  F1  UNL d   1       1.709  -3.936  -0.956  0.00  0.00    -0.096 F 
ATOM      9  I   UNL d   1       4.293  -5.224   0.423  0.00  0.00    -0.060 I 
ATOM     10  F2  UNL d   1       5.655  -2.446   1.244  0.00  0.00    -0.096 F 
ATOM     11  F3  UNL d   1       4.867   0.120   0.883  0.00  0.00    -0.097 F 
ATOM     12  F4  UNL d   1       2.518   0.676  -0.387  0.00  0.00    -0.092 F 
ENDROOT
TORSDOF 0
ENDMDL
