MODEL 1
REMARK minimizedAffinity 23.119482
REMARK minimizedRMSD -1
REMARK  0 active torsions:
REMARK  status: ('A' for Active; 'I' for Inactive)
ROOT
ATOM      1  C   UNL d   1       3.034   1.477  -1.609  0.00  0.00     0.124 A 
ATOM      2  C1  UNL d   1       2.259   0.594  -2.348  0.00  0.00     0.062 A 
ATOM      3  C2  UNL d   1       2.359  -0.777  -2.129  0.00  0.00     0.162 A 
ATOM      4  C3  UNL d   1       3.238  -1.274  -1.166  0.00  0.00    -0.034 A 
ATOM      5  C4  UNL d   1       4.014  -0.379  -0.428  0.00  0.00     0.162 A 
ATOM      6  C5  UNL d   1       3.910   0.990  -0.650  0.00  0.00     0.062 A 
ATOM      7  F   UNL d   1       4.660   1.842   0.065  0.00  0.00    -0.097 F 
ATOM      8  F1  UNL d   1       4.869  -0.823   0.506  0.00  0.00    -0.096 F 
ATOM      9  I   UNL d   1       3.391  -3.323  -0.836  0.00  0.00    -0.060 I 
ATOM     10  F2  UNL d   1       1.598  -1.607  -2.858  0.00  0.00    -0.096 F 
ATOM     11  F3  UNL d   1       1.412   1.062  -3.276  0.00  0.00    -0.097 F 
ATOM     12  F4  UNL d   1       2.936   2.795  -1.822  0.00  0.00    -0.092 F 
ENDROOT
TORSDOF 0
ENDMDL
