MODEL 1
REMARK minimizedAffinity 31.2575741
REMARK minimizedRMSD -1
REMARK  0 active torsions:
REMARK  status: ('A' for Active; 'I' for Inactive)
ROOT
ATOM      1  C   UNL d   1       3.967  -0.359  -0.160  0.00  0.00     0.124 A 
ATOM      2  C1  UNL d   1       2.961   0.174  -0.954  0.00  0.00     0.062 A 
ATOM      3  C2  UNL d   1       1.978  -0.654  -1.488  0.00  0.00     0.162 A 
ATOM      4  C3  UNL d   1       1.994  -2.025  -1.229  0.00  0.00    -0.034 A 
ATOM      5  C4  UNL d   1       3.010  -2.554  -0.430  0.00  0.00     0.162 A 
ATOM      6  C5  UNL d   1       3.990  -1.722   0.101  0.00  0.00     0.062 A 
ATOM      7  F   UNL d   1       4.961  -2.239   0.868  0.00  0.00    -0.097 F 
ATOM      8  F1  UNL d   1       3.056  -3.867  -0.161  0.00  0.00    -0.096 F 
ATOM      9  I   UNL d   1       0.526  -3.266  -2.025  0.00  0.00    -0.060 I 
ATOM     10  F2  UNL d   1       1.018  -0.112  -2.252  0.00  0.00    -0.096 F 
ATOM     11  F3  UNL d   1       2.936   1.490  -1.209  0.00  0.00    -0.097 F 
ATOM     12  F4  UNL d   1       4.912   0.439   0.352  0.00  0.00    -0.092 F 
ENDROOT
TORSDOF 0
ENDMDL
