MODEL 1
REMARK minimizedAffinity 29.4782276
REMARK minimizedRMSD -1
REMARK  0 active torsions:
REMARK  status: ('A' for Active; 'I' for Inactive)
ROOT
ATOM      1  C   UNL d   1       4.080   1.775  -0.332  0.00  0.00     0.124 A 
ATOM      2  C1  UNL d   1       3.410   2.256  -1.449  0.00  0.00     0.062 A 
ATOM      3  C2  UNL d   1       2.587   1.411  -2.189  0.00  0.00     0.162 A 
ATOM      4  C3  UNL d   1       2.429   0.077  -1.814  0.00  0.00    -0.034 A 
ATOM      5  C4  UNL d   1       3.107  -0.400  -0.690  0.00  0.00     0.162 A 
ATOM      6  C5  UNL d   1       3.928   0.449   0.046  0.00  0.00     0.062 A 
ATOM      7  F   UNL d   1       4.575  -0.017   1.124  0.00  0.00    -0.097 F 
ATOM      8  F1  UNL d   1       2.978  -1.677  -0.302  0.00  0.00    -0.096 F 
ATOM      9  I   UNL d   1       1.200  -1.190  -2.918  0.00  0.00    -0.060 I 
ATOM     10  F2  UNL d   1       1.951   1.902  -3.263  0.00  0.00    -0.096 F 
ATOM     11  F3  UNL d   1       3.555   3.537  -1.817  0.00  0.00    -0.097 F 
ATOM     12  F4  UNL d   1       4.871   2.590   0.377  0.00  0.00    -0.092 F 
ENDROOT
TORSDOF 0
ENDMDL
