MODEL 1
REMARK minimizedAffinity 18.661808
REMARK minimizedRMSD -1
REMARK  0 active torsions:
REMARK  status: ('A' for Active; 'I' for Inactive)
ROOT
ATOM      1  C   UNL d   1       2.153   1.280  -1.904  0.00  0.00     0.124 A 
ATOM      2  C1  UNL d   1       2.088   2.490  -1.227  0.00  0.00     0.062 A 
ATOM      3  C2  UNL d   1       1.734   2.522   0.118  0.00  0.00     0.162 A 
ATOM      4  C3  UNL d   1       1.442   1.339   0.797  0.00  0.00    -0.034 A 
ATOM      5  C4  UNL d   1       1.508   0.126   0.110  0.00  0.00     0.162 A 
ATOM      6  C5  UNL d   1       1.862   0.100  -1.235  0.00  0.00     0.062 A 
ATOM      7  F   UNL d   1       1.924  -1.071  -1.887  0.00  0.00    -0.097 F 
ATOM      8  F1  UNL d   1       1.233  -1.030   0.732  0.00  0.00    -0.096 F 
ATOM      9  I   UNL d   1       0.911   1.382   2.809  0.00  0.00    -0.060 I 
ATOM     10  F2  UNL d   1       1.680   3.706   0.747  0.00  0.00    -0.096 F 
ATOM     11  F3  UNL d   1       2.368   3.633  -1.871  0.00  0.00    -0.097 F 
ATOM     12  F4  UNL d   1       2.493   1.253  -3.199  0.00  0.00    -0.092 F 
ENDROOT
TORSDOF 0
ENDMDL
