MODEL 1
REMARK minimizedAffinity 35.2677841
REMARK minimizedRMSD -1
REMARK  0 active torsions:
REMARK  status: ('A' for Active; 'I' for Inactive)
ROOT
ATOM      1  C   UNL d   1       3.750   0.587  -0.365  0.00  0.00     0.124 A 
ATOM      2  C1  UNL d   1       3.511  -0.712   0.061  0.00  0.00     0.062 A 
ATOM      3  C2  UNL d   1       2.619  -1.524  -0.633  0.00  0.00     0.162 A 
ATOM      4  C3  UNL d   1       1.959  -1.039  -1.763  0.00  0.00    -0.034 A 
ATOM      5  C4  UNL d   1       2.203   0.269  -2.185  0.00  0.00     0.162 A 
ATOM      6  C5  UNL d   1       3.096   1.076  -1.487  0.00  0.00     0.062 A 
ATOM      7  F   UNL d   1       3.325   2.331  -1.901  0.00  0.00    -0.097 F 
ATOM      8  F1  UNL d   1       1.586   0.767  -3.266  0.00  0.00    -0.096 F 
ATOM      9  I   UNL d   1       0.624  -2.250  -2.804  0.00  0.00    -0.060 I 
ATOM     10  F2  UNL d   1       2.407  -2.775  -0.199  0.00  0.00    -0.096 F 
ATOM     11  F3  UNL d   1       4.141  -1.187   1.145  0.00  0.00    -0.097 F 
ATOM     12  F4  UNL d   1       4.608   1.366   0.305  0.00  0.00    -0.092 F 
ENDROOT
TORSDOF 0
ENDMDL
