MODEL 1
REMARK minimizedAffinity 17.5382919
REMARK minimizedRMSD -1
REMARK  0 active torsions:
REMARK  status: ('A' for Active; 'I' for Inactive)
ROOT
ATOM      1  C   UNL d   1       2.726  -1.540  -1.072  0.00  0.00     0.124 A 
ATOM      2  C1  UNL d   1       3.945  -1.600  -0.411  0.00  0.00     0.062 A 
ATOM      3  C2  UNL d   1       4.823  -0.521  -0.460  0.00  0.00     0.162 A 
ATOM      4  C3  UNL d   1       4.484   0.629  -1.173  0.00  0.00    -0.034 A 
ATOM      5  C4  UNL d   1       3.256   0.683  -1.836  0.00  0.00     0.162 A 
ATOM      6  C5  UNL d   1       2.383  -0.399  -1.783  0.00  0.00     0.062 A 
ATOM      7  F   UNL d   1       1.206  -0.338  -2.423  0.00  0.00    -0.097 F 
ATOM      8  F1  UNL d   1       2.899   1.773  -2.530  0.00  0.00    -0.096 F 
ATOM      9  I   UNL d   1       5.793   2.245  -1.249  0.00  0.00    -0.060 I 
ATOM     10  F2  UNL d   1       5.994  -0.607   0.188  0.00  0.00    -0.096 F 
ATOM     11  F3  UNL d   1       4.279  -2.702   0.276  0.00  0.00    -0.097 F 
ATOM     12  F4  UNL d   1       1.884  -2.580  -1.024  0.00  0.00    -0.092 F 
ENDROOT
TORSDOF 0
ENDMDL
