MODEL 1
REMARK minimizedAffinity 30.491272
REMARK minimizedRMSD -1
REMARK  0 active torsions:
REMARK  status: ('A' for Active; 'I' for Inactive)
ROOT
ATOM      1  C   UNL d   1      -4.660   1.849   3.792  0.00  0.00     0.124 A 
ATOM      2  C1  UNL d   1      -3.926   2.221   4.910  0.00  0.00     0.062 A 
ATOM      3  C2  UNL d   1      -2.539   2.112   4.905  0.00  0.00     0.162 A 
ATOM      4  C3  UNL d   1      -1.875   1.631   3.777  0.00  0.00    -0.034 A 
ATOM      5  C4  UNL d   1      -2.619   1.258   2.656  0.00  0.00     0.162 A 
ATOM      6  C5  UNL d   1      -4.006   1.369   2.666  0.00  0.00     0.062 A 
ATOM      7  F   UNL d   1      -4.712   1.009   1.585  0.00  0.00    -0.097 F 
ATOM      8  F1  UNL d   1      -2.012   0.791   1.555  0.00  0.00    -0.096 F 
ATOM      9  I   UNL d   1       0.200   1.467   3.766  0.00  0.00    -0.060 I 
ATOM     10  F2  UNL d   1      -1.856   2.478   6.000  0.00  0.00    -0.096 F 
ATOM     11  F3  UNL d   1      -4.556   2.685   5.999  0.00  0.00    -0.097 F 
ATOM     12  F4  UNL d   1      -5.995   1.954   3.800  0.00  0.00    -0.092 F 
ENDROOT
TORSDOF 0
ENDMDL
