MODEL 1
REMARK minimizedAffinity 27.1007881
REMARK minimizedRMSD -1
REMARK  0 active torsions:
REMARK  status: ('A' for Active; 'I' for Inactive)
ROOT
ATOM      1  C   UNL d   1       0.747   1.640   3.026  0.00  0.00     0.124 A 
ATOM      2  C1  UNL d   1       2.045   2.078   2.803  0.00  0.00     0.062 A 
ATOM      3  C2  UNL d   1       2.281   3.181   1.987  0.00  0.00     0.162 A 
ATOM      4  C3  UNL d   1       1.216   3.854   1.388  0.00  0.00    -0.034 A 
ATOM      5  C4  UNL d   1      -0.086   3.407   1.617  0.00  0.00     0.162 A 
ATOM      6  C5  UNL d   1      -0.317   2.305   2.433  0.00  0.00     0.062 A 
ATOM      7  F   UNL d   1      -1.572   1.883   2.647  0.00  0.00    -0.097 F 
ATOM      8  F1  UNL d   1      -1.133   4.032   1.057  0.00  0.00    -0.096 F 
ATOM      9  I   UNL d   1       1.566   5.503   0.168  0.00  0.00    -0.060 I 
ATOM     10  F2  UNL d   1       3.546   3.582   1.789  0.00  0.00    -0.096 F 
ATOM     11  F3  UNL d   1       3.074   1.437   3.374  0.00  0.00    -0.097 F 
ATOM     12  F4  UNL d   1       0.522   0.579   3.811  0.00  0.00    -0.092 F 
ENDROOT
TORSDOF 0
ENDMDL
