MODEL 1
REMARK minimizedAffinity 23.2291164
REMARK minimizedRMSD -1
REMARK  0 active torsions:
REMARK  status: ('A' for Active; 'I' for Inactive)
ROOT
ATOM      1  C   UNL d   1       4.164   2.002  -0.613  0.00  0.00     0.124 A 
ATOM      2  C1  UNL d   1       3.085   1.207  -0.973  0.00  0.00     0.062 A 
ATOM      3  C2  UNL d   1       2.092   0.910  -0.043  0.00  0.00     0.162 A 
ATOM      4  C3  UNL d   1       2.174   1.409   1.257  0.00  0.00    -0.034 A 
ATOM      5  C4  UNL d   1       3.263   2.207   1.612  0.00  0.00     0.162 A 
ATOM      6  C5  UNL d   1       4.252   2.501   0.679  0.00  0.00     0.062 A 
ATOM      7  F   UNL d   1       5.294   3.269   1.029  0.00  0.00    -0.097 F 
ATOM      8  F1  UNL d   1       3.373   2.704   2.853  0.00  0.00    -0.096 F 
ATOM      9  I   UNL d   1       0.693   0.968   2.650  0.00  0.00    -0.060 I 
ATOM     10  F2  UNL d   1       1.061   0.140  -0.419  0.00  0.00    -0.096 F 
ATOM     11  F3  UNL d   1       2.997   0.723  -2.220  0.00  0.00    -0.097 F 
ATOM     12  F4  UNL d   1       5.118   2.285  -1.509  0.00  0.00    -0.092 F 
ENDROOT
TORSDOF 0
ENDMDL
