MODEL 1
REMARK minimizedAffinity 29.9654751
REMARK minimizedRMSD -1
REMARK  0 active torsions:
REMARK  status: ('A' for Active; 'I' for Inactive)
ROOT
ATOM      1  C   UNL d   1      -0.171   1.117  -3.586  0.00  0.00     0.124 A 
ATOM      2  C1  UNL d   1       0.443   1.956  -4.507  0.00  0.00     0.062 A 
ATOM      3  C2  UNL d   1      -0.280   2.978  -5.113  0.00  0.00     0.162 A 
ATOM      4  C3  UNL d   1      -1.626   3.170  -4.800  0.00  0.00    -0.034 A 
ATOM      5  C4  UNL d   1      -2.237   2.322  -3.874  0.00  0.00     0.162 A 
ATOM      6  C5  UNL d   1      -1.509   1.301  -3.271  0.00  0.00     0.062 A 
ATOM      7  F   UNL d   1      -2.104   0.493  -2.382  0.00  0.00    -0.097 F 
ATOM      8  F1  UNL d   1      -3.529   2.478  -3.550  0.00  0.00    -0.096 F 
ATOM      9  I   UNL d   1      -2.711   4.698  -5.705  0.00  0.00    -0.060 I 
ATOM     10  F2  UNL d   1       0.338   3.773  -5.999  0.00  0.00    -0.096 F 
ATOM     11  F3  UNL d   1       1.736   1.779  -4.814  0.00  0.00    -0.097 F 
ATOM     12  F4  UNL d   1       0.528   0.133  -3.005  0.00  0.00    -0.092 F 
ENDROOT
TORSDOF 0
ENDMDL
