MODEL 1
REMARK minimizedAffinity 13.9658051
REMARK minimizedRMSD -1
REMARK  0 active torsions:
REMARK  status: ('A' for Active; 'I' for Inactive)
ROOT
ATOM      1  C   UNL d   1       2.397  -4.493  -1.703  0.00  0.00     0.124 A 
ATOM      2  C1  UNL d   1       1.564  -3.506  -2.211  0.00  0.00     0.062 A 
ATOM      3  C2  UNL d   1       1.659  -2.200  -1.740  0.00  0.00     0.162 A 
ATOM      4  C3  UNL d   1       2.591  -1.873  -0.754  0.00  0.00    -0.034 A 
ATOM      5  C4  UNL d   1       3.424  -2.872  -0.247  0.00  0.00     0.162 A 
ATOM      6  C5  UNL d   1       3.325  -4.175  -0.721  0.00  0.00     0.062 A 
ATOM      7  F   UNL d   1       4.130  -5.128  -0.229  0.00  0.00    -0.097 F 
ATOM      8  F1  UNL d   1       4.330  -2.592   0.701  0.00  0.00    -0.096 F 
ATOM      9  I   UNL d   1       2.735   0.079  -0.047  0.00  0.00    -0.060 I 
ATOM     10  F2  UNL d   1       0.842  -1.266  -2.249  0.00  0.00    -0.096 F 
ATOM     11  F3  UNL d   1       0.666  -3.810  -3.159  0.00  0.00    -0.097 F 
ATOM     12  F4  UNL d   1       2.303  -5.749  -2.157  0.00  0.00    -0.092 F 
ENDROOT
TORSDOF 0
ENDMDL
