MODEL 1
REMARK minimizedAffinity 22.6934681
REMARK minimizedRMSD -1
REMARK  0 active torsions:
REMARK  status: ('A' for Active; 'I' for Inactive)
ROOT
ATOM      1  C   UNL d   1       1.836  -3.107  -1.429  0.00  0.00     0.124 A 
ATOM      2  C1  UNL d   1       1.212  -1.930  -1.819  0.00  0.00     0.062 A 
ATOM      3  C2  UNL d   1       1.564  -0.721  -1.225  0.00  0.00     0.162 A 
ATOM      4  C3  UNL d   1       2.547  -0.683  -0.236  0.00  0.00    -0.034 A 
ATOM      5  C4  UNL d   1       3.170  -1.871   0.151  0.00  0.00     0.162 A 
ATOM      6  C5  UNL d   1       2.814  -3.076  -0.445  0.00  0.00     0.062 A 
ATOM      7  F   UNL d   1       3.418  -4.212  -0.067  0.00  0.00    -0.097 F 
ATOM      8  F1  UNL d   1       4.119  -1.870   1.099  0.00  0.00    -0.096 F 
ATOM      9  I   UNL d   1       3.076   1.123   0.654  0.00  0.00    -0.060 I 
ATOM     10  F2  UNL d   1       0.945   0.401  -1.621  0.00  0.00    -0.096 F 
ATOM     11  F3  UNL d   1       0.266  -1.957  -2.769  0.00  0.00    -0.097 F 
ATOM     12  F4  UNL d   1       1.495  -4.268  -2.001  0.00  0.00    -0.092 F 
ENDROOT
TORSDOF 0
ENDMDL
