MODEL 1
REMARK minimizedAffinity 20.1314087
REMARK minimizedRMSD -1
REMARK  0 active torsions:
REMARK  status: ('A' for Active; 'I' for Inactive)
ROOT
ATOM      1  C   UNL d   1      -4.650  -2.455  -4.998  0.00  0.00     0.124 A 
ATOM      2  C1  UNL d   1      -4.837  -3.778  -5.374  0.00  0.00     0.062 A 
ATOM      3  C2  UNL d   1      -3.841  -4.721  -5.136  0.00  0.00     0.162 A 
ATOM      4  C3  UNL d   1      -2.649  -4.345  -4.516  0.00  0.00    -0.034 A 
ATOM      5  C4  UNL d   1      -2.468  -3.012  -4.141  0.00  0.00     0.162 A 
ATOM      6  C5  UNL d   1      -3.466  -2.074  -4.382  0.00  0.00     0.062 A 
ATOM      7  F   UNL d   1      -3.284  -0.796  -4.017  0.00  0.00    -0.097 F 
ATOM      8  F1  UNL d   1      -1.335  -2.617  -3.544  0.00  0.00    -0.096 F 
ATOM      9  I   UNL d   1      -1.158  -5.752  -4.158  0.00  0.00    -0.060 I 
ATOM     10  F2  UNL d   1      -4.049  -5.992  -5.510  0.00  0.00    -0.096 F 
ATOM     11  F3  UNL d   1      -5.979  -4.149  -5.970  0.00  0.00    -0.097 F 
ATOM     12  F4  UNL d   1      -5.609  -1.550  -5.229  0.00  0.00    -0.092 F 
ENDROOT
TORSDOF 0
ENDMDL
