MODEL 1
REMARK minimizedAffinity 19.2981243
REMARK minimizedRMSD -1
REMARK  0 active torsions:
REMARK  status: ('A' for Active; 'I' for Inactive)
ROOT
ATOM      1  C   UNL d   1       4.331   1.091  -0.804  0.00  0.00     0.124 A 
ATOM      2  C1  UNL d   1       3.127   0.444  -1.044  0.00  0.00     0.062 A 
ATOM      3  C2  UNL d   1       2.092   0.524  -0.117  0.00  0.00     0.162 A 
ATOM      4  C3  UNL d   1       2.256   1.254   1.060  0.00  0.00    -0.034 A 
ATOM      5  C4  UNL d   1       3.471   1.901   1.295  0.00  0.00     0.162 A 
ATOM      6  C5  UNL d   1       4.502   1.818   0.365  0.00  0.00     0.062 A 
ATOM      7  F   UNL d   1       5.665   2.444   0.599  0.00  0.00    -0.097 F 
ATOM      8  F1  UNL d   1       3.663   2.612   2.417  0.00  0.00    -0.096 F 
ATOM      9  I   UNL d   1       0.712   1.375   2.449  0.00  0.00    -0.060 I 
ATOM     10  F2  UNL d   1       0.939  -0.111  -0.375  0.00  0.00    -0.096 F 
ATOM     11  F3  UNL d   1       2.959  -0.260  -2.173  0.00  0.00    -0.097 F 
ATOM     12  F4  UNL d   1       5.325   1.012  -1.698  0.00  0.00    -0.092 F 
ENDROOT
TORSDOF 0
ENDMDL
