MODEL 1
REMARK minimizedAffinity 30.5042229
REMARK minimizedRMSD -1
REMARK  0 active torsions:
REMARK  status: ('A' for Active; 'I' for Inactive)
ROOT
ATOM      1  C   UNL d   1       1.014  -2.262  -1.532  0.00  0.00     0.124 A 
ATOM      2  C1  UNL d   1       0.992  -0.979  -2.061  0.00  0.00     0.062 A 
ATOM      3  C2  UNL d   1       1.925  -0.033  -1.646  0.00  0.00     0.162 A 
ATOM      4  C3  UNL d   1       2.890  -0.368  -0.696  0.00  0.00    -0.034 A 
ATOM      5  C4  UNL d   1       2.906  -1.660  -0.168  0.00  0.00     0.162 A 
ATOM      6  C5  UNL d   1       1.971  -2.601  -0.586  0.00  0.00     0.062 A 
ATOM      7  F   UNL d   1       1.995  -3.840  -0.074  0.00  0.00    -0.097 F 
ATOM      8  F1  UNL d   1       3.821  -2.015   0.747  0.00  0.00    -0.096 F 
ATOM      9  I   UNL d   1       4.288   1.043  -0.072  0.00  0.00    -0.060 I 
ATOM     10  F2  UNL d   1       1.880   1.199  -2.174  0.00  0.00    -0.096 F 
ATOM     11  F3  UNL d   1       0.067  -0.648  -2.975  0.00  0.00    -0.097 F 
ATOM     12  F4  UNL d   1       0.114  -3.169  -1.933  0.00  0.00    -0.092 F 
ENDROOT
TORSDOF 0
ENDMDL
