MODEL 1
REMARK minimizedAffinity -5.72907782
REMARK minimizedRMSD -1
REMARK  0 active torsions:
REMARK  status: ('A' for Active; 'I' for Inactive)
ROOT
ATOM      1  C   UNL d   1       1.124   0.068  -1.062  0.00  0.00     0.078 C 
ATOM      2  C1  UNL d   1       1.110   1.513  -0.662  0.00  0.00    -0.077 A 
ATOM      3  C2  UNL d   1       1.360   2.523  -1.599  0.00  0.00    -0.001 A 
ATOM      4  C3  UNL d   1       1.353   3.864  -1.211  0.00  0.00     0.003 A 
ATOM      5  C4  UNL d   1       1.098   4.207   0.115  0.00  0.00    -0.005 A 
ATOM      6  C5  UNL d   1       0.850   3.209   1.055  0.00  0.00     0.003 A 
ATOM      7  C6  UNL d   1       0.857   1.868   0.669  0.00  0.00    -0.001 A 
ENDROOT
TORSDOF 0
ENDMDL
