MODEL 1
REMARK minimizedAffinity -5.44772577
REMARK minimizedRMSD -1
REMARK  0 active torsions:
REMARK  status: ('A' for Active; 'I' for Inactive)
ROOT
ATOM      1  C   UNL d   1       0.944  -0.354  -1.129  0.00  0.00     0.078 C 
ATOM      2  C1  UNL d   1       1.163   1.120  -0.962  0.00  0.00    -0.077 A 
ATOM      3  C2  UNL d   1       1.192   1.706   0.309  0.00  0.00    -0.001 A 
ATOM      4  C3  UNL d   1       1.388   3.081   0.448  0.00  0.00     0.003 A 
ATOM      5  C4  UNL d   1       1.555   3.882  -0.680  0.00  0.00    -0.005 A 
ATOM      6  C5  UNL d   1       1.525   3.308  -1.949  0.00  0.00     0.003 A 
ATOM      7  C6  UNL d   1       1.330   1.933  -2.091  0.00  0.00    -0.001 A 
ENDROOT
TORSDOF 0
ENDMDL
