MODEL 1
REMARK minimizedAffinity -4.99715137
REMARK minimizedRMSD -1
REMARK  0 active torsions:
REMARK  status: ('A' for Active; 'I' for Inactive)
ROOT
ATOM      1  C   UNL d   1       2.245   4.097  -1.333  0.00  0.00     0.078 C 
ATOM      2  C1  UNL d   1       1.751   2.797  -0.774  0.00  0.00    -0.077 A 
ATOM      3  C2  UNL d   1       2.029   2.427   0.548  0.00  0.00    -0.001 A 
ATOM      4  C3  UNL d   1       1.570   1.209   1.052  0.00  0.00     0.003 A 
ATOM      5  C4  UNL d   1       0.832   0.350   0.241  0.00  0.00    -0.005 A 
ATOM      6  C5  UNL d   1       0.553   0.707  -1.076  0.00  0.00     0.003 A 
ATOM      7  C6  UNL d   1       1.010   1.925  -1.582  0.00  0.00    -0.001 A 
ENDROOT
TORSDOF 0
ENDMDL
