MODEL 1
REMARK minimizedAffinity -5.02889156
REMARK minimizedRMSD -1
REMARK  0 active torsions:
REMARK  status: ('A' for Active; 'I' for Inactive)
ROOT
ATOM      1  C   UNL d   1       1.434  -2.270  -1.109  0.00  0.00     0.078 C 
ATOM      2  C1  UNL d   1       1.290  -0.782  -0.993  0.00  0.00    -0.077 A 
ATOM      3  C2  UNL d   1       1.234  -0.158   0.260  0.00  0.00    -0.001 A 
ATOM      4  C3  UNL d   1       1.090   1.227   0.353  0.00  0.00     0.003 A 
ATOM      5  C4  UNL d   1       1.000   2.001  -0.803  0.00  0.00    -0.005 A 
ATOM      6  C5  UNL d   1       1.052   1.389  -2.053  0.00  0.00     0.003 A 
ATOM      7  C6  UNL d   1       1.196   0.004  -2.149  0.00  0.00    -0.001 A 
ENDROOT
TORSDOF 0
ENDMDL
