MODEL 1
REMARK minimizedAffinity -5.67344379
REMARK minimizedRMSD -1
REMARK  0 active torsions:
REMARK  status: ('A' for Active; 'I' for Inactive)
ROOT
ATOM      1  C   UNL d   1       1.523   4.897  -0.759  0.00  0.00     0.078 C 
ATOM      2  C1  UNL d   1       1.412   3.414  -0.569  0.00  0.00    -0.077 A 
ATOM      3  C2  UNL d   1       1.393   2.545  -1.666  0.00  0.00    -0.001 A 
ATOM      4  C3  UNL d   1       1.279   1.168  -1.474  0.00  0.00     0.003 A 
ATOM      5  C4  UNL d   1       1.183   0.646  -0.185  0.00  0.00    -0.005 A 
ATOM      6  C5  UNL d   1       1.199   1.503   0.913  0.00  0.00     0.003 A 
ATOM      7  C6  UNL d   1       1.312   2.882   0.723  0.00  0.00    -0.001 A 
ENDROOT
TORSDOF 0
ENDMDL
