MODEL 1
REMARK minimizedAffinity 1.89932299
REMARK minimizedRMSD -1
REMARK  0 active torsions:
REMARK  status: ('A' for Active; 'I' for Inactive)
ROOT
ATOM      1  C   UNL d   1       1.163   2.889  -2.189  0.00  0.00     0.078 C 
ATOM      2  C1  UNL d   1       1.170   1.796  -1.163  0.00  0.00    -0.077 A 
ATOM      3  C2  UNL d   1       1.020   0.455  -1.536  0.00  0.00    -0.001 A 
ATOM      4  C3  UNL d   1       1.018  -0.551  -0.569  0.00  0.00     0.003 A 
ATOM      5  C4  UNL d   1       1.165  -0.227   0.778  0.00  0.00    -0.005 A 
ATOM      6  C5  UNL d   1       1.313   1.105   1.160  0.00  0.00     0.003 A 
ATOM      7  C6  UNL d   1       1.315   2.112   0.194  0.00  0.00    -0.001 A 
ENDROOT
TORSDOF 0
ENDMDL
