MODEL 1
REMARK minimizedAffinity -2.54881549
REMARK minimizedRMSD -1
REMARK  0 active torsions:
REMARK  status: ('A' for Active; 'I' for Inactive)
ROOT
ATOM      1  C   UNL d   1       0.938   1.142  -2.737  0.00  0.00     0.078 C 
ATOM      2  C1  UNL d   1       0.931   1.908  -1.448  0.00  0.00    -0.077 A 
ATOM      3  C2  UNL d   1       1.279   3.264  -1.412  0.00  0.00    -0.001 A 
ATOM      4  C3  UNL d   1       1.277   3.961  -0.203  0.00  0.00     0.003 A 
ATOM      5  C4  UNL d   1       0.930   3.311   0.980  0.00  0.00    -0.005 A 
ATOM      6  C5  UNL d   1       0.585   1.962   0.954  0.00  0.00     0.003 A 
ATOM      7  C6  UNL d   1       0.586   1.262  -0.254  0.00  0.00    -0.001 A 
ENDROOT
TORSDOF 0
ENDMDL
