MODEL 1
REMARK minimizedAffinity 1.85984433
REMARK minimizedRMSD -1
REMARK  0 active torsions:
REMARK  status: ('A' for Active; 'I' for Inactive)
ROOT
ATOM      1  C   UNL d   1       1.493   3.826  -1.885  0.00  0.00     0.078 C 
ATOM      2  C1  UNL d   1       1.298   2.534  -1.149  0.00  0.00    -0.077 A 
ATOM      3  C2  UNL d   1       1.331   2.489   0.250  0.00  0.00    -0.001 A 
ATOM      4  C3  UNL d   1       1.158   1.278   0.921  0.00  0.00     0.003 A 
ATOM      5  C4  UNL d   1       0.951   0.102   0.202  0.00  0.00    -0.005 A 
ATOM      6  C5  UNL d   1       0.918   0.137  -1.191  0.00  0.00     0.003 A 
ATOM      7  C6  UNL d   1       1.092   1.348  -1.864  0.00  0.00    -0.001 A 
ENDROOT
TORSDOF 0
ENDMDL
