MODEL 1
REMARK minimizedAffinity -3.33897734
REMARK minimizedRMSD -1
REMARK  0 active torsions:
REMARK  status: ('A' for Active; 'I' for Inactive)
ROOT
ATOM      1  C   UNL d   1       1.773   5.231  -0.955  0.00  0.00     0.078 C 
ATOM      2  C1  UNL d   1       1.432   3.779  -0.797  0.00  0.00    -0.077 A 
ATOM      3  C2  UNL d   1       1.177   3.232   0.466  0.00  0.00    -0.001 A 
ATOM      4  C3  UNL d   1       0.870   1.877   0.600  0.00  0.00     0.003 A 
ATOM      5  C4  UNL d   1       0.817   1.057  -0.526  0.00  0.00    -0.005 A 
ATOM      6  C5  UNL d   1       1.071   1.593  -1.787  0.00  0.00     0.003 A 
ATOM      7  C6  UNL d   1       1.378   2.947  -1.923  0.00  0.00    -0.001 A 
ENDROOT
TORSDOF 0
ENDMDL
