MODEL 1
REMARK minimizedAffinity -2.55505538
REMARK minimizedRMSD -1
REMARK  0 active torsions:
REMARK  status: ('A' for Active; 'I' for Inactive)
ROOT
ATOM      1  C   UNL d   1       1.277  -0.903  -0.785  0.00  0.00     0.078 C 
ATOM      2  C1  UNL d   1       1.260   0.576  -0.537  0.00  0.00    -0.077 A 
ATOM      3  C2  UNL d   1       1.645   1.479  -1.536  0.00  0.00    -0.001 A 
ATOM      4  C3  UNL d   1       1.634   2.853  -1.288  0.00  0.00     0.003 A 
ATOM      5  C4  UNL d   1       1.239   3.336  -0.042  0.00  0.00    -0.005 A 
ATOM      6  C5  UNL d   1       0.855   2.445   0.958  0.00  0.00     0.003 A 
ATOM      7  C6  UNL d   1       0.866   1.071   0.712  0.00  0.00    -0.001 A 
ENDROOT
TORSDOF 0
ENDMDL
