MODEL 1
REMARK minimizedAffinity -4.42501354
REMARK minimizedRMSD -1
REMARK  0 active torsions:
REMARK  status: ('A' for Active; 'I' for Inactive)
ROOT
ATOM      1  C   UNL d   1       1.772   3.785  -1.802  0.00  0.00     0.078 C 
ATOM      2  C1  UNL d   1       1.525   2.400  -1.283  0.00  0.00    -0.077 A 
ATOM      3  C2  UNL d   1       1.286   2.171   0.077  0.00  0.00    -0.001 A 
ATOM      4  C3  UNL d   1       1.067   0.876   0.548  0.00  0.00     0.003 A 
ATOM      5  C4  UNL d   1       1.085  -0.202  -0.335  0.00  0.00    -0.005 A 
ATOM      6  C5  UNL d   1       1.324   0.015  -1.691  0.00  0.00     0.003 A 
ATOM      7  C6  UNL d   1       1.544   1.310  -2.163  0.00  0.00    -0.001 A 
ENDROOT
TORSDOF 0
ENDMDL
