MODEL 1
REMARK minimizedAffinity -1.42123866
REMARK minimizedRMSD -1
REMARK  0 active torsions:
REMARK  status: ('A' for Active; 'I' for Inactive)
ROOT
ATOM      1  C   UNL d   1       2.104   5.855  -1.147  0.00  0.00     0.078 C 
ATOM      2  C1  UNL d   1       1.834   4.404  -0.882  0.00  0.00    -0.077 A 
ATOM      3  C2  UNL d   1       1.657   3.929   0.423  0.00  0.00    -0.001 A 
ATOM      4  C3  UNL d   1       1.416   2.574   0.655  0.00  0.00     0.003 A 
ATOM      5  C4  UNL d   1       1.351   1.682  -0.413  0.00  0.00    -0.005 A 
ATOM      6  C5  UNL d   1       1.528   2.144  -1.716  0.00  0.00     0.003 A 
ATOM      7  C6  UNL d   1       1.770   3.499  -1.950  0.00  0.00    -0.001 A 
ENDROOT
TORSDOF 0
ENDMDL
