MODEL 1
REMARK minimizedAffinity -2.43603277
REMARK minimizedRMSD -1
REMARK  0 active torsions:
REMARK  status: ('A' for Active; 'I' for Inactive)
ROOT
ATOM      1  C   UNL d   1       1.981   4.804  -1.323  0.00  0.00     0.078 C 
ATOM      2  C1  UNL d   1       1.511   3.386  -1.196  0.00  0.00    -0.077 A 
ATOM      3  C2  UNL d   1       1.035   2.682  -2.309  0.00  0.00    -0.001 A 
ATOM      4  C3  UNL d   1       0.591   1.365  -2.174  0.00  0.00     0.003 A 
ATOM      5  C4  UNL d   1       0.618   0.742  -0.928  0.00  0.00    -0.005 A 
ATOM      6  C5  UNL d   1       1.088   1.436   0.185  0.00  0.00     0.003 A 
ATOM      7  C6  UNL d   1       1.532   2.752   0.053  0.00  0.00    -0.001 A 
ENDROOT
TORSDOF 0
ENDMDL
