MODEL 1
REMARK minimizedAffinity -3.72229695
REMARK minimizedRMSD -1
REMARK  0 active torsions:
REMARK  status: ('A' for Active; 'I' for Inactive)
ROOT
ATOM      1  C   UNL d   1       1.859   5.225  -1.134  0.00  0.00     0.078 C 
ATOM      2  C1  UNL d   1       1.521   3.770  -0.995  0.00  0.00    -0.077 A 
ATOM      3  C2  UNL d   1       1.240   3.212   0.258  0.00  0.00    -0.001 A 
ATOM      4  C3  UNL d   1       0.937   1.854   0.374  0.00  0.00     0.003 A 
ATOM      5  C4  UNL d   1       0.914   1.043  -0.759  0.00  0.00    -0.005 A 
ATOM      6  C5  UNL d   1       1.194   1.590  -2.010  0.00  0.00     0.003 A 
ATOM      7  C6  UNL d   1       1.498   2.947  -2.128  0.00  0.00    -0.001 A 
ENDROOT
TORSDOF 0
ENDMDL
