MODEL 1
REMARK minimizedAffinity -2.47700596
REMARK minimizedRMSD -1
REMARK  0 active torsions:
REMARK  status: ('A' for Active; 'I' for Inactive)
ROOT
ATOM      1  C   UNL d   1       2.497   3.785  -1.582  0.00  0.00     0.078 C 
ATOM      2  C1  UNL d   1       1.981   2.518  -0.969  0.00  0.00    -0.077 A 
ATOM      3  C2  UNL d   1       1.526   1.463  -1.770  0.00  0.00    -0.001 A 
ATOM      4  C3  UNL d   1       1.038   0.293  -1.186  0.00  0.00     0.003 A 
ATOM      5  C4  UNL d   1       1.000   0.167   0.201  0.00  0.00    -0.005 A 
ATOM      6  C5  UNL d   1       1.449   1.212   1.006  0.00  0.00     0.003 A 
ATOM      7  C6  UNL d   1       1.936   2.383   0.424  0.00  0.00    -0.001 A 
ENDROOT
TORSDOF 0
ENDMDL
