MODEL 1
REMARK minimizedAffinity -5.30092859
REMARK minimizedRMSD -1
REMARK  0 active torsions:
REMARK  status: ('A' for Active; 'I' for Inactive)
ROOT
ATOM      1  C   UNL d   1       1.930  -1.196  -0.805  0.00  0.00     0.078 C 
ATOM      2  C1  UNL d   1       1.516   0.239  -0.676  0.00  0.00    -0.077 A 
ATOM      3  C2  UNL d   1       1.672   1.134  -1.742  0.00  0.00    -0.001 A 
ATOM      4  C3  UNL d   1       1.291   2.469  -1.604  0.00  0.00     0.003 A 
ATOM      5  C4  UNL d   1       0.751   2.922  -0.402  0.00  0.00    -0.005 A 
ATOM      6  C5  UNL d   1       0.594   2.040   0.665  0.00  0.00     0.003 A 
ATOM      7  C6  UNL d   1       0.975   0.704   0.529  0.00  0.00    -0.001 A 
ENDROOT
TORSDOF 0
ENDMDL
