MODEL 1
REMARK minimizedAffinity -5.71500492
REMARK minimizedRMSD -1
REMARK  0 active torsions:
REMARK  status: ('A' for Active; 'I' for Inactive)
ROOT
ATOM      1  C   UNL d   1       1.387  -0.693  -1.374  0.00  0.00     0.078 C 
ATOM      2  C1  UNL d   1       1.234   0.669  -0.765  0.00  0.00    -0.077 A 
ATOM      3  C2  UNL d   1       1.447   1.826  -1.524  0.00  0.00    -0.001 A 
ATOM      4  C3  UNL d   1       1.311   3.087  -0.941  0.00  0.00     0.003 A 
ATOM      5  C4  UNL d   1       0.963   3.203   0.403  0.00  0.00    -0.005 A 
ATOM      6  C5  UNL d   1       0.752   2.057   1.167  0.00  0.00     0.003 A 
ATOM      7  C6  UNL d   1       0.887   0.796   0.586  0.00  0.00    -0.001 A 
ENDROOT
TORSDOF 0
ENDMDL
