MODEL 1
REMARK minimizedAffinity -3.58321381
REMARK minimizedRMSD -1
REMARK  0 active torsions:
REMARK  status: ('A' for Active; 'I' for Inactive)
ROOT
ATOM      1  C   UNL d   1      -0.008  -0.340  -1.001  0.00  0.00     0.172 C 
ATOM      2  N   UNL d   1      -0.191  -0.349   0.432  0.00  0.00    -0.070 N 
ATOM      3  C1  UNL d   1       0.772  -0.061   1.361  0.00  0.00    -0.004 A 
ATOM      4  C2  UNL d   1       0.202  -0.179   2.610  0.00  0.00    -0.047 A 
ATOM      5  C3  UNL d   1      -1.150  -0.552   2.425  0.00  0.00    -0.047 A 
ATOM      6  C4  UNL d   1      -1.367  -0.650   1.067  0.00  0.00    -0.004 A 
ENDROOT
TORSDOF 0
ENDMDL
