MODEL 1
REMARK minimizedAffinity -2.07523298
REMARK minimizedRMSD -1
REMARK  0 active torsions:
REMARK  status: ('A' for Active; 'I' for Inactive)
ROOT
ATOM      1  C   UNL d   1       0.198  -0.658  -0.397  0.00  0.00     0.172 C 
ATOM      2  N   UNL d   1       0.146  -0.332   1.008  0.00  0.00    -0.070 N 
ATOM      3  C1  UNL d   1      -0.893  -0.612   1.855  0.00  0.00    -0.004 A 
ATOM      4  C2  UNL d   1      -0.557  -0.142   3.106  0.00  0.00    -0.047 A 
ATOM      5  C3  UNL d   1       0.729   0.441   3.008  0.00  0.00    -0.047 A 
ATOM      6  C4  UNL d   1       1.140   0.309   1.698  0.00  0.00    -0.004 A 
ENDROOT
TORSDOF 0
ENDMDL
