MODEL 1
REMARK minimizedAffinity -3.35557008
REMARK minimizedRMSD -1
REMARK  0 active torsions:
REMARK  status: ('A' for Active; 'I' for Inactive)
ROOT
ATOM      1  C   UNL d   1       1.092  -1.345  -3.679  0.00  0.00     0.172 C 
ATOM      2  N   UNL d   1       0.729  -0.796  -2.393  0.00  0.00    -0.070 N 
ATOM      3  C1  UNL d   1       0.600   0.535  -2.101  0.00  0.00    -0.004 A 
ATOM      4  C2  UNL d   1       0.243   0.644  -0.774  0.00  0.00    -0.047 A 
ATOM      5  C3  UNL d   1       0.155  -0.668  -0.251  0.00  0.00    -0.047 A 
ATOM      6  C4  UNL d   1       0.461  -1.540  -1.274  0.00  0.00    -0.004 A 
ENDROOT
TORSDOF 0
ENDMDL
