MODEL 1
REMARK minimizedAffinity -1.85397649
REMARK minimizedRMSD -1
REMARK  0 active torsions:
REMARK  status: ('A' for Active; 'I' for Inactive)
ROOT
ATOM      1  C   UNL d   1       0.040  -0.085   0.012  0.00  0.00     0.172 C 
ATOM      2  N   UNL d   1       0.457  -0.701  -1.226  0.00  0.00    -0.070 N 
ATOM      3  C1  UNL d   1       0.754  -2.026  -1.399  0.00  0.00    -0.004 A 
ATOM      4  C2  UNL d   1       1.108  -2.212  -2.718  0.00  0.00    -0.047 A 
ATOM      5  C3  UNL d   1       1.021  -0.954  -3.360  0.00  0.00    -0.047 A 
ATOM      6  C4  UNL d   1       0.616  -0.036  -2.414  0.00  0.00    -0.004 A 
ENDROOT
TORSDOF 0
ENDMDL
