MODEL 1
REMARK minimizedAffinity -2.27163124
REMARK minimizedRMSD -1
REMARK  0 active torsions:
REMARK  status: ('A' for Active; 'I' for Inactive)
ROOT
ATOM      1  C   UNL d   1      -0.080   0.285   3.076  0.00  0.00     0.172 C 
ATOM      2  N   UNL d   1       0.035   0.018   1.662  0.00  0.00    -0.070 N 
ATOM      3  C1  UNL d   1       1.122  -0.534   1.039  0.00  0.00    -0.004 A 
ATOM      4  C2  UNL d   1       0.838  -0.624  -0.306  0.00  0.00    -0.047 A 
ATOM      5  C3  UNL d   1      -0.466  -0.107  -0.499  0.00  0.00    -0.047 A 
ATOM      6  C4  UNL d   1      -0.939   0.283   0.736  0.00  0.00    -0.004 A 
ENDROOT
TORSDOF 0
ENDMDL
