MODEL 1
REMARK minimizedAffinity -2.329844
REMARK minimizedRMSD -1
REMARK  0 active torsions:
REMARK  status: ('A' for Active; 'I' for Inactive)
ROOT
ATOM      1  C   UNL d   1       0.345  -0.268  -0.694  0.00  0.00     0.172 C 
ATOM      2  N   UNL d   1       0.122  -0.190   0.731  0.00  0.00    -0.070 N 
ATOM      3  C1  UNL d   1      -1.073   0.092   1.338  0.00  0.00    -0.004 A 
ATOM      4  C2  UNL d   1      -0.869   0.071   2.701  0.00  0.00    -0.047 A 
ATOM      5  C3  UNL d   1       0.495  -0.233   2.921  0.00  0.00    -0.047 A 
ATOM      6  C4  UNL d   1       1.085  -0.390   1.684  0.00  0.00    -0.004 A 
ENDROOT
TORSDOF 0
ENDMDL
