MODEL 1
REMARK minimizedAffinity -2.46472764
REMARK minimizedRMSD -1
REMARK  0 active torsions:
REMARK  status: ('A' for Active; 'I' for Inactive)
ROOT
ATOM      1  C   UNL d   1      -1.349  -0.187   2.044  0.00  0.00     0.172 C 
ATOM      2  N   UNL d   1      -0.227  -0.030   1.149  0.00  0.00    -0.070 N 
ATOM      3  C1  UNL d   1       1.065   0.224   1.524  0.00  0.00    -0.004 A 
ATOM      4  C2  UNL d   1       1.829   0.302   0.381  0.00  0.00    -0.047 A 
ATOM      5  C3  UNL d   1       0.967   0.088  -0.721  0.00  0.00    -0.047 A 
ATOM      6  C4  UNL d   1      -0.300  -0.115  -0.217  0.00  0.00    -0.004 A 
ENDROOT
TORSDOF 0
ENDMDL
