MODEL 1
REMARK minimizedAffinity -3.0921886
REMARK minimizedRMSD -1
REMARK  0 active torsions:
REMARK  status: ('A' for Active; 'I' for Inactive)
ROOT
ATOM      1  C   UNL d   1      -0.195   0.353  -0.834  0.00  0.00     0.172 C 
ATOM      2  N   UNL d   1      -0.237  -0.183   0.507  0.00  0.00    -0.070 N 
ATOM      3  C1  UNL d   1       0.584   0.183   1.539  0.00  0.00    -0.004 A 
ATOM      4  C2  UNL d   1       0.226  -0.555   2.646  0.00  0.00    -0.047 A 
ATOM      5  C3  UNL d   1      -0.847  -1.395   2.265  0.00  0.00    -0.047 A 
ATOM      6  C4  UNL d   1      -1.114  -1.144   0.936  0.00  0.00    -0.004 A 
ENDROOT
TORSDOF 0
ENDMDL
