MODEL 1
REMARK minimizedAffinity -2.58463669
REMARK minimizedRMSD -1
REMARK  0 active torsions:
REMARK  status: ('A' for Active; 'I' for Inactive)
ROOT
ATOM      1  C   UNL d   1      -0.009   0.114   3.088  0.00  0.00     0.172 C 
ATOM      2  N   UNL d   1       0.057   0.017   1.649  0.00  0.00    -0.070 N 
ATOM      3  C1  UNL d   1      -1.015   0.051   0.797  0.00  0.00    -0.004 A 
ATOM      4  C2  UNL d   1      -0.535  -0.070  -0.489  0.00  0.00    -0.047 A 
ATOM      5  C3  UNL d   1       0.874  -0.182  -0.407  0.00  0.00    -0.047 A 
ATOM      6  C4  UNL d   1       1.213  -0.125   0.928  0.00  0.00    -0.004 A 
ENDROOT
TORSDOF 0
ENDMDL
