MODEL 1
REMARK minimizedAffinity -3.59798265
REMARK minimizedRMSD -1
REMARK  0 active torsions:
REMARK  status: ('A' for Active; 'I' for Inactive)
ROOT
ATOM      1  C   UNL d   1      -0.120   0.170  -1.123  0.00  0.00     0.172 C 
ATOM      2  N   UNL d   1      -0.123   0.106   0.319  0.00  0.00    -0.070 N 
ATOM      3  C1  UNL d   1      -1.005  -0.609   1.085  0.00  0.00    -0.004 A 
ATOM      4  C2  UNL d   1      -0.674  -0.410   2.408  0.00  0.00    -0.047 A 
ATOM      5  C3  UNL d   1       0.445   0.455   2.438  0.00  0.00    -0.047 A 
ATOM      6  C4  UNL d   1       0.765   0.759   1.132  0.00  0.00    -0.004 A 
ENDROOT
TORSDOF 0
ENDMDL
