MODEL 1
REMARK minimizedAffinity -3.25677443
REMARK minimizedRMSD -1
REMARK  0 active torsions:
REMARK  status: ('A' for Active; 'I' for Inactive)
ROOT
ATOM      1  C   UNL d   1       0.381   0.086  -0.051  0.00  0.00     0.172 C 
ATOM      2  N   UNL d   1      -0.560  -0.062   1.034  0.00  0.00    -0.070 N 
ATOM      3  C1  UNL d   1      -0.254  -0.465   2.307  0.00  0.00    -0.004 A 
ATOM      4  C2  UNL d   1      -1.422  -0.478   3.038  0.00  0.00    -0.047 A 
ATOM      5  C3  UNL d   1      -2.467  -0.069   2.175  0.00  0.00    -0.047 A 
ATOM      6  C4  UNL d   1      -1.905   0.181   0.941  0.00  0.00    -0.004 A 
ENDROOT
TORSDOF 0
ENDMDL
