MODEL 1
REMARK minimizedAffinity -3.21492052
REMARK minimizedRMSD -1
REMARK  0 active torsions:
REMARK  status: ('A' for Active; 'I' for Inactive)
ROOT
ATOM      1  C   UNL d   1       0.027   0.432  -1.635  0.00  0.00     0.172 C 
ATOM      2  N   UNL d   1       0.221   0.029  -0.262  0.00  0.00    -0.070 N 
ATOM      3  C1  UNL d   1      -0.218  -1.142   0.295  0.00  0.00    -0.004 A 
ATOM      4  C2  UNL d   1       0.166  -1.149   1.619  0.00  0.00    -0.047 A 
ATOM      5  C3  UNL d   1       0.859   0.061   1.865  0.00  0.00    -0.047 A 
ATOM      6  C4  UNL d   1       0.878   0.771   0.684  0.00  0.00    -0.004 A 
ENDROOT
TORSDOF 0
ENDMDL
