MODEL 1
REMARK minimizedAffinity -2.87565923
REMARK minimizedRMSD -1
REMARK  0 active torsions:
REMARK  status: ('A' for Active; 'I' for Inactive)
ROOT
ATOM      1  C   UNL d   1       0.440   0.256   2.677  0.00  0.00     0.172 C 
ATOM      2  N   UNL d   1       0.430   0.039   1.249  0.00  0.00    -0.070 N 
ATOM      3  C1  UNL d   1       1.252   0.654   0.343  0.00  0.00    -0.004 A 
ATOM      4  C2  UNL d   1       0.931   0.178  -0.910  0.00  0.00    -0.047 A 
ATOM      5  C3  UNL d   1      -0.122  -0.755  -0.751  0.00  0.00    -0.047 A 
ATOM      6  C4  UNL d   1      -0.412  -0.821   0.596  0.00  0.00    -0.004 A 
ENDROOT
TORSDOF 0
ENDMDL
