MODEL 1
REMARK minimizedAffinity -3.013942
REMARK minimizedRMSD -1
REMARK  0 active torsions:
REMARK  status: ('A' for Active; 'I' for Inactive)
ROOT
ATOM      1  C   UNL d   1       0.571  -1.829  -3.128  0.00  0.00     0.172 C 
ATOM      2  N   UNL d   1       0.449  -1.113  -1.879  0.00  0.00    -0.070 N 
ATOM      3  C1  UNL d   1       0.313   0.243  -1.747  0.00  0.00    -0.004 A 
ATOM      4  C2  UNL d   1       0.227   0.529  -0.401  0.00  0.00    -0.047 A 
ATOM      5  C3  UNL d   1       0.316  -0.697   0.299  0.00  0.00    -0.047 A 
ATOM      6  C4  UNL d   1       0.453  -1.698  -0.641  0.00  0.00    -0.004 A 
ENDROOT
TORSDOF 0
ENDMDL
