MODEL 1
REMARK minimizedAffinity -3.27941132
REMARK minimizedRMSD -1
REMARK  0 active torsions:
REMARK  status: ('A' for Active; 'I' for Inactive)
ROOT
ATOM      1  C   UNL d   1       0.593  -0.098  -1.427  0.00  0.00     0.172 C 
ATOM      2  N   UNL d   1       0.357  -0.045  -0.004  0.00  0.00    -0.070 N 
ATOM      3  C1  UNL d   1      -0.775   0.436   0.600  0.00  0.00    -0.004 A 
ATOM      4  C2  UNL d   1      -0.611   0.313   1.963  0.00  0.00    -0.047 A 
ATOM      5  C3  UNL d   1       0.664  -0.260   2.186  0.00  0.00    -0.047 A 
ATOM      6  C4  UNL d   1       1.241  -0.472   0.952  0.00  0.00    -0.004 A 
ENDROOT
TORSDOF 0
ENDMDL
