MODEL 1
REMARK minimizedAffinity -1.92413712
REMARK minimizedRMSD -1
REMARK  0 active torsions:
REMARK  status: ('A' for Active; 'I' for Inactive)
ROOT
ATOM      1  C   UNL d   1       0.080   0.895  -1.164  0.00  0.00     0.172 C 
ATOM      2  N   UNL d   1       0.226   0.277   0.133  0.00  0.00    -0.070 N 
ATOM      3  C1  UNL d   1       0.185  -1.068   0.386  0.00  0.00    -0.004 A 
ATOM      4  C2  UNL d   1       0.364  -1.248   1.741  0.00  0.00    -0.047 A 
ATOM      5  C3  UNL d   1       0.518   0.033   2.322  0.00  0.00    -0.047 A 
ATOM      6  C4  UNL d   1       0.428   0.959   1.304  0.00  0.00    -0.004 A 
ENDROOT
TORSDOF 0
ENDMDL
