MODEL 1
REMARK minimizedAffinity -1.79969597
REMARK minimizedRMSD -1
REMARK  0 active torsions:
REMARK  status: ('A' for Active; 'I' for Inactive)
ROOT
ATOM      1  C   UNL d   1       0.962  -1.325  -3.544  0.00  0.00     0.172 C 
ATOM      2  N   UNL d   1       0.748  -0.873  -2.189  0.00  0.00    -0.070 N 
ATOM      3  C1  UNL d   1       0.524  -1.678  -1.104  0.00  0.00    -0.004 A 
ATOM      4  C2  UNL d   1       0.370  -0.866  -0.001  0.00  0.00    -0.047 A 
ATOM      5  C3  UNL d   1       0.504   0.473  -0.438  0.00  0.00    -0.047 A 
ATOM      6  C4  UNL d   1       0.737   0.440  -1.797  0.00  0.00    -0.004 A 
ENDROOT
TORSDOF 0
ENDMDL
