MODEL 1
REMARK minimizedAffinity -2.20539188
REMARK minimizedRMSD -1
REMARK  0 active torsions:
REMARK  status: ('A' for Active; 'I' for Inactive)
ROOT
ATOM      1  C   UNL d   1      -0.045   0.105  -1.351  0.00  0.00     0.172 C 
ATOM      2  N   UNL d   1      -0.342   0.039   0.061  0.00  0.00    -0.070 N 
ATOM      3  C1  UNL d   1      -1.589   0.134   0.619  0.00  0.00    -0.004 A 
ATOM      4  C2  UNL d   1      -1.449   0.025   1.986  0.00  0.00    -0.047 A 
ATOM      5  C3  UNL d   1      -0.071  -0.141   2.258  0.00  0.00    -0.047 A 
ATOM      6  C4  UNL d   1       0.592  -0.128   1.049  0.00  0.00    -0.004 A 
ENDROOT
TORSDOF 0
ENDMDL
