MODEL 1
REMARK minimizedAffinity 5.76034832
REMARK minimizedRMSD -1
REMARK  3 active torsions:
REMARK  status: ('A' for Active; 'I' for Inactive)
REMARK    1  A    between atoms: C3'_2  and  C2'_3 
REMARK    2  A    between atoms: C2'_3  and  C1'_4 
REMARK    3  A    between atoms: C1'_4  and  C1_5 
ROOT
ATOM      1  C1  N4B d   1       1.207  -2.403  -1.291  0.00  0.00    -0.075 A 
ATOM      2  C2  N4B d   1       1.509  -1.229  -0.566  0.00  0.00     0.002 A 
ATOM      3  C3  N4B d   1       0.542  -0.272  -0.377  0.00  0.00     0.002 A 
ATOM      4  C4  N4B d   1      -0.722  -0.457  -0.917  0.00  0.00    -0.004 A 
ATOM      5  C5  N4B d   1      -1.012  -1.605  -1.594  0.00  0.00     0.002 A 
ATOM      6  C6  N4B d   1      -0.052  -2.578  -1.789  0.00  0.00     0.002 A 
ENDROOT
BRANCH   1   7
ATOM      7  C1' N4B d   1       2.255  -3.438  -1.597  0.00  0.00     0.057 C 
BRANCH   7   8
ATOM      8  C2' N4B d   1       3.637  -2.832  -1.378  0.00  0.00     0.009 C 
BRANCH   8   9
ATOM      9  C3' N4B d   1       4.253  -2.336  -2.675  0.00  0.00     0.004 C 
ATOM     10  C4' N4B d   1       4.951  -1.018  -2.520  0.00  0.00     0.003 C 
ENDBRANCH   8   9
ENDBRANCH   7   8
ENDBRANCH   1   7
TORSDOF 3
ENDMDL
