MODEL 1
REMARK minimizedAffinity 16.9713478
REMARK minimizedRMSD -1
REMARK  3 active torsions:
REMARK  status: ('A' for Active; 'I' for Inactive)
REMARK    1  A    between atoms: C3'_2  and  C2'_3 
REMARK    2  A    between atoms: C2'_3  and  C1'_4 
REMARK    3  A    between atoms: C1'_4  and  C1_5 
ROOT
ATOM      1  C1  N4B d   1       0.221  -2.604  -2.005  0.00  0.00    -0.075 A 
ATOM      2  C2  N4B d   1      -0.370  -2.909  -0.759  0.00  0.00     0.002 A 
ATOM      3  C3  N4B d   1       0.420  -3.279   0.302  0.00  0.00     0.002 A 
ATOM      4  C4  N4B d   1       1.794  -3.369   0.136  0.00  0.00    -0.004 A 
ATOM      5  C5  N4B d   1       2.358  -3.048  -1.063  0.00  0.00     0.002 A 
ATOM      6  C6  N4B d   1       1.577  -2.671  -2.137  0.00  0.00     0.002 A 
ENDROOT
BRANCH   1   7
ATOM      7  C1' N4B d   1      -0.608  -2.277  -3.217  0.00  0.00     0.057 C 
BRANCH   7   8
ATOM      8  C2' N4B d   1      -0.461  -3.399  -4.241  0.00  0.00     0.009 C 
BRANCH   8   9
ATOM      9  C3' N4B d   1      -1.789  -3.759  -4.884  0.00  0.00     0.004 C 
ATOM     10  C4' N4B d   1      -2.070  -5.232  -4.852  0.00  0.00     0.003 C 
ENDBRANCH   8   9
ENDBRANCH   7   8
ENDBRANCH   1   7
TORSDOF 3
ENDMDL
