MODEL 1
REMARK minimizedAffinity -0.761635721
REMARK minimizedRMSD -1
REMARK  1 active torsions:
REMARK  status: ('A' for Active; 'I' for Inactive)
REMARK    1  A    between atoms: C1_2  and  C2_3 
ROOT
ATOM      1  C2  UNL d   1       2.021   0.817  -0.052  0.00  0.00    -0.077 A 
ATOM      2  C3  UNL d   1       1.689  -0.264   0.777  0.00  0.00     0.002 A 
ATOM      3  C4  UNL d   1       2.164  -1.545   0.491  0.00  0.00     0.002 A 
ATOM      4  C5  UNL d   1       2.976  -1.757  -0.622  0.00  0.00    -0.004 A 
ATOM      5  C6  UNL d   1       3.310  -0.688  -1.453  0.00  0.00     0.002 A 
ATOM      6  C7  UNL d   1       2.836   0.593  -1.169  0.00  0.00     0.002 A 
ENDROOT
BRANCH   1   7
ATOM      7  C1  UNL d   1       1.551   2.209   0.283  0.00  0.00     0.055 C 
ATOM      8  C   UNL d   1       1.217   2.997  -0.974  0.00  0.00     0.019 C 
ENDBRANCH   1   7
TORSDOF 1
ENDMDL
