MODEL 1
REMARK minimizedAffinity 1.1742357
REMARK minimizedRMSD -1
REMARK  1 active torsions:
REMARK  status: ('A' for Active; 'I' for Inactive)
REMARK    1  A    between atoms: C1_2  and  C2_3 
ROOT
ATOM      1  C2  UNL d   1      -3.422  -4.030   1.852  0.00  0.00    -0.077 A 
ATOM      2  C3  UNL d   1      -3.476  -4.046   3.253  0.00  0.00     0.002 A 
ATOM      3  C4  UNL d   1      -4.212  -5.026   3.920  0.00  0.00     0.002 A 
ATOM      4  C5  UNL d   1      -4.897  -6.000   3.196  0.00  0.00    -0.004 A 
ATOM      5  C6  UNL d   1      -4.851  -5.992   1.802  0.00  0.00     0.002 A 
ATOM      6  C7  UNL d   1      -4.116  -5.012   1.133  0.00  0.00     0.002 A 
ENDROOT
BRANCH   1   7
ATOM      7  C1  UNL d   1      -2.588  -3.003   1.132  0.00  0.00     0.055 C 
ATOM      8  C   UNL d   1      -2.614  -1.664   1.853  0.00  0.00     0.019 C 
ENDBRANCH   1   7
TORSDOF 1
ENDMDL
