MODEL 1
REMARK minimizedAffinity 0.857021451
REMARK minimizedRMSD -1
REMARK  1 active torsions:
REMARK  status: ('A' for Active; 'I' for Inactive)
REMARK    1  A    between atoms: C1_2  and  C2_3 
ROOT
ATOM      1  C2  UNL d   1       0.099  -0.646   1.487  0.00  0.00    -0.077 A 
ATOM      2  C3  UNL d   1      -0.051   0.636   0.939  0.00  0.00     0.002 A 
ATOM      3  C4  UNL d   1      -1.257   1.325   1.074  0.00  0.00     0.002 A 
ATOM      4  C5  UNL d   1      -2.321   0.743   1.761  0.00  0.00    -0.004 A 
ATOM      5  C6  UNL d   1      -2.182  -0.531   2.308  0.00  0.00     0.002 A 
ATOM      6  C7  UNL d   1      -0.978  -1.223   2.173  0.00  0.00     0.002 A 
ENDROOT
BRANCH   1   7
ATOM      7  C1  UNL d   1       1.416  -1.371   1.384  0.00  0.00     0.055 C 
ATOM      8  C   UNL d   1       2.022  -1.223  -0.003  0.00  0.00     0.019 C 
ENDBRANCH   1   7
TORSDOF 1
ENDMDL
