MODEL 1
REMARK minimizedAffinity 5.10075712
REMARK minimizedRMSD -1
REMARK  1 active torsions:
REMARK  status: ('A' for Active; 'I' for Inactive)
REMARK    1  A    between atoms: C1_2  and  C2_3 
ROOT
ATOM      1  C2  UNL d   1      -3.796   0.764  -0.894  0.00  0.00    -0.077 A 
ATOM      2  C3  UNL d   1      -3.398   1.184   0.383  0.00  0.00     0.002 A 
ATOM      3  C4  UNL d   1      -3.029   0.248   1.351  0.00  0.00     0.002 A 
ATOM      4  C5  UNL d   1      -3.050  -1.112   1.051  0.00  0.00    -0.004 A 
ATOM      5  C6  UNL d   1      -3.445  -1.540  -0.216  0.00  0.00     0.002 A 
ATOM      6  C7  UNL d   1      -3.816  -0.606  -1.184  0.00  0.00     0.002 A 
ENDROOT
BRANCH   1   7
ATOM      7  C1  UNL d   1      -4.147   1.774  -1.955  0.00  0.00     0.055 C 
ATOM      8  C   UNL d   1      -3.076   1.839  -3.034  0.00  0.00     0.019 C 
ENDBRANCH   1   7
TORSDOF 1
ENDMDL
