MODEL 1
REMARK minimizedAffinity 2.51443338
REMARK minimizedRMSD -1
REMARK  1 active torsions:
REMARK  status: ('A' for Active; 'I' for Inactive)
REMARK    1  A    between atoms: C1_2  and  C2_3 
ROOT
ATOM      1  C2  UNL d   1      -3.099   2.138  -2.880  0.00  0.00    -0.077 A 
ATOM      2  C3  UNL d   1      -4.259   2.597  -2.240  0.00  0.00     0.002 A 
ATOM      3  C4  UNL d   1      -4.777   1.911  -1.140  0.00  0.00     0.002 A 
ATOM      4  C5  UNL d   1      -4.141   0.765  -0.668  0.00  0.00    -0.004 A 
ATOM      5  C6  UNL d   1      -2.988   0.299  -1.299  0.00  0.00     0.002 A 
ATOM      6  C7  UNL d   1      -2.469   0.983  -2.399  0.00  0.00     0.002 A 
ENDROOT
BRANCH   1   7
ATOM      7  C1  UNL d   1      -2.510   2.904  -4.035  0.00  0.00     0.055 C 
ATOM      8  C   UNL d   1      -1.138   3.463  -3.687  0.00  0.00     0.019 C 
ENDBRANCH   1   7
TORSDOF 1
ENDMDL
