MODEL 1
REMARK minimizedAffinity -0.944521666
REMARK minimizedRMSD -1
REMARK  1 active torsions:
REMARK  status: ('A' for Active; 'I' for Inactive)
REMARK    1  A    between atoms: C1_2  and  C2_3 
ROOT
ATOM      1  C2  UNL d   1       2.968  -1.325   0.998  0.00  0.00    -0.077 A 
ATOM      2  C3  UNL d   1       2.901  -0.101   0.318  0.00  0.00     0.002 A 
ATOM      3  C4  UNL d   1       2.322  -0.028  -0.950  0.00  0.00     0.002 A 
ATOM      4  C5  UNL d   1       1.801  -1.175  -1.547  0.00  0.00    -0.004 A 
ATOM      5  C6  UNL d   1       1.865  -2.397  -0.880  0.00  0.00     0.002 A 
ATOM      6  C7  UNL d   1       2.444  -2.472   0.387  0.00  0.00     0.002 A 
ENDROOT
BRANCH   1   7
ATOM      7  C1  UNL d   1       3.548  -1.397   2.386  0.00  0.00     0.055 C 
ATOM      8  C   UNL d   1       4.938  -0.779   2.438  0.00  0.00     0.019 C 
ENDBRANCH   1   7
TORSDOF 1
ENDMDL
