MODEL 1
REMARK minimizedAffinity 7.70161486
REMARK minimizedRMSD -1
REMARK  1 active torsions:
REMARK  status: ('A' for Active; 'I' for Inactive)
REMARK    1  A    between atoms: C1_2  and  C2_3 
ROOT
ATOM      1  C2  UNL d   1       1.390   0.744   0.334  0.00  0.00    -0.077 A 
ATOM      2  C3  UNL d   1       1.710  -0.586   0.026  0.00  0.00     0.002 A 
ATOM      3  C4  UNL d   1       2.922  -0.896  -0.594  0.00  0.00     0.002 A 
ATOM      4  C5  UNL d   1       3.825   0.118  -0.907  0.00  0.00    -0.004 A 
ATOM      5  C6  UNL d   1       3.516   1.443  -0.607  0.00  0.00     0.002 A 
ATOM      6  C7  UNL d   1       2.304   1.755   0.012  0.00  0.00     0.002 A 
ENDROOT
BRANCH   1   7
ATOM      7  C1  UNL d   1       0.105   1.074   1.047  0.00  0.00     0.055 C 
ATOM      8  C   UNL d   1      -0.508  -0.163   1.685  0.00  0.00     0.019 C 
ENDBRANCH   1   7
TORSDOF 1
ENDMDL
