MODEL 1
REMARK minimizedAffinity 0.930853844
REMARK minimizedRMSD -1
REMARK  1 active torsions:
REMARK  status: ('A' for Active; 'I' for Inactive)
REMARK    1  A    between atoms: C1_2  and  C2_3 
ROOT
ATOM      1  C2  UNL d   1      -4.320  -5.388  -0.378  0.00  0.00    -0.077 A 
ATOM      2  C3  UNL d   1      -4.600  -5.384   0.996  0.00  0.00     0.002 A 
ATOM      3  C4  UNL d   1      -3.720  -4.776   1.894  0.00  0.00     0.002 A 
ATOM      4  C5  UNL d   1      -2.559  -4.164   1.427  0.00  0.00    -0.004 A 
ATOM      5  C6  UNL d   1      -2.271  -4.164   0.063  0.00  0.00     0.002 A 
ATOM      6  C7  UNL d   1      -3.148  -4.772  -0.836  0.00  0.00     0.002 A 
ENDROOT
BRANCH   1   7
ATOM      7  C1  UNL d   1      -5.292  -6.000  -1.353  0.00  0.00     0.055 C 
ATOM      8  C   UNL d   1      -4.968  -5.597  -2.784  0.00  0.00     0.019 C 
ENDBRANCH   1   7
TORSDOF 1
ENDMDL
