MODEL 1
REMARK minimizedAffinity 5.73469591
REMARK minimizedRMSD -1
REMARK  1 active torsions:
REMARK  status: ('A' for Active; 'I' for Inactive)
REMARK    1  A    between atoms: C1_2  and  C2_3 
ROOT
ATOM      1  C2  UNL d   1      -0.883  -2.725   0.424  0.00  0.00    -0.077 A 
ATOM      2  C3  UNL d   1       0.301  -3.085  -0.235  0.00  0.00     0.002 A 
ATOM      3  C4  UNL d   1       1.193  -2.103  -0.672  0.00  0.00     0.002 A 
ATOM      4  C5  UNL d   1       0.912  -0.756  -0.451  0.00  0.00    -0.004 A 
ATOM      5  C6  UNL d   1      -0.264  -0.388   0.202  0.00  0.00     0.002 A 
ATOM      6  C7  UNL d   1      -1.157  -1.368   0.639  0.00  0.00     0.002 A 
ENDROOT
BRANCH   1   7
ATOM      7  C1  UNL d   1      -1.821  -3.784   0.940  0.00  0.00     0.055 C 
ATOM      8  C   UNL d   1      -2.705  -4.330  -0.173  0.00  0.00     0.019 C 
ENDBRANCH   1   7
TORSDOF 1
ENDMDL
