MODEL 1
REMARK minimizedAffinity 0.511611104
REMARK minimizedRMSD -1
REMARK  1 active torsions:
REMARK  status: ('A' for Active; 'I' for Inactive)
REMARK    1  A    between atoms: C1_2  and  C2_3 
ROOT
ATOM      1  C2  UNL d   1      -1.109  -5.624  -3.755  0.00  0.00    -0.077 A 
ATOM      2  C3  UNL d   1      -0.196  -5.239  -2.763  0.00  0.00     0.002 A 
ATOM      3  C4  UNL d   1       1.099  -4.847  -3.107  0.00  0.00     0.002 A 
ATOM      4  C5  UNL d   1       1.492  -4.833  -4.444  0.00  0.00    -0.004 A 
ATOM      5  C6  UNL d   1       0.592  -5.216  -5.438  0.00  0.00     0.002 A 
ATOM      6  C7  UNL d   1      -0.702  -5.609  -5.096  0.00  0.00     0.002 A 
ENDROOT
BRANCH   1   7
ATOM      7  C1  UNL d   1      -2.521  -6.000  -3.390  0.00  0.00     0.055 C 
ATOM      8  C   UNL d   1      -3.052  -5.127  -2.263  0.00  0.00     0.019 C 
ENDBRANCH   1   7
TORSDOF 1
ENDMDL
