MODEL 1
REMARK minimizedAffinity -0.0428771786
REMARK minimizedRMSD -1
REMARK  1 active torsions:
REMARK  status: ('A' for Active; 'I' for Inactive)
REMARK    1  A    between atoms: C1_2  and  C2_3 
ROOT
ATOM      1  C2  UNL d   1      -2.179   1.142  -1.146  0.00  0.00    -0.077 A 
ATOM      2  C3  UNL d   1      -1.729   1.731   0.044  0.00  0.00     0.002 A 
ATOM      3  C4  UNL d   1      -1.580   0.962   1.200  0.00  0.00     0.002 A 
ATOM      4  C5  UNL d   1      -1.875  -0.400   1.176  0.00  0.00    -0.004 A 
ATOM      5  C6  UNL d   1      -2.325  -0.994  -0.002  0.00  0.00     0.002 A 
ATOM      6  C7  UNL d   1      -2.476  -0.227  -1.158  0.00  0.00     0.002 A 
ENDROOT
BRANCH   1   7
ATOM      7  C1  UNL d   1      -2.294   1.959  -2.406  0.00  0.00     0.055 C 
ATOM      8  C   UNL d   1      -0.981   2.655  -2.736  0.00  0.00     0.019 C 
ENDBRANCH   1   7
TORSDOF 1
ENDMDL
