MODEL 1
REMARK minimizedAffinity 20.0154457
REMARK minimizedRMSD -1
REMARK  0 active torsions:
REMARK  status: ('A' for Active; 'I' for Inactive)
ROOT
ATOM      1  C1  DEN d   1       4.370  -2.949   2.172  0.00  0.00     0.130 A 
ATOM      2  C2  DEN d   1       5.436  -2.216   1.494  0.00  0.00    -0.031 A 
ATOM      3  C3  DEN d   1       4.831  -1.050   0.820  0.00  0.00     0.027 A 
ATOM      4  C4  DEN d   1       2.361  -0.310   0.762  0.00  0.00     0.027 A 
ATOM      5  C5  DEN d   1       1.086  -0.621   1.180  0.00  0.00    -0.003 A 
ATOM      6  C6  DEN d   1       0.814  -1.739   1.923  0.00  0.00     0.001 A 
ATOM      7  C7  DEN d   1       1.837  -2.563   2.310  0.00  0.00     0.017 A 
ATOM      8  C8  DEN d   1       3.125  -2.260   1.886  0.00  0.00    -0.094 A 
ATOM      9  C9  DEN d   1       3.381  -1.119   1.145  0.00  0.00    -0.072 A 
ENDROOT
TORSDOF 0
ENDMDL
