MODEL 1
REMARK minimizedAffinity 8.39119434
REMARK minimizedRMSD -1
REMARK  0 active torsions:
REMARK  status: ('A' for Active; 'I' for Inactive)
ROOT
ATOM      1  C1  DEN d   1       1.380  -2.375   4.957  0.00  0.00     0.130 A 
ATOM      2  C2  DEN d   1       1.042  -1.297   5.882  0.00  0.00    -0.031 A 
ATOM      3  C3  DEN d   1       0.943  -0.044   5.107  0.00  0.00     0.027 A 
ATOM      4  C4  DEN d   1       1.273   0.329   2.577  0.00  0.00     0.027 A 
ATOM      5  C5  DEN d   1       1.582  -0.284   1.383  0.00  0.00    -0.003 A 
ATOM      6  C6  DEN d   1       1.876  -1.619   1.302  0.00  0.00     0.001 A 
ATOM      7  C7  DEN d   1       1.823  -2.395   2.429  0.00  0.00     0.017 A 
ATOM      8  C8  DEN d   1       1.520  -1.783   3.638  0.00  0.00    -0.094 A 
ATOM      9  C9  DEN d   1       1.213  -0.434   3.697  0.00  0.00    -0.072 A 
ENDROOT
TORSDOF 0
ENDMDL
