MODEL 1
REMARK minimizedAffinity 18.130682
REMARK minimizedRMSD -1
REMARK  0 active torsions:
REMARK  status: ('A' for Active; 'I' for Inactive)
ROOT
ATOM      1  C1  DEN d   1      -4.480   0.519  -2.567  0.00  0.00     0.130 A 
ATOM      2  C2  DEN d   1      -3.029   0.367  -2.615  0.00  0.00    -0.031 A 
ATOM      3  C3  DEN d   1      -2.428   1.483  -1.857  0.00  0.00     0.027 A 
ATOM      4  C4  DEN d   1      -3.599   3.418  -0.616  0.00  0.00     0.027 A 
ATOM      5  C5  DEN d   1      -4.819   3.976  -0.305  0.00  0.00    -0.003 A 
ATOM      6  C6  DEN d   1      -6.000   3.445  -0.751  0.00  0.00     0.001 A 
ATOM      7  C7  DEN d   1      -5.989   2.296  -1.496  0.00  0.00     0.017 A 
ATOM      8  C8  DEN d   1      -4.763   1.731  -1.820  0.00  0.00    -0.094 A 
ATOM      9  C9  DEN d   1      -3.580   2.276  -1.349  0.00  0.00    -0.072 A 
ENDROOT
TORSDOF 0
ENDMDL
