MODEL 1
REMARK minimizedAffinity 15.8275995
REMARK minimizedRMSD -1
REMARK  0 active torsions:
REMARK  status: ('A' for Active; 'I' for Inactive)
ROOT
ATOM      1  C1  DEN d   1      -4.067  -2.231  -3.804  0.00  0.00     0.130 A 
ATOM      2  C2  DEN d   1      -5.043  -1.275  -4.319  0.00  0.00    -0.031 A 
ATOM      3  C3  DEN d   1      -5.934  -1.991  -5.254  0.00  0.00     0.027 A 
ATOM      4  C4  DEN d   1      -5.900  -4.475  -5.947  0.00  0.00     0.027 A 
ATOM      5  C5  DEN d   1      -5.248  -5.677  -5.784  0.00  0.00    -0.003 A 
ATOM      6  C6  DEN d   1      -4.145  -5.807  -4.982  0.00  0.00     0.001 A 
ATOM      7  C7  DEN d   1      -3.687  -4.724  -4.277  0.00  0.00     0.017 A 
ATOM      8  C8  DEN d   1      -4.335  -3.507  -4.443  0.00  0.00    -0.094 A 
ATOM      9  C9  DEN d   1      -5.456  -3.400  -5.249  0.00  0.00    -0.072 A 
ENDROOT
TORSDOF 0
ENDMDL
