MODEL 1
REMARK minimizedAffinity 13.976716
REMARK minimizedRMSD -1
REMARK  0 active torsions:
REMARK  status: ('A' for Active; 'I' for Inactive)
ROOT
ATOM      1  C1  DEN d   1      -2.568   2.100   0.730  0.00  0.00     0.130 A 
ATOM      2  C2  DEN d   1      -2.327   1.969  -0.705  0.00  0.00    -0.031 A 
ATOM      3  C3  DEN d   1      -3.384   2.717  -1.415  0.00  0.00     0.027 A 
ATOM      4  C4  DEN d   1      -5.356   4.063  -0.438  0.00  0.00     0.027 A 
ATOM      5  C5  DEN d   1      -5.981   4.453   0.725  0.00  0.00    -0.003 A 
ATOM      6  C6  DEN d   1      -5.536   4.062   1.960  0.00  0.00     0.001 A 
ATOM      7  C7  DEN d   1      -4.408   3.293   2.063  0.00  0.00     0.017 A 
ATOM      8  C8  DEN d   1      -3.776   2.889   0.894  0.00  0.00    -0.094 A 
ATOM      9  C9  DEN d   1      -4.234   3.305  -0.345  0.00  0.00    -0.072 A 
ENDROOT
TORSDOF 0
ENDMDL
