MODEL 1
REMARK minimizedAffinity 14.4654503
REMARK minimizedRMSD -1
REMARK  0 active torsions:
REMARK  status: ('A' for Active; 'I' for Inactive)
ROOT
ATOM      1  C1  DEN d   1      -3.098   2.892  -0.620  0.00  0.00     0.130 A 
ATOM      2  C2  DEN d   1      -2.322   2.206   0.410  0.00  0.00    -0.031 A 
ATOM      3  C3  DEN d   1      -2.284   0.769   0.073  0.00  0.00     0.027 A 
ATOM      4  C4  DEN d   1      -3.342  -0.454  -1.936  0.00  0.00     0.027 A 
ATOM      5  C5  DEN d   1      -4.106  -0.296  -3.072  0.00  0.00    -0.003 A 
ATOM      6  C6  DEN d   1      -4.611   0.920  -3.448  0.00  0.00     0.001 A 
ATOM      7  C7  DEN d   1      -4.321   2.034  -2.706  0.00  0.00     0.017 A 
ATOM      8  C8  DEN d   1      -3.558   1.882  -1.556  0.00  0.00    -0.094 A 
ATOM      9  C9  DEN d   1      -3.046   0.646  -1.199  0.00  0.00    -0.072 A 
ENDROOT
TORSDOF 0
ENDMDL
