MODEL 1
REMARK minimizedAffinity -0.765947461
REMARK minimizedRMSD -1
REMARK  0 active torsions:
REMARK  status: ('A' for Active; 'I' for Inactive)
ROOT
ATOM      1  C1  DEN d   1       4.475   4.125  -5.017  0.00  0.00     0.130 A 
ATOM      2  C2  DEN d   1       5.322   5.038  -5.779  0.00  0.00    -0.031 A 
ATOM      3  C3  DEN d   1       6.000   5.937  -4.824  0.00  0.00     0.027 A 
ATOM      4  C4  DEN d   1       5.824   6.000  -2.251  0.00  0.00     0.027 A 
ATOM      5  C5  DEN d   1       5.222   5.427  -1.153  0.00  0.00    -0.003 A 
ATOM      6  C6  DEN d   1       4.310   4.411  -1.267  0.00  0.00     0.001 A 
ATOM      7  C7  DEN d   1       4.008   3.906  -2.504  0.00  0.00     0.017 A 
ATOM      8  C8  DEN d   1       4.606   4.483  -3.616  0.00  0.00    -0.094 A 
ATOM      9  C9  DEN d   1       5.534   5.501  -3.480  0.00  0.00    -0.072 A 
ENDROOT
TORSDOF 0
ENDMDL
