MODEL 1
REMARK minimizedAffinity -1.41101909
REMARK minimizedRMSD -1
REMARK  0 active torsions:
REMARK  status: ('A' for Active; 'I' for Inactive)
ROOT
ATOM      1  C4' PXY d   1       1.811  -2.550  -3.299  0.00  0.00     0.077 C 
ATOM      2  C1' PXY d   1      -3.180  -2.600  -0.384  0.00  0.00     0.077 C 
ATOM      3  C1  PXY d   1      -1.877  -2.590  -1.159  0.00  0.00    -0.082 A 
ATOM      4  C2  PXY d   1      -0.740  -2.843  -0.532  0.00  0.00     0.003 A 
ATOM      5  C3  PXY d   1       0.450  -2.806  -1.212  0.00  0.00     0.003 A 
ATOM      6  C4  PXY d   1       0.472  -2.559  -2.558  0.00  0.00    -0.082 A 
ATOM      7  C5  PXY d   1      -0.685  -2.311  -3.208  0.00  0.00     0.003 A 
ATOM      8  C6  PXY d   1      -1.879  -2.312  -2.492  0.00  0.00     0.003 A 
ENDROOT
TORSDOF 0
ENDMDL
