MODEL 1
REMARK minimizedAffinity 1.00502729
REMARK minimizedRMSD -1
REMARK  0 active torsions:
REMARK  status: ('A' for Active; 'I' for Inactive)
ROOT
ATOM      1  C4' PXY d   1       2.164  -2.016  -3.652  0.00  0.00     0.077 C 
ATOM      2  C1' PXY d   1      -2.131  -2.536   0.181  0.00  0.00     0.077 C 
ATOM      3  C1  PXY d   1      -1.013  -2.404  -0.834  0.00  0.00    -0.082 A 
ATOM      4  C2  PXY d   1       0.246  -2.470  -0.432  0.00  0.00     0.003 A 
ATOM      5  C3  PXY d   1       1.270  -2.320  -1.332  0.00  0.00     0.003 A 
ATOM      6  C4  PXY d   1       1.003  -2.154  -2.664  0.00  0.00    -0.082 A 
ATOM      7  C5  PXY d   1      -0.279  -2.096  -3.083  0.00  0.00     0.003 A 
ATOM      8  C6  PXY d   1      -1.304  -2.209  -2.148  0.00  0.00     0.003 A 
ENDROOT
TORSDOF 0
ENDMDL
