MODEL 1
REMARK minimizedAffinity -0.566650331
REMARK minimizedRMSD -1
REMARK  0 active torsions:
REMARK  status: ('A' for Active; 'I' for Inactive)
ROOT
ATOM      1  C4' PXY d   1       2.049  -2.379  -2.687  0.00  0.00     0.077 C 
ATOM      2  C1' PXY d   1      -3.337  -2.268  -0.592  0.00  0.00     0.077 C 
ATOM      3  C1  PXY d   1      -1.920  -2.296  -1.129  0.00  0.00    -0.082 A 
ATOM      4  C2  PXY d   1      -1.689  -1.943  -2.384  0.00  0.00     0.003 A 
ATOM      5  C3  PXY d   1      -0.418  -1.993  -2.895  0.00  0.00     0.003 A 
ATOM      6  C4  PXY d   1       0.635  -2.357  -2.099  0.00  0.00    -0.082 A 
ATOM      7  C5  PXY d   1       0.409  -2.707  -0.816  0.00  0.00     0.003 A 
ATOM      8  C6  PXY d   1      -0.894  -2.689  -0.327  0.00  0.00     0.003 A 
ENDROOT
TORSDOF 0
ENDMDL
