MODEL 1
REMARK minimizedAffinity 5.30016279
REMARK minimizedRMSD -1
REMARK  0 active torsions:
REMARK  status: ('A' for Active; 'I' for Inactive)
ROOT
ATOM      1  C4' PXY d   1       1.265  -2.422   2.714  0.00  0.00     0.077 C 
ATOM      2  C1' PXY d   1       5.982  -3.025   6.000  0.00  0.00     0.077 C 
ATOM      3  C1  PXY d   1       4.740  -2.859   5.147  0.00  0.00    -0.082 A 
ATOM      4  C2  PXY d   1       4.453  -3.765   4.226  0.00  0.00     0.003 A 
ATOM      5  C3  PXY d   1       3.351  -3.614   3.424  0.00  0.00     0.003 A 
ATOM      6  C4  PXY d   1       2.504  -2.553   3.604  0.00  0.00    -0.082 A 
ATOM      7  C5  PXY d   1       2.783  -1.631   4.549  0.00  0.00     0.003 A 
ATOM      8  C6  PXY d   1       3.929  -1.781   5.324  0.00  0.00     0.003 A 
ENDROOT
TORSDOF 0
ENDMDL
