MODEL 1
REMARK minimizedAffinity 2.64952874
REMARK minimizedRMSD -1
REMARK  0 active torsions:
REMARK  status: ('A' for Active; 'I' for Inactive)
ROOT
ATOM      1  C4' PXY d   1       4.223  -1.814   1.506  0.00  0.00     0.077 C 
ATOM      2  C1' PXY d   1       4.069  -5.450   5.997  0.00  0.00     0.077 C 
ATOM      3  C1  PXY d   1       4.119  -4.491   4.825  0.00  0.00    -0.082 A 
ATOM      4  C2  PXY d   1       3.020  -4.249   4.129  0.00  0.00     0.003 A 
ATOM      5  C3  PXY d   1       3.055  -3.409   3.046  0.00  0.00     0.003 A 
ATOM      6  C4  PXY d   1       4.216  -2.768   2.704  0.00  0.00    -0.082 A 
ATOM      7  C5  PXY d   1       5.339  -3.001   3.415  0.00  0.00     0.003 A 
ATOM      8  C6  PXY d   1       5.292  -3.889   4.486  0.00  0.00     0.003 A 
ENDROOT
TORSDOF 0
ENDMDL
