MODEL 1
REMARK minimizedAffinity 5.90018654
REMARK minimizedRMSD -1
REMARK  0 active torsions:
REMARK  status: ('A' for Active; 'I' for Inactive)
ROOT
ATOM      1  C4' PXY d   1       4.798   2.600  -5.399  0.00  0.00     0.077 C 
ATOM      2  C1' PXY d   1       4.884   5.999  -0.725  0.00  0.00     0.077 C 
ATOM      3  C1  PXY d   1       4.849   5.104  -1.948  0.00  0.00    -0.082 A 
ATOM      4  C2  PXY d   1       5.979   4.620  -2.437  0.00  0.00     0.003 A 
ATOM      5  C3  PXY d   1       5.969   3.835  -3.561  0.00  0.00     0.003 A 
ATOM      6  C4  PXY d   1       4.785   3.499  -4.160  0.00  0.00    -0.082 A 
ATOM      7  C5  PXY d   1       3.626   3.981  -3.661  0.00  0.00     0.003 A 
ATOM      8  C6  PXY d   1       3.662   4.809  -2.544  0.00  0.00     0.003 A 
ENDROOT
TORSDOF 0
ENDMDL
