MODEL 1
REMARK minimizedAffinity 8.54511929
REMARK minimizedRMSD -1
REMARK  0 active torsions:
REMARK  status: ('A' for Active; 'I' for Inactive)
ROOT
ATOM      1  C4' PXY d   1       5.792   2.399  -5.459  0.00  0.00     0.077 C 
ATOM      2  C1' PXY d   1       5.999   5.998  -0.940  0.00  0.00     0.077 C 
ATOM      3  C1  PXY d   1       5.950   5.045  -2.118  0.00  0.00    -0.082 A 
ATOM      4  C2  PXY d   1       5.991   5.525  -3.350  0.00  0.00     0.003 A 
ATOM      5  C3  PXY d   1       5.915   4.679  -4.427  0.00  0.00     0.003 A 
ATOM      6  C4  PXY d   1       5.849   3.324  -4.240  0.00  0.00    -0.082 A 
ATOM      7  C5  PXY d   1       5.818   2.826  -2.986  0.00  0.00     0.003 A 
ATOM      8  C6  PXY d   1       5.855   3.704  -1.907  0.00  0.00     0.003 A 
ENDROOT
TORSDOF 0
ENDMDL
