MODEL 1
REMARK minimizedAffinity 2.37940073
REMARK minimizedRMSD -1
REMARK  0 active torsions:
REMARK  status: ('A' for Active; 'I' for Inactive)
ROOT
ATOM      1  C4' PXY d   1       3.696   5.438  -5.998  0.00  0.00     0.077 C 
ATOM      2  C1' PXY d   1       5.923   5.296  -0.666  0.00  0.00     0.077 C 
ATOM      3  C1  PXY d   1       5.350   5.331  -2.069  0.00  0.00    -0.082 A 
ATOM      4  C2  PXY d   1       4.221   5.981  -2.299  0.00  0.00     0.003 A 
ATOM      5  C3  PXY d   1       3.673   5.996  -3.556  0.00  0.00     0.003 A 
ATOM      6  C4  PXY d   1       4.315   5.384  -4.599  0.00  0.00    -0.082 A 
ATOM      7  C5  PXY d   1       5.473   4.728  -4.374  0.00  0.00     0.003 A 
ATOM      8  C6  PXY d   1       5.992   4.690  -3.083  0.00  0.00     0.003 A 
ENDROOT
TORSDOF 0
ENDMDL
