MODEL 1
REMARK minimizedAffinity 8.33153439
REMARK minimizedRMSD -1
REMARK  0 active torsions:
REMARK  status: ('A' for Active; 'I' for Inactive)
ROOT
ATOM      1  C4' PXY d   1       5.999   5.251  -0.512  0.00  0.00     0.077 C 
ATOM      2  C1' PXY d   1       3.730   5.328  -5.828  0.00  0.00     0.077 C 
ATOM      3  C1  PXY d   1       4.319   5.319  -4.431  0.00  0.00    -0.082 A 
ATOM      4  C2  PXY d   1       5.429   4.640  -4.194  0.00  0.00     0.003 A 
ATOM      5  C3  PXY d   1       5.958   4.595  -2.929  0.00  0.00     0.003 A 
ATOM      6  C4  PXY d   1       5.374   5.296  -1.908  0.00  0.00    -0.082 A 
ATOM      7  C5  PXY d   1       4.246   6.000  -2.145  0.00  0.00     0.003 A 
ATOM      8  C6  PXY d   1       3.702   5.999  -3.426  0.00  0.00     0.003 A 
ENDROOT
TORSDOF 0
ENDMDL
