MODEL 1
REMARK minimizedAffinity 12.3936357
REMARK minimizedRMSD -1
REMARK  0 active torsions:
REMARK  status: ('A' for Active; 'I' for Inactive)
ROOT
ATOM      1  C4' PXY d   1       3.285  -1.292  -2.179  0.00  0.00     0.077 C 
ATOM      2  C1' PXY d   1      -2.255  -1.557  -0.552  0.00  0.00     0.077 C 
ATOM      3  C1  PXY d   1      -0.806  -1.490  -0.991  0.00  0.00    -0.082 A 
ATOM      4  C2  PXY d   1       0.155  -1.751  -0.119  0.00  0.00     0.003 A 
ATOM      5  C3  PXY d   1       1.472  -1.664  -0.491  0.00  0.00     0.003 A 
ATOM      6  C4  PXY d   1       1.808  -1.357  -1.782  0.00  0.00    -0.082 A 
ATOM      7  C5  PXY d   1       0.834  -1.099  -2.681  0.00  0.00     0.003 A 
ATOM      8  C6  PXY d   1      -0.496  -1.153  -2.273  0.00  0.00     0.003 A 
ENDROOT
TORSDOF 0
ENDMDL
