MODEL 1
REMARK minimizedAffinity 2.03091693
REMARK minimizedRMSD -1
REMARK  0 active torsions:
REMARK  status: ('A' for Active; 'I' for Inactive)
ROOT
ATOM      1  C4' PXY d   1       5.997   5.163  -0.544  0.00  0.00     0.077 C 
ATOM      2  C1' PXY d   1       4.036   4.998  -5.980  0.00  0.00     0.077 C 
ATOM      3  C1  PXY d   1       4.561   5.046  -4.558  0.00  0.00    -0.082 A 
ATOM      4  C2  PXY d   1       4.086   4.203  -3.656  0.00  0.00     0.003 A 
ATOM      5  C3  PXY d   1       4.527   4.255  -2.359  0.00  0.00     0.003 A 
ATOM      6  C4  PXY d   1       5.502   5.144  -1.993  0.00  0.00    -0.082 A 
ATOM      7  C5  PXY d   1       6.000   6.000  -2.911  0.00  0.00     0.003 A 
ATOM      8  C6  PXY d   1       5.509   5.959  -4.213  0.00  0.00     0.003 A 
ENDROOT
TORSDOF 0
ENDMDL
