MODEL 1
REMARK minimizedAffinity -0.987463295
REMARK minimizedRMSD -1
REMARK  0 active torsions:
REMARK  status: ('A' for Active; 'I' for Inactive)
ROOT
ATOM      1  C4' PXY d   1       5.968   5.999  -0.963  0.00  0.00     0.077 C 
ATOM      2  C1' PXY d   1       5.476   3.206  -6.000  0.00  0.00     0.077 C 
ATOM      3  C1  PXY d   1       5.612   3.947  -4.685  0.00  0.00    -0.082 A 
ATOM      4  C2  PXY d   1       5.478   3.288  -3.545  0.00  0.00     0.003 A 
ATOM      5  C3  PXY d   1       5.567   3.949  -2.347  0.00  0.00     0.003 A 
ATOM      6  C4  PXY d   1       5.848   5.289  -2.314  0.00  0.00    -0.082 A 
ATOM      7  C5  PXY d   1       5.996   5.966  -3.472  0.00  0.00     0.003 A 
ATOM      8  C6  PXY d   1       5.862   5.285  -4.679  0.00  0.00     0.003 A 
ENDROOT
TORSDOF 0
ENDMDL
