MODEL 1
REMARK minimizedAffinity 4.12959576
REMARK minimizedRMSD -1
REMARK  0 active torsions:
REMARK  status: ('A' for Active; 'I' for Inactive)
ROOT
ATOM      1  C4' PXY d   1       0.649  -2.220  -4.097  0.00  0.00     0.077 C 
ATOM      2  C1' PXY d   1      -1.479  -3.424   1.141  0.00  0.00     0.077 C 
ATOM      3  C1  PXY d   1      -0.918  -3.120  -0.234  0.00  0.00    -0.082 A 
ATOM      4  C2  PXY d   1      -0.521  -1.892  -0.523  0.00  0.00     0.003 A 
ATOM      5  C3  PXY d   1      -0.041  -1.593  -1.772  0.00  0.00     0.003 A 
ATOM      6  C4  PXY d   1       0.084  -2.574  -2.718  0.00  0.00    -0.082 A 
ATOM      7  C5  PXY d   1      -0.308  -3.833  -2.428  0.00  0.00     0.003 A 
ATOM      8  C6  PXY d   1      -0.831  -4.106  -1.168  0.00  0.00     0.003 A 
ENDROOT
TORSDOF 0
ENDMDL
