MODEL 1
REMARK minimizedAffinity 0.807389498
REMARK minimizedRMSD -1
REMARK  0 active torsions:
REMARK  status: ('A' for Active; 'I' for Inactive)
ROOT
ATOM      1  C4' PXY d   1       5.990  -3.754   6.000  0.00  0.00     0.077 C 
ATOM      2  C1' PXY d   1       3.106  -1.580   1.486  0.00  0.00     0.077 C 
ATOM      3  C1  PXY d   1       3.862  -2.138   2.676  0.00  0.00    -0.082 A 
ATOM      4  C2  PXY d   1       4.607  -3.222   2.527  0.00  0.00     0.003 A 
ATOM      5  C3  PXY d   1       5.272  -3.759   3.599  0.00  0.00     0.003 A 
ATOM      6  C4  PXY d   1       5.217  -3.150   4.824  0.00  0.00    -0.082 A 
ATOM      7  C5  PXY d   1       4.468  -2.038   4.981  0.00  0.00     0.003 A 
ATOM      8  C6  PXY d   1       3.767  -1.532   3.890  0.00  0.00     0.003 A 
ENDROOT
TORSDOF 0
ENDMDL
