MODEL 1
REMARK minimizedAffinity 4.27716351
REMARK minimizedRMSD -1
REMARK  0 active torsions:
REMARK  status: ('A' for Active; 'I' for Inactive)
ROOT
ATOM      1  C4' PXY d   1      -3.589  -3.534   1.631  0.00  0.00     0.077 C 
ATOM      2  C1' PXY d   1       0.263  -1.478  -2.157  0.00  0.00     0.077 C 
ATOM      3  C1  PXY d   1      -0.737  -2.023  -1.157  0.00  0.00    -0.082 A 
ATOM      4  C2  PXY d   1      -1.997  -2.199  -1.521  0.00  0.00     0.003 A 
ATOM      5  C3  PXY d   1      -2.922  -2.660  -0.620  0.00  0.00     0.003 A 
ATOM      6  C4  PXY d   1      -2.542  -2.996   0.652  0.00  0.00    -0.082 A 
ATOM      7  C5  PXY d   1      -1.256  -2.830   1.028  0.00  0.00     0.003 A 
ATOM      8  C6  PXY d   1      -0.342  -2.321   0.110  0.00  0.00     0.003 A 
ENDROOT
TORSDOF 0
ENDMDL
