MODEL 1
REMARK minimizedAffinity 3.48682547
REMARK minimizedRMSD -1
REMARK  0 active torsions:
REMARK  status: ('A' for Active; 'I' for Inactive)
ROOT
ATOM      1  C4' PXY d   1      -0.531  -2.098   0.333  0.00  0.00     0.077 C 
ATOM      2  C1' PXY d   1       0.256  -5.404  -4.343  0.00  0.00     0.077 C 
ATOM      3  C1  PXY d   1       0.054  -4.526  -3.123  0.00  0.00    -0.082 A 
ATOM      4  C2  PXY d   1      -0.007  -5.080  -1.923  0.00  0.00     0.003 A 
ATOM      5  C3  PXY d   1      -0.221  -4.305  -0.812  0.00  0.00     0.003 A 
ATOM      6  C4  PXY d   1      -0.320  -2.944  -0.925  0.00  0.00    -0.082 A 
ATOM      7  C5  PXY d   1      -0.247  -2.371  -2.145  0.00  0.00     0.003 A 
ATOM      8  C6  PXY d   1      -0.071  -3.179  -3.265  0.00  0.00     0.003 A 
ENDROOT
TORSDOF 0
ENDMDL
