MODEL 1
REMARK minimizedAffinity 3.27656364
REMARK minimizedRMSD -1
REMARK  0 active torsions:
REMARK  status: ('A' for Active; 'I' for Inactive)
ROOT
ATOM      1  C4' PXY d   1      -3.047  -2.228  -0.339  0.00  0.00     0.077 C 
ATOM      2  C1' PXY d   1       2.144  -1.927  -2.864  0.00  0.00     0.077 C 
ATOM      3  C1  PXY d   1       0.788  -2.003  -2.190  0.00  0.00    -0.082 A 
ATOM      4  C2  PXY d   1      -0.188  -2.690  -2.761  0.00  0.00     0.003 A 
ATOM      5  C3  PXY d   1      -1.429  -2.744  -2.182  0.00  0.00     0.003 A 
ATOM      6  C4  PXY d   1      -1.659  -2.131  -0.979  0.00  0.00    -0.082 A 
ATOM      7  C5  PXY d   1      -0.666  -1.437  -0.385  0.00  0.00     0.003 A 
ATOM      8  C6  PXY d   1       0.576  -1.361  -1.010  0.00  0.00     0.003 A 
ENDROOT
TORSDOF 0
ENDMDL
