MODEL 1
REMARK minimizedAffinity 7.36693335
REMARK minimizedRMSD -1
REMARK  0 active torsions:
REMARK  status: ('A' for Active; 'I' for Inactive)
ROOT
ATOM      1  C4' PXY d   1      -1.658  -2.601   1.623  0.00  0.00     0.077 C 
ATOM      2  C1' PXY d   1       0.384  -2.620  -3.785  0.00  0.00     0.077 C 
ATOM      3  C1  PXY d   1      -0.162  -2.622  -2.370  0.00  0.00    -0.082 A 
ATOM      4  C2  PXY d   1       0.255  -1.710  -1.507  0.00  0.00     0.003 A 
ATOM      5  C3  PXY d   1      -0.205  -1.716  -0.215  0.00  0.00     0.003 A 
ATOM      6  C4  PXY d   1      -1.141  -2.632   0.183  0.00  0.00    -0.082 A 
ATOM      7  C5  PXY d   1      -1.579  -3.559  -0.695  0.00  0.00     0.003 A 
ATOM      8  C6  PXY d   1      -1.070  -3.562  -1.990  0.00  0.00     0.003 A 
ENDROOT
TORSDOF 0
ENDMDL
