MODEL 1
REMARK minimizedAffinity 5.00248718
REMARK minimizedRMSD -1
REMARK  0 active torsions:
REMARK  status: ('A' for Active; 'I' for Inactive)
ROOT
ATOM      1  C4' PXY d   1      -1.881  -2.252   2.173  0.00  0.00     0.077 C 
ATOM      2  C1' PXY d   1       0.587  -1.675  -3.022  0.00  0.00     0.077 C 
ATOM      3  C1  PXY d   1      -0.071  -1.830  -1.666  0.00  0.00    -0.082 A 
ATOM      4  C2  PXY d   1       0.378  -1.130  -0.636  0.00  0.00     0.003 A 
ATOM      5  C3  PXY d   1      -0.185  -1.282   0.605  0.00  0.00     0.003 A 
ATOM      6  C4  PXY d   1      -1.253  -2.120   0.783  0.00  0.00    -0.082 A 
ATOM      7  C5  PXY d   1      -1.725  -2.829  -0.265  0.00  0.00     0.003 A 
ATOM      8  C6  PXY d   1      -1.113  -2.691  -1.507  0.00  0.00     0.003 A 
ENDROOT
TORSDOF 0
ENDMDL
