MODEL 1
REMARK minimizedAffinity -1.79789948
REMARK minimizedRMSD -1
REMARK  0 active torsions:
REMARK  status: ('A' for Active; 'I' for Inactive)
ROOT
ATOM      1  C4' PXY d   1      -1.869  -2.935   1.091  0.00  0.00     0.077 C 
ATOM      2  C1' PXY d   1       1.128  -2.615  -3.842  0.00  0.00     0.077 C 
ATOM      3  C1  PXY d   1       0.338  -2.711  -2.551  0.00  0.00    -0.082 A 
ATOM      4  C2  PXY d   1      -0.119  -1.608  -1.980  0.00  0.00     0.003 A 
ATOM      5  C3  PXY d   1      -0.807  -1.675  -0.796  0.00  0.00     0.003 A 
ATOM      6  C4  PXY d   1      -1.075  -2.886  -0.217  0.00  0.00    -0.082 A 
ATOM      7  C5  PXY d   1      -0.622  -4.017  -0.800  0.00  0.00     0.003 A 
ATOM      8  C6  PXY d   1       0.110  -3.925  -1.980  0.00  0.00     0.003 A 
ENDROOT
TORSDOF 0
ENDMDL
