MODEL 1
REMARK minimizedAffinity 2.40293622
REMARK minimizedRMSD -1
REMARK  0 active torsions:
REMARK  status: ('A' for Active; 'I' for Inactive)
ROOT
ATOM      1  C   UNL d   1       0.956   4.224  -0.287  0.00  0.00     0.077 C 
ATOM      2  C1  UNL d   1       1.299   2.829  -0.717  0.00  0.00    -0.074 A 
ATOM      3  C2  UNL d   1       1.966   2.591  -1.922  0.00  0.00    -0.005 A 
ATOM      4  C3  UNL d   1       2.287   1.289  -2.305  0.00  0.00     0.006 A 
ATOM      5  C4  UNL d   1       1.943   0.212  -1.486  0.00  0.00    -0.005 A 
ATOM      6  C5  UNL d   1       1.276   0.430  -0.276  0.00  0.00    -0.074 A 
ATOM      7  C6  UNL d   1       0.909  -0.716   0.620  0.00  0.00     0.077 C 
ATOM      8  C7  UNL d   1       0.964   1.742   0.104  0.00  0.00    -0.001 A 
ENDROOT
TORSDOF 0
ENDMDL
