MODEL 1
REMARK minimizedAffinity 0.681425333
REMARK minimizedRMSD -1
REMARK  0 active torsions:
REMARK  status: ('A' for Active; 'I' for Inactive)
ROOT
ATOM      1  C   UNL d   1       2.628  -0.760  -2.125  0.00  0.00     0.077 C 
ATOM      2  C1  UNL d   1       1.867   0.231  -1.296  0.00  0.00    -0.074 A 
ATOM      3  C2  UNL d   1       0.985  -0.194  -0.297  0.00  0.00    -0.005 A 
ATOM      4  C3  UNL d   1       0.291   0.740   0.472  0.00  0.00     0.006 A 
ATOM      5  C4  UNL d   1       0.471   2.106   0.251  0.00  0.00    -0.005 A 
ATOM      6  C5  UNL d   1       1.349   2.550  -0.743  0.00  0.00    -0.074 A 
ATOM      7  C6  UNL d   1       1.561   4.014  -0.988  0.00  0.00     0.077 C 
ATOM      8  C7  UNL d   1       2.048   1.605  -1.507  0.00  0.00    -0.001 A 
ENDROOT
TORSDOF 0
ENDMDL
