MODEL 1
REMARK minimizedAffinity -4.00703144
REMARK minimizedRMSD -1
REMARK  0 active torsions:
REMARK  status: ('A' for Active; 'I' for Inactive)
ROOT
ATOM      1  C   UNL d   1       1.646   0.739   1.445  0.00  0.00     0.077 C 
ATOM      2  C1  UNL d   1       1.436   1.652   0.273  0.00  0.00    -0.074 A 
ATOM      3  C2  UNL d   1       1.042   1.147  -0.970  0.00  0.00    -0.005 A 
ATOM      4  C3  UNL d   1       0.841   2.009  -2.047  0.00  0.00     0.006 A 
ATOM      5  C4  UNL d   1       1.032   3.383  -1.893  0.00  0.00    -0.005 A 
ATOM      6  C5  UNL d   1       1.426   3.906  -0.658  0.00  0.00    -0.074 A 
ATOM      7  C6  UNL d   1       1.626   5.381  -0.472  0.00  0.00     0.077 C 
ATOM      8  C7  UNL d   1       1.619   3.034   0.422  0.00  0.00    -0.001 A 
ENDROOT
TORSDOF 0
ENDMDL
