MODEL 1
REMARK minimizedAffinity -4.78634262
REMARK minimizedRMSD -1
REMARK  0 active torsions:
REMARK  status: ('A' for Active; 'I' for Inactive)
ROOT
ATOM      1  C   UNL d   1      -0.278   2.223   1.664  0.00  0.00     0.077 C 
ATOM      2  C1  UNL d   1       0.438   1.842   0.402  0.00  0.00    -0.074 A 
ATOM      3  C2  UNL d   1       0.730   2.799  -0.575  0.00  0.00    -0.005 A 
ATOM      4  C3  UNL d   1       1.405   2.433  -1.739  0.00  0.00     0.006 A 
ATOM      5  C4  UNL d   1       1.794   1.107  -1.938  0.00  0.00    -0.005 A 
ATOM      6  C5  UNL d   1       1.511   0.137  -0.972  0.00  0.00    -0.074 A 
ATOM      7  C6  UNL d   1       1.931  -1.290  -1.165  0.00  0.00     0.077 C 
ATOM      8  C7  UNL d   1       0.839   0.514   0.199  0.00  0.00    -0.001 A 
ENDROOT
TORSDOF 0
ENDMDL
