MODEL 1
REMARK minimizedAffinity -0.669932485
REMARK minimizedRMSD -1
REMARK  0 active torsions:
REMARK  status: ('A' for Active; 'I' for Inactive)
ROOT
ATOM      1  C   UNL d   1       3.108   0.202   1.283  0.00  0.00     0.077 C 
ATOM      2  C1  UNL d   1       2.071   0.804   0.381  0.00  0.00    -0.074 A 
ATOM      3  C2  UNL d   1       1.000   0.040  -0.093  0.00  0.00    -0.005 A 
ATOM      4  C3  UNL d   1       0.038   0.616  -0.923  0.00  0.00     0.006 A 
ATOM      5  C4  UNL d   1       0.138   1.959  -1.287  0.00  0.00    -0.005 A 
ATOM      6  C5  UNL d   1       1.202   2.739  -0.823  0.00  0.00    -0.074 A 
ATOM      7  C6  UNL d   1       1.319   4.187  -1.196  0.00  0.00     0.077 C 
ATOM      8  C7  UNL d   1       2.161   2.155   0.017  0.00  0.00    -0.001 A 
ENDROOT
TORSDOF 0
ENDMDL
