MODEL 1
REMARK minimizedAffinity -1.77172399
REMARK minimizedRMSD -1
REMARK  0 active torsions:
REMARK  status: ('A' for Active; 'I' for Inactive)
ROOT
ATOM      1  C   UNL d   1       1.332   0.083  -3.058  0.00  0.00     0.077 C 
ATOM      2  C1  UNL d   1       1.250   0.710  -1.698  0.00  0.00    -0.074 A 
ATOM      3  C2  UNL d   1       1.110  -0.077  -0.550  0.00  0.00    -0.005 A 
ATOM      4  C3  UNL d   1       1.044   0.520   0.708  0.00  0.00     0.006 A 
ATOM      5  C4  UNL d   1       1.119   1.908   0.833  0.00  0.00    -0.005 A 
ATOM      6  C5  UNL d   1       1.261   2.711  -0.303  0.00  0.00    -0.074 A 
ATOM      7  C6  UNL d   1       1.353   4.203  -0.186  0.00  0.00     0.077 C 
ATOM      8  C7  UNL d   1       1.333   2.103  -1.564  0.00  0.00    -0.001 A 
ENDROOT
TORSDOF 0
ENDMDL
