MODEL 1
REMARK minimizedAffinity 2.14474821
REMARK minimizedRMSD -1
REMARK  0 active torsions:
REMARK  status: ('A' for Active; 'I' for Inactive)
ROOT
ATOM      1  C   UNL d   1       0.993  -0.589  -2.199  0.00  0.00     0.077 C 
ATOM      2  C1  UNL d   1       1.187   0.630  -1.347  0.00  0.00    -0.074 A 
ATOM      3  C2  UNL d   1       1.093   0.556   0.046  0.00  0.00    -0.005 A 
ATOM      4  C3  UNL d   1       1.285   1.696   0.826  0.00  0.00     0.006 A 
ATOM      5  C4  UNL d   1       1.574   2.920   0.221  0.00  0.00    -0.005 A 
ATOM      6  C5  UNL d   1       1.673   3.013  -1.171  0.00  0.00    -0.074 A 
ATOM      7  C6  UNL d   1       1.992   4.319  -1.837  0.00  0.00     0.077 C 
ATOM      8  C7  UNL d   1       1.485   1.861  -1.947  0.00  0.00    -0.001 A 
ENDROOT
TORSDOF 0
ENDMDL
