MODEL 1
REMARK minimizedAffinity -1.24792552
REMARK minimizedRMSD -1
REMARK  0 active torsions:
REMARK  status: ('A' for Active; 'I' for Inactive)
ROOT
ATOM      1  C   UNL d   1       1.548   4.454   1.568  0.00  0.00     0.077 C 
ATOM      2  C1  UNL d   1       1.451   3.526   0.394  0.00  0.00    -0.074 A 
ATOM      3  C2  UNL d   1       1.557   4.009  -0.915  0.00  0.00    -0.005 A 
ATOM      4  C3  UNL d   1       1.475   3.133  -1.996  0.00  0.00     0.006 A 
ATOM      5  C4  UNL d   1       1.287   1.767  -1.781  0.00  0.00    -0.005 A 
ATOM      6  C5  UNL d   1       1.181   1.266  -0.480  0.00  0.00    -0.074 A 
ATOM      7  C6  UNL d   1       0.989  -0.201  -0.231  0.00  0.00     0.077 C 
ATOM      8  C7  UNL d   1       1.271   2.152   0.602  0.00  0.00    -0.001 A 
ENDROOT
TORSDOF 0
ENDMDL
