MODEL 1
REMARK minimizedAffinity 6.13268423
REMARK minimizedRMSD -1
REMARK  0 active torsions:
REMARK  status: ('A' for Active; 'I' for Inactive)
ROOT
ATOM      1  C   UNL d   1       1.529   0.042  -1.226  0.00  0.00     0.077 C 
ATOM      2  C1  UNL d   1       0.867   1.359  -1.504  0.00  0.00    -0.074 A 
ATOM      3  C2  UNL d   1      -0.418   1.416  -2.052  0.00  0.00    -0.005 A 
ATOM      4  C3  UNL d   1      -1.024   2.648  -2.297  0.00  0.00     0.006 A 
ATOM      5  C4  UNL d   1      -0.352   3.833  -1.996  0.00  0.00    -0.005 A 
ATOM      6  C5  UNL d   1       0.933   3.796  -1.447  0.00  0.00    -0.074 A 
ATOM      7  C6  UNL d   1       1.666   5.061  -1.110  0.00  0.00     0.077 C 
ATOM      8  C7  UNL d   1       1.533   2.554  -1.198  0.00  0.00    -0.001 A 
ENDROOT
TORSDOF 0
ENDMDL
