MODEL 1
REMARK minimizedAffinity -2.07553864
REMARK minimizedRMSD -1
REMARK  0 active torsions:
REMARK  status: ('A' for Active; 'I' for Inactive)
ROOT
ATOM      1  C   UNL d   1       0.586  -1.107  -1.702  0.00  0.00     0.077 C 
ATOM      2  C1  UNL d   1       0.790   0.190  -0.977  0.00  0.00    -0.074 A 
ATOM      3  C2  UNL d   1       0.748   0.246   0.420  0.00  0.00    -0.005 A 
ATOM      4  C3  UNL d   1       0.949   1.458   1.081  0.00  0.00     0.006 A 
ATOM      5  C4  UNL d   1       1.193   2.623   0.354  0.00  0.00    -0.005 A 
ATOM      6  C5  UNL d   1       1.239   2.586  -1.043  0.00  0.00    -0.074 A 
ATOM      7  C6  UNL d   1       1.510   3.828  -1.840  0.00  0.00     0.077 C 
ATOM      8  C7  UNL d   1       1.043   1.364  -1.700  0.00  0.00    -0.001 A 
ENDROOT
TORSDOF 0
ENDMDL
