MODEL 1
REMARK minimizedAffinity 2.80117798
REMARK minimizedRMSD -1
REMARK  0 active torsions:
REMARK  status: ('A' for Active; 'I' for Inactive)
ROOT
ATOM      1  C   UNL d   1       1.508   1.140  -1.822  0.00  0.00     0.077 C 
ATOM      2  C1  UNL d   1       1.596   2.238  -0.804  0.00  0.00    -0.074 A 
ATOM      3  C2  UNL d   1       1.460   1.966   0.561  0.00  0.00    -0.005 A 
ATOM      4  C3  UNL d   1       1.554   2.996   1.496  0.00  0.00     0.006 A 
ATOM      5  C4  UNL d   1       1.785   4.307   1.077  0.00  0.00    -0.005 A 
ATOM      6  C5  UNL d   1       1.925   4.598  -0.283  0.00  0.00    -0.074 A 
ATOM      7  C6  UNL d   1       2.183   6.000  -0.750  0.00  0.00     0.077 C 
ATOM      8  C7  UNL d   1       1.836   3.556  -1.217  0.00  0.00    -0.001 A 
ENDROOT
TORSDOF 0
ENDMDL
