MODEL 1
REMARK minimizedAffinity -1.18672335
REMARK minimizedRMSD -1
REMARK  0 active torsions:
REMARK  status: ('A' for Active; 'I' for Inactive)
ROOT
ATOM      1  C   UNL d   1       0.772  -0.134  -1.828  0.00  0.00     0.077 C 
ATOM      2  C1  UNL d   1       0.897   1.161  -1.081  0.00  0.00    -0.074 A 
ATOM      3  C2  UNL d   1       0.706   1.214   0.304  0.00  0.00    -0.005 A 
ATOM      4  C3  UNL d   1       0.836   2.423   0.986  0.00  0.00     0.006 A 
ATOM      5  C4  UNL d   1       1.157   3.590   0.292  0.00  0.00    -0.005 A 
ATOM      6  C5  UNL d   1       1.353   3.557  -1.092  0.00  0.00    -0.074 A 
ATOM      7  C6  UNL d   1       1.709   4.800  -1.852  0.00  0.00     0.077 C 
ATOM      8  C7  UNL d   1       1.228   2.336  -1.770  0.00  0.00    -0.001 A 
ENDROOT
TORSDOF 0
ENDMDL
