MODEL 1
REMARK minimizedAffinity 3.25918221
REMARK minimizedRMSD -1
REMARK  0 active torsions:
REMARK  status: ('A' for Active; 'I' for Inactive)
ROOT
ATOM      1  C   UNL d   1       2.328   0.361   1.991  0.00  0.00     0.077 C 
ATOM      2  C1  UNL d   1       1.852   0.636   0.596  0.00  0.00    -0.074 A 
ATOM      3  C2  UNL d   1       1.293  -0.380  -0.186  0.00  0.00    -0.005 A 
ATOM      4  C3  UNL d   1       0.846  -0.106  -1.479  0.00  0.00     0.006 A 
ATOM      5  C4  UNL d   1       0.953   1.183  -2.002  0.00  0.00    -0.005 A 
ATOM      6  C5  UNL d   1       1.509   2.211  -1.234  0.00  0.00    -0.074 A 
ATOM      7  C6  UNL d   1       1.622   3.605  -1.777  0.00  0.00     0.077 C 
ATOM      8  C7  UNL d   1       1.949   1.931   0.067  0.00  0.00    -0.001 A 
ENDROOT
TORSDOF 0
ENDMDL
