MODEL 1
REMARK minimizedAffinity 6.11031151
REMARK minimizedRMSD -1
REMARK  0 active torsions:
REMARK  status: ('A' for Active; 'I' for Inactive)
ROOT
ATOM      1  C   UNL d   1       2.290   4.971  -1.489  0.00  0.00     0.077 C 
ATOM      2  C1  UNL d   1       1.372   3.817  -1.765  0.00  0.00    -0.074 A 
ATOM      3  C2  UNL d   1       0.069   4.030  -2.227  0.00  0.00    -0.005 A 
ATOM      4  C3  UNL d   1      -0.770   2.947  -2.489  0.00  0.00     0.006 A 
ATOM      5  C4  UNL d   1      -0.316   1.643  -2.291  0.00  0.00    -0.005 A 
ATOM      6  C5  UNL d   1       0.984   1.410  -1.831  0.00  0.00    -0.074 A 
ATOM      7  C6  UNL d   1       1.491   0.014  -1.622  0.00  0.00     0.077 C 
ATOM      8  C7  UNL d   1       1.823   2.504  -1.577  0.00  0.00    -0.001 A 
ENDROOT
TORSDOF 0
ENDMDL
