MODEL 1
REMARK minimizedAffinity 2.42876244
REMARK minimizedRMSD -1
REMARK  0 active torsions:
REMARK  status: ('A' for Active; 'I' for Inactive)
ROOT
ATOM      1  C   UNL d   1       0.387  -2.615  -1.511  0.00  0.00     0.077 C 
ATOM      2  C1  UNL d   1       0.838  -1.291  -0.971  0.00  0.00    -0.074 A 
ATOM      3  C2  UNL d   1       1.531  -1.206   0.240  0.00  0.00    -0.005 A 
ATOM      4  C3  UNL d   1       1.953   0.032   0.725  0.00  0.00     0.006 A 
ATOM      5  C4  UNL d   1       1.685   1.197   0.004  0.00  0.00    -0.005 A 
ATOM      6  C5  UNL d   1       0.993   1.132  -1.210  0.00  0.00    -0.074 A 
ATOM      7  C6  UNL d   1       0.706   2.373  -2.002  0.00  0.00     0.077 C 
ATOM      8  C7  UNL d   1       0.579  -0.117  -1.693  0.00  0.00    -0.001 A 
ENDROOT
TORSDOF 0
ENDMDL
