MODEL 1
REMARK minimizedAffinity -2.6455524
REMARK minimizedRMSD -1
REMARK  0 active torsions:
REMARK  status: ('A' for Active; 'I' for Inactive)
ROOT
ATOM      1  C   UNL d   1       1.767   5.966  -0.514  0.00  0.00     0.077 C 
ATOM      2  C1  UNL d   1       1.536   4.534  -0.895  0.00  0.00    -0.074 A 
ATOM      3  C2  UNL d   1       1.422   4.157  -2.236  0.00  0.00    -0.005 A 
ATOM      4  C3  UNL d   1       1.216   2.820  -2.576  0.00  0.00     0.006 A 
ATOM      5  C4  UNL d   1       1.123   1.848  -1.579  0.00  0.00    -0.005 A 
ATOM      6  C5  UNL d   1       1.235   2.207  -0.232  0.00  0.00    -0.074 A 
ATOM      7  C6  UNL d   1       1.147   1.173   0.852  0.00  0.00     0.077 C 
ATOM      8  C7  UNL d   1       1.449   3.551   0.101  0.00  0.00    -0.001 A 
ENDROOT
TORSDOF 0
ENDMDL
