MODEL 1
REMARK minimizedAffinity -2.34784579
REMARK minimizedRMSD -1
REMARK  0 active torsions:
REMARK  status: ('A' for Active; 'I' for Inactive)
ROOT
ATOM      1  C   UNL d   1       2.226   6.000  -1.248  0.00  0.00     0.077 C 
ATOM      2  C1  UNL d   1       1.937   4.663  -0.631  0.00  0.00    -0.074 A 
ATOM      3  C2  UNL d   1       1.738   4.536   0.748  0.00  0.00    -0.005 A 
ATOM      4  C3  UNL d   1       1.461   3.288   1.306  0.00  0.00     0.006 A 
ATOM      5  C4  UNL d   1       1.380   2.157   0.493  0.00  0.00    -0.005 A 
ATOM      6  C5  UNL d   1       1.575   2.265  -0.887  0.00  0.00    -0.074 A 
ATOM      7  C6  UNL d   1       1.482   1.061  -1.777  0.00  0.00     0.077 C 
ATOM      8  C7  UNL d   1       1.846   3.523  -1.442  0.00  0.00    -0.001 A 
ENDROOT
TORSDOF 0
ENDMDL
