MODEL 1
REMARK minimizedAffinity 14.208272
REMARK minimizedRMSD -1
REMARK  0 active torsions:
REMARK  status: ('A' for Active; 'I' for Inactive)
ROOT
ATOM      1  C   UNL d   1      -2.500   0.920  -1.803  0.00  0.00     0.124 A 
ATOM      2  C1  UNL d   1      -2.140   1.395  -0.549  0.00  0.00     0.062 A 
ATOM      3  C2  UNL d   1      -3.000   2.232   0.156  0.00  0.00     0.162 A 
ATOM      4  C3  UNL d   1      -4.230   2.598  -0.390  0.00  0.00    -0.034 A 
ATOM      5  C4  UNL d   1      -4.584   2.118  -1.652  0.00  0.00     0.162 A 
ATOM      6  C5  UNL d   1      -3.721   1.282  -2.353  0.00  0.00     0.062 A 
ATOM      7  F   UNL d   1      -4.071   0.824  -3.564  0.00  0.00    -0.097 F 
ATOM      8  F1  UNL d   1      -5.759   2.451  -2.207  0.00  0.00    -0.096 F 
ATOM      9  I   UNL d   1      -5.519   3.850   0.661  0.00  0.00    -0.060 I 
ATOM     10  F2  UNL d   1      -2.626   2.675   1.365  0.00  0.00    -0.096 F 
ATOM     11  F3  UNL d   1      -0.960   1.047  -0.016  0.00  0.00    -0.097 F 
ATOM     12  F4  UNL d   1      -1.670   0.116  -2.479  0.00  0.00    -0.092 F 
ENDROOT
TORSDOF 0
ENDMDL
