MODEL 1
REMARK minimizedAffinity 13.6080742
REMARK minimizedRMSD -1
REMARK  0 active torsions:
REMARK  status: ('A' for Active; 'I' for Inactive)
ROOT
ATOM      1  C   UNL d   1      -2.090   0.811  -1.570  0.00  0.00     0.124 A 
ATOM      2  C1  UNL d   1      -1.909   1.318  -0.290  0.00  0.00     0.062 A 
ATOM      3  C2  UNL d   1      -2.835   2.208   0.247  0.00  0.00     0.162 A 
ATOM      4  C3  UNL d   1      -3.951   2.597  -0.495  0.00  0.00    -0.034 A 
ATOM      5  C4  UNL d   1      -4.125   2.083  -1.781  0.00  0.00     0.162 A 
ATOM      6  C5  UNL d   1      -3.197   1.194  -2.314  0.00  0.00     0.062 A 
ATOM      7  F   UNL d   1      -3.373   0.705  -3.550  0.00  0.00    -0.097 F 
ATOM      8  F1  UNL d   1      -5.186   2.435  -2.522  0.00  0.00    -0.096 F 
ATOM      9  I   UNL d   1      -5.337   3.927   0.305  0.00  0.00    -0.060 I 
ATOM     10  F2  UNL d   1      -2.635   2.683   1.486  0.00  0.00    -0.096 F 
ATOM     11  F3  UNL d   1      -0.840   0.951   0.430  0.00  0.00    -0.097 F 
ATOM     12  F4  UNL d   1      -1.198  -0.044  -2.085  0.00  0.00    -0.092 F 
ENDROOT
TORSDOF 0
ENDMDL
