MODEL 1
REMARK minimizedAffinity 5.80420351
REMARK minimizedRMSD -1
REMARK  0 active torsions:
REMARK  status: ('A' for Active; 'I' for Inactive)
ROOT
ATOM      1  C   UNL d   1       2.410  -5.977  -1.310  0.00  0.00     0.124 A 
ATOM      2  C1  UNL d   1       3.764  -5.966  -1.615  0.00  0.00     0.062 A 
ATOM      3  C2  UNL d   1       4.183  -5.966  -2.942  0.00  0.00     0.162 A 
ATOM      4  C3  UNL d   1       3.246  -5.977  -3.976  0.00  0.00    -0.034 A 
ATOM      5  C4  UNL d   1       1.886  -5.989  -3.662  0.00  0.00     0.162 A 
ATOM      6  C5  UNL d   1       1.473  -5.989  -2.334  0.00  0.00     0.062 A 
ATOM      7  F   UNL d   1       0.164  -6.000  -2.041  0.00  0.00    -0.097 F 
ATOM      8  F1  UNL d   1       0.959  -6.000  -4.631  0.00  0.00    -0.096 F 
ATOM      9  I   UNL d   1       3.869  -5.977  -5.962  0.00  0.00    -0.060 I 
ATOM     10  F2  UNL d   1       5.498  -5.955  -3.207  0.00  0.00    -0.096 F 
ATOM     11  F3  UNL d   1       4.672  -5.955  -0.628  0.00  0.00    -0.097 F 
ATOM     12  F4  UNL d   1       2.010  -5.978  -0.032  0.00  0.00    -0.092 F 
ENDROOT
TORSDOF 0
ENDMDL
