MODEL 1
REMARK minimizedAffinity 7.20648718
REMARK minimizedRMSD -1
REMARK  0 active torsions:
REMARK  status: ('A' for Active; 'I' for Inactive)
ROOT
ATOM      1  C   UNL d   1       2.034  -5.986  -1.890  0.00  0.00     0.124 A 
ATOM      2  C1  UNL d   1       1.397  -5.992  -3.123  0.00  0.00     0.062 A 
ATOM      3  C2  UNL d   1       2.144  -5.992  -4.298  0.00  0.00     0.162 A 
ATOM      4  C3  UNL d   1       3.538  -5.987  -4.245  0.00  0.00    -0.034 A 
ATOM      5  C4  UNL d   1       4.172  -5.979  -3.001  0.00  0.00     0.162 A 
ATOM      6  C5  UNL d   1       3.421  -5.979  -1.831  0.00  0.00     0.062 A 
ATOM      7  F   UNL d   1       4.039  -5.973  -0.640  0.00  0.00    -0.097 F 
ATOM      8  F1  UNL d   1       5.510  -5.974  -2.915  0.00  0.00    -0.096 F 
ATOM      9  I   UNL d   1       4.658  -5.987  -5.999  0.00  0.00    -0.060 I 
ATOM     10  F2  UNL d   1       1.501  -5.999  -5.475  0.00  0.00    -0.096 F 
ATOM     11  F3  UNL d   1       0.057  -5.998  -3.184  0.00  0.00    -0.097 F 
ATOM     12  F4  UNL d   1       1.313  -5.985  -0.762  0.00  0.00    -0.092 F 
ENDROOT
TORSDOF 0
ENDMDL
