MODEL 1
REMARK minimizedAffinity 9.73878288
REMARK minimizedRMSD -1
REMARK  0 active torsions:
REMARK  status: ('A' for Active; 'I' for Inactive)
ROOT
ATOM      1  C   UNL d   1       5.438  -4.593  -4.079  0.00  0.00     0.124 A 
ATOM      2  C1  UNL d   1       5.572  -3.315  -4.603  0.00  0.00     0.062 A 
ATOM      3  C2  UNL d   1       5.266  -2.203  -3.823  0.00  0.00     0.162 A 
ATOM      4  C3  UNL d   1       4.826  -2.365  -2.509  0.00  0.00    -0.034 A 
ATOM      5  C4  UNL d   1       4.693  -3.654  -1.990  0.00  0.00     0.162 A 
ATOM      6  C5  UNL d   1       5.000  -4.762  -2.774  0.00  0.00     0.062 A 
ATOM      7  F   UNL d   1       4.870  -5.996  -2.266  0.00  0.00    -0.097 F 
ATOM      8  F1  UNL d   1       4.272  -3.846  -0.731  0.00  0.00    -0.096 F 
ATOM      9  I   UNL d   1       4.368  -0.706  -1.339  0.00  0.00    -0.060 I 
ATOM     10  F2  UNL d   1       5.405  -0.980  -4.355  0.00  0.00    -0.096 F 
ATOM     11  F3  UNL d   1       5.995  -3.149  -5.865  0.00  0.00    -0.097 F 
ATOM     12  F4  UNL d   1       5.732  -5.661  -4.833  0.00  0.00    -0.092 F 
ENDROOT
TORSDOF 0
ENDMDL
