MODEL 1
REMARK minimizedAffinity 15.0730562
REMARK minimizedRMSD -1
REMARK  0 active torsions:
REMARK  status: ('A' for Active; 'I' for Inactive)
ROOT
ATOM      1  C   UNL d   1       4.160  -1.167  -1.278  0.00  0.00     0.124 A 
ATOM      2  C1  UNL d   1       4.678  -1.808  -2.394  0.00  0.00     0.062 A 
ATOM      3  C2  UNL d   1       4.552  -3.188  -2.530  0.00  0.00     0.162 A 
ATOM      4  C3  UNL d   1       3.903  -3.935  -1.547  0.00  0.00    -0.034 A 
ATOM      5  C4  UNL d   1       3.385  -3.283  -0.427  0.00  0.00     0.162 A 
ATOM      6  C5  UNL d   1       3.514  -1.904  -0.296  0.00  0.00     0.062 A 
ATOM      7  F   UNL d   1       3.012  -1.285   0.783  0.00  0.00    -0.097 F 
ATOM      8  F1  UNL d   1       2.755  -3.971   0.537  0.00  0.00    -0.096 F 
ATOM      9  I   UNL d   1       3.711  -5.998  -1.747  0.00  0.00    -0.060 I 
ATOM     10  F2  UNL d   1       5.062  -3.782  -3.619  0.00  0.00    -0.096 F 
ATOM     11  F3  UNL d   1       5.304  -1.098  -3.344  0.00  0.00    -0.097 F 
ATOM     12  F4  UNL d   1       4.284   0.161  -1.149  0.00  0.00    -0.092 F 
ENDROOT
TORSDOF 0
ENDMDL
