MODEL 1
REMARK minimizedAffinity 2.20308495
REMARK minimizedRMSD -1
REMARK  0 active torsions:
REMARK  status: ('A' for Active; 'I' for Inactive)
ROOT
ATOM      1  C   UNL d   1       1.080  -5.998  -2.582  0.00  0.00     0.124 A 
ATOM      2  C1  UNL d   1       1.181  -5.997  -3.967  0.00  0.00     0.062 A 
ATOM      3  C2  UNL d   1       2.432  -5.996  -4.578  0.00  0.00     0.162 A 
ATOM      4  C3  UNL d   1       3.593  -5.997  -3.804  0.00  0.00    -0.034 A 
ATOM      5  C4  UNL d   1       3.483  -5.997  -2.413  0.00  0.00     0.162 A 
ATOM      6  C5  UNL d   1       2.231  -5.998  -1.807  0.00  0.00     0.062 A 
ATOM      7  F   UNL d   1       2.136  -5.999  -0.469  0.00  0.00    -0.097 F 
ATOM      8  F1  UNL d   1       4.579  -5.999  -1.639  0.00  0.00    -0.096 F 
ATOM      9  I   UNL d   1       5.465  -5.996  -4.714  0.00  0.00    -0.060 I 
ATOM     10  F2  UNL d   1       2.499  -5.995  -5.917  0.00  0.00    -0.096 F 
ATOM     11  F3  UNL d   1       0.071  -5.996  -4.718  0.00  0.00    -0.097 F 
ATOM     12  F4  UNL d   1      -0.124  -5.998  -1.997  0.00  0.00    -0.092 F 
ENDROOT
TORSDOF 0
ENDMDL
