MODEL 1
REMARK minimizedAffinity 7.42974234
REMARK minimizedRMSD -1
REMARK  0 active torsions:
REMARK  status: ('A' for Active; 'I' for Inactive)
ROOT
ATOM      1  C   UNL d   1       2.901  -5.993  -1.296  0.00  0.00     0.124 A 
ATOM      2  C1  UNL d   1       1.959  -5.996  -2.315  0.00  0.00     0.062 A 
ATOM      3  C2  UNL d   1       2.368  -5.995  -3.646  0.00  0.00     0.162 A 
ATOM      4  C3  UNL d   1       3.726  -5.992  -3.965  0.00  0.00    -0.034 A 
ATOM      5  C4  UNL d   1       4.667  -5.988  -2.934  0.00  0.00     0.162 A 
ATOM      6  C5  UNL d   1       4.254  -5.989  -1.606  0.00  0.00     0.062 A 
ATOM      7  F   UNL d   1       5.165  -5.986  -0.622  0.00  0.00    -0.097 F 
ATOM      8  F1  UNL d   1       5.981  -5.985  -3.206  0.00  0.00    -0.096 F 
ATOM      9  I   UNL d   1       4.341  -5.990  -5.953  0.00  0.00    -0.060 I 
ATOM     10  F2  UNL d   1       1.436  -5.998  -4.611  0.00  0.00    -0.096 F 
ATOM     11  F3  UNL d   1       0.652  -5.999  -2.018  0.00  0.00    -0.097 F 
ATOM     12  F4  UNL d   1       2.505  -5.994  -0.017  0.00  0.00    -0.092 F 
ENDROOT
TORSDOF 0
ENDMDL
