MODEL 1
REMARK minimizedAffinity 13.9250679
REMARK minimizedRMSD -1
REMARK  0 active torsions:
REMARK  status: ('A' for Active; 'I' for Inactive)
ROOT
ATOM      1  C   UNL d   1      -2.357   0.803  -2.065  0.00  0.00     0.124 A 
ATOM      2  C1  UNL d   1      -3.351   1.330  -2.878  0.00  0.00     0.062 A 
ATOM      3  C2  UNL d   1      -4.249   2.264  -2.369  0.00  0.00     0.162 A 
ATOM      4  C3  UNL d   1      -4.157   2.677  -1.040  0.00  0.00    -0.034 A 
ATOM      5  C4  UNL d   1      -3.155   2.142  -0.228  0.00  0.00     0.162 A 
ATOM      6  C5  UNL d   1      -2.260   1.209  -0.742  0.00  0.00     0.062 A 
ATOM      7  F   UNL d   1      -1.300   0.700   0.045  0.00  0.00    -0.097 F 
ATOM      8  F1  UNL d   1      -3.038   2.517   1.054  0.00  0.00    -0.096 F 
ATOM      9  I   UNL d   1      -5.498   4.073  -0.275  0.00  0.00    -0.060 I 
ATOM     10  F2  UNL d   1      -5.199   2.757  -3.177  0.00  0.00    -0.096 F 
ATOM     11  F3  UNL d   1      -3.447   0.939  -4.157  0.00  0.00    -0.097 F 
ATOM     12  F4  UNL d   1      -1.494  -0.096  -2.557  0.00  0.00    -0.092 F 
ENDROOT
TORSDOF 0
ENDMDL
