MODEL 1
REMARK minimizedAffinity 13.9626904
REMARK minimizedRMSD -1
REMARK  0 active torsions:
REMARK  status: ('A' for Active; 'I' for Inactive)
ROOT
ATOM      1  C   UNL d   1       3.346  -2.337   3.464  0.00  0.00     0.124 A 
ATOM      2  C1  UNL d   1       3.908  -3.184   4.409  0.00  0.00     0.062 A 
ATOM      3  C2  UNL d   1       3.138  -4.180   5.002  0.00  0.00     0.162 A 
ATOM      4  C3  UNL d   1       1.797  -4.336   4.651  0.00  0.00    -0.034 A 
ATOM      5  C4  UNL d   1       1.238  -3.479   3.700  0.00  0.00     0.162 A 
ATOM      6  C5  UNL d   1       2.012  -2.485   3.110  0.00  0.00     0.062 A 
ATOM      7  F   UNL d   1       1.468  -1.668   2.197  0.00  0.00    -0.097 F 
ATOM      8  F1  UNL d   1      -0.048  -3.601   3.339  0.00  0.00    -0.096 F 
ATOM      9  I   UNL d   1       0.642  -5.824   5.535  0.00  0.00    -0.060 I 
ATOM     10  F2  UNL d   1       3.707  -4.984   5.913  0.00  0.00    -0.096 F 
ATOM     11  F3  UNL d   1       5.196  -3.041   4.753  0.00  0.00    -0.097 F 
ATOM     12  F4  UNL d   1       4.089  -1.378   2.895  0.00  0.00    -0.092 F 
ENDROOT
TORSDOF 0
ENDMDL
