MODEL 1
REMARK minimizedAffinity 9.60438061
REMARK minimizedRMSD -1
REMARK  0 active torsions:
REMARK  status: ('A' for Active; 'I' for Inactive)
ROOT
ATOM      1  C   UNL d   1       2.119  -3.935   3.888  0.00  0.00     0.124 A 
ATOM      2  C1  UNL d   1       1.571  -3.079   4.833  0.00  0.00     0.062 A 
ATOM      3  C2  UNL d   1       1.500  -1.712   4.582  0.00  0.00     0.162 A 
ATOM      4  C3  UNL d   1       1.979  -1.192   3.379  0.00  0.00    -0.034 A 
ATOM      5  C4  UNL d   1       2.530  -2.059   2.434  0.00  0.00     0.162 A 
ATOM      6  C5  UNL d   1       2.598  -3.424   2.690  0.00  0.00     0.062 A 
ATOM      7  F   UNL d   1       3.129  -4.250   1.776  0.00  0.00    -0.097 F 
ATOM      8  F1  UNL d   1       3.000  -1.592   1.268  0.00  0.00    -0.096 F 
ATOM      9  I   UNL d   1       1.875   0.852   3.000  0.00  0.00    -0.060 I 
ATOM     10  F2  UNL d   1       0.965  -0.908   5.513  0.00  0.00    -0.096 F 
ATOM     11  F3  UNL d   1       1.108  -3.570   5.992  0.00  0.00    -0.097 F 
ATOM     12  F4  UNL d   1       2.187  -5.250   4.133  0.00  0.00    -0.092 F 
ENDROOT
TORSDOF 0
ENDMDL
