MODEL 1
REMARK minimizedAffinity -4.52296972
REMARK minimizedRMSD -1
REMARK  2 active torsions:
REMARK  status: ('A' for Active; 'I' for Inactive)
REMARK    1  A    between atoms: C1_2  and  C2_3 
REMARK    2  A    between atoms: C2_3  and  C3_4 
ROOT
ATOM      1  C3  UNL d   1      -0.017  -0.049   0.029  0.00  0.00    -0.075 A 
ATOM      2  C4  UNL d   1       0.807  -1.182  -0.033  0.00  0.00     0.002 A 
ATOM      3  C5  UNL d   1       2.150  -1.103   0.336  0.00  0.00     0.002 A 
ATOM      4  C6  UNL d   1       2.689   0.109   0.761  0.00  0.00    -0.004 A 
ATOM      5  C7  UNL d   1       1.884   1.245   0.811  0.00  0.00     0.002 A 
ATOM      6  C8  UNL d   1       0.538   1.168   0.447  0.00  0.00     0.002 A 
ENDROOT
BRANCH   1   7
ATOM      7  C2  UNL d   1      -1.478  -0.134  -0.340  0.00  0.00     0.056 C 
BRANCH   7   8
ATOM      8  C1  UNL d   1      -1.735  -0.240  -1.847  0.00  0.00     0.007 C 
ATOM      9  C   UNL d   1      -2.878   0.646  -2.325  0.00  0.00     0.009 C 
ENDBRANCH   7   8
ENDBRANCH   1   7
TORSDOF 2
ENDMDL
