MODEL 1
REMARK minimizedAffinity -5.38479805
REMARK minimizedRMSD -1
REMARK  2 active torsions:
REMARK  status: ('A' for Active; 'I' for Inactive)
REMARK    1  A    between atoms: C1_2  and  C2_3 
REMARK    2  A    between atoms: C2_3  and  C3_4 
ROOT
ATOM      1  C3  UNL d   1       0.468  -0.446   0.329  0.00  0.00    -0.075 A 
ATOM      2  C4  UNL d   1       0.587  -1.440   1.311  0.00  0.00     0.002 A 
ATOM      3  C5  UNL d   1       1.844  -1.894   1.710  0.00  0.00     0.002 A 
ATOM      4  C6  UNL d   1       2.995  -1.369   1.128  0.00  0.00    -0.004 A 
ATOM      5  C7  UNL d   1       2.889  -0.392   0.140  0.00  0.00     0.002 A 
ATOM      6  C8  UNL d   1       1.632   0.067  -0.259  0.00  0.00     0.002 A 
ENDROOT
BRANCH   1   7
ATOM      7  C2  UNL d   1      -0.889   0.071  -0.087  0.00  0.00     0.056 C 
BRANCH   7   8
ATOM      8  C1  UNL d   1      -1.315  -0.359  -1.495  0.00  0.00     0.007 C 
ATOM      9  C   UNL d   1      -2.645   0.243  -1.929  0.00  0.00     0.009 C 
ENDBRANCH   7   8
ENDBRANCH   1   7
TORSDOF 2
ENDMDL
