MODEL 1
REMARK minimizedAffinity -4.28101587
REMARK minimizedRMSD -1
REMARK  2 active torsions:
REMARK  status: ('A' for Active; 'I' for Inactive)
REMARK    1  A    between atoms: C1_2  and  C2_3 
REMARK    2  A    between atoms: C2_3  and  C3_4 
ROOT
ATOM      1  C3  UNL d   1       0.275   0.116   0.133  0.00  0.00    -0.075 A 
ATOM      2  C4  UNL d   1       1.036   0.860  -0.781  0.00  0.00     0.002 A 
ATOM      3  C5  UNL d   1       2.375   1.150  -0.517  0.00  0.00     0.002 A 
ATOM      4  C6  UNL d   1       2.966   0.710   0.665  0.00  0.00    -0.004 A 
ATOM      5  C7  UNL d   1       2.215  -0.015   1.588  0.00  0.00     0.002 A 
ATOM      6  C8  UNL d   1       0.877  -0.311   1.324  0.00  0.00     0.002 A 
ENDROOT
BRANCH   1   7
ATOM      7  C2  UNL d   1      -1.166  -0.226  -0.160  0.00  0.00     0.056 C 
BRANCH   7   8
ATOM      8  C1  UNL d   1      -1.611   0.118  -1.585  0.00  0.00     0.007 C 
ATOM      9  C   UNL d   1      -2.992  -0.423  -1.930  0.00  0.00     0.009 C 
ENDBRANCH   7   8
ENDBRANCH   1   7
TORSDOF 2
ENDMDL
