MODEL 1
REMARK minimizedAffinity -3.34348202
REMARK minimizedRMSD -1
REMARK  2 active torsions:
REMARK  status: ('A' for Active; 'I' for Inactive)
REMARK    1  A    between atoms: C1_2  and  C2_3 
REMARK    2  A    between atoms: C2_3  and  C3_4 
ROOT
ATOM      1  C3  UNL d   1      -0.002   0.132   0.486  0.00  0.00    -0.075 A 
ATOM      2  C4  UNL d   1       0.254  -1.023   1.239  0.00  0.00     0.002 A 
ATOM      3  C5  UNL d   1       1.502  -1.221   1.830  0.00  0.00     0.002 A 
ATOM      4  C6  UNL d   1       2.511  -0.274   1.668  0.00  0.00    -0.004 A 
ATOM      5  C7  UNL d   1       2.273   0.869   0.908  0.00  0.00     0.002 A 
ATOM      6  C8  UNL d   1       1.024   1.072   0.319  0.00  0.00     0.002 A 
ENDROOT
BRANCH   1   7
ATOM      7  C2  UNL d   1      -1.360   0.366  -0.132  0.00  0.00     0.056 C 
BRANCH   7   8
ATOM      8  C1  UNL d   1      -1.443  -0.011  -1.615  0.00  0.00     0.007 C 
ATOM      9  C   UNL d   1      -2.757   0.401  -2.266  0.00  0.00     0.009 C 
ENDBRANCH   7   8
ENDBRANCH   1   7
TORSDOF 2
ENDMDL
