MODEL 1
REMARK minimizedAffinity -5.13611746
REMARK minimizedRMSD -1
REMARK  2 active torsions:
REMARK  status: ('A' for Active; 'I' for Inactive)
REMARK    1  A    between atoms: C1_2  and  C2_3 
REMARK    2  A    between atoms: C2_3  and  C3_4 
ROOT
ATOM      1  C3  UNL d   1      -0.247   0.398  -0.051  0.00  0.00    -0.075 A 
ATOM      2  C4  UNL d   1       0.805   1.325  -0.059  0.00  0.00     0.002 A 
ATOM      3  C5  UNL d   1       2.033   1.007   0.522  0.00  0.00     0.002 A 
ATOM      4  C6  UNL d   1       2.221  -0.234   1.126  0.00  0.00    -0.004 A 
ATOM      5  C7  UNL d   1       1.177  -1.156   1.154  0.00  0.00     0.002 A 
ATOM      6  C8  UNL d   1      -0.051  -0.842   0.570  0.00  0.00     0.002 A 
ENDROOT
BRANCH   1   7
ATOM      7  C2  UNL d   1      -1.569   0.725  -0.705  0.00  0.00     0.056 C 
BRANCH   7   8
ATOM      8  C1  UNL d   1      -1.956  -0.228  -1.840  0.00  0.00     0.007 C 
ATOM      9  C   UNL d   1      -2.967   0.371  -2.809  0.00  0.00     0.009 C 
ENDBRANCH   7   8
ENDBRANCH   1   7
TORSDOF 2
ENDMDL
