MODEL 1
REMARK minimizedAffinity -4.56483507
REMARK minimizedRMSD -1
REMARK  2 active torsions:
REMARK  status: ('A' for Active; 'I' for Inactive)
REMARK    1  A    between atoms: C1_2  and  C2_3 
REMARK    2  A    between atoms: C2_3  and  C3_4 
ROOT
ATOM      1  C3  UNL d   1       0.186  -0.005   0.289  0.00  0.00    -0.075 A 
ATOM      2  C4  UNL d   1       0.882  -1.220   0.371  0.00  0.00     0.002 A 
ATOM      3  C5  UNL d   1       2.191  -1.256   0.852  0.00  0.00     0.002 A 
ATOM      4  C6  UNL d   1       2.824  -0.080   1.247  0.00  0.00    -0.004 A 
ATOM      5  C7  UNL d   1       2.148   1.135   1.155  0.00  0.00     0.002 A 
ATOM      6  C8  UNL d   1       0.837   1.174   0.678  0.00  0.00     0.002 A 
ENDROOT
BRANCH   1   7
ATOM      7  C2  UNL d   1      -1.240   0.037  -0.203  0.00  0.00     0.056 C 
BRANCH   7   8
ATOM      8  C1  UNL d   1      -1.468  -0.714  -1.519  0.00  0.00     0.007 C 
ATOM      9  C   UNL d   1      -2.557  -0.093  -2.384  0.00  0.00     0.009 C 
ENDBRANCH   7   8
ENDBRANCH   1   7
TORSDOF 2
ENDMDL
