MODEL 1
REMARK minimizedAffinity -2.71386456
REMARK minimizedRMSD -1
REMARK  2 active torsions:
REMARK  status: ('A' for Active; 'I' for Inactive)
REMARK    1  A    between atoms: C1_2  and  C2_3 
REMARK    2  A    between atoms: C2_3  and  C3_4 
ROOT
ATOM      1  C3  UNL d   1      -0.182  -0.130   0.225  0.00  0.00    -0.075 A 
ATOM      2  C4  UNL d   1       0.517  -1.243   0.716  0.00  0.00     0.002 A 
ATOM      3  C5  UNL d   1       1.878  -1.150   1.010  0.00  0.00     0.002 A 
ATOM      4  C6  UNL d   1       2.557   0.049   0.809  0.00  0.00    -0.004 A 
ATOM      5  C7  UNL d   1       1.877   1.156   0.307  0.00  0.00     0.002 A 
ATOM      6  C8  UNL d   1       0.514   1.068   0.015  0.00  0.00     0.002 A 
ENDROOT
BRANCH   1   7
ATOM      7  C2  UNL d   1      -1.661  -0.215  -0.068  0.00  0.00     0.056 C 
BRANCH   7   8
ATOM      8  C1  UNL d   1      -2.112   0.643  -1.255  0.00  0.00     0.007 C 
ATOM      9  C   UNL d   1      -2.368  -0.167  -2.519  0.00  0.00     0.009 C 
ENDBRANCH   7   8
ENDBRANCH   1   7
TORSDOF 2
ENDMDL
