MODEL 1
REMARK minimizedAffinity -4.47156668
REMARK minimizedRMSD -1
REMARK  2 active torsions:
REMARK  status: ('A' for Active; 'I' for Inactive)
REMARK    1  A    between atoms: C1_2  and  C2_3 
REMARK    2  A    between atoms: C2_3  and  C3_4 
ROOT
ATOM      1  C3  UNL d   1      -0.146   0.184  -0.054  0.00  0.00    -0.075 A 
ATOM      2  C4  UNL d   1       0.678  -0.469   0.874  0.00  0.00     0.002 A 
ATOM      3  C5  UNL d   1       1.975  -0.013   1.114  0.00  0.00     0.002 A 
ATOM      4  C6  UNL d   1       2.467   1.092   0.422  0.00  0.00    -0.004 A 
ATOM      5  C7  UNL d   1       1.663   1.738  -0.514  0.00  0.00     0.002 A 
ATOM      6  C8  UNL d   1       0.364   1.287  -0.752  0.00  0.00     0.002 A 
ENDROOT
BRANCH   1   7
ATOM      7  C2  UNL d   1      -1.560  -0.286  -0.296  0.00  0.00     0.056 C 
BRANCH   7   8
ATOM      8  C1  UNL d   1      -2.254   0.405  -1.475  0.00  0.00     0.007 C 
ATOM      9  C   UNL d   1      -2.627  -0.554  -2.597  0.00  0.00     0.009 C 
ENDBRANCH   7   8
ENDBRANCH   1   7
TORSDOF 2
ENDMDL
