MODEL 1
REMARK minimizedAffinity -2.16780782
REMARK minimizedRMSD -1
REMARK  1 active torsions:
REMARK  status: ('A' for Active; 'I' for Inactive)
REMARK    1  A    between atoms: C1_2  and  C2_3 
ROOT
ATOM      1  C2  UNL d   1       1.011  -2.590   0.401  0.00  0.00    -0.073 A 
ATOM      2  C3  UNL d   1       2.052  -1.752   0.816  0.00  0.00    -0.002 A 
ATOM      3  C4  UNL d   1       1.791  -0.430   1.179  0.00  0.00     0.004 A 
ATOM      4  C5  UNL d   1       0.488   0.065   1.138  0.00  0.00    -0.004 A 
ATOM      5  C6  UNL d   1      -0.568  -0.760   0.737  0.00  0.00    -0.075 A 
ATOM      6  C7  UNL d   1      -1.976  -0.242   0.685  0.00  0.00     0.076 C 
ATOM      7  C8  UNL d   1      -0.298  -2.086   0.371  0.00  0.00     0.001 A 
ENDROOT
BRANCH   1   8
ATOM      8  C1  UNL d   1       1.287  -4.020   0.013  0.00  0.00     0.053 C 
ATOM      9  C   UNL d   1       2.761  -4.369   0.138  0.00  0.00     0.018 C 
ENDBRANCH   1   8
TORSDOF 1
ENDMDL
