MODEL 1
REMARK minimizedAffinity 8.22717762
REMARK minimizedRMSD -1
REMARK  1 active torsions:
REMARK  status: ('A' for Active; 'I' for Inactive)
REMARK    1  A    between atoms: C1_2  and  C2_3 
ROOT
ATOM      1  C2  UNL d   1       0.938  -0.989  -1.533  0.00  0.00    -0.073 A 
ATOM      2  C3  UNL d   1      -0.292  -1.501  -1.107  0.00  0.00    -0.002 A 
ATOM      3  C4  UNL d   1      -0.617  -1.520   0.250  0.00  0.00     0.004 A 
ATOM      4  C5  UNL d   1       0.281  -1.020   1.193  0.00  0.00    -0.004 A 
ATOM      5  C6  UNL d   1       1.511  -0.493   0.786  0.00  0.00    -0.075 A 
ATOM      6  C7  UNL d   1       2.489   0.046   1.789  0.00  0.00     0.076 C 
ATOM      7  C8  UNL d   1       1.831  -0.481  -0.578  0.00  0.00     0.001 A 
ENDROOT
BRANCH   1   8
ATOM      8  C1  UNL d   1       1.291  -0.961  -2.998  0.00  0.00     0.053 C 
ATOM      9  C   UNL d   1       2.289   0.138  -3.323  0.00  0.00     0.018 C 
ENDBRANCH   1   8
TORSDOF 1
ENDMDL
