MODEL 1
REMARK minimizedAffinity -1.92899895
REMARK minimizedRMSD -1
REMARK  1 active torsions:
REMARK  status: ('A' for Active; 'I' for Inactive)
REMARK    1  A    between atoms: C1_2  and  C2_3 
ROOT
ATOM      1  C2  UNL d   1       1.620  -2.917   0.198  0.00  0.00    -0.073 A 
ATOM      2  C3  UNL d   1       2.614  -1.942   0.330  0.00  0.00    -0.002 A 
ATOM      3  C4  UNL d   1       2.270  -0.617   0.600  0.00  0.00     0.004 A 
ATOM      4  C5  UNL d   1       0.931  -0.255   0.749  0.00  0.00    -0.004 A 
ATOM      5  C6  UNL d   1      -0.076  -1.218   0.632  0.00  0.00    -0.075 A 
ATOM      6  C7  UNL d   1      -1.522  -0.846   0.787  0.00  0.00     0.076 C 
ATOM      7  C8  UNL d   1       0.277  -2.546   0.357  0.00  0.00     0.001 A 
ENDROOT
BRANCH   1   8
ATOM      8  C1  UNL d   1       1.987  -4.351  -0.088  0.00  0.00     0.053 C 
ATOM      9  C   UNL d   1       3.493  -4.552  -0.150  0.00  0.00     0.018 C 
ENDBRANCH   1   8
TORSDOF 1
ENDMDL
