MODEL 1
REMARK minimizedAffinity 0.55551511
REMARK minimizedRMSD -1
REMARK  1 active torsions:
REMARK  status: ('A' for Active; 'I' for Inactive)
REMARK    1  A    between atoms: C1_2  and  C2_3 
ROOT
ATOM      1  C2  UNL d   1      -0.551  -0.836   1.155  0.00  0.00    -0.073 A 
ATOM      2  C3  UNL d   1       0.466   0.042   1.545  0.00  0.00    -0.002 A 
ATOM      3  C4  UNL d   1       1.805  -0.339   1.440  0.00  0.00     0.004 A 
ATOM      4  C5  UNL d   1       2.139  -1.597   0.938  0.00  0.00    -0.004 A 
ATOM      5  C6  UNL d   1       1.137  -2.484   0.532  0.00  0.00    -0.075 A 
ATOM      6  C7  UNL d   1       1.480  -3.841  -0.008  0.00  0.00     0.076 C 
ATOM      7  C8  UNL d   1      -0.205  -2.095   0.643  0.00  0.00     0.001 A 
ENDROOT
BRANCH   1   8
ATOM      8  C1  UNL d   1      -1.998  -0.427   1.261  0.00  0.00     0.053 C 
ATOM      9  C   UNL d   1      -2.150   1.059   1.543  0.00  0.00     0.018 C 
ENDBRANCH   1   8
TORSDOF 1
ENDMDL
