MODEL 1
REMARK minimizedAffinity 1.88448274
REMARK minimizedRMSD -1
REMARK  1 active torsions:
REMARK  status: ('A' for Active; 'I' for Inactive)
REMARK    1  A    between atoms: C1_2  and  C2_3 
ROOT
ATOM      1  C2  UNL d   1       4.004   3.953  -1.933  0.00  0.00    -0.073 A 
ATOM      2  C3  UNL d   1       4.247   3.012  -0.926  0.00  0.00    -0.002 A 
ATOM      3  C4  UNL d   1       3.846   1.685  -1.088  0.00  0.00     0.004 A 
ATOM      4  C5  UNL d   1       3.205   1.285  -2.260  0.00  0.00    -0.004 A 
ATOM      5  C6  UNL d   1       2.963   2.207  -3.283  0.00  0.00    -0.075 A 
ATOM      6  C7  UNL d   1       2.273   1.793  -4.549  0.00  0.00     0.076 C 
ATOM      7  C8  UNL d   1       3.367   3.538  -3.111  0.00  0.00     0.001 A 
ENDROOT
BRANCH   1   8
ATOM      8  C1  UNL d   1       4.441   5.385  -1.764  0.00  0.00     0.053 C 
ATOM      9  C   UNL d   1       5.623   5.513  -0.817  0.00  0.00     0.018 C 
ENDBRANCH   1   8
TORSDOF 1
ENDMDL
