MODEL 1
REMARK minimizedAffinity -2.76819396
REMARK minimizedRMSD -1
REMARK  1 active torsions:
REMARK  status: ('A' for Active; 'I' for Inactive)
REMARK    1  A    between atoms: C1_2  and  C2_3 
ROOT
ATOM      1  C2  UNL d   1       1.864  -2.609  -0.108  0.00  0.00    -0.073 A 
ATOM      2  C3  UNL d   1       2.634  -1.441  -0.048  0.00  0.00    -0.002 A 
ATOM      3  C4  UNL d   1       2.094  -0.267   0.477  0.00  0.00     0.004 A 
ATOM      4  C5  UNL d   1       0.783  -0.249   0.954  0.00  0.00    -0.004 A 
ATOM      5  C6  UNL d   1       0.002  -1.408   0.915  0.00  0.00    -0.075 A 
ATOM      6  C7  UNL d   1      -1.410  -1.405   1.422  0.00  0.00     0.076 C 
ATOM      7  C8  UNL d   1       0.551  -2.583   0.383  0.00  0.00     0.001 A 
ENDROOT
BRANCH   1   8
ATOM      8  C1  UNL d   1       2.445  -3.881  -0.668  0.00  0.00     0.053 C 
ATOM      9  C   UNL d   1       3.948  -3.964  -0.454  0.00  0.00     0.018 C 
ENDBRANCH   1   8
TORSDOF 1
ENDMDL
