MODEL 1
REMARK minimizedAffinity 1.63778818
REMARK minimizedRMSD -1
REMARK  1 active torsions:
REMARK  status: ('A' for Active; 'I' for Inactive)
REMARK    1  A    between atoms: C1_2  and  C2_3 
ROOT
ATOM      1  C2  UNL d   1       0.990  -3.065   0.328  0.00  0.00    -0.073 A 
ATOM      2  C3  UNL d   1       1.869  -2.171   0.951  0.00  0.00    -0.002 A 
ATOM      3  C4  UNL d   1       1.455  -0.875   1.259  0.00  0.00     0.004 A 
ATOM      4  C5  UNL d   1       0.158  -0.461   0.955  0.00  0.00    -0.004 A 
ATOM      5  C6  UNL d   1      -0.739  -1.343   0.343  0.00  0.00    -0.075 A 
ATOM      6  C7  UNL d   1      -2.136  -0.913   0.007  0.00  0.00     0.076 C 
ATOM      7  C8  UNL d   1      -0.314  -2.642   0.034  0.00  0.00     0.001 A 
ENDROOT
BRANCH   1   8
ATOM      8  C1  UNL d   1       1.431  -4.468  -0.002  0.00  0.00     0.053 C 
ATOM      9  C   UNL d   1       2.898  -4.695   0.324  0.00  0.00     0.018 C 
ENDBRANCH   1   8
TORSDOF 1
ENDMDL
