MODEL 1
REMARK minimizedAffinity -3.68703532
REMARK minimizedRMSD -1
REMARK  1 active torsions:
REMARK  status: ('A' for Active; 'I' for Inactive)
REMARK    1  A    between atoms: C1_2  and  C2_3 
ROOT
ATOM      1  C2  UNL d   1       3.144  -3.246   0.066  0.00  0.00    -0.073 A 
ATOM      2  C3  UNL d   1       1.940  -3.905  -0.209  0.00  0.00    -0.002 A 
ATOM      3  C4  UNL d   1       0.719  -3.280   0.050  0.00  0.00     0.004 A 
ATOM      4  C5  UNL d   1       0.690  -1.990   0.579  0.00  0.00    -0.004 A 
ATOM      5  C6  UNL d   1       1.882  -1.311   0.850  0.00  0.00    -0.075 A 
ATOM      6  C7  UNL d   1       1.867   0.076   1.421  0.00  0.00     0.076 C 
ATOM      7  C8  UNL d   1       3.104  -1.946   0.589  0.00  0.00     0.001 A 
ENDROOT
BRANCH   1   8
ATOM      8  C1  UNL d   1       4.464  -3.914  -0.218  0.00  0.00     0.053 C 
ATOM      9  C   UNL d   1       4.606  -5.235   0.522  0.00  0.00     0.018 C 
ENDBRANCH   1   8
TORSDOF 1
ENDMDL
