MODEL 1
REMARK minimizedAffinity -2.02087307
REMARK minimizedRMSD -1
REMARK  1 active torsions:
REMARK  status: ('A' for Active; 'I' for Inactive)
REMARK    1  A    between atoms: C1_2  and  C2_3 
ROOT
ATOM      1  C2  UNL d   1      -0.336  -0.989   0.729  0.00  0.00    -0.073 A 
ATOM      2  C3  UNL d   1       0.669  -0.046   0.972  0.00  0.00    -0.002 A 
ATOM      3  C4  UNL d   1       2.014  -0.403   0.855  0.00  0.00     0.004 A 
ATOM      4  C5  UNL d   1       2.366  -1.701   0.488  0.00  0.00    -0.004 A 
ATOM      5  C6  UNL d   1       1.376  -2.655   0.229  0.00  0.00    -0.075 A 
ATOM      6  C7  UNL d   1       1.738  -4.056  -0.165  0.00  0.00     0.076 C 
ATOM      7  C8  UNL d   1       0.028  -2.290   0.351  0.00  0.00     0.001 A 
ENDROOT
BRANCH   1   8
ATOM      8  C1  UNL d   1      -1.788  -0.607   0.848  0.00  0.00     0.053 C 
ATOM      9  C   UNL d   1      -1.968   0.761   1.487  0.00  0.00     0.018 C 
ENDBRANCH   1   8
TORSDOF 1
ENDMDL
