MODEL 1
REMARK minimizedAffinity -3.22813439
REMARK minimizedRMSD -1
REMARK  1 active torsions:
REMARK  status: ('A' for Active; 'I' for Inactive)
REMARK    1  A    between atoms: C1_2  and  C2_3 
ROOT
ATOM      1  C2  UNL d   1       2.266  -2.419   0.372  0.00  0.00    -0.073 A 
ATOM      2  C3  UNL d   1       1.383  -3.472   0.112  0.00  0.00    -0.002 A 
ATOM      3  C4  UNL d   1       0.008  -3.296   0.278  0.00  0.00     0.004 A 
ATOM      4  C5  UNL d   1      -0.496  -2.066   0.698  0.00  0.00    -0.004 A 
ATOM      5  C6  UNL d   1       0.370  -0.998   0.952  0.00  0.00    -0.075 A 
ATOM      6  C7  UNL d   1      -0.157   0.332   1.407  0.00  0.00     0.076 C 
ATOM      7  C8  UNL d   1       1.749  -1.183   0.785  0.00  0.00     0.001 A 
ENDROOT
BRANCH   1   8
ATOM      8  C1  UNL d   1       3.751  -2.602   0.188  0.00  0.00     0.053 C 
ATOM      9  C   UNL d   1       4.137  -4.069   0.098  0.00  0.00     0.018 C 
ENDBRANCH   1   8
TORSDOF 1
ENDMDL
