MODEL 1
REMARK minimizedAffinity 6.40638399
REMARK minimizedRMSD -1
REMARK  1 active torsions:
REMARK  status: ('A' for Active; 'I' for Inactive)
REMARK    1  A    between atoms: C1_2  and  C2_3 
ROOT
ATOM      1  C2  UNL d   1      -4.886  -4.832   3.090  0.00  0.00    -0.073 A 
ATOM      2  C3  UNL d   1      -4.438  -6.000   3.719  0.00  0.00    -0.002 A 
ATOM      3  C4  UNL d   1      -4.118  -5.990   5.077  0.00  0.00     0.004 A 
ATOM      4  C5  UNL d   1      -4.248  -4.818   5.821  0.00  0.00    -0.004 A 
ATOM      5  C6  UNL d   1      -4.705  -3.644   5.214  0.00  0.00    -0.075 A 
ATOM      6  C7  UNL d   1      -4.849  -2.374   5.999  0.00  0.00     0.076 C 
ATOM      7  C8  UNL d   1      -5.023  -3.661   3.849  0.00  0.00     0.001 A 
ENDROOT
BRANCH   1   8
ATOM      8  C1  UNL d   1      -5.240  -4.839   1.626  0.00  0.00     0.053 C 
ATOM      9  C   UNL d   1      -4.243  -4.046   0.795  0.00  0.00     0.018 C 
ENDBRANCH   1   8
TORSDOF 1
ENDMDL
