MODEL 1
REMARK minimizedAffinity -5.27559233
REMARK minimizedRMSD -1
REMARK  1 active torsions:
REMARK  status: ('A' for Active; 'I' for Inactive)
REMARK    1  A    between atoms: C1_2  and  C2_3 
ROOT
ATOM      1  C2  UNL d   1       1.159  -1.264   0.653  0.00  0.00    -0.073 A 
ATOM      2  C3  UNL d   1       0.006  -2.005   0.367  0.00  0.00    -0.002 A 
ATOM      3  C4  UNL d   1       0.107  -3.334  -0.046  0.00  0.00     0.004 A 
ATOM      4  C5  UNL d   1       1.359  -3.937  -0.170  0.00  0.00    -0.004 A 
ATOM      5  C6  UNL d   1       2.521  -3.216   0.122  0.00  0.00    -0.075 A 
ATOM      6  C7  UNL d   1       3.875  -3.850  -0.009  0.00  0.00     0.076 C 
ATOM      7  C8  UNL d   1       2.412  -1.881   0.534  0.00  0.00     0.001 A 
ENDROOT
BRANCH   1   8
ATOM      8  C1  UNL d   1       1.054   0.170   1.105  0.00  0.00     0.053 C 
ATOM      9  C   UNL d   1      -0.337   0.506   1.619  0.00  0.00     0.018 C 
ENDBRANCH   1   8
TORSDOF 1
ENDMDL
