MODEL 1
REMARK minimizedAffinity 11.4234085
REMARK minimizedRMSD -1
REMARK  3 active torsions:
REMARK  status: ('A' for Active; 'I' for Inactive)
REMARK    1  A    between atoms: C3'_2  and  C2'_3 
REMARK    2  A    between atoms: C2'_3  and  C1'_4 
REMARK    3  A    between atoms: C1'_4  and  C1_5 
ROOT
ATOM      1  C1  N4B d   1       1.964   1.827   2.141  0.00  0.00    -0.075 A 
ATOM      2  C2  N4B d   1       1.586   2.171   0.824  0.00  0.00     0.002 A 
ATOM      3  C3  N4B d   1       1.901   1.337  -0.220  0.00  0.00     0.002 A 
ATOM      4  C4  N4B d   1       2.606   0.168   0.024  0.00  0.00    -0.004 A 
ATOM      5  C5  N4B d   1       2.946  -0.169   1.301  0.00  0.00     0.002 A 
ATOM      6  C6  N4B d   1       2.632   0.657   2.361  0.00  0.00     0.002 A 
ENDROOT
BRANCH   1   7
ATOM      7  C1' N4B d   1       1.717   2.748   3.304  0.00  0.00     0.057 C 
BRANCH   7   8
ATOM      8  C2' N4B d   1       2.305   4.121   2.989  0.00  0.00     0.009 C 
BRANCH   8   9
ATOM      9  C3' N4B d   1       3.822   4.088   2.926  0.00  0.00     0.004 C 
ATOM     10  C4' N4B d   1       4.430   5.457   2.849  0.00  0.00     0.003 C 
ENDBRANCH   8   9
ENDBRANCH   7   8
ENDBRANCH   1   7
TORSDOF 3
ENDMDL
