MODEL 1
REMARK minimizedAffinity 4.10724163
REMARK minimizedRMSD -1
REMARK  3 active torsions:
REMARK  status: ('A' for Active; 'I' for Inactive)
REMARK    1  A    between atoms: C3'_2  and  C2'_3 
REMARK    2  A    between atoms: C2'_3  and  C1'_4 
REMARK    3  A    between atoms: C1'_4  and  C1_5 
ROOT
ATOM      1  C1  N4B d   1       0.608   1.027   2.786  0.00  0.00    -0.075 A 
ATOM      2  C2  N4B d   1       1.564   1.182   1.758  0.00  0.00     0.002 A 
ATOM      3  C3  N4B d   1       1.259   1.925   0.643  0.00  0.00     0.002 A 
ATOM      4  C4  N4B d   1       0.004   2.503   0.527  0.00  0.00    -0.004 A 
ATOM      5  C5  N4B d   1      -0.905   2.369   1.536  0.00  0.00     0.002 A 
ATOM      6  C6  N4B d   1      -0.611   1.629   2.663  0.00  0.00     0.002 A 
ENDROOT
BRANCH   1   7
ATOM      7  C1' N4B d   1       0.865   0.154   3.984  0.00  0.00     0.057 C 
BRANCH   7   8
ATOM      8  C2' N4B d   1       0.335  -1.250   3.703  0.00  0.00     0.009 C 
BRANCH   8   9
ATOM      9  C3' N4B d   1       1.427  -2.301   3.809  0.00  0.00     0.004 C 
ATOM     10  C4' N4B d   1       1.949  -2.733   2.472  0.00  0.00     0.003 C 
ENDBRANCH   8   9
ENDBRANCH   7   8
ENDBRANCH   1   7
TORSDOF 3
ENDMDL
