MODEL 1
REMARK minimizedAffinity 2.0935688
REMARK minimizedRMSD -1
REMARK  3 active torsions:
REMARK  status: ('A' for Active; 'I' for Inactive)
REMARK    1  A    between atoms: C3'_2  and  C2'_3 
REMARK    2  A    between atoms: C2'_3  and  C1'_4 
REMARK    3  A    between atoms: C1'_4  and  C1_5 
ROOT
ATOM      1  C1  N4B d   1       0.298   1.824  -0.106  0.00  0.00    -0.075 A 
ATOM      2  C2  N4B d   1       0.794   3.136   0.059  0.00  0.00     0.002 A 
ATOM      3  C3  N4B d   1       2.091   3.333   0.468  0.00  0.00     0.002 A 
ATOM      4  C4  N4B d   1       2.900   2.239   0.734  0.00  0.00    -0.004 A 
ATOM      5  C5  N4B d   1       2.421   0.976   0.549  0.00  0.00     0.002 A 
ATOM      6  C6  N4B d   1       1.121   0.762   0.135  0.00  0.00     0.002 A 
ENDROOT
BRANCH   1   7
ATOM      7  C1' N4B d   1      -1.137   1.558  -0.467  0.00  0.00     0.057 C 
BRANCH   7   8
ATOM      8  C2' N4B d   1      -1.226   1.230  -1.955  0.00  0.00     0.009 C 
BRANCH   8   9
ATOM      9  C3' N4B d   1      -2.651   0.923  -2.385  0.00  0.00     0.004 C 
ATOM     10  C4' N4B d   1      -3.665   1.296  -1.345  0.00  0.00     0.003 C 
ENDBRANCH   8   9
ENDBRANCH   7   8
ENDBRANCH   1   7
TORSDOF 3
ENDMDL
