MODEL 1
REMARK minimizedAffinity -0.745523334
REMARK minimizedRMSD -1
REMARK  3 active torsions:
REMARK  status: ('A' for Active; 'I' for Inactive)
REMARK    1  A    between atoms: C3'_2  and  C2'_3 
REMARK    2  A    between atoms: C2'_3  and  C1'_4 
REMARK    3  A    between atoms: C1'_4  and  C1_5 
ROOT
ATOM      1  C1  N4B d   1       2.584  -0.688   0.017  0.00  0.00    -0.075 A 
ATOM      2  C2  N4B d   1       1.863   0.453   0.433  0.00  0.00     0.002 A 
ATOM      3  C3  N4B d   1       2.412   1.704   0.285  0.00  0.00     0.002 A 
ATOM      4  C4  N4B d   1       3.682   1.836  -0.255  0.00  0.00    -0.004 A 
ATOM      5  C5  N4B d   1       4.361   0.731  -0.678  0.00  0.00     0.002 A 
ATOM      6  C6  N4B d   1       3.821  -0.531  -0.540  0.00  0.00     0.002 A 
ENDROOT
BRANCH   1   7
ATOM      7  C1' N4B d   1       2.062  -2.081   0.237  0.00  0.00     0.057 C 
BRANCH   7   8
ATOM      8  C2' N4B d   1       1.288  -2.526  -1.001  0.00  0.00     0.009 C 
BRANCH   8   9
ATOM      9  C3' N4B d   1      -0.214  -2.439  -0.793  0.00  0.00     0.004 C 
ATOM     10  C4' N4B d   1      -0.829  -1.261  -1.488  0.00  0.00     0.003 C 
ENDBRANCH   8   9
ENDBRANCH   7   8
ENDBRANCH   1   7
TORSDOF 3
ENDMDL
