MODEL 1
REMARK minimizedAffinity -1.13186097
REMARK minimizedRMSD -1
REMARK  1 active torsions:
REMARK  status: ('A' for Active; 'I' for Inactive)
REMARK    1  A    between atoms: C1_2  and  C2_3 
ROOT
ATOM      1  C2  UNL d   1       1.007   1.389  -1.102  0.00  0.00    -0.077 A 
ATOM      2  C3  UNL d   1       0.988   2.445  -2.023  0.00  0.00     0.002 A 
ATOM      3  C4  UNL d   1       0.982   3.769  -1.579  0.00  0.00     0.002 A 
ATOM      4  C5  UNL d   1       0.998   4.048  -0.214  0.00  0.00    -0.004 A 
ATOM      5  C6  UNL d   1       1.015   3.005   0.710  0.00  0.00     0.002 A 
ATOM      6  C7  UNL d   1       1.021   1.681   0.268  0.00  0.00     0.002 A 
ENDROOT
BRANCH   1   7
ATOM      7  C1  UNL d   1       1.064  -0.039  -1.578  0.00  0.00     0.055 C 
ATOM      8  C   UNL d   1       1.745  -0.937  -0.556  0.00  0.00     0.019 C 
ENDBRANCH   1   7
TORSDOF 1
ENDMDL
