MODEL 1
REMARK minimizedAffinity 2.56010842
REMARK minimizedRMSD -1
REMARK  1 active torsions:
REMARK  status: ('A' for Active; 'I' for Inactive)
REMARK    1  A    between atoms: C1_2  and  C2_3 
ROOT
ATOM      1  C2  UNL d   1       1.076   1.978  -0.984  0.00  0.00    -0.077 A 
ATOM      2  C3  UNL d   1       0.972   3.229  -1.609  0.00  0.00     0.002 A 
ATOM      3  C4  UNL d   1       0.991   4.401  -0.851  0.00  0.00     0.002 A 
ATOM      4  C5  UNL d   1       1.119   4.334   0.535  0.00  0.00    -0.004 A 
ATOM      5  C6  UNL d   1       1.221   3.095   1.166  0.00  0.00     0.002 A 
ATOM      6  C7  UNL d   1       1.201   1.923   0.410  0.00  0.00     0.002 A 
ENDROOT
BRANCH   1   7
ATOM      7  C1  UNL d   1       1.105   0.715  -1.805  0.00  0.00     0.055 C 
ATOM      8  C   UNL d   1       1.611  -0.464  -0.987  0.00  0.00     0.019 C 
ENDBRANCH   1   7
TORSDOF 1
ENDMDL
