MODEL 1
REMARK minimizedAffinity 4.25420046
REMARK minimizedRMSD -1
REMARK  1 active torsions:
REMARK  status: ('A' for Active; 'I' for Inactive)
REMARK    1  A    between atoms: C1_2  and  C2_3 
ROOT
ATOM      1  C2  UNL d   1       1.406   2.933  -1.024  0.00  0.00    -0.077 A 
ATOM      2  C3  UNL d   1       0.677   2.722  -2.203  0.00  0.00     0.002 A 
ATOM      3  C4  UNL d   1       0.591   1.445  -2.761  0.00  0.00     0.002 A 
ATOM      4  C5  UNL d   1       1.227   0.369  -2.144  0.00  0.00    -0.004 A 
ATOM      5  C6  UNL d   1       1.956   0.570  -0.973  0.00  0.00     0.002 A 
ATOM      6  C7  UNL d   1       2.044   1.846  -0.415  0.00  0.00     0.002 A 
ENDROOT
BRANCH   1   7
ATOM      7  C1  UNL d   1       1.459   4.301  -0.394  0.00  0.00     0.055 C 
ATOM      8  C   UNL d   1       1.906   5.355  -1.396  0.00  0.00     0.019 C 
ENDBRANCH   1   7
TORSDOF 1
ENDMDL
