MODEL 1
REMARK minimizedAffinity 9.45582199
REMARK minimizedRMSD -1
REMARK  1 active torsions:
REMARK  status: ('A' for Active; 'I' for Inactive)
REMARK    1  A    between atoms: C1_2  and  C2_3 
ROOT
ATOM      1  C2  UNL d   1       0.892   3.758  -1.373  0.00  0.00    -0.077 A 
ATOM      2  C3  UNL d   1       1.620   2.609  -1.036  0.00  0.00     0.002 A 
ATOM      3  C4  UNL d   1       1.353   1.393  -1.667  0.00  0.00     0.002 A 
ATOM      4  C5  UNL d   1       0.360   1.316  -2.642  0.00  0.00    -0.004 A 
ATOM      5  C6  UNL d   1      -0.371   2.453  -2.983  0.00  0.00     0.002 A 
ATOM      6  C7  UNL d   1      -0.106   3.669  -2.352  0.00  0.00     0.002 A 
ENDROOT
BRANCH   1   7
ATOM      7  C1  UNL d   1       1.213   5.082  -0.729  0.00  0.00     0.055 C 
ATOM      8  C   UNL d   1       1.955   6.000  -1.689  0.00  0.00     0.019 C 
ENDBRANCH   1   7
TORSDOF 1
ENDMDL
