MODEL 1
REMARK minimizedAffinity 4.96815825
REMARK minimizedRMSD -1
REMARK  1 active torsions:
REMARK  status: ('A' for Active; 'I' for Inactive)
REMARK    1  A    between atoms: C1_2  and  C2_3 
ROOT
ATOM      1  C2  UNL d   1       1.030   3.461  -0.739  0.00  0.00    -0.077 A 
ATOM      2  C3  UNL d   1       0.371   3.354  -1.972  0.00  0.00     0.002 A 
ATOM      3  C4  UNL d   1       0.112   2.100  -2.528  0.00  0.00     0.002 A 
ATOM      4  C5  UNL d   1       0.505   0.944  -1.857  0.00  0.00    -0.004 A 
ATOM      5  C6  UNL d   1       1.162   1.039  -0.631  0.00  0.00     0.002 A 
ATOM      6  C7  UNL d   1       1.423   2.292  -0.074  0.00  0.00     0.002 A 
ENDROOT
BRANCH   1   7
ATOM      7  C1  UNL d   1       1.266   4.811  -0.114  0.00  0.00     0.055 C 
ATOM      8  C   UNL d   1       1.919   5.770  -1.099  0.00  0.00     0.019 C 
ENDBRANCH   1   7
TORSDOF 1
ENDMDL
