MODEL 1
REMARK minimizedAffinity 2.47652841
REMARK minimizedRMSD -1
REMARK  1 active torsions:
REMARK  status: ('A' for Active; 'I' for Inactive)
REMARK    1  A    between atoms: C1_2  and  C2_3 
ROOT
ATOM      1  C2  UNL d   1       1.228   2.716  -0.969  0.00  0.00    -0.077 A 
ATOM      2  C3  UNL d   1       1.307   3.871  -1.760  0.00  0.00     0.002 A 
ATOM      3  C4  UNL d   1       1.269   5.135  -1.170  0.00  0.00     0.002 A 
ATOM      4  C5  UNL d   1       1.156   5.257   0.214  0.00  0.00    -0.004 A 
ATOM      5  C6  UNL d   1       1.075   4.115   1.009  0.00  0.00     0.002 A 
ATOM      6  C7  UNL d   1       1.112   2.850   0.421  0.00  0.00     0.002 A 
ENDROOT
BRANCH   1   7
ATOM      7  C1  UNL d   1       1.319   1.351  -1.599  0.00  0.00     0.055 C 
ATOM      8  C   UNL d   1       2.228   0.431  -0.798  0.00  0.00     0.019 C 
ENDBRANCH   1   7
TORSDOF 1
ENDMDL
