MODEL 1
REMARK minimizedAffinity 9.0853529
REMARK minimizedRMSD -1
REMARK  1 active torsions:
REMARK  status: ('A' for Active; 'I' for Inactive)
REMARK    1  A    between atoms: C1_2  and  C2_3 
ROOT
ATOM      1  C2  UNL d   1       0.465   1.987  -1.643  0.00  0.00    -0.077 A 
ATOM      2  C3  UNL d   1      -0.874   1.613  -1.463  0.00  0.00     0.002 A 
ATOM      3  C4  UNL d   1      -1.905   2.457  -1.879  0.00  0.00     0.002 A 
ATOM      4  C5  UNL d   1      -1.609   3.678  -2.480  0.00  0.00    -0.004 A 
ATOM      5  C6  UNL d   1      -0.280   4.061  -2.662  0.00  0.00     0.002 A 
ATOM      6  C7  UNL d   1       0.752   3.219  -2.246  0.00  0.00     0.002 A 
ENDROOT
BRANCH   1   7
ATOM      7  C1  UNL d   1       1.579   1.056  -1.240  0.00  0.00     0.055 C 
ATOM      8  C   UNL d   1       1.250  -0.387  -1.595  0.00  0.00     0.019 C 
ENDBRANCH   1   7
TORSDOF 1
ENDMDL
