MODEL 1
REMARK minimizedAffinity 5.27174425
REMARK minimizedRMSD -1
REMARK  1 active torsions:
REMARK  status: ('A' for Active; 'I' for Inactive)
REMARK    1  A    between atoms: C1_2  and  C2_3 
ROOT
ATOM      1  C2  UNL d   1       1.063   2.382   0.008  0.00  0.00    -0.077 A 
ATOM      2  C3  UNL d   1       0.912   3.507  -0.815  0.00  0.00     0.002 A 
ATOM      3  C4  UNL d   1       0.629   3.355  -2.174  0.00  0.00     0.002 A 
ATOM      4  C5  UNL d   1       0.489   2.081  -2.720  0.00  0.00    -0.004 A 
ATOM      5  C6  UNL d   1       0.639   0.956  -1.910  0.00  0.00     0.002 A 
ATOM      6  C7  UNL d   1       0.923   1.106  -0.552  0.00  0.00     0.002 A 
ENDROOT
BRANCH   1   7
ATOM      7  C1  UNL d   1       1.319   2.545   1.483  0.00  0.00     0.055 C 
ATOM      8  C   UNL d   1       1.314   4.012   1.888  0.00  0.00     0.019 C 
ENDBRANCH   1   7
TORSDOF 1
ENDMDL
