MODEL 1
REMARK minimizedAffinity 3.55562925
REMARK minimizedRMSD -1
REMARK  1 active torsions:
REMARK  status: ('A' for Active; 'I' for Inactive)
REMARK    1  A    between atoms: C1_2  and  C2_3 
ROOT
ATOM      1  C2  UNL d   1       0.963   1.793  -0.909  0.00  0.00    -0.077 A 
ATOM      2  C3  UNL d   1       1.147   1.582  -2.282  0.00  0.00     0.002 A 
ATOM      3  C4  UNL d   1       1.551   0.332  -2.757  0.00  0.00     0.002 A 
ATOM      4  C5  UNL d   1       1.770  -0.716  -1.866  0.00  0.00    -0.004 A 
ATOM      5  C6  UNL d   1       1.591  -0.516  -0.498  0.00  0.00     0.002 A 
ATOM      6  C7  UNL d   1       1.189   0.733  -0.021  0.00  0.00     0.002 A 
ENDROOT
BRANCH   1   7
ATOM      7  C1  UNL d   1       0.480   3.125  -0.399  0.00  0.00     0.055 C 
ATOM      8  C   UNL d   1       0.721   3.266   1.097  0.00  0.00     0.019 C 
ENDBRANCH   1   7
TORSDOF 1
ENDMDL
