MODEL 1
REMARK minimizedAffinity 2.27356124
REMARK minimizedRMSD -1
REMARK  1 active torsions:
REMARK  status: ('A' for Active; 'I' for Inactive)
REMARK    1  A    between atoms: C1_2  and  C2_3 
ROOT
ATOM      1  C2  UNL d   1      -1.949  -0.879   4.835  0.00  0.00    -0.076 A 
ATOM      2  C3  UNL d   1      -0.680  -0.416   4.444  0.00  0.00     0.004 A 
ATOM      3  C4  UNL d   1       0.476  -1.115   4.787  0.00  0.00    -0.003 A 
ATOM      4  C5  UNL d   1       0.382  -2.289   5.527  0.00  0.00     0.000 A 
ATOM      5  C6  UNL d   1      -0.869  -2.772   5.908  0.00  0.00     0.000 A 
ATOM      6  C7  UNL d   1      -2.046  -2.088   5.556  0.00  0.00    -0.073 A 
ATOM      7  C8  UNL d   1      -3.368  -2.651   6.000  0.00  0.00     0.078 C 
ENDROOT
BRANCH   1   8
ATOM      8  C1  UNL d   1      -3.165  -0.064   4.457  0.00  0.00     0.053 C 
ATOM      9  C   UNL d   1      -3.194   0.289   2.978  0.00  0.00     0.018 C 
ENDBRANCH   1   8
TORSDOF 1
ENDMDL
