MODEL 1
REMARK minimizedAffinity 2.06458163
REMARK minimizedRMSD -1
REMARK  1 active torsions:
REMARK  status: ('A' for Active; 'I' for Inactive)
REMARK    1  A    between atoms: C1_2  and  C2_3 
ROOT
ATOM      1  C2  UNL d   1      -2.040  -0.378   4.537  0.00  0.00    -0.076 A 
ATOM      2  C3  UNL d   1      -0.791   0.019   4.026  0.00  0.00     0.004 A 
ATOM      3  C4  UNL d   1       0.380  -0.635   4.406  0.00  0.00    -0.003 A 
ATOM      4  C5  UNL d   1       0.322  -1.696   5.303  0.00  0.00     0.000 A 
ATOM      5  C6  UNL d   1      -0.910  -2.114   5.806  0.00  0.00     0.000 A 
ATOM      6  C7  UNL d   1      -2.102  -1.477   5.421  0.00  0.00    -0.073 A 
ATOM      7  C8  UNL d   1      -3.401  -1.965   5.999  0.00  0.00     0.078 C 
ENDROOT
BRANCH   1   8
ATOM      8  C1  UNL d   1      -3.273   0.386   4.110  0.00  0.00     0.053 C 
ATOM      9  C   UNL d   1      -3.246   0.758   2.635  0.00  0.00     0.018 C 
ENDBRANCH   1   8
TORSDOF 1
ENDMDL
