MODEL 1
REMARK minimizedAffinity -4.48207331
REMARK minimizedRMSD -1
REMARK  1 active torsions:
REMARK  status: ('A' for Active; 'I' for Inactive)
REMARK    1  A    between atoms: C1_2  and  C2_3 
ROOT
ATOM      1  C2  UNL d   1       0.275  -0.999   0.547  0.00  0.00    -0.076 A 
ATOM      2  C3  UNL d   1       0.439  -0.272   1.740  0.00  0.00     0.004 A 
ATOM      3  C4  UNL d   1       0.830   1.065   1.716  0.00  0.00    -0.003 A 
ATOM      4  C5  UNL d   1       1.063   1.698   0.500  0.00  0.00     0.000 A 
ATOM      5  C6  UNL d   1       0.888   0.998  -0.693  0.00  0.00     0.000 A 
ATOM      6  C7  UNL d   1       0.478  -0.346  -0.687  0.00  0.00    -0.073 A 
ATOM      7  C8  UNL d   1       0.311  -1.055  -2.003  0.00  0.00     0.078 C 
ENDROOT
BRANCH   1   8
ATOM      8  C1  UNL d   1      -0.125  -2.455   0.636  0.00  0.00     0.053 C 
ATOM      9  C   UNL d   1      -1.615  -2.636   0.878  0.00  0.00     0.018 C 
ENDBRANCH   1   8
TORSDOF 1
ENDMDL
