MODEL 1
REMARK minimizedAffinity -2.07225537
REMARK minimizedRMSD -1
REMARK  1 active torsions:
REMARK  status: ('A' for Active; 'I' for Inactive)
REMARK    1  A    between atoms: C1_2  and  C2_3 
ROOT
ATOM      1  C2  UNL d   1       1.226   0.877   0.653  0.00  0.00    -0.076 A 
ATOM      2  C3  UNL d   1       2.331   1.100   1.494  0.00  0.00     0.004 A 
ATOM      3  C4  UNL d   1       3.165   2.201   1.307  0.00  0.00    -0.003 A 
ATOM      4  C5  UNL d   1       2.907   3.097   0.275  0.00  0.00     0.000 A 
ATOM      5  C6  UNL d   1       1.806   2.901  -0.557  0.00  0.00     0.000 A 
ATOM      6  C7  UNL d   1       0.946   1.805  -0.372  0.00  0.00    -0.073 A 
ATOM      7  C8  UNL d   1      -0.223   1.640  -1.303  0.00  0.00     0.078 C 
ENDROOT
BRANCH   1   8
ATOM      8  C1  UNL d   1       0.373  -0.349   0.888  0.00  0.00     0.053 C 
ATOM      9  C   UNL d   1       0.694  -1.477  -0.081  0.00  0.00     0.018 C 
ENDBRANCH   1   8
TORSDOF 1
ENDMDL
