MODEL 1
REMARK minimizedAffinity -5.22598028
REMARK minimizedRMSD -1
REMARK  1 active torsions:
REMARK  status: ('A' for Active; 'I' for Inactive)
REMARK    1  A    between atoms: C1_2  and  C2_3 
ROOT
ATOM      1  C2  UNL d   1      -0.054  -0.700   0.396  0.00  0.00    -0.076 A 
ATOM      2  C3  UNL d   1       0.192  -1.374  -0.814  0.00  0.00     0.004 A 
ATOM      3  C4  UNL d   1      -0.004  -2.749  -0.922  0.00  0.00    -0.003 A 
ATOM      4  C5  UNL d   1      -0.450  -3.474   0.178  0.00  0.00     0.000 A 
ATOM      5  C6  UNL d   1      -0.716  -2.820   1.380  0.00  0.00     0.000 A 
ATOM      6  C7  UNL d   1      -0.539  -1.431   1.501  0.00  0.00    -0.073 A 
ATOM      7  C8  UNL d   1      -0.835  -0.778   2.823  0.00  0.00     0.078 C 
ENDROOT
BRANCH   1   8
ATOM      8  C1  UNL d   1       0.203   0.788   0.461  0.00  0.00     0.053 C 
ATOM      9  C   UNL d   1       1.612   1.116   0.931  0.00  0.00     0.018 C 
ENDBRANCH   1   8
TORSDOF 1
ENDMDL
