MODEL 1
REMARK minimizedAffinity -4.92149973
REMARK minimizedRMSD -1
REMARK  1 active torsions:
REMARK  status: ('A' for Active; 'I' for Inactive)
REMARK    1  A    between atoms: C1_2  and  C2_3 
ROOT
ATOM      1  C2  UNL d   1       0.023  -0.270   1.056  0.00  0.00    -0.076 A 
ATOM      2  C3  UNL d   1       0.624  -0.948  -0.020  0.00  0.00     0.004 A 
ATOM      3  C4  UNL d   1       0.109  -2.158  -0.482  0.00  0.00    -0.003 A 
ATOM      4  C5  UNL d   1      -1.015  -2.709   0.122  0.00  0.00     0.000 A 
ATOM      5  C6  UNL d   1      -1.634  -2.042   1.179  0.00  0.00     0.000 A 
ATOM      6  C7  UNL d   1      -1.137  -0.813   1.647  0.00  0.00    -0.073 A 
ATOM      7  C8  UNL d   1      -1.841  -0.140   2.793  0.00  0.00     0.078 C 
ENDROOT
BRANCH   1   8
ATOM      8  C1  UNL d   1       0.642   1.025   1.532  0.00  0.00     0.053 C 
ATOM      9  C   UNL d   1       1.262   1.826   0.397  0.00  0.00     0.018 C 
ENDBRANCH   1   8
TORSDOF 1
ENDMDL
