MODEL 1
REMARK minimizedAffinity -4.85987329
REMARK minimizedRMSD -1
REMARK  1 active torsions:
REMARK  status: ('A' for Active; 'I' for Inactive)
REMARK    1  A    between atoms: C1_2  and  C2_3 
ROOT
ATOM      1  C2  UNL d   1      -0.792  -1.275   0.503  0.00  0.00    -0.076 A 
ATOM      2  C3  UNL d   1      -0.905  -0.018  -0.116  0.00  0.00     0.004 A 
ATOM      3  C4  UNL d   1      -0.054   0.348  -1.157  0.00  0.00    -0.003 A 
ATOM      4  C5  UNL d   1       0.924  -0.537  -1.597  0.00  0.00     0.000 A 
ATOM      5  C6  UNL d   1       1.039  -1.795  -1.007  0.00  0.00     0.000 A 
ATOM      6  C7  UNL d   1       0.178  -2.186   0.033  0.00  0.00    -0.073 A 
ATOM      7  C8  UNL d   1       0.350  -3.553   0.638  0.00  0.00     0.078 C 
ENDROOT
BRANCH   1   8
ATOM      8  C1  UNL d   1      -1.725  -1.606   1.646  0.00  0.00     0.053 C 
ATOM      9  C   UNL d   1      -2.616  -0.434   2.029  0.00  0.00     0.018 C 
ENDBRANCH   1   8
TORSDOF 1
ENDMDL
