MODEL 1
REMARK minimizedAffinity -4.94107485
REMARK minimizedRMSD -1
REMARK  1 active torsions:
REMARK  status: ('A' for Active; 'I' for Inactive)
REMARK    1  A    between atoms: C1_2  and  C2_3 
ROOT
ATOM      1  C2  UNL d   1      -0.284  -1.068   0.155  0.00  0.00    -0.076 A 
ATOM      2  C3  UNL d   1      -0.171  -2.358   0.701  0.00  0.00     0.004 A 
ATOM      3  C4  UNL d   1       0.395  -3.400  -0.031  0.00  0.00    -0.003 A 
ATOM      4  C5  UNL d   1       0.859  -3.168  -1.321  0.00  0.00     0.000 A 
ATOM      5  C6  UNL d   1       0.771  -1.890  -1.872  0.00  0.00     0.000 A 
ATOM      6  C7  UNL d   1       0.217  -0.825  -1.141  0.00  0.00    -0.073 A 
ATOM      7  C8  UNL d   1       0.142   0.532  -1.787  0.00  0.00     0.078 C 
ENDROOT
BRANCH   1   8
ATOM      8  C1  UNL d   1      -0.933   0.016   0.986  0.00  0.00     0.053 C 
ATOM      9  C   UNL d   1      -2.163  -0.478   1.732  0.00  0.00     0.018 C 
ENDBRANCH   1   8
TORSDOF 1
ENDMDL
