MODEL 1
REMARK minimizedAffinity 0.044041872
REMARK minimizedRMSD -1
REMARK  1 active torsions:
REMARK  status: ('A' for Active; 'I' for Inactive)
REMARK    1  A    between atoms: C1_2  and  C2_3 
ROOT
ATOM      1  C2  UNL d   1      -0.962  -1.385   0.673  0.00  0.00    -0.076 A 
ATOM      2  C3  UNL d   1      -0.138  -1.360  -0.466  0.00  0.00     0.004 A 
ATOM      3  C4  UNL d   1       0.359  -0.158  -0.966  0.00  0.00    -0.003 A 
ATOM      4  C5  UNL d   1       0.043   1.039  -0.334  0.00  0.00     0.000 A 
ATOM      5  C6  UNL d   1      -0.758   1.032   0.807  0.00  0.00     0.000 A 
ATOM      6  C7  UNL d   1      -1.255  -0.172   1.334  0.00  0.00    -0.073 A 
ATOM      7  C8  UNL d   1      -2.119  -0.120   2.564  0.00  0.00     0.078 C 
ENDROOT
BRANCH   1   8
ATOM      8  C1  UNL d   1      -1.494  -2.715   1.154  0.00  0.00     0.053 C 
ATOM      9  C   UNL d   1      -2.912  -2.984   0.672  0.00  0.00     0.018 C 
ENDBRANCH   1   8
TORSDOF 1
ENDMDL
