MODEL 1
REMARK minimizedAffinity -6.22760868
REMARK minimizedRMSD -1
REMARK  1 active torsions:
REMARK  status: ('A' for Active; 'I' for Inactive)
REMARK    1  A    between atoms: C1_2  and  C2_3 
ROOT
ATOM      1  C2  UNL d   1       0.083  -0.549   1.112  0.00  0.00    -0.076 A 
ATOM      2  C3  UNL d   1       0.338  -0.172   2.442  0.00  0.00     0.004 A 
ATOM      3  C4  UNL d   1       0.776   1.114   2.752  0.00  0.00    -0.003 A 
ATOM      4  C5  UNL d   1       0.965   2.045   1.738  0.00  0.00     0.000 A 
ATOM      5  C6  UNL d   1       0.700   1.695   0.414  0.00  0.00     0.000 A 
ATOM      6  C7  UNL d   1       0.242   0.407   0.086  0.00  0.00    -0.073 A 
ATOM      7  C8  UNL d   1      -0.022   0.081  -1.359  0.00  0.00     0.078 C 
ENDROOT
BRANCH   1   8
ATOM      8  C1  UNL d   1      -0.364  -1.966   0.833  0.00  0.00     0.053 C 
ATOM      9  C   UNL d   1      -1.612  -2.348   1.615  0.00  0.00     0.018 C 
ENDBRANCH   1   8
TORSDOF 1
ENDMDL
