MODEL 1
REMARK minimizedAffinity -1.38138938
REMARK minimizedRMSD -1
REMARK  1 active torsions:
REMARK  status: ('A' for Active; 'I' for Inactive)
REMARK    1  A    between atoms: C1_2  and  C2_3 
ROOT
ATOM      1  C2  UNL d   1      -0.044   1.520   0.584  0.00  0.00    -0.076 A 
ATOM      2  C3  UNL d   1       0.227   2.318   1.709  0.00  0.00     0.004 A 
ATOM      3  C4  UNL d   1       1.171   3.342   1.651  0.00  0.00    -0.003 A 
ATOM      4  C5  UNL d   1       1.858   3.585   0.467  0.00  0.00     0.000 A 
ATOM      5  C6  UNL d   1       1.589   2.815  -0.664  0.00  0.00     0.000 A 
ATOM      6  C7  UNL d   1       0.628   1.789  -0.627  0.00  0.00    -0.073 A 
ATOM      7  C8  UNL d   1       0.382   0.986  -1.875  0.00  0.00     0.078 C 
ENDROOT
BRANCH   1   8
ATOM      8  C1  UNL d   1      -1.059   0.406   0.714  0.00  0.00     0.053 C 
ATOM      9  C   UNL d   1      -0.445  -0.883   1.240  0.00  0.00     0.018 C 
ENDBRANCH   1   8
TORSDOF 1
ENDMDL
