MODEL 1
REMARK minimizedAffinity -1.82456005
REMARK minimizedRMSD -1
REMARK  1 active torsions:
REMARK  status: ('A' for Active; 'I' for Inactive)
REMARK    1  A    between atoms: C1_2  and  C2_3 
ROOT
ATOM      1  C2  UNL d   1      -0.215  -0.994  -0.833  0.00  0.00    -0.076 A 
ATOM      2  C3  UNL d   1      -0.955  -2.148  -0.520  0.00  0.00     0.004 A 
ATOM      3  C4  UNL d   1      -1.444  -2.359   0.767  0.00  0.00    -0.003 A 
ATOM      4  C5  UNL d   1      -1.203  -1.419   1.764  0.00  0.00     0.000 A 
ATOM      5  C6  UNL d   1      -0.486  -0.261   1.467  0.00  0.00     0.000 A 
ATOM      6  C7  UNL d   1       0.001  -0.024   0.170  0.00  0.00    -0.073 A 
ATOM      7  C8  UNL d   1       0.773   1.239  -0.092  0.00  0.00     0.078 C 
ENDROOT
BRANCH   1   8
ATOM      8  C1  UNL d   1       0.314  -0.832  -2.240  0.00  0.00     0.053 C 
ATOM      9  C   UNL d   1       0.101  -2.075  -3.090  0.00  0.00     0.018 C 
ENDBRANCH   1   8
TORSDOF 1
ENDMDL
