MODEL 1
REMARK minimizedAffinity -3.25929904
REMARK minimizedRMSD -1
REMARK  1 active torsions:
REMARK  status: ('A' for Active; 'I' for Inactive)
REMARK    1  A    between atoms: C1_2  and  C2_3 
ROOT
ATOM      1  C2  UNL d   1       0.845   1.468   0.636  0.00  0.00    -0.076 A 
ATOM      2  C3  UNL d   1       1.063   0.741   1.819  0.00  0.00     0.004 A 
ATOM      3  C4  UNL d   1       0.262  -0.352   2.146  0.00  0.00    -0.003 A 
ATOM      4  C5  UNL d   1      -0.768  -0.737   1.295  0.00  0.00     0.000 A 
ATOM      5  C6  UNL d   1      -0.986  -0.037   0.108  0.00  0.00     0.000 A 
ATOM      6  C7  UNL d   1      -0.178   1.057  -0.245  0.00  0.00    -0.073 A 
ATOM      7  C8  UNL d   1      -0.463   1.779  -1.533  0.00  0.00     0.078 C 
ENDROOT
BRANCH   1   8
ATOM      8  C1  UNL d   1       1.728   2.662   0.347  0.00  0.00     0.053 C 
ATOM      9  C   UNL d   1       1.633   3.731   1.424  0.00  0.00     0.018 C 
ENDBRANCH   1   8
TORSDOF 1
ENDMDL
