MODEL 1
REMARK minimizedAffinity -3.47731185
REMARK minimizedRMSD -1
REMARK  1 active torsions:
REMARK  status: ('A' for Active; 'I' for Inactive)
REMARK    1  A    between atoms: C1_2  and  C2_3 
ROOT
ATOM      1  C2  UNL d   1      -0.109  -0.598  -0.135  0.00  0.00    -0.076 A 
ATOM      2  C3  UNL d   1      -0.002  -1.454  -1.245  0.00  0.00     0.004 A 
ATOM      3  C4  UNL d   1      -0.460  -2.769  -1.183  0.00  0.00    -0.003 A 
ATOM      4  C5  UNL d   1      -1.032  -3.250  -0.011  0.00  0.00     0.000 A 
ATOM      5  C6  UNL d   1      -1.162  -2.410   1.094  0.00  0.00     0.000 A 
ATOM      6  C7  UNL d   1      -0.721  -1.076   1.044  0.00  0.00    -0.073 A 
ATOM      7  C8  UNL d   1      -0.880  -0.216   2.268  0.00  0.00     0.078 C 
ENDROOT
BRANCH   1   8
ATOM      8  C1  UNL d   1       0.429   0.810  -0.251  0.00  0.00     0.053 C 
ATOM      9  C   UNL d   1      -0.138   1.553  -1.451  0.00  0.00     0.018 C 
ENDBRANCH   1   8
TORSDOF 1
ENDMDL
