MODEL 1
REMARK minimizedAffinity -4.28454018
REMARK minimizedRMSD -1
REMARK  1 active torsions:
REMARK  status: ('A' for Active; 'I' for Inactive)
REMARK    1  A    between atoms: C1_2  and  C2_3 
ROOT
ATOM      1  C2  UNL d   1      -1.135  -2.555   0.355  0.00  0.00    -0.076 A 
ATOM      2  C3  UNL d   1      -0.019  -1.857   0.848  0.00  0.00     0.004 A 
ATOM      3  C4  UNL d   1      -0.173  -0.774   1.712  0.00  0.00    -0.003 A 
ATOM      4  C5  UNL d   1      -1.447  -0.372   2.098  0.00  0.00     0.000 A 
ATOM      5  C6  UNL d   1      -2.565  -1.064   1.633  0.00  0.00     0.000 A 
ATOM      6  C7  UNL d   1      -2.426  -2.168   0.774  0.00  0.00    -0.073 A 
ATOM      7  C8  UNL d   1      -3.666  -2.873   0.299  0.00  0.00     0.078 C 
ENDROOT
BRANCH   1   8
ATOM      8  C1  UNL d   1      -0.907  -3.704  -0.600  0.00  0.00     0.053 C 
ATOM      9  C   UNL d   1      -0.852  -3.253  -2.052  0.00  0.00     0.018 C 
ENDBRANCH   1   8
TORSDOF 1
ENDMDL
