MODEL 1
REMARK minimizedAffinity -3.09860396
REMARK minimizedRMSD -1
REMARK  1 active torsions:
REMARK  status: ('A' for Active; 'I' for Inactive)
REMARK    1  A    between atoms: C1_2  and  C2_3 
ROOT
ATOM      1  C2  UNL d   1      -0.506  -1.145  -0.616  0.00  0.00    -0.076 A 
ATOM      2  C3  UNL d   1      -0.847  -2.378  -0.034  0.00  0.00     0.004 A 
ATOM      3  C4  UNL d   1      -1.268  -2.453   1.293  0.00  0.00    -0.003 A 
ATOM      4  C5  UNL d   1      -1.356  -1.296   2.059  0.00  0.00     0.000 A 
ATOM      5  C6  UNL d   1      -1.039  -0.062   1.492  0.00  0.00     0.000 A 
ATOM      6  C7  UNL d   1      -0.628   0.033   0.151  0.00  0.00    -0.073 A 
ATOM      7  C8  UNL d   1      -0.293   1.389  -0.407  0.00  0.00     0.078 C 
ENDROOT
BRANCH   1   8
ATOM      8  C1  UNL d   1      -0.030  -1.129  -2.051  0.00  0.00     0.053 C 
ATOM      9  C   UNL d   1      -0.370  -2.413  -2.792  0.00  0.00     0.018 C 
ENDBRANCH   1   8
TORSDOF 1
ENDMDL
