MODEL 1
REMARK minimizedAffinity 5.49780703
REMARK minimizedRMSD -1
REMARK  0 active torsions:
REMARK  status: ('A' for Active; 'I' for Inactive)
ROOT
ATOM      1  C4' PXY d   1      -5.220  -6.000  -5.996  0.00  0.00     0.077 C 
ATOM      2  C1' PXY d   1      -5.286  -3.240  -0.918  0.00  0.00     0.077 C 
ATOM      3  C1  PXY d   1      -5.266  -3.975  -2.243  0.00  0.00    -0.082 A 
ATOM      4  C2  PXY d   1      -4.969  -3.317  -3.352  0.00  0.00     0.003 A 
ATOM      5  C3  PXY d   1      -4.978  -3.959  -4.563  0.00  0.00     0.003 A 
ATOM      6  C4  PXY d   1      -5.242  -5.301  -4.635  0.00  0.00    -0.082 A 
ATOM      7  C5  PXY d   1      -5.537  -5.981  -3.507  0.00  0.00     0.003 A 
ATOM      8  C6  PXY d   1      -5.563  -5.302  -2.292  0.00  0.00     0.003 A 
ENDROOT
TORSDOF 0
ENDMDL
