MODEL 1
REMARK minimizedAffinity 6.15192842
REMARK minimizedRMSD -1
REMARK  0 active torsions:
REMARK  status: ('A' for Active; 'I' for Inactive)
ROOT
ATOM      1  C4' PXY d   1       1.581   1.219   3.826  0.00  0.00     0.077 C 
ATOM      2  C1' PXY d   1       0.652  -3.962   1.436  0.00  0.00     0.077 C 
ATOM      3  C1  PXY d   1       0.904  -2.601   2.053  0.00  0.00    -0.082 A 
ATOM      4  C2  PXY d   1       0.670  -2.413   3.342  0.00  0.00     0.003 A 
ATOM      5  C3  PXY d   1       0.862  -1.180   3.910  0.00  0.00     0.003 A 
ATOM      6  C4  PXY d   1       1.349  -0.141   3.162  0.00  0.00    -0.082 A 
ATOM      7  C5  PXY d   1       1.601  -0.328   1.849  0.00  0.00     0.003 A 
ATOM      8  C6  PXY d   1       1.360  -1.576   1.283  0.00  0.00     0.003 A 
ENDROOT
TORSDOF 0
ENDMDL
