MODEL 1
REMARK minimizedAffinity -1.11182046
REMARK minimizedRMSD -1
REMARK  0 active torsions:
REMARK  status: ('A' for Active; 'I' for Inactive)
ROOT
ATOM      1  C4' PXY d   1      -5.989  -2.250  -1.844  0.00  0.00     0.077 C 
ATOM      2  C1' PXY d   1      -4.524  -5.990  -6.000  0.00  0.00     0.077 C 
ATOM      3  C1  PXY d   1      -4.918  -5.017  -4.906  0.00  0.00    -0.082 A 
ATOM      4  C2  PXY d   1      -4.561  -3.747  -5.002  0.00  0.00     0.003 A 
ATOM      5  C3  PXY d   1      -4.881  -2.860  -4.006  0.00  0.00     0.003 A 
ATOM      6  C4  PXY d   1      -5.621  -3.266  -2.928  0.00  0.00    -0.082 A 
ATOM      7  C5  PXY d   1      -5.999  -4.558  -2.829  0.00  0.00     0.003 A 
ATOM      8  C6  PXY d   1      -5.628  -5.451  -3.830  0.00  0.00     0.003 A 
ENDROOT
TORSDOF 0
ENDMDL
