MODEL 1
REMARK minimizedAffinity 2.22248459
REMARK minimizedRMSD -1
REMARK  0 active torsions:
REMARK  status: ('A' for Active; 'I' for Inactive)
ROOT
ATOM      1  C4' PXY d   1      -4.138  -3.272  -6.000  0.00  0.00     0.077 C 
ATOM      2  C1' PXY d   1      -6.000  -5.994  -1.252  0.00  0.00     0.077 C 
ATOM      3  C1  PXY d   1      -5.503  -5.290  -2.499  0.00  0.00    -0.082 A 
ATOM      4  C2  PXY d   1      -5.675  -3.984  -2.625  0.00  0.00     0.003 A 
ATOM      5  C3  PXY d   1      -5.260  -3.336  -3.761  0.00  0.00     0.003 A 
ATOM      6  C4  PXY d   1      -4.615  -4.023  -4.754  0.00  0.00    -0.082 A 
ATOM      7  C5  PXY d   1      -4.427  -5.354  -4.628  0.00  0.00     0.003 A 
ATOM      8  C6  PXY d   1      -4.892  -6.000  -3.486  0.00  0.00     0.003 A 
ENDROOT
TORSDOF 0
ENDMDL
