MODEL 1
REMARK minimizedAffinity 1.68183863
REMARK minimizedRMSD -1
REMARK  0 active torsions:
REMARK  status: ('A' for Active; 'I' for Inactive)
ROOT
ATOM      1  C4' PXY d   1       1.867  -0.484   0.915  0.00  0.00     0.077 C 
ATOM      2  C1' PXY d   1       1.306  -3.884   5.556  0.00  0.00     0.077 C 
ATOM      3  C1  PXY d   1       1.462  -3.001   4.334  0.00  0.00    -0.082 A 
ATOM      4  C2  PXY d   1       1.153  -1.716   4.411  0.00  0.00     0.003 A 
ATOM      5  C3  PXY d   1       1.258  -0.910   3.308  0.00  0.00     0.003 A 
ATOM      6  C4  PXY d   1       1.734  -1.411   2.126  0.00  0.00    -0.082 A 
ATOM      7  C5  PXY d   1       2.062  -2.718   2.041  0.00  0.00     0.003 A 
ATOM      8  C6  PXY d   1       1.909  -3.529   3.162  0.00  0.00     0.003 A 
ENDROOT
TORSDOF 0
ENDMDL
