MODEL 1
REMARK minimizedAffinity 11.2691545
REMARK minimizedRMSD -1
REMARK  0 active torsions:
REMARK  status: ('A' for Active; 'I' for Inactive)
ROOT
ATOM      1  C4' PXY d   1      -3.434  -5.685  -1.192  0.00  0.00     0.077 C 
ATOM      2  C1' PXY d   1      -5.999  -3.744  -5.995  0.00  0.00     0.077 C 
ATOM      3  C1  PXY d   1      -5.327  -4.265  -4.740  0.00  0.00    -0.082 A 
ATOM      4  C2  PXY d   1      -5.352  -3.538  -3.635  0.00  0.00     0.003 A 
ATOM      5  C3  PXY d   1      -4.723  -3.980  -2.500  0.00  0.00     0.003 A 
ATOM      6  C4  PXY d   1      -4.107  -5.202  -2.480  0.00  0.00    -0.082 A 
ATOM      7  C5  PXY d   1      -4.086  -5.955  -3.601  0.00  0.00     0.003 A 
ATOM      8  C6  PXY d   1      -4.696  -5.470  -4.754  0.00  0.00     0.003 A 
ENDROOT
TORSDOF 0
ENDMDL
