MODEL 1
REMARK minimizedAffinity 10.8149986
REMARK minimizedRMSD -1
REMARK  0 active torsions:
REMARK  status: ('A' for Active; 'I' for Inactive)
ROOT
ATOM      1  C4' PXY d   1      -4.973   3.293   0.795  0.00  0.00     0.077 C 
ATOM      2  C1' PXY d   1      -4.865   2.254  -4.890  0.00  0.00     0.077 C 
ATOM      3  C1  PXY d   1      -4.884   2.518  -3.397  0.00  0.00    -0.082 A 
ATOM      4  C2  PXY d   1      -5.976   3.007  -2.834  0.00  0.00     0.003 A 
ATOM      5  C3  PXY d   1      -6.000   3.282  -1.490  0.00  0.00     0.003 A 
ATOM      6  C4  PXY d   1      -4.912   3.002  -0.707  0.00  0.00    -0.082 A 
ATOM      7  C5  PXY d   1      -3.798   2.493  -1.273  0.00  0.00     0.003 A 
ATOM      8  C6  PXY d   1      -3.780   2.260  -2.645  0.00  0.00     0.003 A 
ENDROOT
TORSDOF 0
ENDMDL
