MODEL 1
REMARK minimizedAffinity 4.49049425
REMARK minimizedRMSD -1
REMARK  2 active torsions:
REMARK  status: ('A' for Active; 'I' for Inactive)
REMARK    1  A    between atoms: C2'_3  and  C1'_4 
REMARK    2  A    between atoms: C1'_4  and  C1_5 
ROOT
ATOM      1  C1  I4B d   1       1.337  -2.625   0.020  0.00  0.00    -0.075 A 
ATOM      2  C2  I4B d   1       0.906  -3.864   0.424  0.00  0.00     0.003 A 
ATOM      3  C3  I4B d   1      -0.194  -4.481  -0.219  0.00  0.00     0.002 A 
ATOM      4  C4  I4B d   1      -0.861  -3.807  -1.221  0.00  0.00    -0.004 A 
ATOM      5  C5  I4B d   1      -0.409  -2.560  -1.645  0.00  0.00     0.002 A 
ATOM      6  C6  I4B d   1       0.705  -1.971  -1.029  0.00  0.00     0.003 A 
ENDROOT
BRANCH   1   7
ATOM      7  C1' I4B d   1       2.481  -1.989   0.744  0.00  0.00     0.060 C 
BRANCH   7   8
ATOM      8  C2' I4B d   1       2.701  -0.612   0.150  0.00  0.00    -0.013 C 
ATOM      9  C4' I4B d   1       2.035   0.452   0.981  0.00  0.00     0.013 C 
ATOM     10  C3' I4B d   1       4.179  -0.379   0.056  0.00  0.00     0.013 C 
ENDBRANCH   7   8
ENDBRANCH   1   7
TORSDOF 2
ENDMDL
