MODEL 1
REMARK minimizedAffinity 1.91232049
REMARK minimizedRMSD -1
REMARK  2 active torsions:
REMARK  status: ('A' for Active; 'I' for Inactive)
REMARK    1  A    between atoms: C2'_3  and  C1'_4 
REMARK    2  A    between atoms: C1'_4  and  C1_5 
ROOT
ATOM      1  C1  I4B d   1      -4.570   1.406  -3.227  0.00  0.00    -0.075 A 
ATOM      2  C2  I4B d   1      -3.242   1.505  -2.896  0.00  0.00     0.003 A 
ATOM      3  C3  I4B d   1      -2.247   1.043  -3.792  0.00  0.00     0.002 A 
ATOM      4  C4  I4B d   1      -2.625   0.447  -4.978  0.00  0.00    -0.004 A 
ATOM      5  C5  I4B d   1      -3.972   0.368  -5.322  0.00  0.00     0.002 A 
ATOM      6  C6  I4B d   1      -4.950   0.862  -4.447  0.00  0.00     0.003 A 
ENDROOT
BRANCH   1   7
ATOM      7  C1' I4B d   1      -5.595   1.874  -2.243  0.00  0.00     0.060 C 
BRANCH   7   8
ATOM      8  C2' I4B d   1      -5.671   3.385  -2.331  0.00  0.00    -0.013 C 
ATOM      9  C4' I4B d   1      -4.379   4.022  -1.891  0.00  0.00     0.013 C 
ATOM     10  C3' I4B d   1      -6.000   3.750  -3.748  0.00  0.00     0.013 C 
ENDBRANCH   7   8
ENDBRANCH   1   7
TORSDOF 2
ENDMDL
