MODEL 1
REMARK minimizedAffinity -2.8106916
REMARK minimizedRMSD -1
REMARK  0 active torsions:
REMARK  status: ('A' for Active; 'I' for Inactive)
ROOT
ATOM      1  C1  DEN d   1       1.250   0.891  -3.288  0.00  0.00     0.130 A 
ATOM      2  C2  DEN d   1       1.603   2.258  -3.665  0.00  0.00    -0.031 A 
ATOM      3  C3  DEN d   1       1.383   3.126  -2.491  0.00  0.00     0.027 A 
ATOM      4  C4  DEN d   1       0.540   2.490  -0.138  0.00  0.00     0.027 A 
ATOM      5  C5  DEN d   1       0.101   1.452   0.655  0.00  0.00    -0.003 A 
ATOM      6  C6  DEN d   1      -0.017   0.172   0.183  0.00  0.00     0.001 A 
ATOM      7  C7  DEN d   1       0.351  -0.113  -1.105  0.00  0.00     0.017 A 
ATOM      8  C8  DEN d   1       0.788   0.929  -1.913  0.00  0.00    -0.094 A 
ATOM      9  C9  DEN d   1       0.911   2.215  -1.414  0.00  0.00    -0.072 A 
ENDROOT
TORSDOF 0
ENDMDL
