MODEL 1
REMARK minimizedAffinity -1.8887459
REMARK minimizedRMSD -1
REMARK  0 active torsions:
REMARK  status: ('A' for Active; 'I' for Inactive)
ROOT
ATOM      1  C1  DEN d   1       0.520   1.565   0.324  0.00  0.00     0.130 A 
ATOM      2  C2  DEN d   1       0.873   1.934  -1.044  0.00  0.00    -0.031 A 
ATOM      3  C3  DEN d   1       0.816   0.714  -1.875  0.00  0.00     0.027 A 
ATOM      4  C4  DEN d   1       0.213  -1.695  -1.180  0.00  0.00     0.027 A 
ATOM      5  C5  DEN d   1      -0.146  -2.502  -0.123  0.00  0.00    -0.003 A 
ATOM      6  C6  DEN d   1      -0.274  -2.020   1.153  0.00  0.00     0.001 A 
ATOM      7  C7  DEN d   1      -0.085  -0.686   1.397  0.00  0.00     0.017 A 
ATOM      8  C8  DEN d   1       0.284   0.133   0.338  0.00  0.00    -0.094 A 
ATOM      9  C9  DEN d   1       0.397  -0.371  -0.947  0.00  0.00    -0.072 A 
ENDROOT
TORSDOF 0
ENDMDL
