MODEL 1
REMARK minimizedAffinity -4.76729679
REMARK minimizedRMSD -1
REMARK  0 active torsions:
REMARK  status: ('A' for Active; 'I' for Inactive)
ROOT
ATOM      1  C1  DEN d   1       0.390   0.825   0.273  0.00  0.00     0.130 A 
ATOM      2  C2  DEN d   1      -0.840   1.347   0.863  0.00  0.00    -0.031 A 
ATOM      3  C3  DEN d   1      -1.556   0.222   1.496  0.00  0.00     0.027 A 
ATOM      4  C4  DEN d   1      -0.883  -2.264   1.624  0.00  0.00     0.027 A 
ATOM      5  C5  DEN d   1       0.070  -3.189   1.260  0.00  0.00    -0.003 A 
ATOM      6  C6  DEN d   1       1.170  -2.850   0.517  0.00  0.00     0.001 A 
ATOM      7  C7  DEN d   1       1.368  -1.545   0.154  0.00  0.00     0.017 A 
ATOM      8  C8  DEN d   1       0.407  -0.607   0.512  0.00  0.00    -0.094 A 
ATOM      9  C9  DEN d   1      -0.692  -0.967   1.273  0.00  0.00    -0.072 A 
ENDROOT
TORSDOF 0
ENDMDL
