MODEL 1
REMARK minimizedAffinity -3.55345917
REMARK minimizedRMSD -1
REMARK  0 active torsions:
REMARK  status: ('A' for Active; 'I' for Inactive)
ROOT
ATOM      1  C1  DEN d   1      -0.763   0.828   0.031  0.00  0.00     0.130 A 
ATOM      2  C2  DEN d   1       0.329   0.251  -0.748  0.00  0.00    -0.031 A 
ATOM      3  C3  DEN d   1       0.459  -1.171  -0.369  0.00  0.00     0.027 A 
ATOM      4  C4  DEN d   1      -0.921  -2.528   1.335  0.00  0.00     0.027 A 
ATOM      5  C5  DEN d   1      -1.948  -2.467   2.251  0.00  0.00    -0.003 A 
ATOM      6  C6  DEN d   1      -2.624  -1.305   2.513  0.00  0.00     0.001 A 
ATOM      7  C7  DEN d   1      -2.311  -0.166   1.820  0.00  0.00     0.017 A 
ATOM      8  C8  DEN d   1      -1.271  -0.218   0.900  0.00  0.00    -0.094 A 
ATOM      9  C9  DEN d   1      -0.608  -1.405   0.640  0.00  0.00    -0.072 A 
ENDROOT
TORSDOF 0
ENDMDL
