MODEL 1
REMARK minimizedAffinity -4.69367599
REMARK minimizedRMSD -1
REMARK  0 active torsions:
REMARK  status: ('A' for Active; 'I' for Inactive)
ROOT
ATOM      1  C1  DEN d   1       1.119   2.606  -2.172  0.00  0.00     0.130 A 
ATOM      2  C2  DEN d   1       1.014   2.326  -3.601  0.00  0.00    -0.031 A 
ATOM      3  C3  DEN d   1       0.763   0.881  -3.767  0.00  0.00     0.027 A 
ATOM      4  C4  DEN d   1       0.522  -0.942  -1.958  0.00  0.00     0.027 A 
ATOM      5  C5  DEN d   1       0.546  -1.189  -0.603  0.00  0.00    -0.003 A 
ATOM      6  C6  DEN d   1       0.794  -0.203   0.314  0.00  0.00     0.001 A 
ATOM      7  C7  DEN d   1       0.983   1.086  -0.109  0.00  0.00     0.017 A 
ATOM      8  C8  DEN d   1       0.968   1.341  -1.474  0.00  0.00    -0.094 A 
ATOM      9  C9  DEN d   1       0.704   0.333  -2.385  0.00  0.00    -0.072 A 
ENDROOT
TORSDOF 0
ENDMDL
