MODEL 1
REMARK minimizedAffinity -1.88663197
REMARK minimizedRMSD -1
REMARK  0 active torsions:
REMARK  status: ('A' for Active; 'I' for Inactive)
ROOT
ATOM      1  C1  DEN d   1      -0.158  -1.165  -0.772  0.00  0.00     0.130 A 
ATOM      2  C2  DEN d   1       0.742  -1.209   0.377  0.00  0.00    -0.031 A 
ATOM      3  C3  DEN d   1       1.592  -0.002   0.337  0.00  0.00     0.027 A 
ATOM      4  C4  DEN d   1       1.600   1.921  -1.383  0.00  0.00     0.027 A 
ATOM      5  C5  DEN d   1       1.023   2.393  -2.541  0.00  0.00    -0.003 A 
ATOM      6  C6  DEN d   1       0.044   1.701  -3.204  0.00  0.00     0.001 A 
ATOM      7  C7  DEN d   1      -0.420   0.520  -2.688  0.00  0.00     0.017 A 
ATOM      8  C8  DEN d   1       0.162   0.034  -1.525  0.00  0.00    -0.094 A 
ATOM      9  C9  DEN d   1       1.142   0.754  -0.863  0.00  0.00    -0.072 A 
ENDROOT
TORSDOF 0
ENDMDL
