MODEL 1
REMARK minimizedAffinity -2.84980416
REMARK minimizedRMSD -1
REMARK  0 active torsions:
REMARK  status: ('A' for Active; 'I' for Inactive)
ROOT
ATOM      1  C1  DEN d   1      -1.760   0.978   1.353  0.00  0.00     0.130 A 
ATOM      2  C2  DEN d   1      -2.390   0.113   2.346  0.00  0.00    -0.031 A 
ATOM      3  C3  DEN d   1      -1.679  -1.181   2.341  0.00  0.00     0.027 A 
ATOM      4  C4  DEN d   1       0.329  -1.923   0.903  0.00  0.00     0.027 A 
ATOM      5  C5  DEN d   1       1.203  -1.537  -0.089  0.00  0.00    -0.003 A 
ATOM      6  C6  DEN d   1       1.130  -0.308  -0.689  0.00  0.00     0.001 A 
ATOM      7  C7  DEN d   1       0.190   0.596  -0.271  0.00  0.00     0.017 A 
ATOM      8  C8  DEN d   1      -0.699   0.212   0.724  0.00  0.00    -0.094 A 
ATOM      9  C9  DEN d   1      -0.601  -1.031   1.327  0.00  0.00    -0.072 A 
ENDROOT
TORSDOF 0
ENDMDL
