MODEL 1
REMARK minimizedAffinity -4.23153734
REMARK minimizedRMSD -1
REMARK  0 active torsions:
REMARK  status: ('A' for Active; 'I' for Inactive)
ROOT
ATOM      1  C1  DEN d   1       0.769   0.861  -3.378  0.00  0.00     0.130 A 
ATOM      2  C2  DEN d   1       1.262   2.215  -3.139  0.00  0.00    -0.031 A 
ATOM      3  C3  DEN d   1       1.431   2.388  -1.682  0.00  0.00     0.027 A 
ATOM      4  C4  DEN d   1       0.986   0.698   0.215  0.00  0.00     0.027 A 
ATOM      5  C5  DEN d   1       0.550  -0.576   0.504  0.00  0.00    -0.003 A 
ATOM      6  C6  DEN d   1       0.128  -1.441  -0.469  0.00  0.00     0.001 A 
ATOM      7  C7  DEN d   1       0.175  -1.059  -1.784  0.00  0.00     0.017 A 
ATOM      8  C8  DEN d   1       0.607   0.226  -2.083  0.00  0.00    -0.094 A 
ATOM      9  C9  DEN d   1       1.041   1.082  -1.085  0.00  0.00    -0.072 A 
ENDROOT
TORSDOF 0
ENDMDL
