MODEL 1
REMARK minimizedAffinity -1.99594271
REMARK minimizedRMSD -1
REMARK  0 active torsions:
REMARK  status: ('A' for Active; 'I' for Inactive)
ROOT
ATOM      1  C1  DEN d   1       0.054   1.165   0.091  0.00  0.00     0.130 A 
ATOM      2  C2  DEN d   1       0.567   1.369  -1.261  0.00  0.00    -0.031 A 
ATOM      3  C3  DEN d   1       0.904   0.047  -1.826  0.00  0.00     0.027 A 
ATOM      4  C4  DEN d   1       0.677  -2.284  -0.747  0.00  0.00     0.027 A 
ATOM      5  C5  DEN d   1       0.300  -2.963   0.391  0.00  0.00    -0.003 A 
ATOM      6  C6  DEN d   1      -0.149  -2.316   1.511  0.00  0.00     0.001 A 
ATOM      7  C7  DEN d   1      -0.276  -0.952   1.503  0.00  0.00     0.017 A 
ATOM      8  C8  DEN d   1       0.109  -0.260   0.362  0.00  0.00    -0.094 A 
ATOM      9  C9  DEN d   1       0.549  -0.933  -0.765  0.00  0.00    -0.072 A 
ENDROOT
TORSDOF 0
ENDMDL
