MODEL 1
REMARK minimizedAffinity -4.29492283
REMARK minimizedRMSD -1
REMARK  0 active torsions:
REMARK  status: ('A' for Active; 'I' for Inactive)
ROOT
ATOM      1  C1  DEN d   1       0.657  -0.769  -0.781  0.00  0.00     0.130 A 
ATOM      2  C2  DEN d   1       0.686   0.691  -0.816  0.00  0.00    -0.031 A 
ATOM      3  C3  DEN d   1      -0.399   1.190   0.053  0.00  0.00     0.027 A 
ATOM      4  C4  DEN d   1      -2.109  -0.148   1.444  0.00  0.00     0.027 A 
ATOM      5  C5  DEN d   1      -2.536  -1.413   1.784  0.00  0.00    -0.003 A 
ATOM      6  C6  DEN d   1      -1.956  -2.542   1.270  0.00  0.00     0.001 A 
ATOM      7  C7  DEN d   1      -0.885  -2.430   0.423  0.00  0.00     0.017 A 
ATOM      8  C8  DEN d   1      -0.453  -1.158   0.070  0.00  0.00    -0.094 A 
ATOM      9  C9  DEN d   1      -1.046  -0.029   0.610  0.00  0.00    -0.072 A 
ENDROOT
TORSDOF 0
ENDMDL
