MODEL 1
REMARK minimizedAffinity -5.98260784
REMARK minimizedRMSD -1
REMARK  0 active torsions:
REMARK  status: ('A' for Active; 'I' for Inactive)
ROOT
ATOM      1  C1  DEN d   1      -1.906  -1.915   0.509  0.00  0.00     0.130 A 
ATOM      2  C2  DEN d   1      -1.264  -2.732   1.534  0.00  0.00    -0.031 A 
ATOM      3  C3  DEN d   1       0.149  -2.315   1.633  0.00  0.00     0.027 A 
ATOM      4  C4  DEN d   1       1.397  -0.488   0.307  0.00  0.00     0.027 A 
ATOM      5  C5  DEN d   1       1.274   0.465  -0.680  0.00  0.00    -0.003 A 
ATOM      6  C6  DEN d   1       0.101   0.666  -1.358  0.00  0.00     0.001 A 
ATOM      7  C7  DEN d   1      -1.009  -0.065  -1.027  0.00  0.00     0.017 A 
ATOM      8  C8  DEN d   1      -0.890  -1.032  -0.038  0.00  0.00    -0.094 A 
ATOM      9  C9  DEN d   1       0.301  -1.212   0.645  0.00  0.00    -0.072 A 
ENDROOT
TORSDOF 0
ENDMDL
