MODEL 1
REMARK minimizedAffinity -3.31503201
REMARK minimizedRMSD -1
REMARK  0 active torsions:
REMARK  status: ('A' for Active; 'I' for Inactive)
ROOT
ATOM      1  N1  IND d   1       0.236   0.664  -2.334  0.00  0.00    -0.196 N 
ATOM      2  C2  IND d   1       1.075  -0.399  -2.145  0.00  0.00     0.054 A 
ATOM      3  C3  IND d   1       1.101  -0.752  -0.841  0.00  0.00    -0.031 A 
ATOM      4  C4  IND d   1      -0.231   0.210   1.141  0.00  0.00     0.051 A 
ATOM      5  C5  IND d   1      -1.099   1.214   1.470  0.00  0.00    -0.031 A 
ATOM      6  C6  IND d   1      -1.577   2.102   0.528  0.00  0.00     0.015 A 
ATOM      7  C7  IND d   1      -1.213   2.012  -0.785  0.00  0.00    -0.016 A 
ATOM      8  C8  IND d   1      -0.328   0.998  -1.122  0.00  0.00    -0.047 A 
ATOM      9  C9  IND d   1       0.195   0.120  -0.163  0.00  0.00    -0.096 A 
ATOM     10  HN1 IND d   1       0.085   1.057  -3.083  0.00  0.00     0.298 HD
ENDROOT
TORSDOF 0
ENDMDL
