MODEL 1
REMARK minimizedAffinity -2.17353702
REMARK minimizedRMSD -1
REMARK  0 active torsions:
REMARK  status: ('A' for Active; 'I' for Inactive)
ROOT
ATOM      1  N1  IND d   1       1.258   0.283  -1.316  0.00  0.00    -0.196 N 
ATOM      2  C2  IND d   1       1.382  -0.611  -0.289  0.00  0.00     0.054 A 
ATOM      3  C3  IND d   1       0.389  -0.433   0.611  0.00  0.00    -0.031 A 
ATOM      4  C4  IND d   1      -1.602   1.197   0.550  0.00  0.00     0.051 A 
ATOM      5  C5  IND d   1      -2.122   2.236  -0.170  0.00  0.00    -0.031 A 
ATOM      6  C6  IND d   1      -1.531   2.684  -1.334  0.00  0.00     0.015 A 
ATOM      7  C7  IND d   1      -0.400   2.100  -1.829  0.00  0.00    -0.016 A 
ATOM      8  C8  IND d   1       0.135   1.050  -1.097  0.00  0.00    -0.047 A 
ATOM      9  C9  IND d   1      -0.436   0.618   0.107  0.00  0.00    -0.096 A 
ATOM     10  HN1 IND d   1       1.792   0.354  -1.986  0.00  0.00     0.298 HD
ENDROOT
TORSDOF 0
ENDMDL
