MODEL 1
REMARK minimizedAffinity -4.54841566
REMARK minimizedRMSD -1
REMARK  0 active torsions:
REMARK  status: ('A' for Active; 'I' for Inactive)
ROOT
ATOM      1  N1  IND d   1       1.000  -0.069  -0.016  0.00  0.00    -0.196 N 
ATOM      2  C2  IND d   1       1.500  -0.154   1.254  0.00  0.00     0.054 A 
ATOM      3  C3  IND d   1       0.724   0.543   2.113  0.00  0.00    -0.031 A 
ATOM      4  C4  IND d   1      -1.470   1.816   1.672  0.00  0.00     0.051 A 
ATOM      5  C5  IND d   1      -2.304   2.207   0.662  0.00  0.00    -0.031 A 
ATOM      6  C6  IND d   1      -2.076   1.850  -0.651  0.00  0.00     0.015 A 
ATOM      7  C7  IND d   1      -1.007   1.075  -1.004  0.00  0.00    -0.016 A 
ATOM      8  C8  IND d   1      -0.154   0.683   0.018  0.00  0.00    -0.047 A 
ATOM      9  C9  IND d   1      -0.357   1.077   1.347  0.00  0.00    -0.096 A 
ATOM     10  HN1 IND d   1       1.348  -0.424  -0.717  0.00  0.00     0.298 HD
ENDROOT
TORSDOF 0
ENDMDL
