MODEL 1
REMARK minimizedAffinity -2.03525758
REMARK minimizedRMSD -1
REMARK  0 active torsions:
REMARK  status: ('A' for Active; 'I' for Inactive)
ROOT
ATOM      1  N1  IND d   1       1.273  -0.563   0.300  0.00  0.00    -0.196 N 
ATOM      2  C2  IND d   1       0.483  -1.154  -0.646  0.00  0.00     0.054 A 
ATOM      3  C3  IND d   1      -0.666  -0.458  -0.800  0.00  0.00    -0.031 A 
ATOM      4  C4  IND d   1      -1.414   1.733   0.324  0.00  0.00     0.051 A 
ATOM      5  C5  IND d   1      -1.046   2.631   1.286  0.00  0.00    -0.031 A 
ATOM      6  C6  IND d   1       0.140   2.509   1.981  0.00  0.00     0.015 A 
ATOM      7  C7  IND d   1       1.011   1.486   1.730  0.00  0.00    -0.016 A 
ATOM      8  C8  IND d   1       0.636   0.569   0.759  0.00  0.00    -0.047 A 
ATOM      9  C9  IND d   1      -0.586   0.664   0.080  0.00  0.00    -0.096 A 
ATOM     10  HN1 IND d   1       2.040  -0.850   0.564  0.00  0.00     0.298 HD
ENDROOT
TORSDOF 0
ENDMDL
