MODEL 1
REMARK minimizedAffinity -2.88968277
REMARK minimizedRMSD -1
REMARK  0 active torsions:
REMARK  status: ('A' for Active; 'I' for Inactive)
ROOT
ATOM      1  N1  IND d   1       0.196  -0.265  -0.823  0.00  0.00    -0.196 N 
ATOM      2  C2  IND d   1       1.196  -0.802  -0.061  0.00  0.00     0.054 A 
ATOM      3  C3  IND d   1       1.379  -0.069   1.060  0.00  0.00    -0.031 A 
ATOM      4  C4  IND d   1       0.082   1.993   1.895  0.00  0.00     0.051 A 
ATOM      5  C5  IND d   1      -0.895   2.874   1.524  0.00  0.00    -0.031 A 
ATOM      6  C6  IND d   1      -1.573   2.750   0.329  0.00  0.00     0.015 A 
ATOM      7  C7  IND d   1      -1.307   1.729  -0.538  0.00  0.00    -0.016 A 
ATOM      8  C8  IND d   1      -0.311   0.836  -0.168  0.00  0.00    -0.047 A 
ATOM      9  C9  IND d   1       0.411   0.981   1.023  0.00  0.00    -0.096 A 
ATOM     10  HN1 IND d   1      -0.071  -0.564  -1.584  0.00  0.00     0.298 HD
ENDROOT
TORSDOF 0
ENDMDL
