MODEL 1
REMARK minimizedAffinity -0.833213449
REMARK minimizedRMSD -1
REMARK  0 active torsions:
REMARK  status: ('A' for Active; 'I' for Inactive)
ROOT
ATOM      1  N1  IND d   1      -1.076   2.698   0.504  0.00  0.00    -0.196 N 
ATOM      2  C2  IND d   1      -0.700   3.102   1.754  0.00  0.00     0.054 A 
ATOM      3  C3  IND d   1      -0.096   2.089   2.415  0.00  0.00    -0.031 A 
ATOM      4  C4  IND d   1       0.471  -0.286   1.599  0.00  0.00     0.051 A 
ATOM      5  C5  IND d   1       0.294  -1.133   0.541  0.00  0.00    -0.031 A 
ATOM      6  C6  IND d   1      -0.360  -0.737  -0.608  0.00  0.00     0.015 A 
ATOM      7  C7  IND d   1      -0.853   0.530  -0.746  0.00  0.00    -0.016 A 
ATOM      8  C8  IND d   1      -0.681   1.390   0.329  0.00  0.00    -0.047 A 
ATOM      9  C9  IND d   1      -0.056   0.981   1.514  0.00  0.00    -0.096 A 
ATOM     10  HN1 IND d   1      -1.491   3.179  -0.076  0.00  0.00     0.298 HD
ENDROOT
TORSDOF 0
ENDMDL
