MODEL 1
REMARK minimizedAffinity -5.58021736
REMARK minimizedRMSD -1
REMARK  0 active torsions:
REMARK  status: ('A' for Active; 'I' for Inactive)
ROOT
ATOM      1  N1  IND d   1       0.200   0.667  -2.041  0.00  0.00    -0.196 N 
ATOM      2  C2  IND d   1       0.997  -0.392  -1.704  0.00  0.00     0.054 A 
ATOM      3  C3  IND d   1       1.042  -0.539  -0.361  0.00  0.00    -0.031 A 
ATOM      4  C4  IND d   1      -0.194   0.781   1.471  0.00  0.00     0.051 A 
ATOM      5  C5  IND d   1      -1.008   1.863   1.656  0.00  0.00    -0.031 A 
ATOM      6  C6  IND d   1      -1.472   2.616   0.596  0.00  0.00     0.015 A 
ATOM      7  C7  IND d   1      -1.148   2.305  -0.694  0.00  0.00    -0.016 A 
ATOM      8  C8  IND d   1      -0.316   1.211  -0.885  0.00  0.00    -0.047 A 
ATOM      9  C9  IND d   1       0.193   0.470   0.189  0.00  0.00    -0.096 A 
ATOM     10  HN1 IND d   1       0.047   0.946  -2.839  0.00  0.00     0.298 HD
ENDROOT
TORSDOF 0
ENDMDL
