MODEL 1
REMARK minimizedAffinity -4.51814651
REMARK minimizedRMSD -1
REMARK  1 active torsions:
REMARK  status: ('A' for Active; 'I' for Inactive)
REMARK    1  A    between atoms: C1_2  and  C2_3 
ROOT
ATOM      1  C2  UNL d   1       1.250   3.856  -0.452  0.00  0.00    -0.081 A 
ATOM      2  C3  UNL d   1       1.390   3.152  -1.655  0.00  0.00     0.006 A 
ATOM      3  C4  UNL d   1       1.223   1.766  -1.688  0.00  0.00     0.002 A 
ATOM      4  C5  UNL d   1       0.906   1.061  -0.522  0.00  0.00    -0.080 A 
ATOM      5  C6  UNL d   1       0.695  -0.424  -0.549  0.00  0.00     0.076 C 
ATOM      6  C7  UNL d   1       0.784   1.761   0.683  0.00  0.00     0.002 A 
ATOM      7  C8  UNL d   1       0.951   3.147   0.717  0.00  0.00     0.006 A 
ENDROOT
BRANCH   1   8
ATOM      8  C1  UNL d   1       1.365   5.358  -0.425  0.00  0.00     0.054 C 
ATOM      9  C   UNL d   1       2.590   5.833  -1.194  0.00  0.00     0.018 C 
ENDBRANCH   1   8
TORSDOF 1
ENDMDL
