MODEL 1
REMARK minimizedAffinity 2.73654747
REMARK minimizedRMSD -1
REMARK  1 active torsions:
REMARK  status: ('A' for Active; 'I' for Inactive)
REMARK    1  A    between atoms: C1_2  and  C2_3 
ROOT
ATOM      1  C2  UNL d   1       1.925   1.532   1.996  0.00  0.00    -0.081 A 
ATOM      2  C3  UNL d   1       2.641   0.400   1.588  0.00  0.00     0.006 A 
ATOM      3  C4  UNL d   1       2.262  -0.302   0.441  0.00  0.00     0.002 A 
ATOM      4  C5  UNL d   1       1.166   0.121  -0.320  0.00  0.00    -0.080 A 
ATOM      5  C6  UNL d   1       0.768  -0.606  -1.570  0.00  0.00     0.076 C 
ATOM      6  C7  UNL d   1       0.440   1.241   0.098  0.00  0.00     0.002 A 
ATOM      7  C8  UNL d   1       0.818   1.943   1.245  0.00  0.00     0.006 A 
ENDROOT
BRANCH   1   8
ATOM      8  C1  UNL d   1       2.370   2.329   3.196  0.00  0.00     0.054 C 
ATOM      9  C   UNL d   1       2.354   3.823   2.905  0.00  0.00     0.018 C 
ENDBRANCH   1   8
TORSDOF 1
ENDMDL
