MODEL 1
REMARK minimizedAffinity -1.23646522
REMARK minimizedRMSD -1
REMARK  1 active torsions:
REMARK  status: ('A' for Active; 'I' for Inactive)
REMARK    1  A    between atoms: C1_2  and  C2_3 
ROOT
ATOM      1  C2  UNL d   1       1.630   3.734  -1.225  0.00  0.00    -0.081 A 
ATOM      2  C3  UNL d   1       1.779   2.747  -2.208  0.00  0.00     0.006 A 
ATOM      3  C4  UNL d   1       1.529   1.406  -1.908  0.00  0.00     0.002 A 
ATOM      4  C5  UNL d   1       1.118   1.030  -0.625  0.00  0.00    -0.080 A 
ATOM      5  C6  UNL d   1       0.816  -0.402  -0.299  0.00  0.00     0.076 C 
ATOM      6  C7  UNL d   1       0.985   2.014   0.361  0.00  0.00     0.002 A 
ATOM      7  C8  UNL d   1       1.236   3.355   0.063  0.00  0.00     0.006 A 
ENDROOT
BRANCH   1   8
ATOM      8  C1  UNL d   1       1.836   5.189  -1.562  0.00  0.00     0.054 C 
ATOM      9  C   UNL d   1       2.190   5.999  -0.324  0.00  0.00     0.018 C 
ENDBRANCH   1   8
TORSDOF 1
ENDMDL
