MODEL 1
REMARK minimizedAffinity 9.65410042
REMARK minimizedRMSD -1
REMARK  1 active torsions:
REMARK  status: ('A' for Active; 'I' for Inactive)
REMARK    1  A    between atoms: C1_2  and  C2_3 
ROOT
ATOM      1  C2  UNL d   1      -0.412   1.439  -0.520  0.00  0.00    -0.081 A 
ATOM      2  C3  UNL d   1       0.043   1.642   0.789  0.00  0.00     0.006 A 
ATOM      3  C4  UNL d   1      -0.784   2.244   1.740  0.00  0.00     0.002 A 
ATOM      4  C5  UNL d   1      -2.080   2.646   1.401  0.00  0.00    -0.080 A 
ATOM      5  C6  UNL d   1      -2.989   3.267   2.420  0.00  0.00     0.076 C 
ATOM      6  C7  UNL d   1      -2.528   2.460   0.089  0.00  0.00     0.002 A 
ATOM      7  C8  UNL d   1      -1.702   1.858  -0.863  0.00  0.00     0.006 A 
ENDROOT
BRANCH   1   8
ATOM      8  C1  UNL d   1       0.454   0.731  -1.531  0.00  0.00     0.054 C 
ATOM      9  C   UNL d   1       0.851  -0.655  -1.045  0.00  0.00     0.018 C 
ENDBRANCH   1   8
TORSDOF 1
ENDMDL
