MODEL 1
REMARK minimizedAffinity -2.91599488
REMARK minimizedRMSD -1
REMARK  1 active torsions:
REMARK  status: ('A' for Active; 'I' for Inactive)
REMARK    1  A    between atoms: C1_2  and  C2_3 
ROOT
ATOM      1  C2  UNL d   1       1.693   3.615  -1.172  0.00  0.00    -0.081 A 
ATOM      2  C3  UNL d   1       1.596   3.175   0.153  0.00  0.00     0.006 A 
ATOM      3  C4  UNL d   1       1.349   1.830   0.436  0.00  0.00     0.002 A 
ATOM      4  C5  UNL d   1       1.203   0.901  -0.600  0.00  0.00    -0.080 A 
ATOM      5  C6  UNL d   1       0.967  -0.551  -0.310  0.00  0.00     0.076 C 
ATOM      6  C7  UNL d   1       1.282   1.344  -1.925  0.00  0.00     0.002 A 
ATOM      7  C8  UNL d   1       1.529   2.689  -2.208  0.00  0.00     0.006 A 
ENDROOT
BRANCH   1   8
ATOM      8  C1  UNL d   1       2.024   5.053  -1.480  0.00  0.00     0.054 C 
ATOM      9  C   UNL d   1       2.247   5.855  -0.206  0.00  0.00     0.018 C 
ENDBRANCH   1   8
TORSDOF 1
ENDMDL
