MODEL 1
REMARK minimizedAffinity 0.542972445
REMARK minimizedRMSD -1
REMARK  1 active torsions:
REMARK  status: ('A' for Active; 'I' for Inactive)
REMARK    1  A    between atoms: C1_2  and  C2_3 
ROOT
ATOM      1  C2  UNL d   1       1.134   2.864  -1.238  0.00  0.00    -0.081 A 
ATOM      2  C3  UNL d   1       1.182   2.744   0.156  0.00  0.00     0.006 A 
ATOM      3  C4  UNL d   1       1.256   1.484   0.755  0.00  0.00     0.002 A 
ATOM      4  C5  UNL d   1       1.291   0.326  -0.028  0.00  0.00    -0.080 A 
ATOM      5  C6  UNL d   1       1.401  -1.031   0.602  0.00  0.00     0.076 C 
ATOM      6  C7  UNL d   1       1.225   0.446  -1.420  0.00  0.00     0.002 A 
ATOM      7  C8  UNL d   1       1.150   1.704  -2.021  0.00  0.00     0.006 A 
ENDROOT
BRANCH   1   8
ATOM      8  C1  UNL d   1       1.119   4.224  -1.890  0.00  0.00     0.054 C 
ATOM      9  C   UNL d   1       1.880   5.245  -1.057  0.00  0.00     0.018 C 
ENDBRANCH   1   8
TORSDOF 1
ENDMDL
