MODEL 1
REMARK minimizedAffinity 6.5409627
REMARK minimizedRMSD -1
REMARK  1 active torsions:
REMARK  status: ('A' for Active; 'I' for Inactive)
REMARK    1  A    between atoms: C1_2  and  C2_3 
ROOT
ATOM      1  C2  UNL d   1       1.341   3.868  -0.555  0.00  0.00    -0.081 A 
ATOM      2  C3  UNL d   1       1.236   3.038   0.568  0.00  0.00     0.006 A 
ATOM      3  C4  UNL d   1       1.220   1.649   0.423  0.00  0.00     0.002 A 
ATOM      4  C5  UNL d   1       1.316   1.067  -0.845  0.00  0.00    -0.080 A 
ATOM      5  C6  UNL d   1       1.331  -0.424  -1.012  0.00  0.00     0.076 C 
ATOM      6  C7  UNL d   1       1.404   1.896  -1.969  0.00  0.00     0.002 A 
ATOM      7  C8  UNL d   1       1.419   3.285  -1.824  0.00  0.00     0.006 A 
ENDROOT
BRANCH   1   8
ATOM      8  C1  UNL d   1       1.423   5.365  -0.396  0.00  0.00     0.054 C 
ATOM      9  C   UNL d   1       2.243   5.995  -1.514  0.00  0.00     0.018 C 
ENDBRANCH   1   8
TORSDOF 1
ENDMDL
