MODEL 1
REMARK minimizedAffinity 4.03459787
REMARK minimizedRMSD -1
REMARK  1 active torsions:
REMARK  status: ('A' for Active; 'I' for Inactive)
REMARK    1  A    between atoms: C1_2  and  C2_3 
ROOT
ATOM      1  C2  UNL d   1       1.419   1.686  -0.907  0.00  0.00    -0.081 A 
ATOM      2  C3  UNL d   1       1.505   2.375  -2.123  0.00  0.00     0.006 A 
ATOM      3  C4  UNL d   1       1.650   3.765  -2.141  0.00  0.00     0.002 A 
ATOM      4  C5  UNL d   1       1.718   4.487  -0.944  0.00  0.00    -0.080 A 
ATOM      5  C6  UNL d   1       1.904   5.975  -0.949  0.00  0.00     0.076 C 
ATOM      6  C7  UNL d   1       1.615   3.800   0.270  0.00  0.00     0.002 A 
ATOM      7  C8  UNL d   1       1.470   2.411   0.289  0.00  0.00     0.006 A 
ENDROOT
BRANCH   1   8
ATOM      8  C1  UNL d   1       1.328   0.182  -0.883  0.00  0.00     0.054 C 
ATOM      9  C   UNL d   1       0.807  -0.362  -2.206  0.00  0.00     0.018 C 
ENDBRANCH   1   8
TORSDOF 1
ENDMDL
