MODEL 1
REMARK minimizedAffinity 5.16685963
REMARK minimizedRMSD -1
REMARK  1 active torsions:
REMARK  status: ('A' for Active; 'I' for Inactive)
REMARK    1  A    between atoms: C1_2  and  C2_3 
ROOT
ATOM      1  C2  UNL d   1       1.313   2.531  -1.005  0.00  0.00    -0.081 A 
ATOM      2  C3  UNL d   1       1.764   2.656   0.315  0.00  0.00     0.006 A 
ATOM      3  C4  UNL d   1       2.569   1.667   0.885  0.00  0.00     0.002 A 
ATOM      4  C5  UNL d   1       2.944   0.542   0.143  0.00  0.00    -0.080 A 
ATOM      5  C6  UNL d   1       3.833  -0.512   0.733  0.00  0.00     0.076 C 
ATOM      6  C7  UNL d   1       2.479   0.408  -1.169  0.00  0.00     0.002 A 
ATOM      7  C8  UNL d   1       1.673   1.396  -1.740  0.00  0.00     0.006 A 
ENDROOT
BRANCH   1   8
ATOM      8  C1  UNL d   1       0.498   3.626  -1.643  0.00  0.00     0.054 C 
ATOM      9  C   UNL d   1      -0.015   3.207  -3.014  0.00  0.00     0.018 C 
ENDBRANCH   1   8
TORSDOF 1
ENDMDL
