MODEL 1
REMARK minimizedAffinity 6.38514233
REMARK minimizedRMSD -1
REMARK  1 active torsions:
REMARK  status: ('A' for Active; 'I' for Inactive)
REMARK    1  A    between atoms: C1_2  and  C2_3 
ROOT
ATOM      1  C2  UNL d   1       1.465   0.500  -0.317  0.00  0.00    -0.081 A 
ATOM      2  C3  UNL d   1       0.952  -0.077  -1.486  0.00  0.00     0.006 A 
ATOM      3  C4  UNL d   1       0.395   0.725  -2.485  0.00  0.00     0.002 A 
ATOM      4  C5  UNL d   1       0.348   2.115  -2.337  0.00  0.00    -0.080 A 
ATOM      5  C6  UNL d   1      -0.220   2.989  -3.415  0.00  0.00     0.076 C 
ATOM      6  C7  UNL d   1       0.844   2.690  -1.162  0.00  0.00     0.002 A 
ATOM      7  C8  UNL d   1       1.401   1.889  -0.162  0.00  0.00     0.006 A 
ENDROOT
BRANCH   1   8
ATOM      8  C1  UNL d   1       2.125  -0.356   0.734  0.00  0.00     0.054 C 
ATOM      9  C   UNL d   1       2.636   0.488   1.893  0.00  0.00     0.018 C 
ENDBRANCH   1   8
TORSDOF 1
ENDMDL
