MODEL 1
REMARK minimizedAffinity 2.53580999
REMARK minimizedRMSD -1
REMARK  1 active torsions:
REMARK  status: ('A' for Active; 'I' for Inactive)
REMARK    1  A    between atoms: C1_2  and  C2_3 
ROOT
ATOM      1  C2  UNL d   1       0.597   1.254  -0.920  0.00  0.00    -0.081 A 
ATOM      2  C3  UNL d   1       0.598   2.203   0.109  0.00  0.00     0.006 A 
ATOM      3  C4  UNL d   1       1.228   1.929   1.325  0.00  0.00     0.002 A 
ATOM      4  C5  UNL d   1       1.875   0.706   1.529  0.00  0.00    -0.080 A 
ATOM      5  C6  UNL d   1       2.582   0.411   2.819  0.00  0.00     0.076 C 
ATOM      6  C7  UNL d   1       1.860  -0.250   0.507  0.00  0.00     0.002 A 
ATOM      7  C8  UNL d   1       1.229   0.023  -0.708  0.00  0.00     0.006 A 
ENDROOT
BRANCH   1   8
ATOM      8  C1  UNL d   1      -0.026   1.571  -2.255  0.00  0.00     0.054 C 
ATOM      9  C   UNL d   1       0.956   2.294  -3.167  0.00  0.00     0.018 C 
ENDBRANCH   1   8
TORSDOF 1
ENDMDL
