MODEL 1
REMARK minimizedAffinity 7.06717014
REMARK minimizedRMSD -1
REMARK  1 active torsions:
REMARK  status: ('A' for Active; 'I' for Inactive)
REMARK    1  A    between atoms: C1_2  and  C2_3 
ROOT
ATOM      1  C2  UNL d   1       0.890   0.789  -1.786  0.00  0.00    -0.081 A 
ATOM      2  C3  UNL d   1       1.742   1.251  -0.775  0.00  0.00     0.006 A 
ATOM      3  C4  UNL d   1       1.765   2.605  -0.432  0.00  0.00     0.002 A 
ATOM      4  C5  UNL d   1       0.934   3.518  -1.090  0.00  0.00    -0.080 A 
ATOM      5  C6  UNL d   1       0.927   4.969  -0.711  0.00  0.00     0.076 C 
ATOM      6  C7  UNL d   1       0.096   3.060  -2.112  0.00  0.00     0.002 A 
ATOM      7  C8  UNL d   1       0.072   1.706  -2.455  0.00  0.00     0.006 A 
ENDROOT
BRANCH   1   8
ATOM      8  C1  UNL d   1       0.815  -0.680  -2.113  0.00  0.00     0.054 C 
ATOM      9  C   UNL d   1       1.304  -1.532  -0.950  0.00  0.00     0.018 C 
ENDBRANCH   1   8
TORSDOF 1
ENDMDL
