MODEL 1
REMARK minimizedAffinity -3.49758339
REMARK minimizedRMSD -1
REMARK  0 active torsions:
REMARK  status: ('A' for Active; 'I' for Inactive)
ROOT
ATOM      1  N1  IND d   1       5.917  -2.224  -4.277  0.00  0.00    -0.196 N 
ATOM      2  C2  IND d   1       5.240  -1.438  -5.167  0.00  0.00     0.054 A 
ATOM      3  C3  IND d   1       4.482  -2.201  -5.987  0.00  0.00    -0.031 A 
ATOM      4  C4  IND d   1       4.121  -4.750  -5.979  0.00  0.00     0.051 A 
ATOM      5  C5  IND d   1       4.553  -5.897  -5.374  0.00  0.00    -0.031 A 
ATOM      6  C6  IND d   1       5.478  -5.878  -4.350  0.00  0.00     0.015 A 
ATOM      7  C7  IND d   1       6.000  -4.704  -3.883  0.00  0.00    -0.016 A 
ATOM      8  C8  IND d   1       5.569  -3.538  -4.499  0.00  0.00    -0.047 A 
ATOM      9  C9  IND d   1       4.662  -3.554  -5.567  0.00  0.00    -0.096 A 
ATOM     10  HN1 IND d   1       6.467  -1.944  -3.678  0.00  0.00     0.298 HD
ENDROOT
TORSDOF 0
ENDMDL
