MODEL 1
REMARK minimizedAffinity -3.27022719
REMARK minimizedRMSD -1
REMARK  0 active torsions:
REMARK  status: ('A' for Active; 'I' for Inactive)
ROOT
ATOM      1  N1  IND d   1       4.399  -2.190  -4.263  0.00  0.00    -0.196 N 
ATOM      2  C2  IND d   1       5.061  -1.454  -5.205  0.00  0.00     0.054 A 
ATOM      3  C3  IND d   1       5.803  -2.261  -5.996  0.00  0.00    -0.031 A 
ATOM      4  C4  IND d   1       6.000  -4.827  -5.988  0.00  0.00     0.051 A 
ATOM      5  C5  IND d   1       5.610  -5.936  -5.290  0.00  0.00    -0.031 A 
ATOM      6  C6  IND d   1       4.778  -5.850  -4.192  0.00  0.00     0.015 A 
ATOM      7  C7  IND d   1       4.293  -4.649  -3.758  0.00  0.00    -0.016 A 
ATOM      8  C8  IND d   1       4.692  -3.521  -4.461  0.00  0.00    -0.047 A 
ATOM      9  C9  IND d   1       5.571  -3.597  -5.549  0.00  0.00    -0.096 A 
ATOM     10  HN1 IND d   1       3.885  -1.874  -3.649  0.00  0.00     0.298 HD
ENDROOT
TORSDOF 0
ENDMDL
