MODEL 1
REMARK minimizedAffinity -2.99649072
REMARK minimizedRMSD -1
REMARK  0 active torsions:
REMARK  status: ('A' for Active; 'I' for Inactive)
ROOT
ATOM      1  N1  IND d   1       4.485  -2.190  -4.313  0.00  0.00    -0.196 N 
ATOM      2  C2  IND d   1       5.270  -1.490  -5.186  0.00  0.00     0.054 A 
ATOM      3  C3  IND d   1       5.999  -2.338  -5.947  0.00  0.00    -0.031 A 
ATOM      4  C4  IND d   1       5.985  -4.912  -5.998  0.00  0.00     0.051 A 
ATOM      5  C5  IND d   1       5.459  -5.999  -5.359  0.00  0.00    -0.031 A 
ATOM      6  C6  IND d   1       4.560  -5.870  -4.320  0.00  0.00     0.015 A 
ATOM      7  C7  IND d   1       4.145  -4.643  -3.886  0.00  0.00    -0.016 A 
ATOM      8  C8  IND d   1       4.683  -3.537  -4.528  0.00  0.00    -0.047 A 
ATOM      9  C9  IND d   1       5.627  -3.661  -5.555  0.00  0.00    -0.096 A 
ATOM     10  HN1 IND d   1       3.957  -1.847  -3.728  0.00  0.00     0.298 HD
ENDROOT
TORSDOF 0
ENDMDL
