MODEL 1
REMARK minimizedAffinity -1.55472112
REMARK minimizedRMSD -1
REMARK  0 active torsions:
REMARK  status: ('A' for Active; 'I' for Inactive)
ROOT
ATOM      1  N1  IND d   1       5.998  -2.419  -4.781  0.00  0.00    -0.196 N 
ATOM      2  C2  IND d   1       5.022  -1.482  -4.980  0.00  0.00     0.054 A 
ATOM      3  C3  IND d   1       3.837  -2.082  -5.230  0.00  0.00    -0.031 A 
ATOM      4  C4  IND d   1       3.248  -4.588  -5.263  0.00  0.00     0.051 A 
ATOM      5  C5  IND d   1       3.814  -5.829  -5.175  0.00  0.00    -0.031 A 
ATOM      6  C6  IND d   1       5.163  -6.000  -4.943  0.00  0.00     0.015 A 
ATOM      7  C7  IND d   1       5.999  -4.932  -4.780  0.00  0.00    -0.016 A 
ATOM      8  C8  IND d   1       5.429  -3.670  -4.876  0.00  0.00    -0.047 A 
ATOM      9  C9  IND d   1       4.068  -3.490  -5.153  0.00  0.00    -0.096 A 
ATOM     10  HN1 IND d   1       6.827  -2.254  -4.624  0.00  0.00     0.298 HD
ENDROOT
TORSDOF 0
ENDMDL
