MODEL 1
REMARK minimizedAffinity -4.10668039
REMARK minimizedRMSD -1
REMARK  0 active torsions:
REMARK  status: ('A' for Active; 'I' for Inactive)
ROOT
ATOM      1  N1  IND d   1       5.998  -2.158  -4.446  0.00  0.00    -0.196 N 
ATOM      2  C2  IND d   1       5.094  -1.276  -4.970  0.00  0.00     0.054 A 
ATOM      3  C3  IND d   1       3.992  -1.932  -5.399  0.00  0.00    -0.031 A 
ATOM      4  C4  IND d   1       3.418  -4.437  -5.248  0.00  0.00     0.051 A 
ATOM      5  C5  IND d   1       3.946  -5.644  -4.882  0.00  0.00    -0.031 A 
ATOM      6  C6  IND d   1       5.210  -5.751  -4.340  0.00  0.00     0.015 A 
ATOM      7  C7  IND d   1       5.992  -4.651  -4.130  0.00  0.00    -0.016 A 
ATOM      8  C8  IND d   1       5.461  -3.425  -4.507  0.00  0.00    -0.047 A 
ATOM      9  C9  IND d   1       4.196  -3.314  -5.097  0.00  0.00    -0.096 A 
ATOM     10  HN1 IND d   1       6.772  -1.955  -4.132  0.00  0.00     0.298 HD
ENDROOT
TORSDOF 0
ENDMDL
