MODEL 1
REMARK minimizedAffinity -1.12186897
REMARK minimizedRMSD -1
REMARK  0 active torsions:
REMARK  status: ('A' for Active; 'I' for Inactive)
ROOT
ATOM      1  N1  IND d   1       5.983  -2.389  -5.743  0.00  0.00    -0.196 N 
ATOM      2  C2  IND d   1       5.113  -1.513  -5.157  0.00  0.00     0.054 A 
ATOM      3  C3  IND d   1       4.061  -2.177  -4.629  0.00  0.00    -0.031 A 
ATOM      4  C4  IND d   1       3.610  -4.709  -4.523  0.00  0.00     0.051 A 
ATOM      5  C5  IND d   1       4.101  -5.909  -4.954  0.00  0.00    -0.031 A 
ATOM      6  C6  IND d   1       5.270  -6.000  -5.683  0.00  0.00     0.015 A 
ATOM      7  C7  IND d   1       6.000  -4.889  -5.999  0.00  0.00    -0.016 A 
ATOM      8  C8  IND d   1       5.500  -3.668  -5.569  0.00  0.00    -0.047 A 
ATOM      9  C9  IND d   1       4.293  -3.566  -4.866  0.00  0.00    -0.096 A 
ATOM     10  HN1 IND d   1       6.709  -2.178  -6.152  0.00  0.00     0.298 HD
ENDROOT
TORSDOF 0
ENDMDL
