MODEL 1
REMARK minimizedAffinity -4.28613091
REMARK minimizedRMSD -1
REMARK  0 active torsions:
REMARK  status: ('A' for Active; 'I' for Inactive)
ROOT
ATOM      1  N1  IND d   1       3.775  -5.612  -3.866  0.00  0.00    -0.196 N 
ATOM      2  C2  IND d   1       4.859  -6.000  -3.129  0.00  0.00     0.054 A 
ATOM      3  C3  IND d   1       5.894  -5.154  -3.332  0.00  0.00    -0.031 A 
ATOM      4  C4  IND d   1       5.998  -3.010  -4.754  0.00  0.00     0.051 A 
ATOM      5  C5  IND d   1       5.267  -2.267  -5.638  0.00  0.00    -0.031 A 
ATOM      6  C6  IND d   1       3.975  -2.607  -5.982  0.00  0.00     0.015 A 
ATOM      7  C7  IND d   1       3.358  -3.701  -5.443  0.00  0.00    -0.016 A 
ATOM      8  C8  IND d   1       4.100  -4.461  -4.550  0.00  0.00    -0.047 A 
ATOM      9  C9  IND d   1       5.426  -4.145  -4.230  0.00  0.00    -0.096 A 
ATOM     10  HN1 IND d   1       3.018  -6.018  -3.897  0.00  0.00     0.298 HD
ENDROOT
TORSDOF 0
ENDMDL
