MODEL 1
REMARK minimizedAffinity -2.71851015
REMARK minimizedRMSD -1
REMARK  0 active torsions:
REMARK  status: ('A' for Active; 'I' for Inactive)
ROOT
ATOM      1  N1  IND d   1       6.000  -2.365  -4.174  0.00  0.00    -0.196 N 
ATOM      2  C2  IND d   1       5.432  -1.564  -5.125  0.00  0.00     0.054 A 
ATOM      3  C3  IND d   1       4.714  -2.306  -5.998  0.00  0.00    -0.031 A 
ATOM      4  C4  IND d   1       4.252  -4.839  -5.997  0.00  0.00     0.051 A 
ATOM      5  C5  IND d   1       4.585  -5.995  -5.349  0.00  0.00    -0.031 A 
ATOM      6  C6  IND d   1       5.422  -5.999  -4.251  0.00  0.00     0.015 A 
ATOM      7  C7  IND d   1       5.950  -4.842  -3.753  0.00  0.00    -0.016 A 
ATOM      8  C8  IND d   1       5.619  -3.667  -4.413  0.00  0.00    -0.047 A 
ATOM      9  C9  IND d   1       4.804  -3.661  -5.553  0.00  0.00    -0.096 A 
ATOM     10  HN1 IND d   1       6.509  -2.100  -3.534  0.00  0.00     0.298 HD
ENDROOT
TORSDOF 0
ENDMDL
