MODEL 1
REMARK minimizedAffinity -2.22831726
REMARK minimizedRMSD -1
REMARK  0 active torsions:
REMARK  status: ('A' for Active; 'I' for Inactive)
ROOT
ATOM      1  N1  IND d   1       6.000  -2.378  -5.820  0.00  0.00    -0.196 N 
ATOM      2  C2  IND d   1       5.392  -1.499  -4.968  0.00  0.00     0.054 A 
ATOM      3  C3  IND d   1       4.642  -2.165  -4.061  0.00  0.00    -0.031 A 
ATOM      4  C4  IND d   1       4.350  -4.701  -3.727  0.00  0.00     0.051 A 
ATOM      5  C5  IND d   1       4.678  -5.905  -4.283  0.00  0.00    -0.031 A 
ATOM      6  C6  IND d   1       5.482  -5.998  -5.401  0.00  0.00     0.015 A 
ATOM      7  C7  IND d   1       6.000  -4.884  -6.000  0.00  0.00    -0.016 A 
ATOM      8  C8  IND d   1       5.663  -3.659  -5.443  0.00  0.00    -0.047 A 
ATOM      9  C9  IND d   1       4.812  -3.557  -4.334  0.00  0.00    -0.096 A 
ATOM     10  HN1 IND d   1       6.508  -2.166  -6.481  0.00  0.00     0.298 HD
ENDROOT
TORSDOF 0
ENDMDL
