MODEL 1
REMARK minimizedAffinity -4.33428049
REMARK minimizedRMSD -1
REMARK  1 active torsions:
REMARK  status: ('A' for Active; 'I' for Inactive)
REMARK    1  A    between atoms: C1_2  and  C2_3 
ROOT
ATOM      1  C2  UNL d   1      -0.871   1.748   0.571  0.00  0.00    -0.077 A 
ATOM      2  C3  UNL d   1      -0.877   0.937   1.714  0.00  0.00     0.002 A 
ATOM      3  C4  UNL d   1      -0.234  -0.303   1.704  0.00  0.00     0.002 A 
ATOM      4  C5  UNL d   1       0.421  -0.740   0.554  0.00  0.00    -0.004 A 
ATOM      5  C6  UNL d   1       0.430   0.059  -0.588  0.00  0.00     0.002 A 
ATOM      6  C7  UNL d   1      -0.212   1.298  -0.580  0.00  0.00     0.002 A 
ENDROOT
BRANCH   1   7
ATOM      7  C1  UNL d   1      -1.521   3.107   0.596  0.00  0.00     0.055 C 
ATOM      8  C   UNL d   1      -0.662   4.145  -0.111  0.00  0.00     0.019 C 
ENDBRANCH   1   7
TORSDOF 1
ENDMDL
