MODEL 1
REMARK minimizedAffinity -5.17015839
REMARK minimizedRMSD -1
REMARK  1 active torsions:
REMARK  status: ('A' for Active; 'I' for Inactive)
REMARK    1  A    between atoms: C1_2  and  C2_3 
ROOT
ATOM      1  C2  UNL d   1       0.138  -0.180  -0.064  0.00  0.00    -0.077 A 
ATOM      2  C3  UNL d   1      -0.264  -0.788   1.133  0.00  0.00     0.002 A 
ATOM      3  C4  UNL d   1      -1.171  -0.147   1.980  0.00  0.00     0.002 A 
ATOM      4  C5  UNL d   1      -1.684   1.102   1.637  0.00  0.00    -0.004 A 
ATOM      5  C6  UNL d   1      -1.288   1.715   0.449  0.00  0.00     0.002 A 
ATOM      6  C7  UNL d   1      -0.382   1.077  -0.398  0.00  0.00     0.002 A 
ENDROOT
BRANCH   1   7
ATOM      7  C1  UNL d   1       1.078  -0.891  -1.003  0.00  0.00     0.055 C 
ATOM      8  C   UNL d   1       0.341  -1.918  -1.851  0.00  0.00     0.019 C 
ENDBRANCH   1   7
TORSDOF 1
ENDMDL
