MODEL 1
REMARK minimizedAffinity -3.63795161
REMARK minimizedRMSD -1
REMARK  1 active torsions:
REMARK  status: ('A' for Active; 'I' for Inactive)
REMARK    1  A    between atoms: C1_2  and  C2_3 
ROOT
ATOM      1  C2  UNL d   1      -1.027   0.845   0.239  0.00  0.00    -0.077 A 
ATOM      2  C3  UNL d   1      -0.228   0.928  -0.910  0.00  0.00     0.002 A 
ATOM      3  C4  UNL d   1       0.886   0.100  -1.058  0.00  0.00     0.002 A 
ATOM      4  C5  UNL d   1       1.209  -0.820  -0.062  0.00  0.00    -0.004 A 
ATOM      5  C6  UNL d   1       0.422  -0.910   1.085  0.00  0.00     0.002 A 
ATOM      6  C7  UNL d   1      -0.691  -0.081   1.235  0.00  0.00     0.002 A 
ENDROOT
BRANCH   1   7
ATOM      7  C1  UNL d   1      -2.257   1.703   0.378  0.00  0.00     0.055 C 
ATOM      8  C   UNL d   1      -2.234   2.498   1.675  0.00  0.00     0.019 C 
ENDBRANCH   1   7
TORSDOF 1
ENDMDL
