MODEL 1
REMARK minimizedAffinity -5.18089867
REMARK minimizedRMSD -1
REMARK  1 active torsions:
REMARK  status: ('A' for Active; 'I' for Inactive)
REMARK    1  A    between atoms: C1_2  and  C2_3 
ROOT
ATOM      1  C2  UNL d   1      -0.595   0.508   0.884  0.00  0.00    -0.077 A 
ATOM      2  C3  UNL d   1      -0.387  -0.813   1.305  0.00  0.00     0.002 A 
ATOM      3  C4  UNL d   1       0.353  -1.697   0.517  0.00  0.00     0.002 A 
ATOM      4  C5  UNL d   1       0.894  -1.269  -0.693  0.00  0.00    -0.004 A 
ATOM      5  C6  UNL d   1       0.691   0.043  -1.121  0.00  0.00     0.002 A 
ATOM      6  C7  UNL d   1      -0.049   0.927  -0.336  0.00  0.00     0.002 A 
ENDROOT
BRANCH   1   7
ATOM      7  C1  UNL d   1      -1.351   1.477   1.756  0.00  0.00     0.055 C 
ATOM      8  C   UNL d   1      -2.548   2.064   1.022  0.00  0.00     0.019 C 
ENDBRANCH   1   7
TORSDOF 1
ENDMDL
