MODEL 1
REMARK minimizedAffinity -5.66399288
REMARK minimizedRMSD -1
REMARK  1 active torsions:
REMARK  status: ('A' for Active; 'I' for Inactive)
REMARK    1  A    between atoms: C1_2  and  C2_3 
ROOT
ATOM      1  C2  UNL d   1      -0.094   0.290  -0.022  0.00  0.00    -0.077 A 
ATOM      2  C3  UNL d   1      -0.700   1.333  -0.736  0.00  0.00     0.002 A 
ATOM      3  C4  UNL d   1      -1.540   2.240  -0.087  0.00  0.00     0.002 A 
ATOM      4  C5  UNL d   1      -1.778   2.115   1.281  0.00  0.00    -0.004 A 
ATOM      5  C6  UNL d   1      -1.181   1.080   2.000  0.00  0.00     0.002 A 
ATOM      6  C7  UNL d   1      -0.343   0.172   1.352  0.00  0.00     0.002 A 
ENDROOT
BRANCH   1   7
ATOM      7  C1  UNL d   1       0.851  -0.659  -0.711  0.00  0.00     0.055 C 
ATOM      8  C   UNL d   1       0.145  -1.446  -1.805  0.00  0.00     0.019 C 
ENDBRANCH   1   7
TORSDOF 1
ENDMDL
