MODEL 1
REMARK minimizedAffinity -3.00148201
REMARK minimizedRMSD -1
REMARK  1 active torsions:
REMARK  status: ('A' for Active; 'I' for Inactive)
REMARK    1  A    between atoms: C1_2  and  C2_3 
ROOT
ATOM      1  C2  UNL d   1       0.461  -0.877  -1.434  0.00  0.00    -0.077 A 
ATOM      2  C3  UNL d   1       1.286  -1.667  -0.621  0.00  0.00     0.002 A 
ATOM      3  C4  UNL d   1       1.450  -3.027  -0.892  0.00  0.00     0.002 A 
ATOM      4  C5  UNL d   1       0.796  -3.607  -1.977  0.00  0.00    -0.004 A 
ATOM      5  C6  UNL d   1      -0.029  -2.830  -2.789  0.00  0.00     0.002 A 
ATOM      6  C7  UNL d   1      -0.195  -1.471  -2.520  0.00  0.00     0.002 A 
ENDROOT
BRANCH   1   7
ATOM      7  C1  UNL d   1       0.321   0.600  -1.173  0.00  0.00     0.055 C 
ATOM      8  C   UNL d   1      -1.073   0.944  -0.670  0.00  0.00     0.019 C 
ENDBRANCH   1   7
TORSDOF 1
ENDMDL
