MODEL 1
REMARK minimizedAffinity -3.97304177
REMARK minimizedRMSD -1
REMARK  1 active torsions:
REMARK  status: ('A' for Active; 'I' for Inactive)
REMARK    1  A    between atoms: C1_2  and  C2_3 
ROOT
ATOM      1  C2  UNL d   1      -0.263   0.250   0.483  0.00  0.00    -0.077 A 
ATOM      2  C3  UNL d   1      -0.866   1.017  -0.524  0.00  0.00     0.002 A 
ATOM      3  C4  UNL d   1      -1.681   2.101  -0.194  0.00  0.00     0.002 A 
ATOM      4  C5  UNL d   1      -1.898   2.430   1.142  0.00  0.00    -0.004 A 
ATOM      5  C6  UNL d   1      -1.305   1.673   2.152  0.00  0.00     0.002 A 
ATOM      6  C7  UNL d   1      -0.491   0.588   1.824  0.00  0.00     0.002 A 
ENDROOT
BRANCH   1   7
ATOM      7  C1  UNL d   1       0.656  -0.889   0.129  0.00  0.00     0.055 C 
ATOM      8  C   UNL d   1       0.296  -1.492  -1.221  0.00  0.00     0.019 C 
ENDBRANCH   1   7
TORSDOF 1
ENDMDL
