MODEL 1
REMARK minimizedAffinity -3.96193671
REMARK minimizedRMSD -1
REMARK  1 active torsions:
REMARK  status: ('A' for Active; 'I' for Inactive)
REMARK    1  A    between atoms: C1_2  and  C2_3 
ROOT
ATOM      1  C2  UNL d   1      -0.576   1.019   0.188  0.00  0.00    -0.077 A 
ATOM      2  C3  UNL d   1      -0.213  -0.276   0.581  0.00  0.00     0.002 A 
ATOM      3  C4  UNL d   1       0.808  -0.957  -0.086  0.00  0.00     0.002 A 
ATOM      4  C5  UNL d   1       1.476  -0.349  -1.146  0.00  0.00    -0.004 A 
ATOM      5  C6  UNL d   1       1.121   0.939  -1.546  0.00  0.00     0.002 A 
ATOM      6  C7  UNL d   1       0.100   1.620  -0.881  0.00  0.00     0.002 A 
ENDROOT
BRANCH   1   7
ATOM      7  C1  UNL d   1      -1.642   1.774   0.938  0.00  0.00     0.055 C 
ATOM      8  C   UNL d   1      -1.197   2.099   2.357  0.00  0.00     0.019 C 
ENDBRANCH   1   7
TORSDOF 1
ENDMDL
