MODEL 1
REMARK minimizedAffinity 3.74376464
REMARK minimizedRMSD -1
REMARK  0 active torsions:
REMARK  status: ('A' for Active; 'I' for Inactive)
ROOT
ATOM      1  C   UNL d   1      -3.337   1.264  -2.395  0.00  0.00     0.172 C 
ATOM      2  N   UNL d   1      -3.648   2.451  -3.156  0.00  0.00    -0.070 N 
ATOM      3  C1  UNL d   1      -3.427   2.621  -4.497  0.00  0.00    -0.004 A 
ATOM      4  C2  UNL d   1      -3.859   3.884  -4.840  0.00  0.00    -0.047 A 
ATOM      5  C3  UNL d   1      -4.355   4.495  -3.664  0.00  0.00    -0.047 A 
ATOM      6  C4  UNL d   1      -4.212   3.586  -2.637  0.00  0.00    -0.004 A 
ENDROOT
TORSDOF 0
ENDMDL
