MODEL 1
REMARK minimizedAffinity 0.543203056
REMARK minimizedRMSD -1
REMARK  0 active torsions:
REMARK  status: ('A' for Active; 'I' for Inactive)
ROOT
ATOM      1  C   UNL d   1       1.715  -1.967   2.275  0.00  0.00     0.172 C 
ATOM      2  N   UNL d   1       1.792  -2.438   3.638  0.00  0.00    -0.070 N 
ATOM      3  C1  UNL d   1       2.562  -3.482   4.079  0.00  0.00    -0.004 A 
ATOM      4  C2  UNL d   1       2.357  -3.613   5.436  0.00  0.00    -0.047 A 
ATOM      5  C3  UNL d   1       1.432  -2.615   5.823  0.00  0.00    -0.047 A 
ATOM      6  C4  UNL d   1       1.099  -1.902   4.691  0.00  0.00    -0.004 A 
ENDROOT
TORSDOF 0
ENDMDL
