MODEL 1
REMARK minimizedAffinity 5.96773815
REMARK minimizedRMSD -1
REMARK  0 active torsions:
REMARK  status: ('A' for Active; 'I' for Inactive)
ROOT
ATOM      1  C   UNL d   1       1.322  -1.635   2.361  0.00  0.00     0.172 C 
ATOM      2  N   UNL d   1       2.299  -1.885   1.328  0.00  0.00    -0.070 N 
ATOM      3  C1  UNL d   1       2.958  -0.928   0.603  0.00  0.00    -0.004 A 
ATOM      4  C2  UNL d   1       3.802  -1.571  -0.276  0.00  0.00    -0.047 A 
ATOM      5  C3  UNL d   1       3.644  -2.963  -0.074  0.00  0.00    -0.047 A 
ATOM      6  C4  UNL d   1       2.708  -3.129   0.925  0.00  0.00    -0.004 A 
ENDROOT
TORSDOF 0
ENDMDL
