MODEL 1
REMARK minimizedAffinity 7.39541292
REMARK minimizedRMSD -1
REMARK  0 active torsions:
REMARK  status: ('A' for Active; 'I' for Inactive)
ROOT
ATOM      1  C   UNL d   1       1.036  -2.329   5.160  0.00  0.00     0.172 C 
ATOM      2  N   UNL d   1       1.221  -2.104   3.746  0.00  0.00    -0.070 N 
ATOM      3  C1  UNL d   1       1.030  -0.915   3.095  0.00  0.00    -0.004 A 
ATOM      4  C2  UNL d   1       1.309  -1.114   1.760  0.00  0.00    -0.047 A 
ATOM      5  C3  UNL d   1       1.680  -2.471   1.603  0.00  0.00    -0.047 A 
ATOM      6  C4  UNL d   1       1.617  -3.060   2.848  0.00  0.00    -0.004 A 
ENDROOT
TORSDOF 0
ENDMDL
