MODEL 1
REMARK minimizedAffinity 2.78701401
REMARK minimizedRMSD -1
REMARK  0 active torsions:
REMARK  status: ('A' for Active; 'I' for Inactive)
ROOT
ATOM      1  C   UNL d   1       0.774  -5.626  -2.027  0.00  0.00     0.172 C 
ATOM      2  N   UNL d   1      -0.175  -5.339  -0.977  0.00  0.00    -0.070 N 
ATOM      3  C1  UNL d   1      -0.034  -4.375  -0.015  0.00  0.00    -0.004 A 
ATOM      4  C2  UNL d   1      -1.150  -4.420   0.793  0.00  0.00    -0.047 A 
ATOM      5  C3  UNL d   1      -1.989  -5.447   0.301  0.00  0.00    -0.047 A 
ATOM      6  C4  UNL d   1      -1.361  -6.000  -0.796  0.00  0.00    -0.004 A 
ENDROOT
TORSDOF 0
ENDMDL
