MODEL 1
REMARK minimizedAffinity 4.49499464
REMARK minimizedRMSD -1
REMARK  0 active torsions:
REMARK  status: ('A' for Active; 'I' for Inactive)
ROOT
ATOM      1  C   UNL d   1       1.294  -2.810   5.699  0.00  0.00     0.172 C 
ATOM      2  N   UNL d   1       1.482  -2.614   4.280  0.00  0.00    -0.070 N 
ATOM      3  C1  UNL d   1       1.108  -1.504   3.571  0.00  0.00    -0.004 A 
ATOM      4  C2  UNL d   1       1.461  -1.707   2.254  0.00  0.00    -0.047 A 
ATOM      5  C3  UNL d   1       2.067  -2.982   2.169  0.00  0.00    -0.047 A 
ATOM      6  C4  UNL d   1       2.067  -3.522   3.438  0.00  0.00    -0.004 A 
ENDROOT
TORSDOF 0
ENDMDL
