MODEL 1
REMARK minimizedAffinity 4.74677229
REMARK minimizedRMSD -1
REMARK  0 active torsions:
REMARK  status: ('A' for Active; 'I' for Inactive)
ROOT
ATOM      1  C   UNL d   1       5.744  -4.641  -2.355  0.00  0.00     0.172 C 
ATOM      2  N   UNL d   1       5.844  -4.759  -3.791  0.00  0.00    -0.070 N 
ATOM      3  C1  UNL d   1       5.902  -5.934  -4.493  0.00  0.00    -0.004 A 
ATOM      4  C2  UNL d   1       5.991  -5.620  -5.833  0.00  0.00    -0.047 A 
ATOM      5  C3  UNL d   1       5.986  -4.209  -5.939  0.00  0.00    -0.047 A 
ATOM      6  C4  UNL d   1       5.895  -3.702  -4.660  0.00  0.00    -0.004 A 
ENDROOT
TORSDOF 0
ENDMDL
