MODEL 1
REMARK minimizedAffinity 5.0679636
REMARK minimizedRMSD -1
REMARK  0 active torsions:
REMARK  status: ('A' for Active; 'I' for Inactive)
ROOT
ATOM      1  C   UNL d   1       0.473  -5.252  -1.510  0.00  0.00     0.172 C 
ATOM      2  N   UNL d   1      -0.812  -5.029  -0.890  0.00  0.00    -0.070 N 
ATOM      3  C1  UNL d   1      -1.722  -6.000  -0.568  0.00  0.00    -0.004 A 
ATOM      4  C2  UNL d   1      -2.813  -5.383   0.004  0.00  0.00    -0.047 A 
ATOM      5  C3  UNL d   1      -2.551  -3.992   0.024  0.00  0.00    -0.047 A 
ATOM      6  C4  UNL d   1      -1.305  -3.801  -0.535  0.00  0.00    -0.004 A 
ENDROOT
TORSDOF 0
ENDMDL
