MODEL 1
REMARK minimizedAffinity -4.66224194
REMARK minimizedRMSD -1
REMARK  0 active torsions:
REMARK  status: ('A' for Active; 'I' for Inactive)
ROOT
ATOM      1  O1  BZF d   1       0.358   1.747   0.005  0.00  0.00    -0.204 OA
ATOM      2  C2  BZF d   1      -0.731   0.940  -0.258  0.00  0.00     0.174 A 
ATOM      3  C3  BZF d   1      -0.412  -0.361  -0.103  0.00  0.00    -0.012 A 
ATOM      4  C3A BZF d   1       0.939  -0.363   0.370  0.00  0.00    -0.107 A 
ATOM      5  C4  BZF d   1       1.809  -1.355   0.723  0.00  0.00     0.055 A 
ATOM      6  C5  BZF d   1       3.080  -1.025   1.073  0.00  0.00    -0.016 A 
ATOM      7  C6  BZF d   1       3.515   0.284   1.076  0.00  0.00     0.022 A 
ATOM      8  C7  BZF d   1       2.687   1.303   0.739  0.00  0.00     0.029 A 
ATOM      9  C7A BZF d   1       1.393   0.975   0.416  0.00  0.00     0.058 A 
ENDROOT
TORSDOF 0
ENDMDL
