MODEL 1
REMARK minimizedAffinity -3.77493572
REMARK minimizedRMSD -1
REMARK  0 active torsions:
REMARK  status: ('A' for Active; 'I' for Inactive)
ROOT
ATOM      1  O1  BZF d   1      -0.191   0.818   1.116  0.00  0.00    -0.204 OA
ATOM      2  C2  BZF d   1      -0.973   1.045  -0.000  0.00  0.00     0.174 A 
ATOM      3  C3  BZF d   1      -0.583   0.259  -1.025  0.00  0.00    -0.012 A 
ATOM      4  C3A BZF d   1       0.451  -0.573  -0.489  0.00  0.00    -0.107 A 
ATOM      5  C4  BZF d   1       1.221  -1.570  -1.016  0.00  0.00     0.055 A 
ATOM      6  C5  BZF d   1       2.191  -2.131  -0.247  0.00  0.00    -0.016 A 
ATOM      7  C6  BZF d   1       2.422  -1.716   1.048  0.00  0.00     0.022 A 
ATOM      8  C7  BZF d   1       1.680  -0.734   1.616  0.00  0.00     0.029 A 
ATOM      9  C7A BZF d   1       0.677  -0.188   0.852  0.00  0.00     0.058 A 
ENDROOT
TORSDOF 0
ENDMDL
