MODEL 1
REMARK minimizedAffinity -4.27788448
REMARK minimizedRMSD -1
REMARK  0 active torsions:
REMARK  status: ('A' for Active; 'I' for Inactive)
ROOT
ATOM      1  O1  BZF d   1      -1.013   1.564   0.761  0.00  0.00    -0.204 OA
ATOM      2  C2  BZF d   1      -0.506   1.128  -0.448  0.00  0.00     0.174 A 
ATOM      3  C3  BZF d   1      -1.450   0.474  -1.155  0.00  0.00    -0.012 A 
ATOM      4  C3A BZF d   1      -2.646   0.584  -0.378  0.00  0.00    -0.107 A 
ATOM      5  C4  BZF d   1      -3.928   0.149  -0.560  0.00  0.00     0.055 A 
ATOM      6  C5  BZF d   1      -4.842   0.357   0.423  0.00  0.00    -0.016 A 
ATOM      7  C6  BZF d   1      -4.509   0.990   1.602  0.00  0.00     0.022 A 
ATOM      8  C7  BZF d   1      -3.251   1.444   1.827  0.00  0.00     0.029 A 
ATOM      9  C7A BZF d   1      -2.333   1.264   0.822  0.00  0.00     0.058 A 
ENDROOT
TORSDOF 0
ENDMDL
