MODEL 1
REMARK minimizedAffinity -4.35837793
REMARK minimizedRMSD -1
REMARK  0 active torsions:
REMARK  status: ('A' for Active; 'I' for Inactive)
ROOT
ATOM      1  O1  BZF d   1       0.303   1.195   0.167  0.00  0.00    -0.204 OA
ATOM      2  C2  BZF d   1      -0.754   0.320   0.002  0.00  0.00     0.174 A 
ATOM      3  C3  BZF d   1      -0.315  -0.954  -0.057  0.00  0.00    -0.012 A 
ATOM      4  C3A BZF d   1       1.095  -0.878   0.173  0.00  0.00    -0.107 A 
ATOM      5  C4  BZF d   1       2.085  -1.815   0.251  0.00  0.00     0.055 A 
ATOM      6  C5  BZF d   1       3.371  -1.405   0.414  0.00  0.00    -0.016 A 
ATOM      7  C6  BZF d   1       3.701  -0.068   0.497  0.00  0.00     0.022 A 
ATOM      8  C7  BZF d   1       2.753   0.898   0.431  0.00  0.00     0.029 A 
ATOM      9  C7A BZF d   1       1.449   0.485   0.299  0.00  0.00     0.058 A 
ENDROOT
TORSDOF 0
ENDMDL
