MODEL 1
REMARK minimizedAffinity -3.56246257
REMARK minimizedRMSD -1
REMARK  0 active torsions:
REMARK  status: ('A' for Active; 'I' for Inactive)
ROOT
ATOM      1  O1  BZF d   1      -1.289   1.472   0.386  0.00  0.00    -0.204 OA
ATOM      2  C2  BZF d   1      -0.889   0.746  -0.719  0.00  0.00     0.174 A 
ATOM      3  C3  BZF d   1      -1.800  -0.199  -1.026  0.00  0.00    -0.012 A 
ATOM      4  C3A BZF d   1      -2.879   0.006  -0.109  0.00  0.00    -0.107 A 
ATOM      5  C4  BZF d   1      -4.085  -0.608   0.075  0.00  0.00     0.055 A 
ATOM      6  C5  BZF d   1      -4.876  -0.214   1.107  0.00  0.00    -0.016 A 
ATOM      7  C6  BZF d   1      -4.492   0.786   1.976  0.00  0.00     0.022 A 
ATOM      8  C7  BZF d   1      -3.308   1.429   1.830  0.00  0.00     0.029 A 
ATOM      9  C7A BZF d   1      -2.520   1.056   0.768  0.00  0.00     0.058 A 
ENDROOT
TORSDOF 0
ENDMDL
