MODEL 1
REMARK minimizedAffinity -5.51761818
REMARK minimizedRMSD -1
REMARK  0 active torsions:
REMARK  status: ('A' for Active; 'I' for Inactive)
ROOT
ATOM      1  O1  BZF d   1       2.357   1.757  -0.475  0.00  0.00    -0.204 OA
ATOM      2  C2  BZF d   1       3.693   1.596  -0.160  0.00  0.00     0.174 A 
ATOM      3  C3  BZF d   1       3.920   0.369   0.350  0.00  0.00    -0.012 A 
ATOM      4  C3A BZF d   1       2.664  -0.311   0.269  0.00  0.00    -0.107 A 
ATOM      5  C4  BZF d   1       2.253  -1.569   0.605  0.00  0.00     0.055 A 
ATOM      6  C5  BZF d   1       0.941  -1.895   0.467  0.00  0.00    -0.016 A 
ATOM      7  C6  BZF d   1       0.013  -0.988  -0.000  0.00  0.00     0.022 A 
ATOM      8  C7  BZF d   1       0.373   0.270  -0.352  0.00  0.00     0.029 A 
ATOM      9  C7A BZF d   1       1.704   0.593  -0.244  0.00  0.00     0.058 A 
ENDROOT
TORSDOF 0
ENDMDL
