MODEL 1
REMARK minimizedAffinity -3.64328814
REMARK minimizedRMSD -1
REMARK  0 active torsions:
REMARK  status: ('A' for Active; 'I' for Inactive)
ROOT
ATOM      1  O1  BZF d   1      -0.003   0.588   1.492  0.00  0.00    -0.204 OA
ATOM      2  C2  BZF d   1      -1.026   0.731   0.574  0.00  0.00     0.174 A 
ATOM      3  C3  BZF d   1      -0.755   0.044  -0.554  0.00  0.00    -0.012 A 
ATOM      4  C3A BZF d   1       0.474  -0.641  -0.292  0.00  0.00    -0.107 A 
ATOM      5  C4  BZF d   1       1.246  -1.497  -1.024  0.00  0.00     0.055 A 
ATOM      6  C5  BZF d   1       2.425  -1.931  -0.505  0.00  0.00    -0.016 A 
ATOM      7  C6  BZF d   1       2.863  -1.527   0.739  0.00  0.00     0.022 A 
ATOM      8  C7  BZF d   1       2.129  -0.683   1.505  0.00  0.00     0.029 A 
ATOM      9  C7A BZF d   1       0.922  -0.269   0.997  0.00  0.00     0.058 A 
ENDROOT
TORSDOF 0
ENDMDL
