MODEL 1
REMARK minimizedAffinity -4.02778196
REMARK minimizedRMSD -1
REMARK  0 active torsions:
REMARK  status: ('A' for Active; 'I' for Inactive)
ROOT
ATOM      1  O1  BZF d   1       0.187   1.544  -0.661  0.00  0.00    -0.204 OA
ATOM      2  C2  BZF d   1       1.127   2.482  -0.282  0.00  0.00     0.174 A 
ATOM      3  C3  BZF d   1       2.179   1.889   0.319  0.00  0.00    -0.012 A 
ATOM      4  C3A BZF d   1       1.920   0.485   0.231  0.00  0.00    -0.107 A 
ATOM      5  C4  BZF d   1       2.608  -0.624   0.635  0.00  0.00     0.055 A 
ATOM      6  C5  BZF d   1       2.045  -1.849   0.465  0.00  0.00    -0.016 A 
ATOM      7  C6  BZF d   1       0.796  -2.002  -0.100  0.00  0.00     0.022 A 
ATOM      8  C7  BZF d   1       0.077  -0.932  -0.521  0.00  0.00     0.029 A 
ATOM      9  C7A BZF d   1       0.658   0.305  -0.380  0.00  0.00     0.058 A 
ENDROOT
TORSDOF 0
ENDMDL
