MODEL 1
REMARK minimizedAffinity -3.16717887
REMARK minimizedRMSD -1
REMARK  0 active torsions:
REMARK  status: ('A' for Active; 'I' for Inactive)
ROOT
ATOM      1  O1  BZF d   1       1.814   2.123  -0.538  0.00  0.00    -0.204 OA
ATOM      2  C2  BZF d   1       3.191   2.220  -0.498  0.00  0.00     0.174 A 
ATOM      3  C3  BZF d   1       3.750   1.009  -0.295  0.00  0.00    -0.012 A 
ATOM      4  C3A BZF d   1       2.658   0.085  -0.294  0.00  0.00    -0.107 A 
ATOM      5  C4  BZF d   1       2.575  -1.270  -0.153  0.00  0.00     0.055 A 
ATOM      6  C5  BZF d   1       1.350  -1.858  -0.126  0.00  0.00    -0.016 A 
ATOM      7  C6  BZF d   1       0.189  -1.121  -0.232  0.00  0.00     0.022 A 
ATOM      8  C7  BZF d   1       0.221   0.226  -0.378  0.00  0.00     0.029 A 
ATOM      9  C7A BZF d   1       1.458   0.819  -0.439  0.00  0.00     0.058 A 
ENDROOT
TORSDOF 0
ENDMDL
