MODEL 1
REMARK minimizedAffinity -4.23347187
REMARK minimizedRMSD -1
REMARK  0 active torsions:
REMARK  status: ('A' for Active; 'I' for Inactive)
ROOT
ATOM      1  O1  BZF d   1       0.188  -0.416  -1.444  0.00  0.00    -0.204 OA
ATOM      2  C2  BZF d   1      -0.699   0.559  -1.031  0.00  0.00     0.174 A 
ATOM      3  C3  BZF d   1      -0.460   0.913   0.248  0.00  0.00    -0.012 A 
ATOM      4  C3A BZF d   1       0.705   0.176   0.631  0.00  0.00    -0.107 A 
ATOM      5  C4  BZF d   1       1.440   0.112   1.780  0.00  0.00     0.055 A 
ATOM      6  C5  BZF d   1       2.476  -0.764   1.853  0.00  0.00    -0.016 A 
ATOM      7  C6  BZF d   1       2.802  -1.593   0.800  0.00  0.00     0.022 A 
ATOM      8  C7  BZF d   1       2.105  -1.563  -0.362  0.00  0.00     0.029 A 
ATOM      9  C7A BZF d   1       1.078  -0.655  -0.451  0.00  0.00     0.058 A 
ENDROOT
TORSDOF 0
ENDMDL
