MODEL 1
REMARK minimizedAffinity -5.69368219
REMARK minimizedRMSD -1
REMARK  0 active torsions:
REMARK  status: ('A' for Active; 'I' for Inactive)
ROOT
ATOM      1  O1  BZF d   1       1.084  -2.019   0.759  0.00  0.00    -0.204 OA
ATOM      2  C2  BZF d   1       2.426  -2.218   1.020  0.00  0.00     0.174 A 
ATOM      3  C3  BZF d   1       3.115  -1.066   0.887  0.00  0.00    -0.012 A 
ATOM      4  C3A BZF d   1       2.129  -0.067   0.611  0.00  0.00    -0.107 A 
ATOM      5  C4  BZF d   1       2.192   1.280   0.395  0.00  0.00     0.055 A 
ATOM      6  C5  BZF d   1       1.053   1.952   0.080  0.00  0.00    -0.016 A 
ATOM      7  C6  BZF d   1      -0.162   1.309  -0.033  0.00  0.00     0.022 A 
ATOM      8  C7  BZF d   1      -0.275  -0.025   0.177  0.00  0.00     0.029 A 
ATOM      9  C7A BZF d   1       0.868  -0.702   0.528  0.00  0.00     0.058 A 
ENDROOT
TORSDOF 0
ENDMDL
