MODEL 1
REMARK minimizedAffinity -0.749995768
REMARK minimizedRMSD -1
REMARK  0 active torsions:
REMARK  status: ('A' for Active; 'I' for Inactive)
ROOT
ATOM      1  C   UNL d   1       5.275   5.999   2.545  0.00  0.00     0.172 C 
ATOM      2  N   UNL d   1       5.138   5.351   3.828  0.00  0.00    -0.070 N 
ATOM      3  C1  UNL d   1       5.640   5.814   5.015  0.00  0.00    -0.004 A 
ATOM      4  C2  UNL d   1       5.295   4.914   5.999  0.00  0.00    -0.047 A 
ATOM      5  C3  UNL d   1       4.561   3.873   5.383  0.00  0.00    -0.047 A 
ATOM      6  C4  UNL d   1       4.479   4.169   4.039  0.00  0.00    -0.004 A 
ENDROOT
TORSDOF 0
ENDMDL
