MODEL 1
REMARK minimizedAffinity 3.01703
REMARK minimizedRMSD -1
REMARK  0 active torsions:
REMARK  status: ('A' for Active; 'I' for Inactive)
ROOT
ATOM      1  C   UNL d   1       1.143  -0.712  -0.848  0.00  0.00     0.172 C 
ATOM      2  N   UNL d   1       1.808   0.336  -0.108  0.00  0.00    -0.070 N 
ATOM      3  C1  UNL d   1       2.839   1.109  -0.571  0.00  0.00    -0.004 A 
ATOM      4  C2  UNL d   1       3.190   1.987   0.431  0.00  0.00    -0.047 A 
ATOM      5  C3  UNL d   1       2.343   1.732   1.535  0.00  0.00    -0.047 A 
ATOM      6  C4  UNL d   1       1.497   0.705   1.174  0.00  0.00    -0.004 A 
ENDROOT
TORSDOF 0
ENDMDL
