MODEL 1
REMARK minimizedAffinity 4.31637478
REMARK minimizedRMSD -1
REMARK  0 active torsions:
REMARK  status: ('A' for Active; 'I' for Inactive)
ROOT
ATOM      1  C   UNL d   1       2.655  -0.987  -0.984  0.00  0.00     0.172 C 
ATOM      2  N   UNL d   1       2.685   0.411  -0.622  0.00  0.00    -0.070 N 
ATOM      3  C1  UNL d   1       1.828   1.028   0.251  0.00  0.00    -0.004 A 
ATOM      4  C2  UNL d   1       2.187   2.356   0.325  0.00  0.00    -0.047 A 
ATOM      5  C3  UNL d   1       3.297   2.544  -0.532  0.00  0.00    -0.047 A 
ATOM      6  C4  UNL d   1       3.584   1.324  -1.106  0.00  0.00    -0.004 A 
ENDROOT
TORSDOF 0
ENDMDL
