MODEL 1
REMARK minimizedAffinity 2.7639575
REMARK minimizedRMSD -1
REMARK  0 active torsions:
REMARK  status: ('A' for Active; 'I' for Inactive)
ROOT
ATOM      1  C   UNL d   1      -5.995   3.647  -2.957  0.00  0.00     0.172 C 
ATOM      2  N   UNL d   1      -5.847   2.838  -1.770  0.00  0.00    -0.070 N 
ATOM      3  C1  UNL d   1      -5.535   3.303  -0.520  0.00  0.00    -0.004 A 
ATOM      4  C2  UNL d   1      -5.488   2.221   0.333  0.00  0.00    -0.047 A 
ATOM      5  C3  UNL d   1      -5.780   1.066  -0.431  0.00  0.00    -0.047 A 
ATOM      6  C4  UNL d   1      -5.998   1.477  -1.729  0.00  0.00    -0.004 A 
ENDROOT
TORSDOF 0
ENDMDL
