MODEL 1
REMARK minimizedAffinity 10.4365482
REMARK minimizedRMSD -1
REMARK  0 active torsions:
REMARK  status: ('A' for Active; 'I' for Inactive)
ROOT
ATOM      1  C   UNL d   1      -1.105   0.895  -1.361  0.00  0.00     0.172 C 
ATOM      2  N   UNL d   1      -0.012   1.449  -0.597  0.00  0.00    -0.070 N 
ATOM      3  C1  UNL d   1       0.407   2.752  -0.632  0.00  0.00    -0.004 A 
ATOM      4  C2  UNL d   1       1.471   2.877   0.235  0.00  0.00    -0.047 A 
ATOM      5  C3  UNL d   1       1.700   1.604   0.810  0.00  0.00    -0.047 A 
ATOM      6  C4  UNL d   1       0.769   0.739   0.277  0.00  0.00    -0.004 A 
ENDROOT
TORSDOF 0
ENDMDL
