MODEL 1
REMARK minimizedAffinity 3.62004828
REMARK minimizedRMSD -1
REMARK  0 active torsions:
REMARK  status: ('A' for Active; 'I' for Inactive)
ROOT
ATOM      1  C   UNL d   1       3.205   0.632   0.840  0.00  0.00     0.172 C 
ATOM      2  N   UNL d   1       2.551  -0.625   0.562  0.00  0.00    -0.070 N 
ATOM      3  C1  UNL d   1       2.277  -1.602   1.481  0.00  0.00    -0.004 A 
ATOM      4  C2  UNL d   1       1.648  -2.637   0.823  0.00  0.00    -0.047 A 
ATOM      5  C3  UNL d   1       1.541  -2.269  -0.540  0.00  0.00    -0.047 A 
ATOM      6  C4  UNL d   1       2.108  -1.019  -0.673  0.00  0.00    -0.004 A 
ENDROOT
TORSDOF 0
ENDMDL
