MODEL 1
REMARK minimizedAffinity 0.096772179
REMARK minimizedRMSD -1
REMARK  0 active torsions:
REMARK  status: ('A' for Active; 'I' for Inactive)
ROOT
ATOM      1  C   UNL d   1       1.132  -2.205   0.323  0.00  0.00     0.172 C 
ATOM      2  N   UNL d   1       2.111  -1.293  -0.222  0.00  0.00    -0.070 N 
ATOM      3  C1  UNL d   1       2.098   0.069  -0.083  0.00  0.00    -0.004 A 
ATOM      4  C2  UNL d   1       3.197   0.571  -0.745  0.00  0.00    -0.047 A 
ATOM      5  C3  UNL d   1       3.895  -0.527  -1.302  0.00  0.00    -0.047 A 
ATOM      6  C4  UNL d   1       3.200  -1.669  -0.963  0.00  0.00    -0.004 A 
ENDROOT
TORSDOF 0
ENDMDL
