MODEL 1
REMARK minimizedAffinity 6.86491108
REMARK minimizedRMSD -1
REMARK  0 active torsions:
REMARK  status: ('A' for Active; 'I' for Inactive)
ROOT
ATOM      1  C   UNL d   1       1.691  -0.301  -0.135  0.00  0.00     0.172 C 
ATOM      2  N   UNL d   1       2.964   0.357  -0.315  0.00  0.00    -0.070 N 
ATOM      3  C1  UNL d   1       3.280   1.221  -1.330  0.00  0.00    -0.004 A 
ATOM      4  C2  UNL d   1       4.583   1.630  -1.145  0.00  0.00    -0.047 A 
ATOM      5  C3  UNL d   1       5.067   0.989   0.020  0.00  0.00    -0.047 A 
ATOM      6  C4  UNL d   1       4.044   0.208   0.514  0.00  0.00    -0.004 A 
ENDROOT
TORSDOF 0
ENDMDL
