MODEL 1
REMARK minimizedAffinity 3.88453627
REMARK minimizedRMSD -1
REMARK  1 active torsions:
REMARK  status: ('A' for Active; 'I' for Inactive)
REMARK    1  A    between atoms: C1_2  and  C2_3 
ROOT
ATOM      1  C2  UNL d   1       4.338  -2.988  -4.552  0.00  0.00    -0.076 A 
ATOM      2  C3  UNL d   1       3.970  -4.274  -4.117  0.00  0.00     0.004 A 
ATOM      3  C4  UNL d   1       4.601  -5.410  -4.622  0.00  0.00    -0.003 A 
ATOM      4  C5  UNL d   1       5.609  -5.279  -5.570  0.00  0.00     0.000 A 
ATOM      5  C6  UNL d   1       5.999  -4.011  -6.000  0.00  0.00     0.000 A 
ATOM      6  C7  UNL d   1       5.385  -2.854  -5.489  0.00  0.00    -0.073 A 
ATOM      7  C8  UNL d   1       5.841  -1.512  -5.992  0.00  0.00     0.078 C 
ENDROOT
BRANCH   1   8
ATOM      8  C1  UNL d   1       3.600  -1.795  -3.989  0.00  0.00     0.053 C 
ATOM      9  C   UNL d   1       2.487  -2.195  -3.033  0.00  0.00     0.018 C 
ENDBRANCH   1   8
TORSDOF 1
ENDMDL
