MODEL 1
REMARK minimizedAffinity 8.96212006
REMARK minimizedRMSD -1
REMARK  1 active torsions:
REMARK  status: ('A' for Active; 'I' for Inactive)
REMARK    1  A    between atoms: C1_2  and  C2_3 
ROOT
ATOM      1  C2  UNL d   1       2.668  -2.310   3.757  0.00  0.00    -0.076 A 
ATOM      2  C3  UNL d   1       3.563  -3.388   3.858  0.00  0.00     0.004 A 
ATOM      3  C4  UNL d   1       4.315  -3.801   2.759  0.00  0.00    -0.003 A 
ATOM      4  C5  UNL d   1       4.184  -3.141   1.542  0.00  0.00     0.000 A 
ATOM      5  C6  UNL d   1       3.313  -2.058   1.429  0.00  0.00     0.000 A 
ATOM      6  C7  UNL d   1       2.560  -1.619   2.531  0.00  0.00    -0.073 A 
ATOM      7  C8  UNL d   1       1.632  -0.449   2.351  0.00  0.00     0.078 C 
ENDROOT
BRANCH   1   8
ATOM      8  C1  UNL d   1       1.859  -1.924   4.975  0.00  0.00     0.053 C 
ATOM      9  C   UNL d   1       1.764  -3.051   5.992  0.00  0.00     0.018 C 
ENDBRANCH   1   8
TORSDOF 1
ENDMDL
