MODEL 1
REMARK minimizedAffinity 11.780364
REMARK minimizedRMSD -1
REMARK  1 active torsions:
REMARK  status: ('A' for Active; 'I' for Inactive)
REMARK    1  A    between atoms: C1_2  and  C2_3 
ROOT
ATOM      1  C2  UNL d   1      -0.353  -0.970  -1.663  0.00  0.00    -0.076 A 
ATOM      2  C3  UNL d   1      -1.159  -1.057  -0.515  0.00  0.00     0.004 A 
ATOM      3  C4  UNL d   1      -0.998  -2.098   0.398  0.00  0.00    -0.003 A 
ATOM      4  C5  UNL d   1      -0.026  -3.068   0.178  0.00  0.00     0.000 A 
ATOM      5  C6  UNL d   1       0.795  -2.987  -0.946  0.00  0.00     0.000 A 
ATOM      6  C7  UNL d   1       0.656  -1.935  -1.868  0.00  0.00    -0.073 A 
ATOM      7  C8  UNL d   1       1.564  -1.901  -3.067  0.00  0.00     0.078 C 
ENDROOT
BRANCH   1   8
ATOM      8  C1  UNL d   1      -0.592   0.166  -2.632  0.00  0.00     0.053 C 
ATOM      9  C   UNL d   1      -2.063   0.338  -2.977  0.00  0.00     0.018 C 
ENDBRANCH   1   8
TORSDOF 1
ENDMDL
