MODEL 1
REMARK minimizedAffinity 8.78740406
REMARK minimizedRMSD -1
REMARK  1 active torsions:
REMARK  status: ('A' for Active; 'I' for Inactive)
REMARK    1  A    between atoms: C1_2  and  C2_3 
ROOT
ATOM      1  C2  UNL d   1      -4.072   0.339  -3.279  0.00  0.00    -0.076 A 
ATOM      2  C3  UNL d   1      -3.033  -0.564  -2.996  0.00  0.00     0.004 A 
ATOM      3  C4  UNL d   1      -1.931  -0.176  -2.236  0.00  0.00    -0.003 A 
ATOM      4  C5  UNL d   1      -1.850   1.123  -1.746  0.00  0.00     0.000 A 
ATOM      5  C6  UNL d   1      -2.880   2.027  -2.002  0.00  0.00     0.000 A 
ATOM      6  C7  UNL d   1      -4.006   1.647  -2.752  0.00  0.00    -0.073 A 
ATOM      7  C8  UNL d   1      -5.084   2.665  -3.003  0.00  0.00     0.078 C 
ENDROOT
BRANCH   1   8
ATOM      8  C1  UNL d   1      -5.229  -0.131  -4.131  0.00  0.00     0.053 C 
ATOM      9  C   UNL d   1      -5.371  -1.645  -4.136  0.00  0.00     0.018 C 
ENDBRANCH   1   8
TORSDOF 1
ENDMDL
