MODEL 1
REMARK minimizedAffinity -4.14382792
REMARK minimizedRMSD -1
REMARK  0 active torsions:
REMARK  status: ('A' for Active; 'I' for Inactive)
ROOT
ATOM      1  C1  DEN d   1       2.452   0.467  -0.132  0.00  0.00     0.130 A 
ATOM      2  C2  DEN d   1       1.693   1.681  -0.422  0.00  0.00    -0.031 A 
ATOM      3  C3  DEN d   1       0.285   1.440  -0.048  0.00  0.00     0.027 A 
ATOM      4  C4  DEN d   1      -0.787  -0.682   0.952  0.00  0.00     0.027 A 
ATOM      5  C5  DEN d   1      -0.546  -1.974   1.364  0.00  0.00    -0.003 A 
ATOM      6  C6  DEN d   1       0.694  -2.550   1.276  0.00  0.00     0.001 A 
ATOM      7  C7  DEN d   1       1.751  -1.816   0.805  0.00  0.00     0.017 A 
ATOM      8  C8  DEN d   1       1.514  -0.515   0.380  0.00  0.00    -0.094 A 
ATOM      9  C9  DEN d   1       0.256   0.053   0.489  0.00  0.00    -0.072 A 
ENDROOT
TORSDOF 0
ENDMDL
