MODEL 1
REMARK minimizedAffinity -4.95184612
REMARK minimizedRMSD -1
REMARK  0 active torsions:
REMARK  status: ('A' for Active; 'I' for Inactive)
ROOT
ATOM      1  C1  DEN d   1       0.466   3.054  -0.860  0.00  0.00     0.130 A 
ATOM      2  C2  DEN d   1       0.381   2.084   0.228  0.00  0.00    -0.031 A 
ATOM      3  C3  DEN d   1      -0.763   1.191  -0.045  0.00  0.00     0.027 A 
ATOM      4  C4  DEN d   1      -2.400   1.215  -2.038  0.00  0.00     0.027 A 
ATOM      5  C5  DEN d   1      -2.736   1.860  -3.207  0.00  0.00    -0.003 A 
ATOM      6  C6  DEN d   1      -2.054   2.961  -3.655  0.00  0.00     0.001 A 
ATOM      7  C7  DEN d   1      -0.973   3.422  -2.952  0.00  0.00     0.017 A 
ATOM      8  C8  DEN d   1      -0.633   2.781  -1.768  0.00  0.00    -0.094 A 
ATOM      9  C9  DEN d   1      -1.327   1.663  -1.338  0.00  0.00    -0.072 A 
ENDROOT
TORSDOF 0
ENDMDL
