MODEL 1
REMARK minimizedAffinity -2.69156742
REMARK minimizedRMSD -1
REMARK  0 active torsions:
REMARK  status: ('A' for Active; 'I' for Inactive)
ROOT
ATOM      1  C1  DEN d   1       3.288   2.218   0.058  0.00  0.00     0.130 A 
ATOM      2  C2  DEN d   1       2.305   3.299   0.030  0.00  0.00    -0.031 A 
ATOM      3  C3  DEN d   1       0.959   2.692   0.029  0.00  0.00     0.027 A 
ATOM      4  C4  DEN d   1       0.304   0.197   0.072  0.00  0.00     0.027 A 
ATOM      5  C5  DEN d   1       0.791  -1.091   0.088  0.00  0.00    -0.003 A 
ATOM      6  C6  DEN d   1       2.133  -1.365   0.061  0.00  0.00     0.001 A 
ATOM      7  C7  DEN d   1       3.036  -0.335   0.062  0.00  0.00     0.017 A 
ATOM      8  C8  DEN d   1       2.552   0.967   0.039  0.00  0.00    -0.094 A 
ATOM      9  C9  DEN d   1       1.192   1.223   0.078  0.00  0.00    -0.072 A 
ENDROOT
TORSDOF 0
ENDMDL
