MODEL 1
REMARK minimizedAffinity -2.01027107
REMARK minimizedRMSD -1
REMARK  0 active torsions:
REMARK  status: ('A' for Active; 'I' for Inactive)
ROOT
ATOM      1  C1  DEN d   1       0.114   4.248  -3.571  0.00  0.00     0.130 A 
ATOM      2  C2  DEN d   1      -0.641   3.361  -4.452  0.00  0.00    -0.031 A 
ATOM      3  C3  DEN d   1      -1.108   2.212  -3.651  0.00  0.00     0.027 A 
ATOM      4  C4  DEN d   1      -0.742   1.725  -1.145  0.00  0.00     0.027 A 
ATOM      5  C5  DEN d   1      -0.154   2.183   0.014  0.00  0.00    -0.003 A 
ATOM      6  C6  DEN d   1       0.588   3.334   0.050  0.00  0.00     0.001 A 
ATOM      7  C7  DEN d   1       0.722   4.091  -1.084  0.00  0.00     0.017 A 
ATOM      8  C8  DEN d   1       0.138   3.632  -2.257  0.00  0.00    -0.094 A 
ATOM      9  C9  DEN d   1      -0.617   2.472  -2.271  0.00  0.00    -0.072 A 
ENDROOT
TORSDOF 0
ENDMDL
