MODEL 1
REMARK minimizedAffinity -1.9179399
REMARK minimizedRMSD -1
REMARK  0 active torsions:
REMARK  status: ('A' for Active; 'I' for Inactive)
ROOT
ATOM      1  C1  DEN d   1      -1.252  -0.066  -0.326  0.00  0.00     0.130 A 
ATOM      2  C2  DEN d   1      -0.036   0.395   0.338  0.00  0.00    -0.031 A 
ATOM      3  C3  DEN d   1       0.322   1.712  -0.226  0.00  0.00     0.027 A 
ATOM      4  C4  DEN d   1      -0.886   3.077  -2.051  0.00  0.00     0.027 A 
ATOM      5  C5  DEN d   1      -1.954   3.091  -2.920  0.00  0.00    -0.003 A 
ATOM      6  C6  DEN d   1      -2.837   2.047  -3.008  0.00  0.00     0.001 A 
ATOM      7  C7  DEN d   1      -2.693   0.965  -2.182  0.00  0.00     0.017 A 
ATOM      8  C8  DEN d   1      -1.614   0.940  -1.308  0.00  0.00    -0.094 A 
ATOM      9  C9  DEN d   1      -0.739   2.010  -1.225  0.00  0.00    -0.072 A 
ENDROOT
TORSDOF 0
ENDMDL
