MODEL 1
REMARK minimizedAffinity -2.92636561
REMARK minimizedRMSD -1
REMARK  0 active torsions:
REMARK  status: ('A' for Active; 'I' for Inactive)
ROOT
ATOM      1  C1  DEN d   1       2.228   0.072  -0.019  0.00  0.00     0.130 A 
ATOM      2  C2  DEN d   1       1.086  -0.837   0.013  0.00  0.00    -0.031 A 
ATOM      3  C3  DEN d   1      -0.144  -0.023   0.083  0.00  0.00     0.027 A 
ATOM      4  C4  DEN d   1      -0.390   2.544   0.137  0.00  0.00     0.027 A 
ATOM      5  C5  DEN d   1       0.298   3.738   0.141  0.00  0.00    -0.003 A 
ATOM      6  C6  DEN d   1       1.666   3.792   0.126  0.00  0.00     0.001 A 
ATOM      7  C7  DEN d   1       2.391   2.632   0.061  0.00  0.00     0.017 A 
ATOM      8  C8  DEN d   1       1.705   1.424   0.064  0.00  0.00    -0.094 A 
ATOM      9  C9  DEN d   1       0.321   1.390   0.068  0.00  0.00    -0.072 A 
ENDROOT
TORSDOF 0
ENDMDL
