MODEL 1
REMARK minimizedAffinity -0.346440136
REMARK minimizedRMSD -1
REMARK  0 active torsions:
REMARK  status: ('A' for Active; 'I' for Inactive)
ROOT
ATOM      1  C1  DEN d   1      -0.150   1.850  -0.599  0.00  0.00     0.130 A 
ATOM      2  C2  DEN d   1       0.870   0.896  -1.027  0.00  0.00    -0.031 A 
ATOM      3  C3  DEN d   1       2.192   1.449  -0.670  0.00  0.00     0.027 A 
ATOM      4  C4  DEN d   1       2.755   3.676   0.503  0.00  0.00     0.027 A 
ATOM      5  C5  DEN d   1       2.223   4.825   1.046  0.00  0.00    -0.003 A 
ATOM      6  C6  DEN d   1       0.877   5.076   1.048  0.00  0.00     0.001 A 
ATOM      7  C7  DEN d   1       0.012   4.145   0.537  0.00  0.00     0.017 A 
ATOM      8  C8  DEN d   1       0.541   2.988  -0.019  0.00  0.00    -0.094 A 
ATOM      9  C9  DEN d   1       1.904   2.747  -0.001  0.00  0.00    -0.072 A 
ENDROOT
TORSDOF 0
ENDMDL
