MODEL 1
REMARK minimizedAffinity -2.13483357
REMARK minimizedRMSD -1
REMARK  0 active torsions:
REMARK  status: ('A' for Active; 'I' for Inactive)
ROOT
ATOM      1  C1  DEN d   1      -1.325  -1.012   0.599  0.00  0.00     0.130 A 
ATOM      2  C2  DEN d   1      -1.522   0.274  -0.064  0.00  0.00    -0.031 A 
ATOM      3  C3  DEN d   1      -0.193   0.824  -0.396  0.00  0.00     0.027 A 
ATOM      4  C4  DEN d   1       2.139  -0.187   0.046  0.00  0.00     0.027 A 
ATOM      5  C5  DEN d   1       2.813  -1.256   0.593  0.00  0.00    -0.003 A 
ATOM      6  C6  DEN d   1       2.162  -2.294   1.205  0.00  0.00     0.001 A 
ATOM      7  C7  DEN d   1       0.793  -2.307   1.245  0.00  0.00     0.017 A 
ATOM      8  C8  DEN d   1       0.106  -1.229   0.703  0.00  0.00    -0.094 A 
ATOM      9  C9  DEN d   1       0.782  -0.195   0.077  0.00  0.00    -0.072 A 
ENDROOT
TORSDOF 0
ENDMDL
