MODEL 1
REMARK minimizedAffinity -6.21985197
REMARK minimizedRMSD -1
REMARK  0 active torsions:
REMARK  status: ('A' for Active; 'I' for Inactive)
ROOT
ATOM      1  C1  DEN d   1      -0.733   1.126   0.341  0.00  0.00     0.130 A 
ATOM      2  C2  DEN d   1       0.142   2.290   0.443  0.00  0.00    -0.031 A 
ATOM      3  C3  DEN d   1       1.538   1.810   0.469  0.00  0.00     0.027 A 
ATOM      4  C4  DEN d   1       2.425  -0.609   0.358  0.00  0.00     0.027 A 
ATOM      5  C5  DEN d   1       2.062  -1.935   0.277  0.00  0.00    -0.003 A 
ATOM      6  C6  DEN d   1       0.752  -2.333   0.247  0.00  0.00     0.001 A 
ATOM      7  C7  DEN d   1      -0.243  -1.391   0.252  0.00  0.00     0.017 A 
ATOM      8  C8  DEN d   1       0.115  -0.053   0.340  0.00  0.00    -0.094 A 
ATOM      9  C9  DEN d   1       1.445   0.330   0.357  0.00  0.00    -0.072 A 
ENDROOT
TORSDOF 0
ENDMDL
