MODEL 1
REMARK minimizedAffinity -3.04131913
REMARK minimizedRMSD -1
REMARK  0 active torsions:
REMARK  status: ('A' for Active; 'I' for Inactive)
ROOT
ATOM      1  C1  DEN d   1       0.146  -0.267  -0.141  0.00  0.00     0.130 A 
ATOM      2  C2  DEN d   1      -1.266   0.048   0.062  0.00  0.00    -0.031 A 
ATOM      3  C3  DEN d   1      -1.399   1.516   0.139  0.00  0.00     0.027 A 
ATOM      4  C4  DEN d   1       0.431   3.324  -0.038  0.00  0.00     0.027 A 
ATOM      5  C5  DEN d   1       1.782   3.542  -0.200  0.00  0.00    -0.003 A 
ATOM      6  C6  DEN d   1       2.678   2.514  -0.319  0.00  0.00     0.001 A 
ATOM      7  C7  DEN d   1       2.230   1.219  -0.323  0.00  0.00     0.017 A 
ATOM      8  C8  DEN d   1       0.871   0.991  -0.152  0.00  0.00    -0.094 A 
ATOM      9  C9  DEN d   1      -0.021   2.045  -0.046  0.00  0.00    -0.072 A 
ENDROOT
TORSDOF 0
ENDMDL
