MODEL 1
REMARK minimizedAffinity -4.45972109
REMARK minimizedRMSD -1
REMARK  0 active torsions:
REMARK  status: ('A' for Active; 'I' for Inactive)
ROOT
ATOM      1  C1  DEN d   1       1.033  -1.407   1.775  0.00  0.00     0.130 A 
ATOM      2  C2  DEN d   1       1.650  -2.638   1.288  0.00  0.00    -0.031 A 
ATOM      3  C3  DEN d   1       1.328  -2.773  -0.147  0.00  0.00     0.027 A 
ATOM      4  C4  DEN d   1      -0.053  -1.201  -1.655  0.00  0.00     0.027 A 
ATOM      5  C5  DEN d   1      -0.789  -0.037  -1.688  0.00  0.00    -0.003 A 
ATOM      6  C6  DEN d   1      -0.996   0.728  -0.571  0.00  0.00     0.001 A 
ATOM      7  C7  DEN d   1      -0.422   0.361   0.618  0.00  0.00     0.017 A 
ATOM      8  C8  DEN d   1       0.315  -0.815   0.661  0.00  0.00    -0.094 A 
ATOM      9  C9  DEN d   1       0.522  -1.568  -0.482  0.00  0.00    -0.072 A 
ENDROOT
TORSDOF 0
ENDMDL
