MODEL 1
REMARK minimizedAffinity 3.00379133
REMARK minimizedRMSD -1
REMARK  0 active torsions:
REMARK  status: ('A' for Active; 'I' for Inactive)
ROOT
ATOM      1  C1  DEN d   1       0.083  -0.125  -0.688  0.00  0.00     0.130 A 
ATOM      2  C2  DEN d   1      -0.454   0.174   0.636  0.00  0.00    -0.031 A 
ATOM      3  C3  DEN d   1      -1.812   0.729   0.463  0.00  0.00     0.027 A 
ATOM      4  C4  DEN d   1      -3.128   1.147  -1.715  0.00  0.00     0.027 A 
ATOM      5  C5  DEN d   1      -3.082   1.061  -3.089  0.00  0.00    -0.003 A 
ATOM      6  C6  DEN d   1      -1.973   0.609  -3.755  0.00  0.00     0.001 A 
ATOM      7  C7  DEN d   1      -0.882   0.183  -3.045  0.00  0.00     0.017 A 
ATOM      8  C8  DEN d   1      -0.918   0.274  -1.660  0.00  0.00    -0.094 A 
ATOM      9  C9  DEN d   1      -2.053   0.722  -1.005  0.00  0.00    -0.072 A 
ENDROOT
TORSDOF 0
ENDMDL
