MODEL 1
REMARK minimizedAffinity -2.88603568
REMARK minimizedRMSD -1
REMARK  0 active torsions:
REMARK  status: ('A' for Active; 'I' for Inactive)
ROOT
ATOM      1  C1  DEN d   1       0.165   3.663  -0.526  0.00  0.00     0.130 A 
ATOM      2  C2  DEN d   1       1.527   4.071  -0.194  0.00  0.00    -0.031 A 
ATOM      3  C3  DEN d   1       2.302   2.857   0.127  0.00  0.00     0.027 A 
ATOM      4  C4  DEN d   1       1.532   0.395   0.137  0.00  0.00     0.027 A 
ATOM      5  C5  DEN d   1       0.461  -0.447  -0.065  0.00  0.00    -0.003 A 
ATOM      6  C6  DEN d   1      -0.782   0.021  -0.400  0.00  0.00     0.001 A 
ATOM      7  C7  DEN d   1      -0.974   1.364  -0.586  0.00  0.00     0.017 A 
ATOM      8  C8  DEN d   1       0.099   2.220  -0.376  0.00  0.00    -0.094 A 
ATOM      9  C9  DEN d   1       1.351   1.727  -0.051  0.00  0.00    -0.072 A 
ENDROOT
TORSDOF 0
ENDMDL
