MODEL 1
REMARK minimizedAffinity -3.94322753
REMARK minimizedRMSD -1
REMARK  0 active torsions:
REMARK  status: ('A' for Active; 'I' for Inactive)
ROOT
ATOM      1  C1  DEN d   1       3.387   1.773  -0.565  0.00  0.00     0.130 A 
ATOM      2  C2  DEN d   1       4.023   3.084  -0.480  0.00  0.00    -0.031 A 
ATOM      3  C3  DEN d   1       2.965   4.092  -0.263  0.00  0.00     0.027 A 
ATOM      4  C4  DEN d   1       0.418   3.749  -0.047  0.00  0.00     0.027 A 
ATOM      5  C5  DEN d   1      -0.594   2.815  -0.064  0.00  0.00    -0.003 A 
ATOM      6  C6  DEN d   1      -0.356   1.484  -0.281  0.00  0.00     0.001 A 
ATOM      7  C7  DEN d   1       0.930   1.042  -0.445  0.00  0.00     0.017 A 
ATOM      8  C8  DEN d   1       1.955   1.979  -0.437  0.00  0.00    -0.094 A 
ATOM      9  C9  DEN d   1       1.696   3.319  -0.204  0.00  0.00    -0.072 A 
ENDROOT
TORSDOF 0
ENDMDL
