MODEL 1
REMARK minimizedAffinity -4.58327246
REMARK minimizedRMSD -1
REMARK  0 active torsions:
REMARK  status: ('A' for Active; 'I' for Inactive)
ROOT
ATOM      1  C1  DEN d   1      -1.557   2.698  -3.407  0.00  0.00     0.130 A 
ATOM      2  C2  DEN d   1      -2.448   1.558  -3.603  0.00  0.00    -0.031 A 
ATOM      3  C3  DEN d   1      -2.823   1.037  -2.273  0.00  0.00     0.027 A 
ATOM      4  C4  DEN d   1      -2.118   1.885   0.059  0.00  0.00     0.027 A 
ATOM      5  C5  DEN d   1      -1.362   2.819   0.733  0.00  0.00    -0.003 A 
ATOM      6  C6  DEN d   1      -0.599   3.749   0.079  0.00  0.00     0.001 A 
ATOM      7  C7  DEN d   1      -0.608   3.795  -1.290  0.00  0.00     0.017 A 
ATOM      8  C8  DEN d   1      -1.362   2.851  -1.976  0.00  0.00    -0.094 A 
ATOM      9  C9  DEN d   1      -2.137   1.927  -1.297  0.00  0.00    -0.072 A 
ENDROOT
TORSDOF 0
ENDMDL
