MODEL 1
REMARK minimizedAffinity -2.84320378
REMARK minimizedRMSD -1
REMARK  0 active torsions:
REMARK  status: ('A' for Active; 'I' for Inactive)
ROOT
ATOM      1  C1  DEN d   1       1.549  -2.506   1.398  0.00  0.00     0.130 A 
ATOM      2  C2  DEN d   1       0.461  -2.566   0.426  0.00  0.00    -0.031 A 
ATOM      3  C3  DEN d   1       0.537  -1.357  -0.419  0.00  0.00     0.027 A 
ATOM      4  C4  DEN d   1       2.228   0.588  -0.322  0.00  0.00     0.027 A 
ATOM      5  C5  DEN d   1       3.326   1.088   0.342  0.00  0.00    -0.003 A 
ATOM      6  C6  DEN d   1       3.884   0.448   1.417  0.00  0.00     0.001 A 
ATOM      7  C7  DEN d   1       3.372  -0.753   1.832  0.00  0.00     0.017 A 
ATOM      8  C8  DEN d   1       2.260  -1.260   1.172  0.00  0.00    -0.094 A 
ATOM      9  C9  DEN d   1       1.719  -0.604   0.080  0.00  0.00    -0.072 A 
ENDROOT
TORSDOF 0
ENDMDL
