MODEL 1
REMARK minimizedAffinity -2.10626841
REMARK minimizedRMSD -1
REMARK  0 active torsions:
REMARK  status: ('A' for Active; 'I' for Inactive)
ROOT
ATOM      1  C1  DEN d   1       0.039  -0.102  -0.992  0.00  0.00     0.130 A 
ATOM      2  C2  DEN d   1      -0.423  -0.251   0.385  0.00  0.00    -0.031 A 
ATOM      3  C3  DEN d   1      -1.782   0.320   0.476  0.00  0.00     0.027 A 
ATOM      4  C4  DEN d   1      -3.210   1.410  -1.374  0.00  0.00     0.027 A 
ATOM      5  C5  DEN d   1      -3.239   1.774  -2.703  0.00  0.00    -0.003 A 
ATOM      6  C6  DEN d   1      -2.173   1.570  -3.539  0.00  0.00     0.001 A 
ATOM      7  C7  DEN d   1      -1.049   0.946  -3.066  0.00  0.00     0.017 A 
ATOM      8  C8  DEN d   1      -1.010   0.583  -1.726  0.00  0.00    -0.094 A 
ATOM      9  C9  DEN d   1      -2.102   0.787  -0.900  0.00  0.00    -0.072 A 
ENDROOT
TORSDOF 0
ENDMDL
