MODEL 1
REMARK minimizedAffinity -1.61113536
REMARK minimizedRMSD -1
REMARK  0 active torsions:
REMARK  status: ('A' for Active; 'I' for Inactive)
ROOT
ATOM      1  C1  DEN d   1       0.834  -2.618   1.365  0.00  0.00     0.130 A 
ATOM      2  C2  DEN d   1       2.204  -2.667   1.868  0.00  0.00    -0.031 A 
ATOM      3  C3  DEN d   1       2.874  -1.406   1.493  0.00  0.00     0.027 A 
ATOM      4  C4  DEN d   1       1.926   0.611   0.194  0.00  0.00     0.027 A 
ATOM      5  C5  DEN d   1       0.815   1.110  -0.448  0.00  0.00    -0.003 A 
ATOM      6  C6  DEN d   1      -0.348   0.395  -0.559  0.00  0.00     0.001 A 
ATOM      7  C7  DEN d   1      -0.440  -0.844   0.019  0.00  0.00     0.017 A 
ATOM      8  C8  DEN d   1       0.678  -1.357   0.662  0.00  0.00    -0.094 A 
ATOM      9  C9  DEN d   1       1.840  -0.613   0.775  0.00  0.00    -0.072 A 
ENDROOT
TORSDOF 0
ENDMDL
