MODEL 1
REMARK minimizedAffinity 0.803319871
REMARK minimizedRMSD -1
REMARK  0 active torsions:
REMARK  status: ('A' for Active; 'I' for Inactive)
ROOT
ATOM      1  O1  BZF d   1       1.141  -4.028   0.123  0.00  0.00    -0.204 OA
ATOM      2  C2  BZF d   1       2.483  -3.992  -0.203  0.00  0.00     0.174 A 
ATOM      3  C3  BZF d   1       3.015  -2.788   0.089  0.00  0.00    -0.012 A 
ATOM      4  C3A BZF d   1       1.961  -2.053   0.718  0.00  0.00    -0.107 A 
ATOM      5  C4  BZF d   1       1.878  -0.798   1.248  0.00  0.00     0.055 A 
ATOM      6  C5  BZF d   1       0.682  -0.357   1.719  0.00  0.00    -0.016 A 
ATOM      7  C6  BZF d   1      -0.451  -1.143   1.672  0.00  0.00     0.022 A 
ATOM      8  C7  BZF d   1      -0.417  -2.398   1.161  0.00  0.00     0.029 A 
ATOM      9  C7A BZF d   1       0.798  -2.858   0.713  0.00  0.00     0.058 A 
ENDROOT
TORSDOF 0
ENDMDL
