MODEL 1
REMARK minimizedAffinity 2.86889315
REMARK minimizedRMSD -1
REMARK  0 active torsions:
REMARK  status: ('A' for Active; 'I' for Inactive)
ROOT
ATOM      1  O1  BZF d   1       2.600  -2.655  -0.058  0.00  0.00    -0.204 OA
ATOM      2  C2  BZF d   1       2.480  -3.987   0.287  0.00  0.00     0.174 A 
ATOM      3  C3  BZF d   1       1.503  -4.158   1.201  0.00  0.00    -0.012 A 
ATOM      4  C3A BZF d   1       0.918  -2.864   1.373  0.00  0.00    -0.107 A 
ATOM      5  C4  BZF d   1      -0.110  -2.393   2.139  0.00  0.00     0.055 A 
ATOM      6  C5  BZF d   1      -0.382  -1.062   2.132  0.00  0.00    -0.016 A 
ATOM      7  C6  BZF d   1       0.355  -0.174   1.376  0.00  0.00     0.022 A 
ATOM      8  C7  BZF d   1       1.381  -0.595   0.597  0.00  0.00     0.029 A 
ATOM      9  C7A BZF d   1       1.637  -1.944   0.576  0.00  0.00     0.058 A 
ENDROOT
TORSDOF 0
ENDMDL
