MODEL 1
REMARK minimizedAffinity 3.73199201
REMARK minimizedRMSD -1
REMARK  0 active torsions:
REMARK  status: ('A' for Active; 'I' for Inactive)
ROOT
ATOM      1  O1  BZF d   1       2.505  -3.191  -0.092  0.00  0.00    -0.204 OA
ATOM      2  C2  BZF d   1       2.303  -4.467   0.397  0.00  0.00     0.174 A 
ATOM      3  C3  BZF d   1       1.294  -4.483   1.292  0.00  0.00    -0.012 A 
ATOM      4  C3A BZF d   1       0.776  -3.149   1.298  0.00  0.00    -0.107 A 
ATOM      5  C4  BZF d   1      -0.244  -2.542   1.971  0.00  0.00     0.055 A 
ATOM      6  C5  BZF d   1      -0.444  -1.208   1.805  0.00  0.00    -0.016 A 
ATOM      7  C6  BZF d   1       0.361  -0.451   0.979  0.00  0.00     0.022 A 
ATOM      8  C7  BZF d   1       1.382  -1.010   0.286  0.00  0.00     0.029 A 
ATOM      9  C7A BZF d   1       1.565  -2.364   0.426  0.00  0.00     0.058 A 
ENDROOT
TORSDOF 0
ENDMDL
