MODEL 1
REMARK minimizedAffinity 1.97814441
REMARK minimizedRMSD -1
REMARK  0 active torsions:
REMARK  status: ('A' for Active; 'I' for Inactive)
ROOT
ATOM      1  O1  BZF d   1      -1.126   4.557  -4.075  0.00  0.00    -0.204 OA
ATOM      2  C2  BZF d   1      -0.790   3.851  -5.213  0.00  0.00     0.174 A 
ATOM      3  C3  BZF d   1      -1.630   2.812  -5.397  0.00  0.00    -0.012 A 
ATOM      4  C3A BZF d   1      -2.605   2.927  -4.356  0.00  0.00    -0.107 A 
ATOM      5  C4  BZF d   1      -3.709   2.198  -4.019  0.00  0.00     0.055 A 
ATOM      6  C5  BZF d   1      -4.406   2.533  -2.901  0.00  0.00    -0.016 A 
ATOM      7  C6  BZF d   1      -4.024   3.587  -2.097  0.00  0.00     0.022 A 
ATOM      8  C7  BZF d   1      -2.939   4.343  -2.393  0.00  0.00     0.029 A 
ATOM      9  C7A BZF d   1      -2.252   4.027  -3.540  0.00  0.00     0.058 A 
ENDROOT
TORSDOF 0
ENDMDL
