MODEL 1
REMARK minimizedAffinity -0.682384789
REMARK minimizedRMSD -1
REMARK  0 active torsions:
REMARK  status: ('A' for Active; 'I' for Inactive)
ROOT
ATOM      1  O1  BZF d   1      -1.069  -2.000   1.880  0.00  0.00    -0.204 OA
ATOM      2  C2  BZF d   1      -1.231  -3.026   2.791  0.00  0.00     0.174 A 
ATOM      3  C3  BZF d   1      -0.198  -3.891   2.725  0.00  0.00    -0.012 A 
ATOM      4  C3A BZF d   1       0.709  -3.323   1.774  0.00  0.00    -0.107 A 
ATOM      5  C4  BZF d   1       1.926  -3.710   1.291  0.00  0.00     0.055 A 
ATOM      6  C5  BZF d   1       2.515  -2.969   0.316  0.00  0.00    -0.016 A 
ATOM      7  C6  BZF d   1       1.913  -1.841  -0.202  0.00  0.00     0.022 A 
ATOM      8  C7  BZF d   1       0.708  -1.415   0.249  0.00  0.00     0.029 A 
ATOM      9  C7A BZF d   1       0.126  -2.143   1.258  0.00  0.00     0.058 A 
ENDROOT
TORSDOF 0
ENDMDL
