MODEL 1
REMARK minimizedAffinity 3.66009521
REMARK minimizedRMSD -1
REMARK  0 active torsions:
REMARK  status: ('A' for Active; 'I' for Inactive)
ROOT
ATOM      1  O1  BZF d   1      -0.136   2.815  -5.632  0.00  0.00    -0.204 OA
ATOM      2  C2  BZF d   1       0.967   3.573  -5.977  0.00  0.00     0.174 A 
ATOM      3  C3  BZF d   1       0.658   4.885  -5.999  0.00  0.00    -0.012 A 
ATOM      4  C3A BZF d   1      -0.700   4.960  -5.556  0.00  0.00    -0.107 A 
ATOM      5  C4  BZF d   1      -1.566   5.996  -5.352  0.00  0.00     0.055 A 
ATOM      6  C5  BZF d   1      -2.846   5.725  -4.986  0.00  0.00    -0.016 A 
ATOM      7  C6  BZF d   1      -3.296   4.431  -4.820  0.00  0.00     0.022 A 
ATOM      8  C7  BZF d   1      -2.473   3.370  -5.006  0.00  0.00     0.029 A 
ATOM      9  C7A BZF d   1      -1.169   3.642  -5.344  0.00  0.00     0.058 A 
ENDROOT
TORSDOF 0
ENDMDL
