MODEL 1
REMARK minimizedAffinity 2.14751315
REMARK minimizedRMSD -1
REMARK  0 active torsions:
REMARK  status: ('A' for Active; 'I' for Inactive)
ROOT
ATOM      1  O1  BZF d   1       3.415  -3.636  -0.894  0.00  0.00    -0.204 OA
ATOM      2  C2  BZF d   1       3.789  -4.887  -0.441  0.00  0.00     0.174 A 
ATOM      3  C3  BZF d   1       3.180  -5.174   0.727  0.00  0.00    -0.012 A 
ATOM      4  C3A BZF d   1       2.304  -4.071   0.976  0.00  0.00    -0.107 A 
ATOM      5  C4  BZF d   1       1.420  -3.781   1.976  0.00  0.00     0.055 A 
ATOM      6  C5  BZF d   1       0.774  -2.586   1.960  0.00  0.00    -0.016 A 
ATOM      7  C6  BZF d   1       0.991  -1.656   0.965  0.00  0.00     0.022 A 
ATOM      8  C7  BZF d   1       1.855  -1.900  -0.050  0.00  0.00     0.029 A 
ATOM      9  C7A BZF d   1       2.485  -3.121  -0.055  0.00  0.00     0.058 A 
ENDROOT
TORSDOF 0
ENDMDL
