MODEL 1
REMARK minimizedAffinity 3.60215878
REMARK minimizedRMSD -1
REMARK  0 active torsions:
REMARK  status: ('A' for Active; 'I' for Inactive)
ROOT
ATOM      1  O1  BZF d   1       2.355  -3.377  -0.298  0.00  0.00    -0.204 OA
ATOM      2  C2  BZF d   1       1.998  -4.623   0.180  0.00  0.00     0.174 A 
ATOM      3  C3  BZF d   1       1.043  -4.516   1.127  0.00  0.00    -0.012 A 
ATOM      4  C3A BZF d   1       0.722  -3.123   1.181  0.00  0.00    -0.107 A 
ATOM      5  C4  BZF d   1      -0.167  -2.393   1.918  0.00  0.00     0.055 A 
ATOM      6  C5  BZF d   1      -0.181  -1.041   1.784  0.00  0.00    -0.016 A 
ATOM      7  C6  BZF d   1       0.680  -0.386   0.928  0.00  0.00     0.022 A 
ATOM      8  C7  BZF d   1       1.576  -1.069   0.173  0.00  0.00     0.029 A 
ATOM      9  C7A BZF d   1       1.570  -2.438   0.282  0.00  0.00     0.058 A 
ENDROOT
TORSDOF 0
ENDMDL
