MODEL 1
REMARK minimizedAffinity 3.47308588
REMARK minimizedRMSD -1
REMARK  0 active torsions:
REMARK  status: ('A' for Active; 'I' for Inactive)
ROOT
ATOM      1  O1  BZF d   1      -2.494   4.135   4.909  0.00  0.00    -0.204 OA
ATOM      2  C2  BZF d   1      -2.792   5.300   5.588  0.00  0.00     0.174 A 
ATOM      3  C3  BZF d   1      -4.076   5.300   6.000  0.00  0.00    -0.012 A 
ATOM      4  C3A BZF d   1      -4.589   4.016   5.631  0.00  0.00    -0.107 A 
ATOM      5  C4  BZF d   1      -5.803   3.410   5.785  0.00  0.00     0.055 A 
ATOM      6  C5  BZF d   1      -6.000   2.178   5.246  0.00  0.00    -0.016 A 
ATOM      7  C6  BZF d   1      -5.008   1.527   4.543  0.00  0.00     0.022 A 
ATOM      8  C7  BZF d   1      -3.785   2.085   4.368  0.00  0.00     0.029 A 
ATOM      9  C7A BZF d   1      -3.573   3.316   4.940  0.00  0.00     0.058 A 
ENDROOT
TORSDOF 0
ENDMDL
