MODEL 1
REMARK minimizedAffinity 3.77126694
REMARK minimizedRMSD -1
REMARK  0 active torsions:
REMARK  status: ('A' for Active; 'I' for Inactive)
ROOT
ATOM      1  O1  BZF d   1       1.193  -4.268   0.520  0.00  0.00    -0.204 OA
ATOM      2  C2  BZF d   1       2.273  -3.609  -0.035  0.00  0.00     0.174 A 
ATOM      3  C3  BZF d   1       2.204  -2.285   0.212  0.00  0.00    -0.012 A 
ATOM      4  C3A BZF d   1       1.055  -2.118   1.049  0.00  0.00    -0.107 A 
ATOM      5  C4  BZF d   1       0.474  -1.033   1.640  0.00  0.00     0.055 A 
ATOM      6  C5  BZF d   1      -0.683  -1.199   2.333  0.00  0.00    -0.016 A 
ATOM      7  C6  BZF d   1      -1.288  -2.433   2.451  0.00  0.00     0.022 A 
ATOM      8  C7  BZF d   1      -0.747  -3.539   1.886  0.00  0.00     0.029 A 
ATOM      9  C7A BZF d   1       0.440  -3.381   1.213  0.00  0.00     0.058 A 
ENDROOT
TORSDOF 0
ENDMDL
