MODEL 1
REMARK minimizedAffinity 4.7874999
REMARK minimizedRMSD -1
REMARK  0 active torsions:
REMARK  status: ('A' for Active; 'I' for Inactive)
ROOT
ATOM      1  O1  BZF d   1       4.375  -3.988   0.259  0.00  0.00    -0.204 OA
ATOM      2  C2  BZF d   1       4.696  -5.322   0.424  0.00  0.00     0.174 A 
ATOM      3  C3  BZF d   1       3.663  -5.999   0.966  0.00  0.00    -0.012 A 
ATOM      4  C3A BZF d   1       2.600  -5.048   1.065  0.00  0.00    -0.107 A 
ATOM      5  C4  BZF d   1       1.311  -5.123   1.511  0.00  0.00     0.055 A 
ATOM      6  C5  BZF d   1       0.556  -3.993   1.542  0.00  0.00    -0.016 A 
ATOM      7  C6  BZF d   1       1.058  -2.773   1.141  0.00  0.00     0.022 A 
ATOM      8  C7  BZF d   1       2.329  -2.649   0.687  0.00  0.00     0.029 A 
ATOM      9  C7A BZF d   1       3.084  -3.795   0.623  0.00  0.00     0.058 A 
ENDROOT
TORSDOF 0
ENDMDL
