MODEL 1
REMARK minimizedAffinity -2.66797805
REMARK minimizedRMSD -1
REMARK  2 active torsions:
REMARK  status: ('A' for Active; 'I' for Inactive)
REMARK    1  A    between atoms: C1_2  and  C2_3 
REMARK    2  A    between atoms: C2_3  and  C3_4 
ROOT
ATOM      1  C3  UNL d   1      -0.845   0.431  -0.429  0.00  0.00    -0.075 A 
ATOM      2  C4  UNL d   1      -0.635  -0.837   0.130  0.00  0.00     0.002 A 
ATOM      3  C5  UNL d   1       0.510  -1.099   0.883  0.00  0.00     0.002 A 
ATOM      4  C6  UNL d   1       1.463  -0.102   1.076  0.00  0.00    -0.004 A 
ATOM      5  C7  UNL d   1       1.273   1.157   0.511  0.00  0.00     0.002 A 
ATOM      6  C8  UNL d   1       0.126   1.424  -0.238  0.00  0.00     0.002 A 
ENDROOT
BRANCH   1   7
ATOM      7  C2  UNL d   1      -2.096   0.730  -1.220  0.00  0.00     0.056 C 
BRANCH   7   8
ATOM      8  C1  UNL d   1      -2.238  -0.099  -2.501  0.00  0.00     0.007 C 
ATOM      9  C   UNL d   1      -3.051   0.600  -3.582  0.00  0.00     0.009 C 
ENDBRANCH   7   8
ENDBRANCH   1   7
TORSDOF 2
ENDMDL
