MODEL 1
REMARK minimizedAffinity -5.72048092
REMARK minimizedRMSD -1
REMARK  2 active torsions:
REMARK  status: ('A' for Active; 'I' for Inactive)
REMARK    1  A    between atoms: C1_2  and  C2_3 
REMARK    2  A    between atoms: C2_3  and  C3_4 
ROOT
ATOM      1  C3  UNL d   1      -0.206  -0.373   0.571  0.00  0.00    -0.075 A 
ATOM      2  C4  UNL d   1       0.248   0.954   0.574  0.00  0.00     0.002 A 
ATOM      3  C5  UNL d   1       1.590   1.242   0.823  0.00  0.00     0.002 A 
ATOM      4  C6  UNL d   1       2.491   0.211   1.082  0.00  0.00    -0.004 A 
ATOM      5  C7  UNL d   1       2.047  -1.109   1.098  0.00  0.00     0.002 A 
ATOM      6  C8  UNL d   1       0.706  -1.401   0.844  0.00  0.00     0.002 A 
ENDROOT
BRANCH   1   7
ATOM      7  C2  UNL d   1      -1.651  -0.694   0.272  0.00  0.00     0.056 C 
BRANCH   7   8
ATOM      8  C1  UNL d   1      -2.193  -0.016  -0.991  0.00  0.00     0.007 C 
ATOM      9  C   UNL d   1      -2.888  -0.984  -1.940  0.00  0.00     0.009 C 
ENDBRANCH   7   8
ENDBRANCH   1   7
TORSDOF 2
ENDMDL
