MODEL 1
REMARK minimizedAffinity -3.59783697
REMARK minimizedRMSD -1
REMARK  2 active torsions:
REMARK  status: ('A' for Active; 'I' for Inactive)
REMARK    1  A    between atoms: C1_2  and  C2_3 
REMARK    2  A    between atoms: C2_3  and  C3_4 
ROOT
ATOM      1  C3  UNL d   1       0.470  -0.211  -0.089  0.00  0.00    -0.075 A 
ATOM      2  C4  UNL d   1       1.499  -0.922  -0.724  0.00  0.00     0.002 A 
ATOM      3  C5  UNL d   1       2.783  -0.946  -0.180  0.00  0.00     0.002 A 
ATOM      4  C6  UNL d   1       3.058  -0.253   0.997  0.00  0.00    -0.004 A 
ATOM      5  C7  UNL d   1       2.047   0.470   1.627  0.00  0.00     0.002 A 
ATOM      6  C8  UNL d   1       0.760   0.493   1.087  0.00  0.00     0.002 A 
ENDROOT
BRANCH   1   7
ATOM      7  C2  UNL d   1      -0.930  -0.205  -0.657  0.00  0.00     0.056 C 
BRANCH   7   8
ATOM      8  C1  UNL d   1      -0.982  -0.121  -2.186  0.00  0.00     0.007 C 
ATOM      9  C   UNL d   1      -2.364   0.231  -2.721  0.00  0.00     0.009 C 
ENDBRANCH   7   8
ENDBRANCH   1   7
TORSDOF 2
ENDMDL
