MODEL 1
REMARK minimizedAffinity -3.65774965
REMARK minimizedRMSD -1
REMARK  2 active torsions:
REMARK  status: ('A' for Active; 'I' for Inactive)
REMARK    1  A    between atoms: C1_2  and  C2_3 
REMARK    2  A    between atoms: C2_3  and  C3_4 
ROOT
ATOM      1  C3  UNL d   1      -1.962  -0.002  -0.998  0.00  0.00    -0.075 A 
ATOM      2  C4  UNL d   1      -1.855  -1.062  -1.911  0.00  0.00     0.002 A 
ATOM      3  C5  UNL d   1      -2.546  -1.027  -3.122  0.00  0.00     0.002 A 
ATOM      4  C6  UNL d   1      -3.360   0.061  -3.431  0.00  0.00    -0.004 A 
ATOM      5  C7  UNL d   1      -3.487   1.111  -2.525  0.00  0.00     0.002 A 
ATOM      6  C8  UNL d   1      -2.792   1.081  -1.315  0.00  0.00     0.002 A 
ENDROOT
BRANCH   1   7
ATOM      7  C2  UNL d   1      -1.193  -0.021   0.301  0.00  0.00     0.056 C 
BRANCH   7   8
ATOM      8  C1  UNL d   1       0.039   0.891   0.310  0.00  0.00     0.007 C 
ATOM      9  C   UNL d   1       1.345   0.137   0.099  0.00  0.00     0.009 C 
ENDBRANCH   7   8
ENDBRANCH   1   7
TORSDOF 2
ENDMDL
