MODEL 1
REMARK minimizedAffinity -5.32136536
REMARK minimizedRMSD -1
REMARK  2 active torsions:
REMARK  status: ('A' for Active; 'I' for Inactive)
REMARK    1  A    between atoms: C1_2  and  C2_3 
REMARK    2  A    between atoms: C2_3  and  C3_4 
ROOT
ATOM      1  C3  UNL d   1       0.713  -0.417   0.830  0.00  0.00    -0.075 A 
ATOM      2  C4  UNL d   1       1.056  -1.564   1.560  0.00  0.00     0.002 A 
ATOM      3  C5  UNL d   1       2.383  -1.808   1.914  0.00  0.00     0.002 A 
ATOM      4  C6  UNL d   1       3.384  -0.915   1.536  0.00  0.00    -0.004 A 
ATOM      5  C7  UNL d   1       3.056   0.220   0.797  0.00  0.00     0.002 A 
ATOM      6  C8  UNL d   1       1.728   0.468   0.444  0.00  0.00     0.002 A 
ENDROOT
BRANCH   1   7
ATOM      7  C2  UNL d   1      -0.726  -0.133   0.469  0.00  0.00     0.056 C 
BRANCH   7   8
ATOM      8  C1  UNL d   1      -1.099  -0.527  -0.964  0.00  0.00     0.007 C 
ATOM      9  C   UNL d   1      -2.307   0.229  -1.500  0.00  0.00     0.009 C 
ENDBRANCH   7   8
ENDBRANCH   1   7
TORSDOF 2
ENDMDL
