MODEL 1
REMARK minimizedAffinity -4.3447094
REMARK minimizedRMSD -1
REMARK  2 active torsions:
REMARK  status: ('A' for Active; 'I' for Inactive)
REMARK    1  A    between atoms: C1_2  and  C2_3 
REMARK    2  A    between atoms: C2_3  and  C3_4 
ROOT
ATOM      1  C3  UNL d   1      -2.036  -0.076  -1.395  0.00  0.00    -0.075 A 
ATOM      2  C4  UNL d   1      -2.471   1.095  -2.032  0.00  0.00     0.002 A 
ATOM      3  C5  UNL d   1      -3.206   1.026  -3.216  0.00  0.00     0.002 A 
ATOM      4  C6  UNL d   1      -3.506  -0.211  -3.782  0.00  0.00    -0.004 A 
ATOM      5  C7  UNL d   1      -3.065  -1.380  -3.167  0.00  0.00     0.002 A 
ATOM      6  C8  UNL d   1      -2.333  -1.315  -1.980  0.00  0.00     0.002 A 
ENDROOT
BRANCH   1   7
ATOM      7  C2  UNL d   1      -1.266  -0.010  -0.098  0.00  0.00     0.056 C 
BRANCH   7   8
ATOM      8  C1  UNL d   1      -0.264   1.148  -0.026  0.00  0.00     0.007 C 
ATOM      9  C   UNL d   1       1.051   0.763   0.637  0.00  0.00     0.009 C 
ENDBRANCH   7   8
ENDBRANCH   1   7
TORSDOF 2
ENDMDL
