MODEL 1
REMARK minimizedAffinity -5.65320396
REMARK minimizedRMSD -1
REMARK  2 active torsions:
REMARK  status: ('A' for Active; 'I' for Inactive)
REMARK    1  A    between atoms: C1_2  and  C2_3 
REMARK    2  A    between atoms: C2_3  and  C3_4 
ROOT
ATOM      1  C3  UNL d   1       0.556  -0.929   0.380  0.00  0.00    -0.075 A 
ATOM      2  C4  UNL d   1       0.929  -1.959   1.255  0.00  0.00     0.002 A 
ATOM      3  C5  UNL d   1       2.183  -1.948   1.867  0.00  0.00     0.002 A 
ATOM      4  C6  UNL d   1       3.081  -0.916   1.604  0.00  0.00    -0.004 A 
ATOM      5  C7  UNL d   1       2.727   0.104   0.724  0.00  0.00     0.002 A 
ATOM      6  C8  UNL d   1       1.471   0.098   0.114  0.00  0.00     0.002 A 
ENDROOT
BRANCH   1   7
ATOM      7  C2  UNL d   1      -0.811  -0.919  -0.263  0.00  0.00     0.056 C 
BRANCH   7   8
ATOM      8  C1  UNL d   1      -1.289   0.473  -0.690  0.00  0.00     0.007 C 
ATOM      9  C   UNL d   1      -2.427   0.433  -1.702  0.00  0.00     0.009 C 
ENDBRANCH   7   8
ENDBRANCH   1   7
TORSDOF 2
ENDMDL
