MODEL 1
REMARK minimizedAffinity -0.955688953
REMARK minimizedRMSD -1
REMARK  0 active torsions:
REMARK  status: ('A' for Active; 'I' for Inactive)
ROOT
ATOM      1  C1  DEN d   1       1.479  -0.240  -3.208  0.00  0.00     0.130 A 
ATOM      2  C2  DEN d   1       1.989   1.058  -3.643  0.00  0.00    -0.031 A 
ATOM      3  C3  DEN d   1       1.205   1.485  -4.819  0.00  0.00     0.027 A 
ATOM      4  C4  DEN d   1      -0.741   0.273  -6.000  0.00  0.00     0.027 A 
ATOM      5  C5  DEN d   1      -1.521  -0.863  -6.000  0.00  0.00    -0.003 A 
ATOM      6  C6  DEN d   1      -1.335  -1.877  -5.098  0.00  0.00     0.001 A 
ATOM      7  C7  DEN d   1      -0.374  -1.756  -4.129  0.00  0.00     0.017 A 
ATOM      8  C8  DEN d   1       0.421  -0.617  -4.127  0.00  0.00    -0.094 A 
ATOM      9  C9  DEN d   1       0.209   0.402  -5.039  0.00  0.00    -0.072 A 
ENDROOT
TORSDOF 0
ENDMDL
