MODEL 1
REMARK minimizedAffinity -2.31103301
REMARK minimizedRMSD -1
REMARK  0 active torsions:
REMARK  status: ('A' for Active; 'I' for Inactive)
ROOT
ATOM      1  C1  DEN d   1      -0.079  -0.372  -1.561  0.00  0.00     0.130 A 
ATOM      2  C2  DEN d   1       0.996  -1.340  -1.762  0.00  0.00    -0.031 A 
ATOM      3  C3  DEN d   1       1.861  -1.317  -0.565  0.00  0.00     0.027 A 
ATOM      4  C4  DEN d   1       1.639   0.112   1.570  0.00  0.00     0.027 A 
ATOM      5  C5  DEN d   1       0.894   1.086   2.196  0.00  0.00    -0.003 A 
ATOM      6  C6  DEN d   1      -0.199   1.662   1.605  0.00  0.00     0.001 A 
ATOM      7  C7  DEN d   1      -0.605   1.236   0.368  0.00  0.00     0.017 A 
ATOM      8  C8  DEN d   1       0.146   0.260  -0.273  0.00  0.00    -0.094 A 
ATOM      9  C9  DEN d   1       1.241  -0.319   0.347  0.00  0.00    -0.072 A 
ENDROOT
TORSDOF 0
ENDMDL
