MODEL 1
REMARK minimizedAffinity -5.2527914
REMARK minimizedRMSD -1
REMARK  0 active torsions:
REMARK  status: ('A' for Active; 'I' for Inactive)
ROOT
ATOM      1  C1  DEN d   1       0.096   1.120  -3.728  0.00  0.00     0.130 A 
ATOM      2  C2  DEN d   1       1.234   0.752  -4.566  0.00  0.00    -0.031 A 
ATOM      3  C3  DEN d   1       2.023  -0.266  -3.842  0.00  0.00     0.027 A 
ATOM      4  C4  DEN d   1       1.592  -1.304  -1.521  0.00  0.00     0.027 A 
ATOM      5  C5  DEN d   1       0.756  -1.299  -0.427  0.00  0.00    -0.003 A 
ATOM      6  C6  DEN d   1      -0.331  -0.469  -0.342  0.00  0.00     0.001 A 
ATOM      7  C7  DEN d   1      -0.636   0.358  -1.390  0.00  0.00     0.017 A 
ATOM      8  C8  DEN d   1       0.206   0.363  -2.494  0.00  0.00    -0.094 A 
ATOM      9  C9  DEN d   1       1.293  -0.492  -2.566  0.00  0.00    -0.072 A 
ENDROOT
TORSDOF 0
ENDMDL
