MODEL 1
REMARK minimizedAffinity -2.18622756
REMARK minimizedRMSD -1
REMARK  0 active torsions:
REMARK  status: ('A' for Active; 'I' for Inactive)
ROOT
ATOM      1  C1  DEN d   1      -1.376   1.905   2.478  0.00  0.00     0.130 A 
ATOM      2  C2  DEN d   1      -0.078   1.667   3.102  0.00  0.00    -0.031 A 
ATOM      3  C3  DEN d   1       0.699   0.777   2.215  0.00  0.00     0.027 A 
ATOM      4  C4  DEN d   1       0.021  -0.246  -0.054  0.00  0.00     0.027 A 
ATOM      5  C5  DEN d   1      -0.989  -0.340  -0.986  0.00  0.00    -0.003 A 
ATOM      6  C6  DEN d   1      -2.200   0.275  -0.814  0.00  0.00     0.001 A 
ATOM      7  C7  DEN d   1      -2.418   1.049   0.295  0.00  0.00     0.017 A 
ATOM      8  C8  DEN d   1      -1.407   1.143   1.243  0.00  0.00    -0.094 A 
ATOM      9  C9  DEN d   1      -0.185   0.524   1.045  0.00  0.00    -0.072 A 
ENDROOT
TORSDOF 0
ENDMDL
