MODEL 1
REMARK minimizedAffinity -5.02416658
REMARK minimizedRMSD -1
REMARK  0 active torsions:
REMARK  status: ('A' for Active; 'I' for Inactive)
ROOT
ATOM      1  C1  DEN d   1       0.547   1.397   2.227  0.00  0.00     0.130 A 
ATOM      2  C2  DEN d   1      -0.773   1.674   2.786  0.00  0.00    -0.031 A 
ATOM      3  C3  DEN d   1      -1.774   0.957   1.972  0.00  0.00     0.027 A 
ATOM      4  C4  DEN d   1      -1.410  -0.553  -0.087  0.00  0.00     0.027 A 
ATOM      5  C5  DEN d   1      -0.465  -1.078  -0.941  0.00  0.00    -0.003 A 
ATOM      6  C6  DEN d   1       0.869  -0.790  -0.820  0.00  0.00     0.001 A 
ATOM      7  C7  DEN d   1       1.300   0.010   0.204  0.00  0.00     0.017 A 
ATOM      8  C8  DEN d   1       0.353   0.549   1.065  0.00  0.00    -0.094 A 
ATOM      9  C9  DEN d   1      -0.989   0.236   0.934  0.00  0.00    -0.072 A 
ENDROOT
TORSDOF 0
ENDMDL
