MODEL 1
REMARK minimizedAffinity -3.9161377
REMARK minimizedRMSD -1
REMARK  0 active torsions:
REMARK  status: ('A' for Active; 'I' for Inactive)
ROOT
ATOM      1  C1  DEN d   1      -1.161  -0.242  -0.888  0.00  0.00     0.130 A 
ATOM      2  C2  DEN d   1       0.003  -0.847  -1.528  0.00  0.00    -0.031 A 
ATOM      3  C3  DEN d   1       1.152  -0.708  -0.612  0.00  0.00     0.027 A 
ATOM      4  C4  DEN d   1       1.240   0.376   1.727  0.00  0.00     0.027 A 
ATOM      5  C5  DEN d   1       0.504   1.035   2.687  0.00  0.00    -0.003 A 
ATOM      6  C6  DEN d   1      -0.819   1.343   2.510  0.00  0.00     0.001 A 
ATOM      7  C7  DEN d   1      -1.459   0.951   1.364  0.00  0.00     0.017 A 
ATOM      8  C8  DEN d   1      -0.722   0.292   0.389  0.00  0.00    -0.094 A 
ATOM      9  C9  DEN d   1       0.611  -0.021   0.592  0.00  0.00    -0.072 A 
ENDROOT
TORSDOF 0
ENDMDL
