MODEL 1
REMARK minimizedAffinity -4.79468536
REMARK minimizedRMSD -1
REMARK  0 active torsions:
REMARK  status: ('A' for Active; 'I' for Inactive)
ROOT
ATOM      1  C1  DEN d   1       1.033  -0.977  -0.520  0.00  0.00     0.130 A 
ATOM      2  C2  DEN d   1      -0.134  -0.389  -1.171  0.00  0.00    -0.031 A 
ATOM      3  C3  DEN d   1      -0.715   0.610  -0.252  0.00  0.00     0.027 A 
ATOM      4  C4  DEN d   1       0.078   1.305   2.101  0.00  0.00     0.027 A 
ATOM      5  C5  DEN d   1       1.018   1.076   3.082  0.00  0.00    -0.003 A 
ATOM      6  C6  DEN d   1       2.000   0.131   2.946  0.00  0.00     0.001 A 
ATOM      7  C7  DEN d   1       2.092  -0.590   1.785  0.00  0.00     0.017 A 
ATOM      8  C8  DEN d   1       1.144  -0.370   0.795  0.00  0.00    -0.094 A 
ATOM      9  C9  DEN d   1       0.166   0.599   0.946  0.00  0.00    -0.072 A 
ENDROOT
TORSDOF 0
ENDMDL
