MODEL 1
REMARK minimizedAffinity -1.8166151
REMARK minimizedRMSD -1
REMARK  0 active torsions:
REMARK  status: ('A' for Active; 'I' for Inactive)
ROOT
ATOM      1  C1  BNZ d   1       0.482  -1.693  -1.145  0.00  0.00     0.000 A 
ATOM      2  C2  BNZ d   1       0.990  -2.910  -0.775  0.00  0.00     0.000 A 
ATOM      3  C3  BNZ d   1       0.502  -4.066  -1.316  0.00  0.00     0.000 A 
ATOM      4  C4  BNZ d   1      -0.520  -4.007  -2.194  0.00  0.00     0.000 A 
ATOM      5  C5  BNZ d   1      -1.050  -2.789  -2.570  0.00  0.00     0.000 A 
ATOM      6  C6  BNZ d   1      -0.529  -1.625  -2.053  0.00  0.00     0.000 A 
ENDROOT
TORSDOF 0
ENDMDL
