MODEL 1
REMARK minimizedAffinity -1.38970637
REMARK minimizedRMSD -1
REMARK  0 active torsions:
REMARK  status: ('A' for Active; 'I' for Inactive)
ROOT
ATOM      1  C1  BNZ d   1      -0.119   1.984  -0.360  0.00  0.00     0.000 A 
ATOM      2  C2  BNZ d   1       0.009   2.448   0.922  0.00  0.00     0.000 A 
ATOM      3  C3  BNZ d   1       0.323   1.599   1.946  0.00  0.00     0.000 A 
ATOM      4  C4  BNZ d   1       0.468   0.282   1.694  0.00  0.00     0.000 A 
ATOM      5  C5  BNZ d   1       0.332  -0.203   0.409  0.00  0.00     0.000 A 
ATOM      6  C6  BNZ d   1       0.055   0.661  -0.626  0.00  0.00     0.000 A 
ENDROOT
TORSDOF 0
ENDMDL
