MODEL 1
REMARK minimizedAffinity -3.28450561
REMARK minimizedRMSD -1
REMARK  0 active torsions:
REMARK  status: ('A' for Active; 'I' for Inactive)
ROOT
ATOM      1  C1  BNZ d   1       0.079  -1.568  -1.022  0.00  0.00     0.000 A 
ATOM      2  C2  BNZ d   1       1.326  -2.135  -1.020  0.00  0.00     0.000 A 
ATOM      3  C3  BNZ d   1       1.478  -3.489  -0.917  0.00  0.00     0.000 A 
ATOM      4  C4  BNZ d   1       0.388  -4.270  -0.774  0.00  0.00     0.000 A 
ATOM      5  C5  BNZ d   1      -0.875  -3.712  -0.764  0.00  0.00     0.000 A 
ATOM      6  C6  BNZ d   1      -1.027  -2.352  -0.908  0.00  0.00     0.000 A 
ENDROOT
TORSDOF 0
ENDMDL
