MODEL 1
REMARK minimizedAffinity -3.10346031
REMARK minimizedRMSD -1
REMARK  0 active torsions:
REMARK  status: ('A' for Active; 'I' for Inactive)
ROOT
ATOM      1  C1  BNZ d   1       1.769  -0.700   1.499  0.00  0.00     0.000 A 
ATOM      2  C2  BNZ d   1       1.538  -0.889   0.163  0.00  0.00     0.000 A 
ATOM      3  C3  BNZ d   1       0.289  -0.709  -0.363  0.00  0.00     0.000 A 
ATOM      4  C4  BNZ d   1      -0.733  -0.381   0.453  0.00  0.00     0.000 A 
ATOM      5  C5  BNZ d   1      -0.518  -0.196   1.804  0.00  0.00     0.000 A 
ATOM      6  C6  BNZ d   1       0.749  -0.339   2.324  0.00  0.00     0.000 A 
ENDROOT
TORSDOF 0
ENDMDL
