MODEL 1
REMARK minimizedAffinity -3.88535261
REMARK minimizedRMSD -1
REMARK  0 active torsions:
REMARK  status: ('A' for Active; 'I' for Inactive)
ROOT
ATOM      1  C1  BNZ d   1      -1.170   0.038   2.162  0.00  0.00     0.000 A 
ATOM      2  C2  BNZ d   1      -0.983  -0.443   0.894  0.00  0.00     0.000 A 
ATOM      3  C3  BNZ d   1      -0.579   0.384  -0.116  0.00  0.00     0.000 A 
ATOM      4  C4  BNZ d   1      -0.401   1.697   0.133  0.00  0.00     0.000 A 
ATOM      5  C5  BNZ d   1      -0.594   2.199   1.405  0.00  0.00     0.000 A 
ATOM      6  C6  BNZ d   1      -0.963   1.357   2.428  0.00  0.00     0.000 A 
ENDROOT
TORSDOF 0
ENDMDL
