MODEL 1
REMARK minimizedAffinity -4.30343962
REMARK minimizedRMSD -1
REMARK  0 active torsions:
REMARK  status: ('A' for Active; 'I' for Inactive)
ROOT
ATOM      1  C1  BNZ d   1      -1.166   2.217   1.199  0.00  0.00     0.000 A 
ATOM      2  C2  BNZ d   1      -1.001   1.770  -0.085  0.00  0.00     0.000 A 
ATOM      3  C3  BNZ d   1      -0.360   0.589  -0.338  0.00  0.00     0.000 A 
ATOM      4  C4  BNZ d   1       0.148  -0.123   0.688  0.00  0.00     0.000 A 
ATOM      5  C5  BNZ d   1      -0.002   0.319   1.987  0.00  0.00     0.000 A 
ATOM      6  C6  BNZ d   1      -0.681   1.488   2.241  0.00  0.00     0.000 A 
ENDROOT
TORSDOF 0
ENDMDL
