MODEL 1
REMARK minimizedAffinity -4.34030819
REMARK minimizedRMSD -1
REMARK  0 active torsions:
REMARK  status: ('A' for Active; 'I' for Inactive)
ROOT
ATOM      1  C1  BNZ d   1       0.430   0.570  -0.528  0.00  0.00     0.000 A 
ATOM      2  C2  BNZ d   1       0.094  -0.481   0.285  0.00  0.00     0.000 A 
ATOM      3  C3  BNZ d   1      -0.166  -0.283   1.612  0.00  0.00     0.000 A 
ATOM      4  C4  BNZ d   1      -0.052   0.956   2.133  0.00  0.00     0.000 A 
ATOM      5  C5  BNZ d   1       0.294   2.023   1.329  0.00  0.00     0.000 A 
ATOM      6  C6  BNZ d   1       0.518   1.827  -0.015  0.00  0.00     0.000 A 
ENDROOT
TORSDOF 0
ENDMDL
