MODEL 1
REMARK minimizedAffinity -2.59798479
REMARK minimizedRMSD -1
REMARK  0 active torsions:
REMARK  status: ('A' for Active; 'I' for Inactive)
ROOT
ATOM      1  C1  BNZ d   1      -0.369   1.318   2.321  0.00  0.00     0.000 A 
ATOM      2  C2  BNZ d   1      -0.277   0.055   1.802  0.00  0.00     0.000 A 
ATOM      3  C3  BNZ d   1      -0.122  -0.140   0.458  0.00  0.00     0.000 A 
ATOM      4  C4  BNZ d   1      -0.101   0.926  -0.369  0.00  0.00     0.000 A 
ATOM      5  C5  BNZ d   1      -0.202   2.206   0.139  0.00  0.00     0.000 A 
ATOM      6  C6  BNZ d   1      -0.319   2.399   1.496  0.00  0.00     0.000 A 
ENDROOT
TORSDOF 0
ENDMDL
