MODEL 1
REMARK minimizedAffinity -3.38612819
REMARK minimizedRMSD -1
REMARK  0 active torsions:
REMARK  status: ('A' for Active; 'I' for Inactive)
ROOT
ATOM      1  C1  BNZ d   1      -0.344   2.398   1.860  0.00  0.00     0.000 A 
ATOM      2  C2  BNZ d   1      -0.586   3.639   1.336  0.00  0.00     0.000 A 
ATOM      3  C3  BNZ d   1      -0.609   3.836  -0.017  0.00  0.00     0.000 A 
ATOM      4  C4  BNZ d   1      -0.351   2.800  -0.841  0.00  0.00     0.000 A 
ATOM      5  C5  BNZ d   1      -0.096   1.544  -0.328  0.00  0.00     0.000 A 
ATOM      6  C6  BNZ d   1      -0.112   1.342   1.033  0.00  0.00     0.000 A 
ENDROOT
TORSDOF 0
ENDMDL
