MODEL 1
REMARK minimizedAffinity -0.439333171
REMARK minimizedRMSD -1
REMARK  0 active torsions:
REMARK  status: ('A' for Active; 'I' for Inactive)
ROOT
ATOM      1  C1  BNZ d   1      -0.149   0.497   2.730  0.00  0.00     0.000 A 
ATOM      2  C2  BNZ d   1       0.071  -0.754   2.219  0.00  0.00     0.000 A 
ATOM      3  C3  BNZ d   1       0.295  -0.934   0.882  0.00  0.00     0.000 A 
ATOM      4  C4  BNZ d   1       0.259   0.130   0.055  0.00  0.00     0.000 A 
ATOM      5  C5  BNZ d   1       0.029   1.397   0.554  0.00  0.00     0.000 A 
ATOM      6  C6  BNZ d   1      -0.157   1.579   1.905  0.00  0.00     0.000 A 
ENDROOT
TORSDOF 0
ENDMDL
