MODEL 1
REMARK minimizedAffinity 6.61242485
REMARK minimizedRMSD -1
REMARK  0 active torsions:
REMARK  status: ('A' for Active; 'I' for Inactive)
ROOT
ATOM      1  C1  BNZ d   1       0.361   0.397   0.735  0.00  0.00     0.000 A 
ATOM      2  C2  BNZ d   1       0.364   1.766   0.762  0.00  0.00     0.000 A 
ATOM      3  C3  BNZ d   1       0.494   2.443   1.942  0.00  0.00     0.000 A 
ATOM      4  C4  BNZ d   1       0.581   1.752   3.097  0.00  0.00     0.000 A 
ATOM      5  C5  BNZ d   1       0.569   0.372   3.088  0.00  0.00     0.000 A 
ATOM      6  C6  BNZ d   1       0.478  -0.307   1.894  0.00  0.00     0.000 A 
ENDROOT
TORSDOF 0
ENDMDL
