MODEL 1
REMARK minimizedAffinity 3.1673727
REMARK minimizedRMSD -1
REMARK  3 active torsions:
REMARK  status: ('A' for Active; 'I' for Inactive)
REMARK    1  A    between atoms: C3'_2  and  C2'_3 
REMARK    2  A    between atoms: C2'_3  and  C1'_4 
REMARK    3  A    between atoms: C1'_4  and  C1_5 
ROOT
ATOM      1  C1  N4B d   1       0.409   3.343  -0.510  0.00  0.00    -0.075 A 
ATOM      2  C2  N4B d   1      -0.484   2.741   0.403  0.00  0.00     0.002 A 
ATOM      3  C3  N4B d   1      -0.044   2.370   1.650  0.00  0.00     0.002 A 
ATOM      4  C4  N4B d   1       1.284   2.572   1.997  0.00  0.00    -0.004 A 
ATOM      5  C5  N4B d   1       2.133   3.178   1.118  0.00  0.00     0.002 A 
ATOM      6  C6  N4B d   1       1.704   3.560  -0.137  0.00  0.00     0.002 A 
ENDROOT
BRANCH   1   7
ATOM      7  C1' N4B d   1      -0.004   3.688  -1.915  0.00  0.00     0.057 C 
BRANCH   7   8
ATOM      8  C2' N4B d   1      -1.496   3.413  -2.080  0.00  0.00     0.009 C 
BRANCH   8   9
ATOM      9  C3' N4B d   1      -2.151   4.391  -3.040  0.00  0.00     0.004 C 
ATOM     10  C4' N4B d   1      -3.356   3.814  -3.723  0.00  0.00     0.003 C 
ENDBRANCH   8   9
ENDBRANCH   7   8
ENDBRANCH   1   7
TORSDOF 3
ENDMDL
