MODEL 1
REMARK minimizedAffinity 15.0324211
REMARK minimizedRMSD -1
REMARK  3 active torsions:
REMARK  status: ('A' for Active; 'I' for Inactive)
REMARK    1  A    between atoms: C3'_2  and  C2'_3 
REMARK    2  A    between atoms: C2'_3  and  C1'_4 
REMARK    3  A    between atoms: C1'_4  and  C1_5 
ROOT
ATOM      1  C1  N4B d   1       1.781   3.727  -1.003  0.00  0.00    -0.075 A 
ATOM      2  C2  N4B d   1       1.460   3.752  -2.378  0.00  0.00     0.002 A 
ATOM      3  C3  N4B d   1       2.104   4.627  -3.218  0.00  0.00     0.002 A 
ATOM      4  C4  N4B d   1       3.055   5.496  -2.704  0.00  0.00    -0.004 A 
ATOM      5  C5  N4B d   1       3.377   5.448  -1.380  0.00  0.00     0.002 A 
ATOM      6  C6  N4B d   1       2.741   4.571  -0.525  0.00  0.00     0.002 A 
ENDROOT
BRANCH   1   7
ATOM      7  C1' N4B d   1       1.043   2.848  -0.030  0.00  0.00     0.057 C 
BRANCH   7   8
ATOM      8  C2' N4B d   1       2.004   1.805   0.532  0.00  0.00     0.009 C 
BRANCH   8   9
ATOM      9  C3' N4B d   1       2.061   1.844   2.049  0.00  0.00     0.004 C 
ATOM     10  C4' N4B d   1       3.254   2.590   2.567  0.00  0.00     0.003 C 
ENDBRANCH   8   9
ENDBRANCH   7   8
ENDBRANCH   1   7
TORSDOF 3
ENDMDL
