MODEL 1
REMARK minimizedAffinity 10.1343565
REMARK minimizedRMSD -1
REMARK  3 active torsions:
REMARK  status: ('A' for Active; 'I' for Inactive)
REMARK    1  A    between atoms: C3'_2  and  C2'_3 
REMARK    2  A    between atoms: C2'_3  and  C1'_4 
REMARK    3  A    between atoms: C1'_4  and  C1_5 
ROOT
ATOM      1  C1  N4B d   1       1.896  -2.045   3.755  0.00  0.00    -0.075 A 
ATOM      2  C2  N4B d   1       1.042  -0.920   3.756  0.00  0.00     0.002 A 
ATOM      3  C3  N4B d   1       0.313  -0.612   4.878  0.00  0.00     0.002 A 
ATOM      4  C4  N4B d   1       0.406  -1.422   6.000  0.00  0.00    -0.004 A 
ATOM      5  C5  N4B d   1       1.252  -2.492   6.000  0.00  0.00     0.002 A 
ATOM      6  C6  N4B d   1       1.994  -2.811   4.881  0.00  0.00     0.002 A 
ENDROOT
BRANCH   1   7
ATOM      7  C1' N4B d   1       2.648  -2.471   2.524  0.00  0.00     0.057 C 
BRANCH   7   8
ATOM      8  C2' N4B d   1       3.109  -1.230   1.765  0.00  0.00     0.009 C 
BRANCH   8   9
ATOM      9  C3' N4B d   1       3.609  -1.570   0.371  0.00  0.00     0.004 C 
ATOM     10  C4' N4B d   1       5.058  -1.956   0.352  0.00  0.00     0.003 C 
ENDBRANCH   8   9
ENDBRANCH   7   8
ENDBRANCH   1   7
TORSDOF 3
ENDMDL
