MODEL 1
REMARK minimizedAffinity 12.3401489
REMARK minimizedRMSD -1
REMARK  3 active torsions:
REMARK  status: ('A' for Active; 'I' for Inactive)
REMARK    1  A    between atoms: C3'_2  and  C2'_3 
REMARK    2  A    between atoms: C2'_3  and  C1'_4 
REMARK    3  A    between atoms: C1'_4  and  C1_5 
ROOT
ATOM      1  C1  N4B d   1       0.042   1.001   2.354  0.00  0.00    -0.075 A 
ATOM      2  C2  N4B d   1      -1.369   0.940   2.347  0.00  0.00     0.002 A 
ATOM      3  C3  N4B d   1      -2.077   1.523   1.325  0.00  0.00     0.002 A 
ATOM      4  C4  N4B d   1      -1.399   2.187   0.313  0.00  0.00    -0.004 A 
ATOM      5  C5  N4B d   1      -0.035   2.220   0.314  0.00  0.00     0.002 A 
ATOM      6  C6  N4B d   1       0.689   1.635   1.333  0.00  0.00     0.002 A 
ENDROOT
BRANCH   1   7
ATOM      7  C1' N4B d   1       0.856   0.453   3.495  0.00  0.00     0.057 C 
BRANCH   7   8
ATOM      8  C2' N4B d   1       0.065  -0.652   4.188  0.00  0.00     0.009 C 
BRANCH   8   9
ATOM      9  C3' N4B d   1       0.943  -1.497   5.094  0.00  0.00     0.004 C 
ATOM     10  C4' N4B d   1       1.631  -2.611   4.363  0.00  0.00     0.003 C 
ENDBRANCH   8   9
ENDBRANCH   7   8
ENDBRANCH   1   7
TORSDOF 3
ENDMDL
