MODEL 1
REMARK minimizedAffinity 0.625618875
REMARK minimizedRMSD -1
REMARK  1 active torsions:
REMARK  status: ('A' for Active; 'I' for Inactive)
REMARK    1  A    between atoms: C1_2  and  C2_3 
ROOT
ATOM      1  C2  UNL d   1       2.319   5.844   4.652  0.00  0.00    -0.073 A 
ATOM      2  C3  UNL d   1       2.939   5.767   5.905  0.00  0.00    -0.002 A 
ATOM      3  C4  UNL d   1       4.325   5.629   5.998  0.00  0.00     0.004 A 
ATOM      4  C5  UNL d   1       5.104   5.575   4.843  0.00  0.00    -0.004 A 
ATOM      5  C6  UNL d   1       4.504   5.663   3.582  0.00  0.00    -0.075 A 
ATOM      6  C7  UNL d   1       5.328   5.604   2.330  0.00  0.00     0.076 C 
ATOM      7  C8  UNL d   1       3.112   5.798   3.497  0.00  0.00     0.001 A 
ENDROOT
BRANCH   1   8
ATOM      8  C1  UNL d   1       0.824   5.999   4.547  0.00  0.00     0.053 C 
ATOM      9  C   UNL d   1       0.151   5.978   5.910  0.00  0.00     0.018 C 
ENDBRANCH   1   8
TORSDOF 1
ENDMDL
