MODEL 1
REMARK minimizedAffinity -0.380822748
REMARK minimizedRMSD -1
REMARK  1 active torsions:
REMARK  status: ('A' for Active; 'I' for Inactive)
REMARK    1  A    between atoms: C1_2  and  C2_3 
ROOT
ATOM      1  C2  UNL d   1       3.649   3.305   5.987  0.00  0.00    -0.073 A 
ATOM      2  C3  UNL d   1       4.598   4.334   5.991  0.00  0.00    -0.002 A 
ATOM      3  C4  UNL d   1       4.191   5.669   5.989  0.00  0.00     0.004 A 
ATOM      4  C5  UNL d   1       2.833   5.989   5.991  0.00  0.00    -0.004 A 
ATOM      5  C6  UNL d   1       1.870   4.975   6.000  0.00  0.00    -0.075 A 
ATOM      6  C7  UNL d   1       0.405   5.303   6.000  0.00  0.00     0.076 C 
ATOM      7  C8  UNL d   1       2.286   3.637   5.999  0.00  0.00     0.001 A 
ENDROOT
BRANCH   1   8
ATOM      8  C1  UNL d   1       4.083   1.863   5.995  0.00  0.00     0.053 C 
ATOM      9  C   UNL d   1       2.898   0.910   5.992  0.00  0.00     0.018 C 
ENDBRANCH   1   8
TORSDOF 1
ENDMDL
