MODEL 1
REMARK minimizedAffinity 0.0211077183
REMARK minimizedRMSD -1
REMARK  1 active torsions:
REMARK  status: ('A' for Active; 'I' for Inactive)
REMARK    1  A    between atoms: C1_2  and  C2_3 
ROOT
ATOM      1  C2  UNL d   1       1.272  -1.915  -1.075  0.00  0.00    -0.073 A 
ATOM      2  C3  UNL d   1       1.771  -2.595   0.042  0.00  0.00    -0.002 A 
ATOM      3  C4  UNL d   1       2.869  -2.093   0.741  0.00  0.00     0.004 A 
ATOM      4  C5  UNL d   1       3.474  -0.903   0.335  0.00  0.00    -0.004 A 
ATOM      5  C6  UNL d   1       2.983  -0.203  -0.771  0.00  0.00    -0.075 A 
ATOM      6  C7  UNL d   1       3.624   1.077  -1.221  0.00  0.00     0.076 C 
ATOM      7  C8  UNL d   1       1.881  -0.715  -1.469  0.00  0.00     0.001 A 
ENDROOT
BRANCH   1   8
ATOM      8  C1  UNL d   1       0.082  -2.450  -1.829  0.00  0.00     0.053 C 
ATOM      9  C   UNL d   1      -0.579  -3.611  -1.102  0.00  0.00     0.018 C 
ENDBRANCH   1   8
TORSDOF 1
ENDMDL
