MODEL 1
REMARK minimizedAffinity 10.1078615
REMARK minimizedRMSD -1
REMARK  1 active torsions:
REMARK  status: ('A' for Active; 'I' for Inactive)
REMARK    1  A    between atoms: C1_2  and  C2_3 
ROOT
ATOM      1  C2  UNL d   1       2.739  -2.726  -0.396  0.00  0.00    -0.073 A 
ATOM      2  C3  UNL d   1       1.578  -3.436  -0.722  0.00  0.00    -0.002 A 
ATOM      3  C4  UNL d   1       1.136  -3.494  -2.045  0.00  0.00     0.004 A 
ATOM      4  C5  UNL d   1       1.853  -2.852  -3.054  0.00  0.00    -0.004 A 
ATOM      5  C6  UNL d   1       3.023  -2.148  -2.749  0.00  0.00    -0.075 A 
ATOM      6  C7  UNL d   1       3.804  -1.450  -3.823  0.00  0.00     0.076 C 
ATOM      7  C8  UNL d   1       3.458  -2.091  -1.419  0.00  0.00     0.001 A 
ENDROOT
BRANCH   1   8
ATOM      8  C1  UNL d   1       3.224  -2.665   1.029  0.00  0.00     0.053 C 
ATOM      9  C   UNL d   1       4.566  -1.960   1.146  0.00  0.00     0.018 C 
ENDBRANCH   1   8
TORSDOF 1
ENDMDL
