MODEL 1
REMARK minimizedAffinity -3.54372644
REMARK minimizedRMSD -1
REMARK  1 active torsions:
REMARK  status: ('A' for Active; 'I' for Inactive)
REMARK    1  A    between atoms: C1_2  and  C2_3 
ROOT
ATOM      1  C2  UNL d   1       2.913   4.860   5.145  0.00  0.00    -0.073 A 
ATOM      2  C3  UNL d   1       3.422   5.089   3.861  0.00  0.00    -0.002 A 
ATOM      3  C4  UNL d   1       3.925   4.031   3.104  0.00  0.00     0.004 A 
ATOM      4  C5  UNL d   1       3.919   2.734   3.617  0.00  0.00    -0.004 A 
ATOM      5  C6  UNL d   1       3.404   2.483   4.893  0.00  0.00    -0.075 A 
ATOM      6  C7  UNL d   1       3.392   1.095   5.462  0.00  0.00     0.076 C 
ATOM      7  C8  UNL d   1       2.903   3.552   5.649  0.00  0.00     0.001 A 
ENDROOT
BRANCH   1   8
ATOM      8  C1  UNL d   1       2.363   5.998   5.965  0.00  0.00     0.053 C 
ATOM      9  C   UNL d   1       0.843   5.993   5.999  0.00  0.00     0.018 C 
ENDBRANCH   1   8
TORSDOF 1
ENDMDL
