MODEL 1
REMARK minimizedAffinity 8.93216896
REMARK minimizedRMSD -1
REMARK  0 active torsions:
REMARK  status: ('A' for Active; 'I' for Inactive)
ROOT
ATOM      1  O1  BZF d   1      -4.918  -2.469  -5.195  0.00  0.00    -0.204 OA
ATOM      2  C2  BZF d   1      -4.873  -3.797  -5.574  0.00  0.00     0.174 A 
ATOM      3  C3  BZF d   1      -3.637  -4.132  -5.998  0.00  0.00    -0.012 A 
ATOM      4  C3A BZF d   1      -2.838  -2.963  -5.788  0.00  0.00    -0.107 A 
ATOM      5  C4  BZF d   1      -1.520  -2.677  -6.000  0.00  0.00     0.055 A 
ATOM      6  C5  BZF d   1      -1.071  -1.417  -5.758  0.00  0.00    -0.016 A 
ATOM      7  C6  BZF d   1      -1.912  -0.419  -5.311  0.00  0.00     0.022 A 
ATOM      8  C7  BZF d   1      -3.226  -0.657  -5.082  0.00  0.00     0.029 A 
ATOM      9  C7A BZF d   1      -3.676  -1.937  -5.294  0.00  0.00     0.058 A 
ENDROOT
TORSDOF 0
ENDMDL
