MODEL 1
REMARK minimizedAffinity 0.0690586194
REMARK minimizedRMSD -1
REMARK  0 active torsions:
REMARK  status: ('A' for Active; 'I' for Inactive)
ROOT
ATOM      1  O1  BZF d   1      -1.679  -2.883  -5.963  0.00  0.00    -0.204 OA
ATOM      2  C2  BZF d   1      -1.006  -1.677  -5.946  0.00  0.00     0.174 A 
ATOM      3  C3  BZF d   1      -1.873  -0.644  -5.990  0.00  0.00    -0.012 A 
ATOM      4  C3A BZF d   1      -3.172  -1.242  -5.945  0.00  0.00    -0.107 A 
ATOM      5  C4  BZF d   1      -4.440  -0.733  -5.943  0.00  0.00     0.055 A 
ATOM      6  C5  BZF d   1      -5.495  -1.590  -5.966  0.00  0.00    -0.016 A 
ATOM      7  C6  BZF d   1      -5.319  -2.958  -5.998  0.00  0.00     0.022 A 
ATOM      8  C7  BZF d   1      -4.081  -3.509  -5.996  0.00  0.00     0.029 A 
ATOM      9  C7A BZF d   1      -3.013  -2.647  -5.939  0.00  0.00     0.058 A 
ENDROOT
TORSDOF 0
ENDMDL
