MODEL 1
REMARK minimizedAffinity 11.064045
REMARK minimizedRMSD -1
REMARK  0 active torsions:
REMARK  status: ('A' for Active; 'I' for Inactive)
ROOT
ATOM      1  O1  BZF d   1      -1.823  -4.079  -5.978  0.00  0.00    -0.204 OA
ATOM      2  C2  BZF d   1      -3.189  -4.285  -5.996  0.00  0.00     0.174 A 
ATOM      3  C3  BZF d   1      -3.851  -3.112  -5.939  0.00  0.00    -0.012 A 
ATOM      4  C3A BZF d   1      -2.835  -2.105  -5.975  0.00  0.00    -0.107 A 
ATOM      5  C4  BZF d   1      -2.866  -0.740  -5.963  0.00  0.00     0.055 A 
ATOM      6  C5  BZF d   1      -1.694  -0.053  -5.933  0.00  0.00    -0.016 A 
ATOM      7  C6  BZF d   1      -0.474  -0.698  -5.910  0.00  0.00     0.022 A 
ATOM      8  C7  BZF d   1      -0.393  -2.051  -5.926  0.00  0.00     0.029 A 
ATOM      9  C7A BZF d   1      -1.576  -2.747  -5.989  0.00  0.00     0.058 A 
ENDROOT
TORSDOF 0
ENDMDL
