MODEL 1
REMARK minimizedAffinity 0.775897741
REMARK minimizedRMSD -1
REMARK  0 active torsions:
REMARK  status: ('A' for Active; 'I' for Inactive)
ROOT
ATOM      1  O1  BZF d   1      -5.502   0.805   4.871  0.00  0.00    -0.204 OA
ATOM      2  C2  BZF d   1      -6.000   2.021   5.297  0.00  0.00     0.174 A 
ATOM      3  C3  BZF d   1      -5.664   3.003   4.435  0.00  0.00    -0.012 A 
ATOM      4  C3A BZF d   1      -4.989   2.345   3.359  0.00  0.00    -0.107 A 
ATOM      5  C4  BZF d   1      -4.430   2.784   2.193  0.00  0.00     0.055 A 
ATOM      6  C5  BZF d   1      -3.783   1.895   1.395  0.00  0.00    -0.016 A 
ATOM      7  C6  BZF d   1      -3.671   0.562   1.734  0.00  0.00     0.022 A 
ATOM      8  C7  BZF d   1      -4.213   0.079   2.878  0.00  0.00     0.029 A 
ATOM      9  C7A BZF d   1      -4.896   0.969   3.671  0.00  0.00     0.058 A 
ENDROOT
TORSDOF 0
ENDMDL
