MODEL 1
REMARK minimizedAffinity 1.51944947
REMARK minimizedRMSD -1
REMARK  0 active torsions:
REMARK  status: ('A' for Active; 'I' for Inactive)
ROOT
ATOM      1  O1  BZF d   1      -1.623  -2.563  -5.973  0.00  0.00    -0.204 OA
ATOM      2  C2  BZF d   1      -1.138  -1.270  -5.957  0.00  0.00     0.174 A 
ATOM      3  C3  BZF d   1      -2.149  -0.379  -6.000  0.00  0.00    -0.012 A 
ATOM      4  C3A BZF d   1      -3.345  -1.164  -5.952  0.00  0.00    -0.107 A 
ATOM      5  C4  BZF d   1      -4.674  -0.851  -5.947  0.00  0.00     0.055 A 
ATOM      6  C5  BZF d   1      -5.589  -1.855  -5.968  0.00  0.00    -0.016 A 
ATOM      7  C6  BZF d   1      -5.211  -3.181  -5.999  0.00  0.00     0.022 A 
ATOM      8  C7  BZF d   1      -3.904  -3.541  -6.000  0.00  0.00     0.029 A 
ATOM      9  C7A BZF d   1      -2.977  -2.529  -5.945  0.00  0.00     0.058 A 
ENDROOT
TORSDOF 0
ENDMDL
