MODEL 1
REMARK minimizedAffinity 3.14148331
REMARK minimizedRMSD -1
REMARK  0 active torsions:
REMARK  status: ('A' for Active; 'I' for Inactive)
ROOT
ATOM      1  O1  BZF d   1      -3.798   2.701   2.181  0.00  0.00    -0.204 OA
ATOM      2  C2  BZF d   1      -2.994   1.609   1.913  0.00  0.00     0.174 A 
ATOM      3  C3  BZF d   1      -3.080   0.697   2.903  0.00  0.00    -0.012 A 
ATOM      4  C3A BZF d   1      -4.066   1.211   3.804  0.00  0.00    -0.107 A 
ATOM      5  C4  BZF d   1      -4.602   0.750   4.971  0.00  0.00     0.055 A 
ATOM      6  C5  BZF d   1      -5.491   1.527   5.643  0.00  0.00    -0.016 A 
ATOM      7  C6  BZF d   1      -5.862   2.772   5.179  0.00  0.00     0.022 A 
ATOM      8  C7  BZF d   1      -5.361   3.271   4.023  0.00  0.00     0.029 A 
ATOM      9  C7A BZF d   1      -4.487   2.474   3.325  0.00  0.00     0.058 A 
ENDROOT
TORSDOF 0
ENDMDL
