MODEL 1
REMARK minimizedAffinity 4.91093397
REMARK minimizedRMSD -1
REMARK  0 active torsions:
REMARK  status: ('A' for Active; 'I' for Inactive)
ROOT
ATOM      1  O1  BZF d   1      -2.038  -3.939  -6.000  0.00  0.00    -0.204 OA
ATOM      2  C2  BZF d   1      -3.319  -4.457  -6.000  0.00  0.00     0.174 A 
ATOM      3  C3  BZF d   1      -4.230  -3.478  -5.823  0.00  0.00    -0.012 A 
ATOM      4  C3A BZF d   1      -3.476  -2.262  -5.798  0.00  0.00    -0.107 A 
ATOM      5  C4  BZF d   1      -3.820  -0.947  -5.666  0.00  0.00     0.055 A 
ATOM      6  C5  BZF d   1      -2.837  -0.010  -5.608  0.00  0.00    -0.016 A 
ATOM      7  C6  BZF d   1      -1.503  -0.353  -5.673  0.00  0.00     0.022 A 
ATOM      8  C7  BZF d   1      -1.113  -1.644  -5.809  0.00  0.00     0.029 A 
ATOM      9  C7A BZF d   1      -2.104  -2.590  -5.901  0.00  0.00     0.058 A 
ENDROOT
TORSDOF 0
ENDMDL
