MODEL 1
REMARK minimizedAffinity 3.00379038
REMARK minimizedRMSD -1
REMARK  0 active torsions:
REMARK  status: ('A' for Active; 'I' for Inactive)
ROOT
ATOM      1  O1  BZF d   1      -4.379   2.044   1.871  0.00  0.00    -0.204 OA
ATOM      2  C2  BZF d   1      -3.697   1.053   1.192  0.00  0.00     0.174 A 
ATOM      3  C3  BZF d   1      -3.546  -0.041   1.967  0.00  0.00    -0.012 A 
ATOM      4  C3A BZF d   1      -4.253   0.254   3.175  0.00  0.00    -0.107 A 
ATOM      5  C4  BZF d   1      -4.480  -0.448   4.325  0.00  0.00     0.055 A 
ATOM      6  C5  BZF d   1      -5.148   0.153   5.344  0.00  0.00    -0.016 A 
ATOM      7  C6  BZF d   1      -5.598   1.454   5.251  0.00  0.00     0.022 A 
ATOM      8  C7  BZF d   1      -5.400   2.188   4.129  0.00  0.00     0.029 A 
ATOM      9  C7A BZF d   1      -4.755   1.573   3.084  0.00  0.00     0.058 A 
ENDROOT
TORSDOF 0
ENDMDL
