MODEL 1
REMARK minimizedAffinity 14.7368851
REMARK minimizedRMSD -1
REMARK  0 active torsions:
REMARK  status: ('A' for Active; 'I' for Inactive)
ROOT
ATOM      1  O1  BZF d   1      -3.405  -3.452  -6.000  0.00  0.00    -0.204 OA
ATOM      2  C2  BZF d   1      -4.591  -2.743  -6.000  0.00  0.00     0.174 A 
ATOM      3  C3  BZF d   1      -4.356  -1.418  -5.919  0.00  0.00    -0.012 A 
ATOM      4  C3A BZF d   1      -2.932  -1.285  -5.959  0.00  0.00    -0.107 A 
ATOM      5  C4  BZF d   1      -2.088  -0.212  -5.931  0.00  0.00     0.055 A 
ATOM      6  C5  BZF d   1      -0.746  -0.427  -5.911  0.00  0.00    -0.016 A 
ATOM      7  C6  BZF d   1      -0.215  -1.700  -5.913  0.00  0.00     0.022 A 
ATOM      8  C7  BZF d   1      -1.012  -2.795  -5.946  0.00  0.00     0.029 A 
ATOM      9  C7A BZF d   1      -2.368  -2.581  -5.999  0.00  0.00     0.058 A 
ENDROOT
TORSDOF 0
ENDMDL
