MODEL 1
REMARK minimizedAffinity -2.38085103
REMARK minimizedRMSD -1
REMARK  0 active torsions:
REMARK  status: ('A' for Active; 'I' for Inactive)
ROOT
ATOM      1  O1  BZF d   1      -2.013  -2.974  -5.975  0.00  0.00    -0.204 OA
ATOM      2  C2  BZF d   1      -1.526  -1.681  -5.959  0.00  0.00     0.174 A 
ATOM      3  C3  BZF d   1      -2.537  -0.789  -6.000  0.00  0.00    -0.012 A 
ATOM      4  C3A BZF d   1      -3.733  -1.573  -5.950  0.00  0.00    -0.107 A 
ATOM      5  C4  BZF d   1      -5.062  -1.259  -5.943  0.00  0.00     0.055 A 
ATOM      6  C5  BZF d   1      -5.978  -2.262  -5.963  0.00  0.00    -0.016 A 
ATOM      7  C6  BZF d   1      -5.601  -3.589  -5.997  0.00  0.00     0.022 A 
ATOM      8  C7  BZF d   1      -4.295  -3.950  -6.000  0.00  0.00     0.029 A 
ATOM      9  C7A BZF d   1      -3.367  -2.939  -5.946  0.00  0.00     0.058 A 
ENDROOT
TORSDOF 0
ENDMDL
