MODEL 1
REMARK minimizedAffinity 1.92575467
REMARK minimizedRMSD -1
REMARK  0 active torsions:
REMARK  status: ('A' for Active; 'I' for Inactive)
ROOT
ATOM      1  O1  BZF d   1       5.781  -2.785   5.999  0.00  0.00    -0.204 OA
ATOM      2  C2  BZF d   1       6.000  -4.149   6.000  0.00  0.00     0.174 A 
ATOM      3  C3  BZF d   1       5.875  -4.654   4.755  0.00  0.00    -0.012 A 
ATOM      4  C3A BZF d   1       5.649  -3.521   3.910  0.00  0.00    -0.107 A 
ATOM      5  C4  BZF d   1       5.463  -3.375   2.565  0.00  0.00     0.055 A 
ATOM      6  C5  BZF d   1       5.195  -2.141   2.066  0.00  0.00    -0.016 A 
ATOM      7  C6  BZF d   1       5.101  -1.032   2.881  0.00  0.00     0.022 A 
ATOM      8  C7  BZF d   1       5.283  -1.126   4.221  0.00  0.00     0.029 A 
ATOM      9  C7A BZF d   1       5.587  -2.367   4.725  0.00  0.00     0.058 A 
ENDROOT
TORSDOF 0
ENDMDL
