MODEL 1
REMARK minimizedAffinity 4.52690458
REMARK minimizedRMSD -1
REMARK  0 active torsions:
REMARK  status: ('A' for Active; 'I' for Inactive)
ROOT
ATOM      1  O1  BZF d   1      -3.104  -3.365  -5.961  0.00  0.00    -0.204 OA
ATOM      2  C2  BZF d   1      -4.425  -2.962  -5.999  0.00  0.00     0.174 A 
ATOM      3  C3  BZF d   1      -4.528  -1.639  -5.758  0.00  0.00    -0.012 A 
ATOM      4  C3A BZF d   1      -3.181  -1.170  -5.648  0.00  0.00    -0.107 A 
ATOM      5  C4  BZF d   1      -2.630   0.060  -5.427  0.00  0.00     0.055 A 
ATOM      6  C5  BZF d   1      -1.281   0.166  -5.303  0.00  0.00    -0.016 A 
ATOM      7  C6  BZF d   1      -0.454  -0.935  -5.388  0.00  0.00     0.022 A 
ATOM      8  C7  BZF d   1      -0.954  -2.175  -5.611  0.00  0.00     0.029 A 
ATOM      9  C7A BZF d   1      -2.314  -2.281  -5.770  0.00  0.00     0.058 A 
ENDROOT
TORSDOF 0
ENDMDL
