MODEL 1
REMARK minimizedAffinity 6.84000731
REMARK minimizedRMSD -1
REMARK  0 active torsions:
REMARK  status: ('A' for Active; 'I' for Inactive)
ROOT
ATOM      1  O1  BZF d   1      -1.653  -2.698  -5.986  0.00  0.00    -0.204 OA
ATOM      2  C2  BZF d   1      -1.036  -1.462  -5.969  0.00  0.00     0.174 A 
ATOM      3  C3  BZF d   1      -1.950  -0.471  -6.000  0.00  0.00    -0.012 A 
ATOM      4  C3A BZF d   1      -3.220  -1.128  -5.946  0.00  0.00    -0.107 A 
ATOM      5  C4  BZF d   1      -4.510  -0.679  -5.929  0.00  0.00     0.055 A 
ATOM      6  C5  BZF d   1      -5.524  -1.583  -5.948  0.00  0.00    -0.016 A 
ATOM      7  C6  BZF d   1      -5.286  -2.941  -5.988  0.00  0.00     0.022 A 
ATOM      8  C7  BZF d   1      -4.023  -3.434  -6.000  0.00  0.00     0.029 A 
ATOM      9  C7A BZF d   1      -2.996  -2.524  -5.948  0.00  0.00     0.058 A 
ENDROOT
TORSDOF 0
ENDMDL
