MODEL 1
REMARK minimizedAffinity 2.8033483
REMARK minimizedRMSD -1
REMARK  0 active torsions:
REMARK  status: ('A' for Active; 'I' for Inactive)
ROOT
ATOM      1  O1  BZF d   1      -2.366  -4.206  -5.964  0.00  0.00    -0.204 OA
ATOM      2  C2  BZF d   1      -3.697  -4.575  -5.959  0.00  0.00     0.174 A 
ATOM      3  C3  BZF d   1      -4.494  -3.488  -5.909  0.00  0.00    -0.012 A 
ATOM      4  C3A BZF d   1      -3.607  -2.367  -5.975  0.00  0.00    -0.107 A 
ATOM      5  C4  BZF d   1      -3.801  -1.016  -5.983  0.00  0.00     0.055 A 
ATOM      6  C5  BZF d   1      -2.719  -0.193  -5.981  0.00  0.00    -0.016 A 
ATOM      7  C6  BZF d   1      -1.432  -0.688  -5.966  0.00  0.00     0.022 A 
ATOM      8  C7  BZF d   1      -1.189  -2.021  -5.963  0.00  0.00     0.029 A 
ATOM      9  C7A BZF d   1      -2.280  -2.855  -5.998  0.00  0.00     0.058 A 
ENDROOT
TORSDOF 0
ENDMDL
