MODEL 1
REMARK minimizedAffinity 5.55992365
REMARK minimizedRMSD -1
REMARK  0 active torsions:
REMARK  status: ('A' for Active; 'I' for Inactive)
ROOT
ATOM      1  O1  BZF d   1      -2.523  -3.128  -5.956  0.00  0.00    -0.204 OA
ATOM      2  C2  BZF d   1      -3.000  -4.424  -5.984  0.00  0.00     0.174 A 
ATOM      3  C3  BZF d   1      -4.348  -4.439  -5.950  0.00  0.00    -0.012 A 
ATOM      4  C3A BZF d   1      -4.740  -3.064  -5.991  0.00  0.00    -0.107 A 
ATOM      5  C4  BZF d   1      -5.952  -2.433  -5.999  0.00  0.00     0.055 A 
ATOM      6  C5  BZF d   1      -5.989  -1.075  -5.969  0.00  0.00    -0.016 A 
ATOM      7  C6  BZF d   1      -4.837  -0.317  -5.925  0.00  0.00     0.022 A 
ATOM      8  C7  BZF d   1      -3.612  -0.898  -5.921  0.00  0.00     0.029 A 
ATOM      9  C7A BZF d   1      -3.571  -2.269  -5.984  0.00  0.00     0.058 A 
ENDROOT
TORSDOF 0
ENDMDL
