MODEL 1
REMARK minimizedAffinity 3.12796926
REMARK minimizedRMSD -1
REMARK  0 active torsions:
REMARK  status: ('A' for Active; 'I' for Inactive)
ROOT
ATOM      1  O1  BZF d   1      -1.047  -2.615  -5.621  0.00  0.00    -0.204 OA
ATOM      2  C2  BZF d   1      -0.396  -1.479  -5.179  0.00  0.00     0.174 A 
ATOM      3  C3  BZF d   1      -1.275  -0.483  -4.947  0.00  0.00    -0.012 A 
ATOM      4  C3A BZF d   1      -2.565  -1.059  -5.174  0.00  0.00    -0.107 A 
ATOM      5  C4  BZF d   1      -3.838  -0.573  -5.089  0.00  0.00     0.055 A 
ATOM      6  C5  BZF d   1      -4.876  -1.373  -5.449  0.00  0.00    -0.016 A 
ATOM      7  C6  BZF d   1      -4.676  -2.661  -5.902  0.00  0.00     0.022 A 
ATOM      8  C7  BZF d   1      -3.432  -3.189  -5.999  0.00  0.00     0.029 A 
ATOM      9  C7A BZF d   1      -2.383  -2.394  -5.605  0.00  0.00     0.058 A 
ENDROOT
TORSDOF 0
ENDMDL
