MODEL 1
REMARK minimizedAffinity 7.68408203
REMARK minimizedRMSD -1
REMARK  0 active torsions:
REMARK  status: ('A' for Active; 'I' for Inactive)
ROOT
ATOM      1  O1  BZF d   1      -5.106   2.231   3.798  0.00  0.00    -0.204 OA
ATOM      2  C2  BZF d   1      -5.619   1.477   4.837  0.00  0.00     0.174 A 
ATOM      3  C3  BZF d   1      -5.982   2.267   5.868  0.00  0.00    -0.012 A 
ATOM      4  C3A BZF d   1      -5.763   3.605   5.412  0.00  0.00    -0.107 A 
ATOM      5  C4  BZF d   1      -5.951   4.833   5.979  0.00  0.00     0.055 A 
ATOM      6  C5  BZF d   1      -5.568   5.943   5.295  0.00  0.00    -0.016 A 
ATOM      7  C6  BZF d   1      -4.991   5.861   4.045  0.00  0.00     0.022 A 
ATOM      8  C7  BZF d   1      -4.788   4.666   3.439  0.00  0.00     0.029 A 
ATOM      9  C7A BZF d   1      -5.204   3.545   4.114  0.00  0.00     0.058 A 
ENDROOT
TORSDOF 0
ENDMDL
