MODEL 1
REMARK minimizedAffinity 3.10222435
REMARK minimizedRMSD -1
REMARK  0 active torsions:
REMARK  status: ('A' for Active; 'I' for Inactive)
ROOT
ATOM      1  O1  BZF d   1      -1.431  -3.139  -5.968  0.00  0.00    -0.204 OA
ATOM      2  C2  BZF d   1      -2.502  -4.011  -5.947  0.00  0.00     0.174 A 
ATOM      3  C3  BZF d   1      -3.668  -3.335  -5.884  0.00  0.00    -0.012 A 
ATOM      4  C3A BZF d   1      -3.306  -1.953  -5.958  0.00  0.00    -0.107 A 
ATOM      5  C4  BZF d   1      -4.026  -0.793  -5.959  0.00  0.00     0.055 A 
ATOM      6  C5  BZF d   1      -3.366   0.395  -5.969  0.00  0.00    -0.016 A 
ATOM      7  C6  BZF d   1      -1.988   0.459  -5.972  0.00  0.00     0.022 A 
ATOM      8  C7  BZF d   1      -1.230  -0.665  -5.976  0.00  0.00     0.029 A 
ATOM      9  C7A BZF d   1      -1.895  -1.866  -6.000  0.00  0.00     0.058 A 
ENDROOT
TORSDOF 0
ENDMDL
