MODEL 1
REMARK minimizedAffinity 9.14646435
REMARK minimizedRMSD -1
REMARK  0 active torsions:
REMARK  status: ('A' for Active; 'I' for Inactive)
ROOT
ATOM      1  C   UNL d   1       1.265   0.158  -4.602  0.00  0.00    -0.002 A 
ATOM      2  C1  UNL d   1       1.238  -0.939  -5.451  0.00  0.00     0.010 A 
ATOM      3  C2  UNL d   1       0.499  -2.076  -5.119  0.00  0.00     0.041 A 
ATOM      4  C3  UNL d   1      -0.222  -2.091  -3.908  0.00  0.00    -0.075 A 
ATOM      5  S   UNL d   1      -1.197  -3.374  -3.295  0.00  0.00     0.015 SA
ATOM      6  C4  UNL d   1      -1.602  -2.495  -1.892  0.00  0.00     0.022 A 
ATOM      7  C5  UNL d   1      -1.016  -1.251  -1.876  0.00  0.00     0.026 A 
ATOM      8  C6  UNL d   1      -0.211  -0.998  -3.038  0.00  0.00    -0.082 A 
ATOM      9  C7  UNL d   1       0.549   0.140  -3.402  0.00  0.00     0.045 A 
ENDROOT
TORSDOF 0
ENDMDL
