MODEL 1
REMARK minimizedAffinity 8.47437191
REMARK minimizedRMSD -1
REMARK  0 active torsions:
REMARK  status: ('A' for Active; 'I' for Inactive)
ROOT
ATOM      1  C   UNL d   1      -2.084   0.944   1.841  0.00  0.00    -0.002 A 
ATOM      2  C1  UNL d   1      -2.138  -0.300   1.230  0.00  0.00     0.010 A 
ATOM      3  C2  UNL d   1      -1.158  -1.261   1.486  0.00  0.00     0.041 A 
ATOM      4  C3  UNL d   1      -0.113  -0.948   2.377  0.00  0.00    -0.075 A 
ATOM      5  S   UNL d   1       1.196  -1.967   2.844  0.00  0.00     0.015 SA
ATOM      6  C4  UNL d   1       1.859  -0.775   3.866  0.00  0.00     0.022 A 
ATOM      7  C5  UNL d   1       1.112   0.379   3.863  0.00  0.00     0.026 A 
ATOM      8  C6  UNL d   1      -0.037   0.299   3.006  0.00  0.00    -0.082 A 
ATOM      9  C7  UNL d   1      -1.046   1.252   2.725  0.00  0.00     0.045 A 
ENDROOT
TORSDOF 0
ENDMDL
