MODEL 1
REMARK minimizedAffinity 8.94551849
REMARK minimizedRMSD -1
REMARK  0 active torsions:
REMARK  status: ('A' for Active; 'I' for Inactive)
ROOT
ATOM      1  C   UNL d   1      -1.869  -5.226  -5.614  0.00  0.00    -0.002 A 
ATOM      2  C1  UNL d   1      -1.908  -5.664  -4.298  0.00  0.00     0.010 A 
ATOM      3  C2  UNL d   1      -1.526  -4.817  -3.256  0.00  0.00     0.041 A 
ATOM      4  C3  UNL d   1      -1.102  -3.509  -3.562  0.00  0.00    -0.075 A 
ATOM      5  S   UNL d   1      -0.588  -2.296  -2.449  0.00  0.00     0.015 SA
ATOM      6  C4  UNL d   1      -0.305  -1.168  -3.695  0.00  0.00     0.022 A 
ATOM      7  C5  UNL d   1      -0.590  -1.687  -4.936  0.00  0.00     0.026 A 
ATOM      8  C6  UNL d   1      -1.054  -3.045  -4.879  0.00  0.00    -0.082 A 
ATOM      9  C7  UNL d   1      -1.447  -3.928  -5.914  0.00  0.00     0.045 A 
ENDROOT
TORSDOF 0
ENDMDL
