MODEL 1
REMARK minimizedAffinity 15.434164
REMARK minimizedRMSD -1
REMARK  0 active torsions:
REMARK  status: ('A' for Active; 'I' for Inactive)
ROOT
ATOM      1  C   UNL d   1      -1.069  -1.760  -2.166  0.00  0.00    -0.002 A 
ATOM      2  C1  UNL d   1      -0.214  -2.410  -1.287  0.00  0.00     0.010 A 
ATOM      3  C2  UNL d   1       1.171  -2.316  -1.445  0.00  0.00     0.041 A 
ATOM      4  C3  UNL d   1       1.685  -1.550  -2.510  0.00  0.00    -0.075 A 
ATOM      5  S   UNL d   1       3.345  -1.293  -2.898  0.00  0.00     0.015 SA
ATOM      6  C4  UNL d   1       2.957  -0.314  -4.238  0.00  0.00     0.022 A 
ATOM      7  C5  UNL d   1       1.599  -0.177  -4.400  0.00  0.00     0.026 A 
ATOM      8  C6  UNL d   1       0.843  -0.886  -3.407  0.00  0.00    -0.082 A 
ATOM      9  C7  UNL d   1      -0.555  -1.001  -3.220  0.00  0.00     0.045 A 
ENDROOT
TORSDOF 0
ENDMDL
