MODEL 1
REMARK minimizedAffinity 10.7030802
REMARK minimizedRMSD -1
REMARK  0 active torsions:
REMARK  status: ('A' for Active; 'I' for Inactive)
ROOT
ATOM      1  C   UNL d   1       1.881  -1.814   3.240  0.00  0.00    -0.002 A 
ATOM      2  C1  UNL d   1       2.616  -0.643   3.358  0.00  0.00     0.010 A 
ATOM      3  C2  UNL d   1       3.792  -0.616   4.110  0.00  0.00     0.041 A 
ATOM      4  C3  UNL d   1       4.222  -1.797   4.746  0.00  0.00    -0.075 A 
ATOM      5  S   UNL d   1       5.631  -2.000   5.718  0.00  0.00     0.015 SA
ATOM      6  C4  UNL d   1       5.291  -3.647   5.998  0.00  0.00     0.022 A 
ATOM      7  C5  UNL d   1       4.135  -4.048   5.373  0.00  0.00     0.026 A 
ATOM      8  C6  UNL d   1       3.499  -2.989   4.641  0.00  0.00    -0.082 A 
ATOM      9  C7  UNL d   1       2.311  -2.984   3.872  0.00  0.00     0.045 A 
ENDROOT
TORSDOF 0
ENDMDL
