MODEL 1
REMARK minimizedAffinity 13.1728916
REMARK minimizedRMSD -1
REMARK  0 active torsions:
REMARK  status: ('A' for Active; 'I' for Inactive)
ROOT
ATOM      1  C   UNL d   1      -2.269  -6.000  -4.996  0.00  0.00    -0.002 A 
ATOM      2  C1  UNL d   1      -1.897  -5.112  -5.996  0.00  0.00     0.010 A 
ATOM      3  C2  UNL d   1      -1.588  -3.786  -5.688  0.00  0.00     0.041 A 
ATOM      4  C3  UNL d   1      -1.659  -3.363  -4.346  0.00  0.00    -0.075 A 
ATOM      5  S   UNL d   1      -1.324  -1.786  -3.734  0.00  0.00     0.015 SA
ATOM      6  C4  UNL d   1      -1.667  -2.254  -2.132  0.00  0.00     0.022 A 
ATOM      7  C5  UNL d   1      -2.029  -3.578  -2.047  0.00  0.00     0.026 A 
ATOM      8  C6  UNL d   1      -2.030  -4.239  -3.322  0.00  0.00    -0.082 A 
ATOM      9  C7  UNL d   1      -2.338  -5.577  -3.666  0.00  0.00     0.045 A 
ENDROOT
TORSDOF 0
ENDMDL
