MODEL 1
REMARK minimizedAffinity 18.1690331
REMARK minimizedRMSD -1
REMARK  0 active torsions:
REMARK  status: ('A' for Active; 'I' for Inactive)
ROOT
ATOM      1  C   UNL d   1       3.701   1.470   2.983  0.00  0.00    -0.002 A 
ATOM      2  C1  UNL d   1       4.819   1.176   3.751  0.00  0.00     0.010 A 
ATOM      3  C2  UNL d   1       5.013  -0.108   4.262  0.00  0.00     0.041 A 
ATOM      4  C3  UNL d   1       4.055  -1.104   3.984  0.00  0.00    -0.075 A 
ATOM      5  S   UNL d   1       4.084  -2.747   4.503  0.00  0.00     0.015 SA
ATOM      6  C4  UNL d   1       2.613  -3.099   3.718  0.00  0.00     0.022 A 
ATOM      7  C5  UNL d   1       2.098  -2.001   3.071  0.00  0.00     0.026 A 
ATOM      8  C6  UNL d   1       2.921  -0.833   3.213  0.00  0.00    -0.082 A 
ATOM      9  C7  UNL d   1       2.753   0.480   2.710  0.00  0.00     0.045 A 
ENDROOT
TORSDOF 0
ENDMDL
