MODEL 1
REMARK minimizedAffinity 2.64845562
REMARK minimizedRMSD -1
REMARK  0 active torsions:
REMARK  status: ('A' for Active; 'I' for Inactive)
ROOT
ATOM      1  N1  IND d   1      -2.204  -0.568   2.575  0.00  0.00    -0.196 N 
ATOM      2  C2  IND d   1      -3.032   0.029   1.666  0.00  0.00     0.054 A 
ATOM      3  C3  IND d   1      -2.396   0.187   0.483  0.00  0.00    -0.031 A 
ATOM      4  C4  IND d   1      -0.031  -0.553  -0.213  0.00  0.00     0.051 A 
ATOM      5  C5  IND d   1       1.115  -1.106   0.285  0.00  0.00    -0.031 A 
ATOM      6  C6  IND d   1       1.215  -1.518   1.598  0.00  0.00     0.015 A 
ATOM      7  C7  IND d   1       0.163  -1.403   2.463  0.00  0.00    -0.016 A 
ATOM      8  C8  IND d   1      -1.000  -0.836   1.962  0.00  0.00    -0.047 A 
ATOM      9  C9  IND d   1      -1.093  -0.377   0.642  0.00  0.00    -0.096 A 
ATOM     10  HN1 IND d   1      -2.402  -0.746   3.393  0.00  0.00     0.298 HD
ENDROOT
TORSDOF 0
ENDMDL
