MODEL 1
REMARK minimizedAffinity -1.04899228
REMARK minimizedRMSD -1
REMARK  0 active torsions:
REMARK  status: ('A' for Active; 'I' for Inactive)
ROOT
ATOM      1  N1  IND d   1       2.646   5.995   5.413  0.00  0.00    -0.196 N 
ATOM      2  C2  IND d   1       1.415   5.990   4.820  0.00  0.00     0.054 A 
ATOM      3  C3  IND d   1       1.540   5.998   3.474  0.00  0.00    -0.031 A 
ATOM      4  C4  IND d   1       3.670   5.918   2.030  0.00  0.00     0.051 A 
ATOM      5  C5  IND d   1       5.034   5.949   2.119  0.00  0.00    -0.031 A 
ATOM      6  C6  IND d   1       5.684   5.994   3.335  0.00  0.00     0.015 A 
ATOM      7  C7  IND d   1       4.993   6.000   4.513  0.00  0.00    -0.016 A 
ATOM      8  C8  IND d   1       3.608   5.976   4.427  0.00  0.00    -0.047 A 
ATOM      9  C9  IND d   1       2.941   5.972   3.195  0.00  0.00    -0.096 A 
ATOM     10  HN1 IND d   1       2.796   6.007   6.260  0.00  0.00     0.298 HD
ENDROOT
TORSDOF 0
ENDMDL
