MODEL 1
REMARK minimizedAffinity 3.71711278
REMARK minimizedRMSD -1
REMARK  0 active torsions:
REMARK  status: ('A' for Active; 'I' for Inactive)
ROOT
ATOM      1  N1  IND d   1       0.952  -1.041  -0.129  0.00  0.00    -0.196 N 
ATOM      2  C2  IND d   1       1.539  -0.996   1.105  0.00  0.00     0.054 A 
ATOM      3  C3  IND d   1       0.612  -0.747   2.057  0.00  0.00    -0.031 A 
ATOM      4  C4  IND d   1      -1.938  -0.479   1.827  0.00  0.00     0.051 A 
ATOM      5  C5  IND d   1      -2.934  -0.404   0.894  0.00  0.00    -0.031 A 
ATOM      6  C6  IND d   1      -2.680  -0.544  -0.456  0.00  0.00     0.015 A 
ATOM      7  C7  IND d   1      -1.417  -0.775  -0.923  0.00  0.00    -0.016 A 
ATOM      8  C8  IND d   1      -0.403  -0.845   0.022  0.00  0.00    -0.047 A 
ATOM      9  C9  IND d   1      -0.648  -0.662   1.389  0.00  0.00    -0.096 A 
ATOM     10  HN1 IND d   1       1.361  -1.170  -0.875  0.00  0.00     0.298 HD
ENDROOT
TORSDOF 0
ENDMDL
