MODEL 1
REMARK minimizedAffinity -3.63587427
REMARK minimizedRMSD -1
REMARK  0 active torsions:
REMARK  status: ('A' for Active; 'I' for Inactive)
ROOT
ATOM      1  N1  IND d   1       4.754   5.959   4.110  0.00  0.00    -0.196 N 
ATOM      2  C2  IND d   1       4.731   5.927   2.744  0.00  0.00     0.054 A 
ATOM      3  C3  IND d   1       3.456   5.898   2.296  0.00  0.00    -0.031 A 
ATOM      4  C4  IND d   1       1.253   6.000   3.623  0.00  0.00     0.051 A 
ATOM      5  C5  IND d   1       0.763   6.000   4.899  0.00  0.00    -0.031 A 
ATOM      6  C6  IND d   1       1.596   5.989   6.000  0.00  0.00     0.015 A 
ATOM      7  C7  IND d   1       2.955   5.989   5.865  0.00  0.00    -0.016 A 
ATOM      8  C8  IND d   1       3.456   5.981   4.570  0.00  0.00    -0.047 A 
ATOM      9  C9  IND d   1       2.616   5.950   3.450  0.00  0.00    -0.096 A 
ATOM     10  HN1 IND d   1       5.461   5.964   4.600  0.00  0.00     0.298 HD
ENDROOT
TORSDOF 0
ENDMDL
