MODEL 1
REMARK minimizedAffinity 3.44189763
REMARK minimizedRMSD -1
REMARK  1 active torsions:
REMARK  status: ('A' for Active; 'I' for Inactive)
REMARK    1  A    between atoms: C1_2  and  C2_3 
ROOT
ATOM      1  C2  UNL d   1       2.037   0.915  -0.617  0.00  0.00    -0.073 A 
ATOM      2  C3  UNL d   1       2.221   2.295  -0.752  0.00  0.00    -0.002 A 
ATOM      3  C4  UNL d   1       3.460   2.872  -0.466  0.00  0.00     0.004 A 
ATOM      4  C5  UNL d   1       4.526   2.076  -0.050  0.00  0.00    -0.004 A 
ATOM      5  C6  UNL d   1       4.365   0.692   0.079  0.00  0.00    -0.075 A 
ATOM      6  C7  UNL d   1       5.502  -0.178   0.527  0.00  0.00     0.076 C 
ATOM      7  C8  UNL d   1       3.118   0.121  -0.207  0.00  0.00     0.001 A 
ENDROOT
BRANCH   1   8
ATOM      8  C1  UNL d   1       0.704   0.286  -0.931  0.00  0.00     0.053 C 
ATOM      9  C   UNL d   1      -0.338   0.601   0.131  0.00  0.00     0.018 C 
ENDBRANCH   1   8
TORSDOF 1
ENDMDL
