MODEL 1
REMARK minimizedAffinity 10.9384451
REMARK minimizedRMSD -1
REMARK  1 active torsions:
REMARK  status: ('A' for Active; 'I' for Inactive)
REMARK    1  A    between atoms: C1_2  and  C2_3 
ROOT
ATOM      1  C2  UNL d   1       3.295  -0.088  -0.265  0.00  0.00    -0.073 A 
ATOM      2  C3  UNL d   1       4.046   1.068  -0.022  0.00  0.00    -0.002 A 
ATOM      3  C4  UNL d   1       5.390   0.972   0.338  0.00  0.00     0.004 A 
ATOM      4  C5  UNL d   1       6.000  -0.277   0.451  0.00  0.00    -0.004 A 
ATOM      5  C6  UNL d   1       5.270  -1.443   0.200  0.00  0.00    -0.075 A 
ATOM      6  C7  UNL d   1       5.910  -2.795   0.319  0.00  0.00     0.076 C 
ATOM      7  C8  UNL d   1       3.919  -1.339  -0.158  0.00  0.00     0.001 A 
ENDROOT
BRANCH   1   8
ATOM      8  C1  UNL d   1       1.844   0.010  -0.661  0.00  0.00     0.053 C 
ATOM      9  C   UNL d   1       1.671   0.150  -2.165  0.00  0.00     0.018 C 
ENDBRANCH   1   8
TORSDOF 1
ENDMDL
