MODEL 1
REMARK minimizedAffinity 5.22739887
REMARK minimizedRMSD -1
REMARK  1 active torsions:
REMARK  status: ('A' for Active; 'I' for Inactive)
REMARK    1  A    between atoms: C1_2  and  C2_3 
ROOT
ATOM      1  C2  UNL d   1      -0.117  -0.859   2.598  0.00  0.00    -0.073 A 
ATOM      2  C3  UNL d   1      -0.884  -1.923   2.109  0.00  0.00    -0.002 A 
ATOM      3  C4  UNL d   1      -2.278  -1.849   2.118  0.00  0.00     0.004 A 
ATOM      4  C5  UNL d   1      -2.918  -0.711   2.608  0.00  0.00    -0.004 A 
ATOM      5  C6  UNL d   1      -2.169   0.367   3.090  0.00  0.00    -0.075 A 
ATOM      6  C7  UNL d   1      -2.842   1.597   3.622  0.00  0.00     0.076 C 
ATOM      7  C8  UNL d   1      -0.770   0.285   3.081  0.00  0.00     0.001 A 
ENDROOT
BRANCH   1   8
ATOM      8  C1  UNL d   1       1.388  -0.931   2.585  0.00  0.00     0.053 C 
ATOM      9  C   UNL d   1       1.911  -1.700   1.383  0.00  0.00     0.018 C 
ENDBRANCH   1   8
TORSDOF 1
ENDMDL
