MODEL 1
REMARK minimizedAffinity -3.73915529
REMARK minimizedRMSD -1
REMARK  1 active torsions:
REMARK  status: ('A' for Active; 'I' for Inactive)
REMARK    1  A    between atoms: C1_2  and  C2_3 
ROOT
ATOM      1  C2  UNL d   1       0.585  -0.872   0.700  0.00  0.00    -0.073 A 
ATOM      2  C3  UNL d   1      -0.152  -0.906   1.889  0.00  0.00    -0.002 A 
ATOM      3  C4  UNL d   1      -0.028  -1.987   2.764  0.00  0.00     0.004 A 
ATOM      4  C5  UNL d   1       0.836  -3.039   2.462  0.00  0.00    -0.004 A 
ATOM      5  C6  UNL d   1       1.590  -3.017   1.284  0.00  0.00    -0.075 A 
ATOM      6  C7  UNL d   1       2.523  -4.142   0.943  0.00  0.00     0.076 C 
ATOM      7  C8  UNL d   1       1.458  -1.930   0.409  0.00  0.00     0.001 A 
ENDROOT
BRANCH   1   8
ATOM      8  C1  UNL d   1       0.459   0.296  -0.244  0.00  0.00     0.053 C 
ATOM      9  C   UNL d   1      -0.752   1.158   0.073  0.00  0.00     0.018 C 
ENDBRANCH   1   8
TORSDOF 1
ENDMDL
