MODEL 1
REMARK minimizedAffinity 7.04864693
REMARK minimizedRMSD -1
REMARK  0 active torsions:
REMARK  status: ('A' for Active; 'I' for Inactive)
ROOT
ATOM      1  C2' OXE d   1      -1.452   3.326  -1.804  0.00  0.00     0.078 C 
ATOM      2  C1' OXE d   1       0.303   1.147  -1.579  0.00  0.00     0.078 C 
ATOM      3  C1  OXE d   1      -0.071   1.882  -0.316  0.00  0.00    -0.078 A 
ATOM      4  C2  OXE d   1      -0.893   2.976  -0.441  0.00  0.00    -0.078 A 
ATOM      5  C3  OXE d   1      -1.312   3.657   0.698  0.00  0.00     0.003 A 
ATOM      6  C4  OXE d   1      -0.782   3.333   1.953  0.00  0.00    -0.002 A 
ATOM      7  C5  OXE d   1       0.088   2.247   2.097  0.00  0.00    -0.002 A 
ATOM      8  C6  OXE d   1       0.419   1.487   0.981  0.00  0.00     0.003 A 
ENDROOT
TORSDOF 0
ENDMDL
