MODEL 1
REMARK minimizedAffinity 5.13895941
REMARK minimizedRMSD -1
REMARK  0 active torsions:
REMARK  status: ('A' for Active; 'I' for Inactive)
ROOT
ATOM      1  C2' OXE d   1       5.802  -2.292  -1.860  0.00  0.00     0.078 C 
ATOM      2  C1' OXE d   1       4.703  -4.790  -1.203  0.00  0.00     0.078 C 
ATOM      3  C1  OXE d   1       3.807  -3.581  -1.111  0.00  0.00    -0.078 A 
ATOM      4  C2  OXE d   1       4.366  -2.356  -1.389  0.00  0.00    -0.078 A 
ATOM      5  C3  OXE d   1       3.569  -1.215  -1.371  0.00  0.00     0.003 A 
ATOM      6  C4  OXE d   1       2.244  -1.282  -0.925  0.00  0.00    -0.002 A 
ATOM      7  C5  OXE d   1       1.666  -2.514  -0.599  0.00  0.00    -0.002 A 
ATOM      8  C6  OXE d   1       2.420  -3.675  -0.727  0.00  0.00     0.003 A 
ENDROOT
TORSDOF 0
ENDMDL
