MODEL 1
REMARK minimizedAffinity -0.147254005
REMARK minimizedRMSD -1
REMARK  0 active torsions:
REMARK  status: ('A' for Active; 'I' for Inactive)
ROOT
ATOM      1  C2' OXE d   1      -0.257   2.390   2.076  0.00  0.00     0.078 C 
ATOM      2  C1' OXE d   1      -0.536   4.538   0.290  0.00  0.00     0.078 C 
ATOM      3  C1  OXE d   1      -0.417   3.151  -0.291  0.00  0.00    -0.078 A 
ATOM      4  C2  OXE d   1      -0.234   2.111   0.589  0.00  0.00    -0.078 A 
ATOM      5  C3  OXE d   1      -0.173   0.805   0.109  0.00  0.00     0.003 A 
ATOM      6  C4  OXE d   1      -0.143   0.557  -1.268  0.00  0.00    -0.002 A 
ATOM      7  C5  OXE d   1      -0.288   1.605  -2.182  0.00  0.00    -0.002 A 
ATOM      8  C6  OXE d   1      -0.469   2.901  -1.710  0.00  0.00     0.003 A 
ENDROOT
TORSDOF 0
ENDMDL
