MODEL 1
REMARK minimizedAffinity 3.2216928
REMARK minimizedRMSD -1
REMARK  0 active torsions:
REMARK  status: ('A' for Active; 'I' for Inactive)
ROOT
ATOM      1  C2' OXE d   1      -2.392   5.094   0.783  0.00  0.00     0.078 C 
ATOM      2  C1' OXE d   1      -1.473   3.207  -1.081  0.00  0.00     0.078 C 
ATOM      3  C1  OXE d   1      -1.447   2.825   0.378  0.00  0.00    -0.078 A 
ATOM      4  C2  OXE d   1      -1.855   3.771   1.287  0.00  0.00    -0.078 A 
ATOM      5  C3  OXE d   1      -1.902   3.452   2.641  0.00  0.00     0.003 A 
ATOM      6  C4  OXE d   1      -1.394   2.230   3.099  0.00  0.00    -0.002 A 
ATOM      7  C5  OXE d   1      -0.937   1.267   2.193  0.00  0.00    -0.002 A 
ATOM      8  C6  OXE d   1      -0.996   1.531   0.829  0.00  0.00     0.003 A 
ENDROOT
TORSDOF 0
ENDMDL
