MODEL 1
REMARK minimizedAffinity 14.1122694
REMARK minimizedRMSD -1
REMARK  0 active torsions:
REMARK  status: ('A' for Active; 'I' for Inactive)
ROOT
ATOM      1  C2' OXE d   1       0.858   0.985  -0.477  0.00  0.00     0.078 C 
ATOM      2  C1' OXE d   1      -0.882   3.181  -0.648  0.00  0.00     0.078 C 
ATOM      3  C1  OXE d   1      -0.811   2.440   0.664  0.00  0.00    -0.078 A 
ATOM      4  C2  OXE d   1       0.009   1.339   0.725  0.00  0.00    -0.078 A 
ATOM      5  C3  OXE d   1       0.153   0.652   1.927  0.00  0.00     0.003 A 
ATOM      6  C4  OXE d   1      -0.644   0.980   3.031  0.00  0.00    -0.002 A 
ATOM      7  C5  OXE d   1      -1.514   2.074   2.978  0.00  0.00    -0.002 A 
ATOM      8  C6  OXE d   1      -1.578   2.839   1.818  0.00  0.00     0.003 A 
ENDROOT
TORSDOF 0
ENDMDL
