MODEL 1
REMARK minimizedAffinity 9.13760662
REMARK minimizedRMSD -1
REMARK  0 active torsions:
REMARK  status: ('A' for Active; 'I' for Inactive)
ROOT
ATOM      1  C2' OXE d   1      -2.334   3.635   1.681  0.00  0.00     0.078 C 
ATOM      2  C1' OXE d   1       0.306   2.885   2.272  0.00  0.00     0.078 C 
ATOM      3  C1  OXE d   1      -0.364   2.231   1.089  0.00  0.00    -0.078 A 
ATOM      4  C2  OXE d   1      -1.671   2.569   0.836  0.00  0.00    -0.078 A 
ATOM      5  C3  OXE d   1      -2.318   2.036  -0.276  0.00  0.00     0.003 A 
ATOM      6  C4  OXE d   1      -1.701   1.044  -1.047  0.00  0.00    -0.002 A 
ATOM      7  C5  OXE d   1      -0.384   0.655  -0.782  0.00  0.00    -0.002 A 
ATOM      8  C6  OXE d   1       0.312   1.269   0.254  0.00  0.00     0.003 A 
ENDROOT
TORSDOF 0
ENDMDL
