MODEL 1
REMARK minimizedAffinity 3.70709634
REMARK minimizedRMSD -1
REMARK  0 active torsions:
REMARK  status: ('A' for Active; 'I' for Inactive)
ROOT
ATOM      1  C2' OXE d   1      -0.396   0.895  -1.897  0.00  0.00     0.078 C 
ATOM      2  C1' OXE d   1      -1.914  -1.466  -1.940  0.00  0.00     0.078 C 
ATOM      3  C1  OXE d   1      -0.464  -1.570  -1.538  0.00  0.00    -0.078 A 
ATOM      4  C2  OXE d   1       0.283  -0.417  -1.565  0.00  0.00    -0.078 A 
ATOM      5  C3  OXE d   1       1.612  -0.446  -1.151  0.00  0.00     0.003 A 
ATOM      6  C4  OXE d   1       2.235  -1.665  -0.856  0.00  0.00    -0.002 A 
ATOM      7  C5  OXE d   1       1.503  -2.856  -0.861  0.00  0.00    -0.002 A 
ATOM      8  C6  OXE d   1       0.145  -2.820  -1.158  0.00  0.00     0.003 A 
ENDROOT
TORSDOF 0
ENDMDL
