MODEL 1
REMARK minimizedAffinity -2.2390523
REMARK minimizedRMSD -1
REMARK  0 active torsions:
REMARK  status: ('A' for Active; 'I' for Inactive)
ROOT
ATOM      1  C2' OXE d   1       1.020   4.986  -0.769  0.00  0.00     0.078 C 
ATOM      2  C1' OXE d   1       2.150   3.856   1.539  0.00  0.00     0.078 C 
ATOM      3  C1  OXE d   1       0.703   3.551   1.243  0.00  0.00    -0.078 A 
ATOM      4  C2  OXE d   1       0.145   4.146   0.137  0.00  0.00    -0.078 A 
ATOM      5  C3  OXE d   1      -1.170   3.856  -0.212  0.00  0.00     0.003 A 
ATOM      6  C4  OXE d   1      -1.976   3.086   0.636  0.00  0.00    -0.002 A 
ATOM      7  C5  OXE d   1      -1.438   2.503   1.788  0.00  0.00    -0.002 A 
ATOM      8  C6  OXE d   1      -0.092   2.690   2.083  0.00  0.00     0.003 A 
ENDROOT
TORSDOF 0
ENDMDL
