MODEL 1
REMARK minimizedAffinity 3.3280189
REMARK minimizedRMSD -1
REMARK  0 active torsions:
REMARK  status: ('A' for Active; 'I' for Inactive)
ROOT
ATOM      1  C2' OXE d   1      -0.163   0.025  -1.386  0.00  0.00     0.078 C 
ATOM      2  C1' OXE d   1       2.016  -0.388   0.336  0.00  0.00     0.078 C 
ATOM      3  C1  OXE d   1       0.860   0.435   0.848  0.00  0.00    -0.078 A 
ATOM      4  C2  OXE d   1      -0.180   0.672  -0.018  0.00  0.00    -0.078 A 
ATOM      5  C3  OXE d   1      -1.296   1.379   0.422  0.00  0.00     0.003 A 
ATOM      6  C4  OXE d   1      -1.300   1.982   1.685  0.00  0.00    -0.002 A 
ATOM      7  C5  OXE d   1      -0.232   1.787   2.568  0.00  0.00    -0.002 A 
ATOM      8  C6  OXE d   1       0.834   0.983   2.181  0.00  0.00     0.003 A 
ENDROOT
TORSDOF 0
ENDMDL
