MODEL 1
REMARK minimizedAffinity 3.53857017
REMARK minimizedRMSD -1
REMARK  0 active torsions:
REMARK  status: ('A' for Active; 'I' for Inactive)
ROOT
ATOM      1  C2' OXE d   1       2.683  -5.955  -2.387  0.00  0.00     0.078 C 
ATOM      2  C1' OXE d   1       5.392  -5.514  -2.973  0.00  0.00     0.078 C 
ATOM      3  C1  OXE d   1       4.745  -4.633  -1.935  0.00  0.00    -0.078 A 
ATOM      4  C2  OXE d   1       3.407  -4.825  -1.688  0.00  0.00    -0.078 A 
ATOM      5  C3  OXE d   1       2.773  -4.076  -0.700  0.00  0.00     0.003 A 
ATOM      6  C4  OXE d   1       3.447  -3.026  -0.065  0.00  0.00    -0.002 A 
ATOM      7  C5  OXE d   1       4.800  -2.787  -0.331  0.00  0.00    -0.002 A 
ATOM      8  C6  OXE d   1       5.473  -3.607  -1.230  0.00  0.00     0.003 A 
ENDROOT
TORSDOF 0
ENDMDL
