MODEL 1
REMARK minimizedAffinity 19.6711121
REMARK minimizedRMSD -1
REMARK  0 active torsions:
REMARK  status: ('A' for Active; 'I' for Inactive)
ROOT
ATOM      1  C   UNL d   1      -0.477   5.999   0.614  0.00  0.00    -0.002 A 
ATOM      2  C1  UNL d   1      -0.038   5.990  -0.703  0.00  0.00     0.010 A 
ATOM      3  C2  UNL d   1       0.351   4.796  -1.314  0.00  0.00     0.041 A 
ATOM      4  C3  UNL d   1       0.289   3.599  -0.572  0.00  0.00    -0.075 A 
ATOM      5  S   UNL d   1       0.713   2.018  -1.113  0.00  0.00     0.015 SA
ATOM      6  C4  UNL d   1       0.321   1.318   0.390  0.00  0.00     0.022 A 
ATOM      7  C5  UNL d   1      -0.124   2.253   1.295  0.00  0.00     0.026 A 
ATOM      8  C6  UNL d   1      -0.151   3.583   0.755  0.00  0.00    -0.082 A 
ATOM      9  C7  UNL d   1      -0.537   4.810   1.346  0.00  0.00     0.045 A 
ENDROOT
TORSDOF 0
ENDMDL
