MODEL 1
REMARK minimizedAffinity 13.8769789
REMARK minimizedRMSD -1
REMARK  0 active torsions:
REMARK  status: ('A' for Active; 'I' for Inactive)
ROOT
ATOM      1  C   UNL d   1      -0.378   5.999  -0.763  0.00  0.00    -0.002 A 
ATOM      2  C1  UNL d   1       0.997   5.904  -0.925  0.00  0.00     0.010 A 
ATOM      3  C2  UNL d   1       1.739   4.991  -0.175  0.00  0.00     0.041 A 
ATOM      4  C3  UNL d   1       1.070   4.165   0.750  0.00  0.00    -0.075 A 
ATOM      5  S   UNL d   1       1.773   2.973   1.778  0.00  0.00     0.015 SA
ATOM      6  C4  UNL d   1       0.265   2.561   2.457  0.00  0.00     0.022 A 
ATOM      7  C5  UNL d   1      -0.761   3.305   1.924  0.00  0.00     0.026 A 
ATOM      8  C6  UNL d   1      -0.314   4.242   0.931  0.00  0.00    -0.082 A 
ATOM      9  C7  UNL d   1      -1.038   5.179   0.156  0.00  0.00     0.045 A 
ENDROOT
TORSDOF 0
ENDMDL
