MODEL 1
REMARK minimizedAffinity 8.75013161
REMARK minimizedRMSD -1
REMARK  0 active torsions:
REMARK  status: ('A' for Active; 'I' for Inactive)
ROOT
ATOM      1  C   UNL d   1       2.233   3.829   3.372  0.00  0.00    -0.002 A 
ATOM      2  C1  UNL d   1       2.941   4.853   2.758  0.00  0.00     0.010 A 
ATOM      3  C2  UNL d   1       2.618   5.263   1.463  0.00  0.00     0.041 A 
ATOM      4  C3  UNL d   1       1.560   4.621   0.789  0.00  0.00    -0.075 A 
ATOM      5  S   UNL d   1       0.987   4.955  -0.802  0.00  0.00     0.015 SA
ATOM      6  C4  UNL d   1      -0.211   3.747  -0.705  0.00  0.00     0.022 A 
ATOM      7  C5  UNL d   1      -0.188   3.094   0.505  0.00  0.00     0.026 A 
ATOM      8  C6  UNL d   1       0.833   3.587   1.386  0.00  0.00    -0.082 A 
ATOM      9  C7  UNL d   1       1.185   3.194   2.700  0.00  0.00     0.045 A 
ENDROOT
TORSDOF 0
ENDMDL
