MODEL 1
REMARK minimizedAffinity 12.6570454
REMARK minimizedRMSD -1
REMARK  0 active torsions:
REMARK  status: ('A' for Active; 'I' for Inactive)
ROOT
ATOM      1  C   UNL d   1      -5.985  -5.999  -4.213  0.00  0.00    -0.002 A 
ATOM      2  C1  UNL d   1      -5.484  -6.000  -5.507  0.00  0.00     0.010 A 
ATOM      3  C2  UNL d   1      -4.106  -5.999  -5.736  0.00  0.00     0.041 A 
ATOM      4  C3  UNL d   1      -3.232  -6.000  -4.631  0.00  0.00    -0.075 A 
ATOM      5  S   UNL d   1      -1.508  -6.000  -4.669  0.00  0.00     0.015 SA
ATOM      6  C4  UNL d   1      -1.396  -6.000  -2.968  0.00  0.00     0.022 A 
ATOM      7  C5  UNL d   1      -2.634  -5.999  -2.370  0.00  0.00     0.026 A 
ATOM      8  C6  UNL d   1      -3.713  -6.000  -3.318  0.00  0.00    -0.082 A 
ATOM      9  C7  UNL d   1      -5.114  -6.000  -3.120  0.00  0.00     0.045 A 
ENDROOT
TORSDOF 0
ENDMDL
