MODEL 1
REMARK minimizedAffinity 18.6515427
REMARK minimizedRMSD -1
REMARK  0 active torsions:
REMARK  status: ('A' for Active; 'I' for Inactive)
ROOT
ATOM      1  C   UNL d   1       1.457   1.629   0.425  0.00  0.00    -0.002 A 
ATOM      2  C1  UNL d   1       0.378   2.441   0.745  0.00  0.00     0.010 A 
ATOM      3  C2  UNL d   1      -0.893   2.166   0.237  0.00  0.00     0.041 A 
ATOM      4  C3  UNL d   1      -1.064   1.051  -0.606  0.00  0.00    -0.075 A 
ATOM      5  S   UNL d   1      -2.529   0.520  -1.344  0.00  0.00     0.015 SA
ATOM      6  C4  UNL d   1      -1.757  -0.797  -2.102  0.00  0.00     0.022 A 
ATOM      7  C5  UNL d   1      -0.414  -0.846  -1.810  0.00  0.00     0.026 A 
ATOM      8  C6  UNL d   1       0.007   0.218  -0.942  0.00  0.00    -0.082 A 
ATOM      9  C7  UNL d   1       1.284   0.523  -0.412  0.00  0.00     0.045 A 
ENDROOT
TORSDOF 0
ENDMDL
