MODEL 1
REMARK minimizedAffinity 15.7911234
REMARK minimizedRMSD -1
REMARK  0 active torsions:
REMARK  status: ('A' for Active; 'I' for Inactive)
ROOT
ATOM      1  C   UNL d   1      -0.125   4.492  -0.732  0.00  0.00    -0.002 A 
ATOM      2  C1  UNL d   1       1.150   5.040  -0.724  0.00  0.00     0.010 A 
ATOM      3  C2  UNL d   1       2.032   4.772   0.324  0.00  0.00     0.041 A 
ATOM      4  C3  UNL d   1       1.609   3.933   1.374  0.00  0.00    -0.075 A 
ATOM      5  S   UNL d   1       2.518   3.465   2.762  0.00  0.00     0.015 SA
ATOM      6  C4  UNL d   1       1.236   2.524   3.377  0.00  0.00     0.022 A 
ATOM      7  C5  UNL d   1       0.134   2.556   2.556  0.00  0.00     0.026 A 
ATOM      8  C6  UNL d   1       0.330   3.369   1.388  0.00  0.00    -0.082 A 
ATOM      9  C7  UNL d   1      -0.541   3.660   0.311  0.00  0.00     0.045 A 
ENDROOT
TORSDOF 0
ENDMDL
