MODEL 1
REMARK minimizedAffinity 20.4651947
REMARK minimizedRMSD -1
REMARK  0 active torsions:
REMARK  status: ('A' for Active; 'I' for Inactive)
ROOT
ATOM      1  C   UNL d   1       1.288   2.090   2.196  0.00  0.00    -0.002 A 
ATOM      2  C1  UNL d   1       0.017   2.105   2.753  0.00  0.00     0.010 A 
ATOM      3  C2  UNL d   1      -0.401   1.072   3.595  0.00  0.00     0.041 A 
ATOM      4  C3  UNL d   1       0.489   0.016   3.872  0.00  0.00    -0.075 A 
ATOM      5  S   UNL d   1       0.195  -1.355   4.875  0.00  0.00     0.015 SA
ATOM      6  C4  UNL d   1       1.750  -1.992   4.589  0.00  0.00     0.022 A 
ATOM      7  C5  UNL d   1       2.488  -1.191   3.750  0.00  0.00     0.026 A 
ATOM      8  C6  UNL d   1       1.774  -0.020   3.324  0.00  0.00    -0.082 A 
ATOM      9  C7  UNL d   1       2.168   1.041   2.473  0.00  0.00     0.045 A 
ENDROOT
TORSDOF 0
ENDMDL
