MODEL 1
REMARK minimizedAffinity 8.38154888
REMARK minimizedRMSD -1
REMARK  0 active torsions:
REMARK  status: ('A' for Active; 'I' for Inactive)
ROOT
ATOM      1  C1  DEN d   1      -4.003   0.033  -0.152  0.00  0.00     0.130 A 
ATOM      2  C2  DEN d   1      -4.392   1.128   0.732  0.00  0.00    -0.031 A 
ATOM      3  C3  DEN d   1      -5.245   2.055  -0.038  0.00  0.00     0.027 A 
ATOM      4  C4  DEN d   1      -6.000   1.900  -2.500  0.00  0.00     0.027 A 
ATOM      5  C5  DEN d   1      -5.913   1.156  -3.656  0.00  0.00    -0.003 A 
ATOM      6  C6  DEN d   1      -5.162   0.013  -3.734  0.00  0.00     0.001 A 
ATOM      7  C7  DEN d   1      -4.504  -0.444  -2.623  0.00  0.00     0.017 A 
ATOM      8  C8  DEN d   1      -4.581   0.305  -1.456  0.00  0.00    -0.094 A 
ATOM      9  C9  DEN d   1      -5.355   1.451  -1.393  0.00  0.00    -0.072 A 
ENDROOT
TORSDOF 0
ENDMDL
