MODEL 1
REMARK minimizedAffinity 23.2251816
REMARK minimizedRMSD -1
REMARK  0 active torsions:
REMARK  status: ('A' for Active; 'I' for Inactive)
ROOT
ATOM      1  C1  DEN d   1       4.330   2.645   2.529  0.00  0.00     0.130 A 
ATOM      2  C2  DEN d   1       5.272   3.753   2.396  0.00  0.00    -0.031 A 
ATOM      3  C3  DEN d   1       5.431   4.047   0.958  0.00  0.00     0.027 A 
ATOM      4  C4  DEN d   1       4.313   2.903  -1.065  0.00  0.00     0.027 A 
ATOM      5  C5  DEN d   1       3.446   1.905  -1.453  0.00  0.00    -0.003 A 
ATOM      6  C6  DEN d   1       2.845   1.069  -0.551  0.00  0.00     0.001 A 
ATOM      7  C7  DEN d   1       3.067   1.244   0.790  0.00  0.00     0.017 A 
ATOM      8  C8  DEN d   1       3.945   2.243   1.188  0.00  0.00    -0.094 A 
ATOM      9  C9  DEN d   1       4.534   3.086   0.261  0.00  0.00    -0.072 A 
ENDROOT
TORSDOF 0
ENDMDL
