MODEL 1
REMARK minimizedAffinity 15.3595467
REMARK minimizedRMSD -1
REMARK  0 active torsions:
REMARK  status: ('A' for Active; 'I' for Inactive)
ROOT
ATOM      1  C1  DEN d   1       2.943   0.528   0.787  0.00  0.00     0.130 A 
ATOM      2  C2  DEN d   1       3.194   1.732  -0.000  0.00  0.00    -0.031 A 
ATOM      3  C3  DEN d   1       2.960   1.405  -1.421  0.00  0.00     0.027 A 
ATOM      4  C4  DEN d   1       2.231  -0.834  -2.472  0.00  0.00     0.027 A 
ATOM      5  C5  DEN d   1       1.908  -2.147  -2.206  0.00  0.00    -0.003 A 
ATOM      6  C6  DEN d   1       1.941  -2.665  -0.939  0.00  0.00     0.001 A 
ATOM      7  C7  DEN d   1       2.260  -1.853   0.118  0.00  0.00     0.017 A 
ATOM      8  C8  DEN d   1       2.594  -0.531  -0.143  0.00  0.00    -0.094 A 
ATOM      9  C9  DEN d   1       2.543  -0.023  -1.430  0.00  0.00    -0.072 A 
ENDROOT
TORSDOF 0
ENDMDL
