MODEL 1
REMARK minimizedAffinity 16.7415409
REMARK minimizedRMSD -1
REMARK  0 active torsions:
REMARK  status: ('A' for Active; 'I' for Inactive)
ROOT
ATOM      1  C1  DEN d   1      -5.628   3.409   0.455  0.00  0.00     0.130 A 
ATOM      2  C2  DEN d   1      -4.560   3.605   1.432  0.00  0.00    -0.031 A 
ATOM      3  C3  DEN d   1      -3.551   2.548   1.223  0.00  0.00     0.027 A 
ATOM      4  C4  DEN d   1      -3.535   0.639  -0.511  0.00  0.00     0.027 A 
ATOM      5  C5  DEN d   1      -4.233   0.057  -1.546  0.00  0.00    -0.003 A 
ATOM      6  C6  DEN d   1      -5.452   0.526  -1.960  0.00  0.00     0.001 A 
ATOM      7  C7  DEN d   1      -5.988   1.638  -1.366  0.00  0.00     0.017 A 
ATOM      8  C8  DEN d   1      -5.293   2.226  -0.318  0.00  0.00    -0.094 A 
ATOM      9  C9  DEN d   1      -4.058   1.744   0.079  0.00  0.00    -0.072 A 
ENDROOT
TORSDOF 0
ENDMDL
