MODEL 1
REMARK minimizedAffinity 10.6737137
REMARK minimizedRMSD -1
REMARK  0 active torsions:
REMARK  status: ('A' for Active; 'I' for Inactive)
ROOT
ATOM      1  C1  DEN d   1       3.261   1.425  -1.717  0.00  0.00     0.130 A 
ATOM      2  C2  DEN d   1       3.888   2.324  -0.752  0.00  0.00    -0.031 A 
ATOM      3  C3  DEN d   1       3.874   1.660   0.567  0.00  0.00     0.027 A 
ATOM      4  C4  DEN d   1       2.952  -0.663   1.204  0.00  0.00     0.027 A 
ATOM      5  C5  DEN d   1       2.317  -1.788   0.726  0.00  0.00    -0.003 A 
ATOM      6  C6  DEN d   1       1.924  -1.906  -0.581  0.00  0.00     0.001 A 
ATOM      7  C7  DEN d   1       2.204  -0.899  -1.467  0.00  0.00     0.017 A 
ATOM      8  C8  DEN d   1       2.838   0.241  -0.991  0.00  0.00    -0.094 A 
ATOM      9  C9  DEN d   1       3.237   0.336   0.331  0.00  0.00    -0.072 A 
ENDROOT
TORSDOF 0
ENDMDL
