MODEL 1
REMARK minimizedAffinity 6.83679676
REMARK minimizedRMSD -1
REMARK  0 active torsions:
REMARK  status: ('A' for Active; 'I' for Inactive)
ROOT
ATOM      1  C1  DEN d   1      -5.689   0.372  -1.188  0.00  0.00     0.130 A 
ATOM      2  C2  DEN d   1      -4.506   0.109  -0.374  0.00  0.00    -0.031 A 
ATOM      3  C3  DEN d   1      -3.334   0.063  -1.271  0.00  0.00     0.027 A 
ATOM      4  C4  DEN d   1      -3.237   0.375  -3.830  0.00  0.00     0.027 A 
ATOM      5  C5  DEN d   1      -3.987   0.608  -4.961  0.00  0.00    -0.003 A 
ATOM      6  C6  DEN d   1      -5.349   0.743  -4.920  0.00  0.00     0.001 A 
ATOM      7  C7  DEN d   1      -6.000   0.692  -3.715  0.00  0.00     0.017 A 
ATOM      8  C8  DEN d   1      -5.251   0.450  -2.571  0.00  0.00    -0.094 A 
ATOM      9  C9  DEN d   1      -3.873   0.328  -2.632  0.00  0.00    -0.072 A 
ENDROOT
TORSDOF 0
ENDMDL
