MODEL 1
REMARK minimizedAffinity 5.03275824
REMARK minimizedRMSD -1
REMARK  0 active torsions:
REMARK  status: ('A' for Active; 'I' for Inactive)
ROOT
ATOM      1  C1  DEN d   1      -4.754   2.771   2.774  0.00  0.00     0.130 A 
ATOM      2  C2  DEN d   1      -5.202   3.251   1.470  0.00  0.00    -0.031 A 
ATOM      3  C3  DEN d   1      -5.773   4.601   1.651  0.00  0.00     0.027 A 
ATOM      4  C4  DEN d   1      -5.999   5.989   3.813  0.00  0.00     0.027 A 
ATOM      5  C5  DEN d   1      -5.770   5.997   5.171  0.00  0.00    -0.003 A 
ATOM      6  C6  DEN d   1      -5.223   4.926   5.826  0.00  0.00     0.001 A 
ATOM      7  C7  DEN d   1      -4.843   3.818   5.115  0.00  0.00     0.017 A 
ATOM      8  C8  DEN d   1      -5.077   3.800   3.746  0.00  0.00    -0.094 A 
ATOM      9  C9  DEN d   1      -5.621   4.898   3.101  0.00  0.00    -0.072 A 
ENDROOT
TORSDOF 0
ENDMDL
