MODEL 1
REMARK minimizedAffinity 16.8081684
REMARK minimizedRMSD -1
REMARK  0 active torsions:
REMARK  status: ('A' for Active; 'I' for Inactive)
ROOT
ATOM      1  C1  DEN d   1       2.866   0.860   0.872  0.00  0.00     0.130 A 
ATOM      2  C2  DEN d   1       1.757   0.665  -0.057  0.00  0.00    -0.031 A 
ATOM      3  C3  DEN d   1       2.153   1.224  -1.365  0.00  0.00     0.027 A 
ATOM      4  C4  DEN d   1       4.367   2.361  -2.040  0.00  0.00     0.027 A 
ATOM      5  C5  DEN d   1       5.605   2.764  -1.590  0.00  0.00    -0.003 A 
ATOM      6  C6  DEN d   1       6.000   2.594  -0.290  0.00  0.00     0.001 A 
ATOM      7  C7  DEN d   1       5.166   1.963   0.596  0.00  0.00     0.017 A 
ATOM      8  C8  DEN d   1       3.914   1.560   0.151  0.00  0.00    -0.094 A 
ATOM      9  C9  DEN d   1       3.538   1.730  -1.171  0.00  0.00    -0.072 A 
ENDROOT
TORSDOF 0
ENDMDL
