MODEL 1
REMARK minimizedAffinity 12.2426271
REMARK minimizedRMSD -1
REMARK  0 active torsions:
REMARK  status: ('A' for Active; 'I' for Inactive)
ROOT
ATOM      1  C1  DEN d   1      -3.775   0.379   0.667  0.00  0.00     0.130 A 
ATOM      2  C2  DEN d   1      -4.925   0.993   1.325  0.00  0.00    -0.031 A 
ATOM      3  C3  DEN d   1      -5.998   1.144   0.323  0.00  0.00     0.027 A 
ATOM      4  C4  DEN d   1      -5.994   0.486  -2.171  0.00  0.00     0.027 A 
ATOM      5  C5  DEN d   1      -5.240  -0.057  -3.187  0.00  0.00    -0.003 A 
ATOM      6  C6  DEN d   1      -3.943  -0.459  -3.000  0.00  0.00     0.001 A 
ATOM      7  C7  DEN d   1      -3.377  -0.365  -1.756  0.00  0.00     0.017 A 
ATOM      8  C8  DEN d   1      -4.128   0.189  -0.729  0.00  0.00    -0.094 A 
ATOM      9  C9  DEN d   1      -5.441   0.578  -0.935  0.00  0.00    -0.072 A 
ENDROOT
TORSDOF 0
ENDMDL
