MODEL 1
REMARK minimizedAffinity 5.36682749
REMARK minimizedRMSD -1
REMARK  0 active torsions:
REMARK  status: ('A' for Active; 'I' for Inactive)
ROOT
ATOM      1  C1  DEN d   1       3.266  -1.303   0.988  0.00  0.00     0.130 A 
ATOM      2  C2  DEN d   1       2.138  -1.890   0.268  0.00  0.00    -0.031 A 
ATOM      3  C3  DEN d   1       1.802  -0.997  -0.859  0.00  0.00     0.027 A 
ATOM      4  C4  DEN d   1       2.915   1.222  -1.559  0.00  0.00     0.027 A 
ATOM      5  C5  DEN d   1       3.902   2.130  -1.247  0.00  0.00    -0.003 A 
ATOM      6  C6  DEN d   1       4.718   1.976  -0.157  0.00  0.00     0.001 A 
ATOM      7  C7  DEN d   1       4.590   0.866   0.635  0.00  0.00     0.017 A 
ATOM      8  C8  DEN d   1       3.592  -0.051   0.331  0.00  0.00    -0.094 A 
ATOM      9  C9  DEN d   1       2.786   0.117  -0.782  0.00  0.00    -0.072 A 
ENDROOT
TORSDOF 0
ENDMDL
