MODEL 1
REMARK minimizedAffinity -3.4104929
REMARK minimizedRMSD -1
REMARK  1 active torsions:
REMARK  status: ('A' for Active; 'I' for Inactive)
REMARK    1  A    between atoms: C1_2  and  C2_3 
ROOT
ATOM      1  C2  UNL d   1      -0.728   0.097   0.113  0.00  0.00    -0.073 A 
ATOM      2  C3  UNL d   1      -0.134   1.151   0.817  0.00  0.00    -0.002 A 
ATOM      3  C4  UNL d   1      -0.436   1.359   2.163  0.00  0.00     0.004 A 
ATOM      4  C5  UNL d   1      -1.328   0.512   2.821  0.00  0.00    -0.004 A 
ATOM      5  C6  UNL d   1      -1.924  -0.553   2.138  0.00  0.00    -0.075 A 
ATOM      6  C7  UNL d   1      -2.887  -1.471   2.831  0.00  0.00     0.076 C 
ATOM      7  C8  UNL d   1      -1.617  -0.753   0.785  0.00  0.00     0.001 A 
ENDROOT
BRANCH   1   8
ATOM      8  C1  UNL d   1      -0.400  -0.134  -1.339  0.00  0.00     0.053 C 
ATOM      9  C   UNL d   1       1.020  -0.643  -1.529  0.00  0.00     0.018 C 
ENDBRANCH   1   8
TORSDOF 1
ENDMDL
