MODEL 1
REMARK minimizedAffinity -5.25732517
REMARK minimizedRMSD -1
REMARK  1 active torsions:
REMARK  status: ('A' for Active; 'I' for Inactive)
REMARK    1  A    between atoms: C1_2  and  C2_3 
ROOT
ATOM      1  C2  UNL d   1       0.976  -0.526  -2.072  0.00  0.00    -0.073 A 
ATOM      2  C3  UNL d   1       2.241  -0.109  -2.500  0.00  0.00    -0.002 A 
ATOM      3  C4  UNL d   1       2.397   0.513  -3.739  0.00  0.00     0.004 A 
ATOM      4  C5  UNL d   1       1.290   0.731  -4.559  0.00  0.00    -0.004 A 
ATOM      5  C6  UNL d   1       0.015   0.332  -4.144  0.00  0.00    -0.075 A 
ATOM      6  C7  UNL d   1      -1.185   0.558  -5.015  0.00  0.00     0.076 C 
ATOM      7  C8  UNL d   1      -0.133  -0.294  -2.899  0.00  0.00     0.001 A 
ENDROOT
BRANCH   1   8
ATOM      8  C1  UNL d   1       0.802  -1.193  -0.732  0.00  0.00     0.053 C 
ATOM      9  C   UNL d   1       0.007  -0.329   0.235  0.00  0.00     0.018 C 
ENDBRANCH   1   8
TORSDOF 1
ENDMDL
