MODEL 1
REMARK minimizedAffinity -3.97902369
REMARK minimizedRMSD -1
REMARK  1 active torsions:
REMARK  status: ('A' for Active; 'I' for Inactive)
REMARK    1  A    between atoms: C1_2  and  C2_3 
ROOT
ATOM      1  C2  UNL d   1       0.436  -0.283   0.158  0.00  0.00    -0.073 A 
ATOM      2  C3  UNL d   1       1.517  -1.044   0.618  0.00  0.00    -0.002 A 
ATOM      3  C4  UNL d   1       1.949  -0.929   1.940  0.00  0.00     0.004 A 
ATOM      4  C5  UNL d   1       1.301  -0.059   2.816  0.00  0.00    -0.004 A 
ATOM      5  C6  UNL d   1       0.211   0.701   2.380  0.00  0.00    -0.075 A 
ATOM      6  C7  UNL d   1      -0.495   1.643   3.310  0.00  0.00     0.076 C 
ATOM      7  C8  UNL d   1      -0.215   0.582   1.050  0.00  0.00     0.001 A 
ENDROOT
BRANCH   1   8
ATOM      8  C1  UNL d   1      -0.038  -0.409  -1.267  0.00  0.00     0.053 C 
ATOM      9  C   UNL d   1       0.954   0.188  -2.252  0.00  0.00     0.018 C 
ENDBRANCH   1   8
TORSDOF 1
ENDMDL
