MODEL 1
REMARK minimizedAffinity 2.85366583
REMARK minimizedRMSD -1
REMARK  1 active torsions:
REMARK  status: ('A' for Active; 'I' for Inactive)
REMARK    1  A    between atoms: C1_2  and  C2_3 
ROOT
ATOM      1  C2  UNL d   1      -0.166   0.052   2.941  0.00  0.00    -0.073 A 
ATOM      2  C3  UNL d   1      -1.499  -0.203   2.597  0.00  0.00    -0.002 A 
ATOM      3  C4  UNL d   1      -1.911  -0.123   1.266  0.00  0.00     0.004 A 
ATOM      4  C5  UNL d   1      -0.996   0.205   0.266  0.00  0.00    -0.004 A 
ATOM      5  C6  UNL d   1       0.343   0.452   0.589  0.00  0.00    -0.075 A 
ATOM      6  C7  UNL d   1       1.339   0.808  -0.475  0.00  0.00     0.076 C 
ATOM      7  C8  UNL d   1       0.749   0.372   1.928  0.00  0.00     0.001 A 
ENDROOT
BRANCH   1   8
ATOM      8  C1  UNL d   1       0.285  -0.039   4.376  0.00  0.00     0.053 C 
ATOM      9  C   UNL d   1       0.410  -1.480   4.844  0.00  0.00     0.018 C 
ENDBRANCH   1   8
TORSDOF 1
ENDMDL
