MODEL 1
REMARK minimizedAffinity -5.8680439
REMARK minimizedRMSD -1
REMARK  0 active torsions:
REMARK  status: ('A' for Active; 'I' for Inactive)
ROOT
ATOM      1  C   UNL d   1      -0.573   0.412  -0.250  0.00  0.00     0.078 C 
ATOM      2  C1  UNL d   1      -0.054  -0.721   0.584  0.00  0.00    -0.077 A 
ATOM      3  C2  UNL d   1      -0.747  -1.158   1.719  0.00  0.00    -0.001 A 
ATOM      4  C3  UNL d   1      -0.247  -2.208   2.491  0.00  0.00     0.003 A 
ATOM      5  C4  UNL d   1       0.950  -2.828   2.138  0.00  0.00    -0.005 A 
ATOM      6  C5  UNL d   1       1.648  -2.399   1.011  0.00  0.00     0.003 A 
ATOM      7  C6  UNL d   1       1.149  -1.349   0.237  0.00  0.00    -0.001 A 
ENDROOT
TORSDOF 0
ENDMDL
