MODEL 1
REMARK minimizedAffinity -5.2465992
REMARK minimizedRMSD -1
REMARK  0 active torsions:
REMARK  status: ('A' for Active; 'I' for Inactive)
ROOT
ATOM      1  C   UNL d   1      -0.465   0.673  -0.087  0.00  0.00     0.078 C 
ATOM      2  C1  UNL d   1       0.035  -0.593   0.543  0.00  0.00    -0.077 A 
ATOM      3  C2  UNL d   1      -0.561  -1.105   1.703  0.00  0.00    -0.001 A 
ATOM      4  C3  UNL d   1      -0.078  -2.278   2.284  0.00  0.00     0.003 A 
ATOM      5  C4  UNL d   1       1.002  -2.949   1.715  0.00  0.00    -0.005 A 
ATOM      6  C5  UNL d   1       1.602  -2.446   0.563  0.00  0.00     0.003 A 
ATOM      7  C6  UNL d   1       1.122  -1.272  -0.021  0.00  0.00    -0.001 A 
ENDROOT
TORSDOF 0
ENDMDL
