MODEL 1
REMARK minimizedAffinity -4.097013
REMARK minimizedRMSD -1
REMARK  0 active torsions:
REMARK  status: ('A' for Active; 'I' for Inactive)
ROOT
ATOM      1  C   UNL d   1       1.239  -3.005   1.166  0.00  0.00     0.078 C 
ATOM      2  C1  UNL d   1       0.689  -1.657   0.807  0.00  0.00    -0.077 A 
ATOM      3  C2  UNL d   1      -0.576  -1.252   1.251  0.00  0.00    -0.001 A 
ATOM      4  C3  UNL d   1      -1.079   0.002   0.901  0.00  0.00     0.003 A 
ATOM      5  C4  UNL d   1      -0.324   0.861   0.105  0.00  0.00    -0.005 A 
ATOM      6  C5  UNL d   1       0.935   0.467  -0.343  0.00  0.00     0.003 A 
ATOM      7  C6  UNL d   1       1.439  -0.787   0.006  0.00  0.00    -0.001 A 
ENDROOT
TORSDOF 0
ENDMDL
