MODEL 1
REMARK minimizedAffinity -4.94795322
REMARK minimizedRMSD -1
REMARK  0 active torsions:
REMARK  status: ('A' for Active; 'I' for Inactive)
ROOT
ATOM      1  C   UNL d   1      -0.173   0.581  -0.313  0.00  0.00     0.078 C 
ATOM      2  C1  UNL d   1       0.357  -0.638   0.381  0.00  0.00    -0.077 A 
ATOM      3  C2  UNL d   1      -0.243  -1.119   1.552  0.00  0.00    -0.001 A 
ATOM      4  C3  UNL d   1       0.267  -2.249   2.193  0.00  0.00     0.003 A 
ATOM      5  C4  UNL d   1       1.380  -2.907   1.672  0.00  0.00    -0.005 A 
ATOM      6  C5  UNL d   1       1.984  -2.435   0.509  0.00  0.00     0.003 A 
ATOM      7  C6  UNL d   1       1.475  -1.305  -0.134  0.00  0.00    -0.001 A 
ENDROOT
TORSDOF 0
ENDMDL
