MODEL 1
REMARK minimizedAffinity -3.81971192
REMARK minimizedRMSD -1
REMARK  0 active torsions:
REMARK  status: ('A' for Active; 'I' for Inactive)
ROOT
ATOM      1  C   UNL d   1      -0.377   0.949  -0.430  0.00  0.00     0.078 C 
ATOM      2  C1  UNL d   1       0.117  -0.271   0.290  0.00  0.00    -0.077 A 
ATOM      3  C2  UNL d   1      -0.732  -1.012   1.120  0.00  0.00    -0.001 A 
ATOM      4  C3  UNL d   1      -0.256  -2.139   1.792  0.00  0.00     0.003 A 
ATOM      5  C4  UNL d   1       1.072  -2.534   1.640  0.00  0.00    -0.005 A 
ATOM      6  C5  UNL d   1       1.925  -1.802   0.818  0.00  0.00     0.003 A 
ATOM      7  C6  UNL d   1       1.451  -0.674   0.146  0.00  0.00    -0.001 A 
ENDROOT
TORSDOF 0
ENDMDL
