MODEL 1
REMARK minimizedAffinity -4.69976711
REMARK minimizedRMSD -1
REMARK  0 active torsions:
REMARK  status: ('A' for Active; 'I' for Inactive)
ROOT
ATOM      1  C   UNL d   1       2.229  -2.526   1.491  0.00  0.00     0.078 C 
ATOM      2  C1  UNL d   1       1.075  -1.587   1.299  0.00  0.00    -0.077 A 
ATOM      3  C2  UNL d   1       1.083  -0.636   0.271  0.00  0.00    -0.001 A 
ATOM      4  C3  UNL d   1       0.007   0.238   0.111  0.00  0.00     0.003 A 
ATOM      5  C4  UNL d   1      -1.084   0.172   0.975  0.00  0.00    -0.005 A 
ATOM      6  C5  UNL d   1      -1.100  -0.770   2.002  0.00  0.00     0.003 A 
ATOM      7  C6  UNL d   1      -0.025  -1.645   2.164  0.00  0.00    -0.001 A 
ENDROOT
TORSDOF 0
ENDMDL
