MODEL 1
REMARK minimizedAffinity -5.35066223
REMARK minimizedRMSD -1
REMARK  0 active torsions:
REMARK  status: ('A' for Active; 'I' for Inactive)
ROOT
ATOM      1  C   UNL d   1      -0.569   0.978   0.158  0.00  0.00     0.078 C 
ATOM      2  C1  UNL d   1       0.243  -0.221   0.547  0.00  0.00    -0.077 A 
ATOM      3  C2  UNL d   1      -0.256  -1.166   1.452  0.00  0.00    -0.001 A 
ATOM      4  C3  UNL d   1       0.515  -2.273   1.813  0.00  0.00     0.003 A 
ATOM      5  C4  UNL d   1       1.789  -2.443   1.275  0.00  0.00    -0.005 A 
ATOM      6  C5  UNL d   1       2.295  -1.506   0.376  0.00  0.00     0.003 A 
ATOM      7  C6  UNL d   1       1.525  -0.399   0.014  0.00  0.00    -0.001 A 
ENDROOT
TORSDOF 0
ENDMDL
