MODEL 1
REMARK minimizedAffinity -4.68538332
REMARK minimizedRMSD -1
REMARK  0 active torsions:
REMARK  status: ('A' for Active; 'I' for Inactive)
ROOT
ATOM      1  C   UNL d   1      -0.487  -0.038  -1.014  0.00  0.00     0.078 C 
ATOM      2  C1  UNL d   1      -0.177  -0.744   0.272  0.00  0.00    -0.077 A 
ATOM      3  C2  UNL d   1      -0.958  -0.537   1.416  0.00  0.00    -0.001 A 
ATOM      4  C3  UNL d   1      -0.652  -1.194   2.608  0.00  0.00     0.003 A 
ATOM      5  C4  UNL d   1       0.436  -2.062   2.670  0.00  0.00    -0.005 A 
ATOM      6  C5  UNL d   1       1.221  -2.273   1.538  0.00  0.00     0.003 A 
ATOM      7  C6  UNL d   1       0.916  -1.617   0.344  0.00  0.00    -0.001 A 
ENDROOT
TORSDOF 0
ENDMDL
