MODEL 1
REMARK minimizedAffinity -5.30191422
REMARK minimizedRMSD -1
REMARK  0 active torsions:
REMARK  status: ('A' for Active; 'I' for Inactive)
ROOT
ATOM      1  C   UNL d   1      -0.788   0.850  -0.651  0.00  0.00     0.078 C 
ATOM      2  C1  UNL d   1      -0.152  -0.301   0.070  0.00  0.00    -0.077 A 
ATOM      3  C2  UNL d   1      -0.689  -0.788   1.268  0.00  0.00    -0.001 A 
ATOM      4  C3  UNL d   1      -0.081  -1.853   1.933  0.00  0.00     0.003 A 
ATOM      5  C4  UNL d   1       1.069  -2.440   1.410  0.00  0.00    -0.005 A 
ATOM      6  C5  UNL d   1       1.613  -1.961   0.220  0.00  0.00     0.003 A 
ATOM      7  C6  UNL d   1       1.006  -0.896  -0.447  0.00  0.00    -0.001 A 
ENDROOT
TORSDOF 0
ENDMDL
