MODEL 1
REMARK minimizedAffinity -5.43905973
REMARK minimizedRMSD -1
REMARK  0 active torsions:
REMARK  status: ('A' for Active; 'I' for Inactive)
ROOT
ATOM      1  C   UNL d   1       1.496  -2.616   2.069  0.00  0.00     0.078 C 
ATOM      2  C1  UNL d   1       1.018  -1.411   1.315  0.00  0.00    -0.077 A 
ATOM      3  C2  UNL d   1       1.821  -0.804   0.341  0.00  0.00    -0.001 A 
ATOM      4  C3  UNL d   1       1.367   0.323  -0.346  0.00  0.00     0.003 A 
ATOM      5  C4  UNL d   1       0.109   0.854  -0.065  0.00  0.00    -0.005 A 
ATOM      6  C5  UNL d   1      -0.696   0.258   0.903  0.00  0.00     0.003 A 
ATOM      7  C6  UNL d   1      -0.244  -0.869   1.591  0.00  0.00    -0.001 A 
ENDROOT
TORSDOF 0
ENDMDL
