MODEL 1
REMARK minimizedAffinity -5.58665133
REMARK minimizedRMSD -1
REMARK  0 active torsions:
REMARK  status: ('A' for Active; 'I' for Inactive)
ROOT
ATOM      1  C   UNL d   1      -0.833   0.908  -0.626  0.00  0.00     0.078 C 
ATOM      2  C1  UNL d   1      -0.167  -0.216   0.111  0.00  0.00    -0.077 A 
ATOM      3  C2  UNL d   1      -0.882  -1.007   1.018  0.00  0.00    -0.001 A 
ATOM      4  C3  UNL d   1      -0.247  -2.043   1.704  0.00  0.00     0.003 A 
ATOM      5  C4  UNL d   1       1.106  -2.297   1.491  0.00  0.00    -0.005 A 
ATOM      6  C5  UNL d   1       1.827  -1.514   0.591  0.00  0.00     0.003 A 
ATOM      7  C6  UNL d   1       1.193  -0.477  -0.096  0.00  0.00    -0.001 A 
ENDROOT
TORSDOF 0
ENDMDL
