MODEL 1
REMARK minimizedAffinity -2.94206214
REMARK minimizedRMSD -1
REMARK  0 active torsions:
REMARK  status: ('A' for Active; 'I' for Inactive)
ROOT
ATOM      1  C   UNL d   1      -1.154   1.762  -0.861  0.00  0.00     0.078 C 
ATOM      2  C1  UNL d   1      -0.393   0.745  -0.065  0.00  0.00    -0.077 A 
ATOM      3  C2  UNL d   1       0.882   0.324  -0.463  0.00  0.00    -0.001 A 
ATOM      4  C3  UNL d   1       1.575  -0.631   0.282  0.00  0.00     0.003 A 
ATOM      5  C4  UNL d   1       1.001  -1.174   1.430  0.00  0.00    -0.005 A 
ATOM      6  C5  UNL d   1      -0.268  -0.763   1.833  0.00  0.00     0.003 A 
ATOM      7  C6  UNL d   1      -0.962   0.192   1.089  0.00  0.00    -0.001 A 
ENDROOT
TORSDOF 0
ENDMDL
