MODEL 1
REMARK minimizedAffinity -5.62730122
REMARK minimizedRMSD -1
REMARK  0 active torsions:
REMARK  status: ('A' for Active; 'I' for Inactive)
ROOT
ATOM      1  C   UNL d   1      -0.449   1.144  -0.163  0.00  0.00     0.078 C 
ATOM      2  C1  UNL d   1      -0.023  -0.101   0.557  0.00  0.00    -0.077 A 
ATOM      3  C2  UNL d   1      -0.822  -0.662   1.561  0.00  0.00    -0.001 A 
ATOM      4  C3  UNL d   1      -0.408  -1.815   2.230  0.00  0.00     0.003 A 
ATOM      5  C4  UNL d   1       0.806  -2.415   1.904  0.00  0.00    -0.005 A 
ATOM      6  C5  UNL d   1       1.609  -1.863   0.908  0.00  0.00     0.003 A 
ATOM      7  C6  UNL d   1       1.197  -0.710   0.238  0.00  0.00    -0.001 A 
ENDROOT
TORSDOF 0
ENDMDL
