MODEL 1
REMARK minimizedAffinity -5.03995466
REMARK minimizedRMSD -1
REMARK  0 active torsions:
REMARK  status: ('A' for Active; 'I' for Inactive)
ROOT
ATOM      1  C   UNL d   1      -0.748   0.736  -0.325  0.00  0.00     0.078 C 
ATOM      2  C1  UNL d   1      -0.282  -0.444   0.475  0.00  0.00    -0.077 A 
ATOM      3  C2  UNL d   1       1.055  -0.856   0.440  0.00  0.00    -0.001 A 
ATOM      4  C3  UNL d   1       1.473  -1.962   1.182  0.00  0.00     0.003 A 
ATOM      5  C4  UNL d   1       0.558  -2.666   1.963  0.00  0.00    -0.005 A 
ATOM      6  C5  UNL d   1      -0.775  -2.265   2.002  0.00  0.00     0.003 A 
ATOM      7  C6  UNL d   1      -1.195  -1.159   1.261  0.00  0.00    -0.001 A 
ENDROOT
TORSDOF 0
ENDMDL
