MODEL 1
REMARK minimizedAffinity -5.44700098
REMARK minimizedRMSD -1
REMARK  0 active torsions:
REMARK  status: ('A' for Active; 'I' for Inactive)
ROOT
ATOM      1  C   UNL d   1       2.232  -0.007  -1.066  0.00  0.00     0.078 C 
ATOM      2  C1  UNL d   1       1.313  -0.564  -0.020  0.00  0.00    -0.077 A 
ATOM      3  C2  UNL d   1       0.323   0.232   0.568  0.00  0.00    -0.001 A 
ATOM      4  C3  UNL d   1      -0.520  -0.298   1.547  0.00  0.00     0.003 A 
ATOM      5  C4  UNL d   1      -0.380  -1.625   1.947  0.00  0.00    -0.005 A 
ATOM      6  C5  UNL d   1       0.604  -2.425   1.368  0.00  0.00     0.003 A 
ATOM      7  C6  UNL d   1       1.447  -1.897   0.389  0.00  0.00    -0.001 A 
ENDROOT
TORSDOF 0
ENDMDL
