MODEL 1
REMARK minimizedAffinity -5.53593826
REMARK minimizedRMSD -1
REMARK  0 active torsions:
REMARK  status: ('A' for Active; 'I' for Inactive)
ROOT
ATOM      1  C   UNL d   1      -0.807   0.727   0.166  0.00  0.00     0.078 C 
ATOM      2  C1  UNL d   1      -0.220  -0.387   0.981  0.00  0.00    -0.077 A 
ATOM      3  C2  UNL d   1      -0.700  -0.673   2.265  0.00  0.00    -0.001 A 
ATOM      4  C3  UNL d   1      -0.137  -1.706   3.015  0.00  0.00     0.003 A 
ATOM      5  C4  UNL d   1       0.910  -2.461   2.491  0.00  0.00    -0.005 A 
ATOM      6  C5  UNL d   1       1.396  -2.183   1.215  0.00  0.00     0.003 A 
ATOM      7  C6  UNL d   1       0.835  -1.150   0.463  0.00  0.00    -0.001 A 
ENDROOT
TORSDOF 0
ENDMDL
