MODEL 1
REMARK minimizedAffinity 3.73512387
REMARK minimizedRMSD -1
REMARK  0 active torsions:
REMARK  status: ('A' for Active; 'I' for Inactive)
ROOT
ATOM      1  C   UNL d   1      -0.423   3.402  -1.360  0.00  0.00     0.078 C 
ATOM      2  C1  UNL d   1       0.150   3.236   0.016  0.00  0.00    -0.077 A 
ATOM      3  C2  UNL d   1      -0.486   2.432   0.969  0.00  0.00    -0.001 A 
ATOM      4  C3  UNL d   1       0.053   2.294   2.249  0.00  0.00     0.003 A 
ATOM      5  C4  UNL d   1       1.230   2.960   2.588  0.00  0.00    -0.005 A 
ATOM      6  C5  UNL d   1       1.868   3.765   1.647  0.00  0.00     0.003 A 
ATOM      7  C6  UNL d   1       1.330   3.903   0.366  0.00  0.00    -0.001 A 
ENDROOT
TORSDOF 0
ENDMDL
