MODEL 1
REMARK minimizedAffinity -0.388061464
REMARK minimizedRMSD -1
REMARK  0 active torsions:
REMARK  status: ('A' for Active; 'I' for Inactive)
ROOT
ATOM      1  C   UNL d   1      -4.916   3.780  -5.915  0.00  0.00     0.078 C 
ATOM      2  C1  UNL d   1      -4.923   3.387  -4.468  0.00  0.00    -0.077 A 
ATOM      3  C2  UNL d   1      -5.998   2.678  -3.918  0.00  0.00    -0.001 A 
ATOM      4  C3  UNL d   1      -5.995   2.327  -2.567  0.00  0.00     0.003 A 
ATOM      5  C4  UNL d   1      -4.920   2.682  -1.754  0.00  0.00    -0.005 A 
ATOM      6  C5  UNL d   1      -3.847   3.389  -2.292  0.00  0.00     0.003 A 
ATOM      7  C6  UNL d   1      -3.848   3.741  -3.642  0.00  0.00    -0.001 A 
ENDROOT
TORSDOF 0
ENDMDL
