MODEL 1
REMARK minimizedAffinity 3.73583865
REMARK minimizedRMSD -1
REMARK  0 active torsions:
REMARK  status: ('A' for Active; 'I' for Inactive)
ROOT
ATOM      1  C   UNL d   1      -1.889   4.625  -1.867  0.00  0.00     0.078 C 
ATOM      2  C1  UNL d   1      -0.906   3.782  -1.112  0.00  0.00    -0.077 A 
ATOM      3  C2  UNL d   1      -0.131   2.816  -1.767  0.00  0.00    -0.001 A 
ATOM      4  C3  UNL d   1       0.773   2.032  -1.049  0.00  0.00     0.003 A 
ATOM      5  C4  UNL d   1       0.911   2.204   0.327  0.00  0.00    -0.005 A 
ATOM      6  C5  UNL d   1       0.143   3.161   0.987  0.00  0.00     0.003 A 
ATOM      7  C6  UNL d   1      -0.762   3.946   0.271  0.00  0.00    -0.001 A 
ENDROOT
TORSDOF 0
ENDMDL
