MODEL 1
REMARK minimizedAffinity 3.92024374
REMARK minimizedRMSD -1
REMARK  0 active torsions:
REMARK  status: ('A' for Active; 'I' for Inactive)
ROOT
ATOM      1  C   UNL d   1       0.867   4.347  -0.379  0.00  0.00     0.078 C 
ATOM      2  C1  UNL d   1       0.620   3.550   0.867  0.00  0.00    -0.077 A 
ATOM      3  C2  UNL d   1       1.584   2.658   1.355  0.00  0.00    -0.001 A 
ATOM      4  C3  UNL d   1       1.337   1.915   2.510  0.00  0.00     0.003 A 
ATOM      5  C4  UNL d   1       0.127   2.055   3.187  0.00  0.00    -0.005 A 
ATOM      6  C5  UNL d   1      -0.839   2.938   2.708  0.00  0.00     0.003 A 
ATOM      7  C6  UNL d   1      -0.594   3.682   1.553  0.00  0.00    -0.001 A 
ENDROOT
TORSDOF 0
ENDMDL
