MODEL 1
REMARK minimizedAffinity -1.61564767
REMARK minimizedRMSD -1
REMARK  0 active torsions:
REMARK  status: ('A' for Active; 'I' for Inactive)
ROOT
ATOM      1  C   UNL d   1      -4.355   4.127  -5.999  0.00  0.00     0.078 C 
ATOM      2  C1  UNL d   1      -4.670   3.530  -4.660  0.00  0.00    -0.077 A 
ATOM      3  C2  UNL d   1      -5.724   4.024  -3.881  0.00  0.00    -0.001 A 
ATOM      4  C3  UNL d   1      -6.000   3.465  -2.632  0.00  0.00     0.003 A 
ATOM      5  C4  UNL d   1      -5.226   2.411  -2.150  0.00  0.00    -0.005 A 
ATOM      6  C5  UNL d   1      -4.174   1.915  -2.917  0.00  0.00     0.003 A 
ATOM      7  C6  UNL d   1      -3.896   2.472  -4.167  0.00  0.00    -0.001 A 
ENDROOT
TORSDOF 0
ENDMDL
