MODEL 1
REMARK minimizedAffinity 5.66460371
REMARK minimizedRMSD -1
REMARK  0 active torsions:
REMARK  status: ('A' for Active; 'I' for Inactive)
ROOT
ATOM      1  C   UNL d   1       0.382   1.889  -0.828  0.00  0.00     0.078 C 
ATOM      2  C1  UNL d   1       0.212   2.171   0.635  0.00  0.00    -0.077 A 
ATOM      3  C2  UNL d   1       1.300   2.104   1.513  0.00  0.00    -0.001 A 
ATOM      4  C3  UNL d   1       1.126   2.361   2.874  0.00  0.00     0.003 A 
ATOM      5  C4  UNL d   1      -0.136   2.685   3.369  0.00  0.00    -0.005 A 
ATOM      6  C5  UNL d   1      -1.225   2.752   2.503  0.00  0.00     0.003 A 
ATOM      7  C6  UNL d   1      -1.052   2.496   1.141  0.00  0.00    -0.001 A 
ENDROOT
TORSDOF 0
ENDMDL
