MODEL 1
REMARK minimizedAffinity 1.50394416
REMARK minimizedRMSD -1
REMARK  0 active torsions:
REMARK  status: ('A' for Active; 'I' for Inactive)
ROOT
ATOM      1  C   UNL d   1      -5.963   1.811  -1.983  0.00  0.00     0.078 C 
ATOM      2  C1  UNL d   1      -5.318   2.860  -2.839  0.00  0.00    -0.077 A 
ATOM      3  C2  UNL d   1      -5.981   3.392  -3.952  0.00  0.00    -0.001 A 
ATOM      4  C3  UNL d   1      -5.364   4.360  -4.745  0.00  0.00     0.003 A 
ATOM      5  C4  UNL d   1      -4.080   4.804  -4.436  0.00  0.00    -0.005 A 
ATOM      6  C5  UNL d   1      -3.411   4.279  -3.332  0.00  0.00     0.003 A 
ATOM      7  C6  UNL d   1      -4.026   3.310  -2.537  0.00  0.00    -0.001 A 
ENDROOT
TORSDOF 0
ENDMDL
