MODEL 1
REMARK minimizedAffinity 4.182055
REMARK minimizedRMSD -1
REMARK  0 active torsions:
REMARK  status: ('A' for Active; 'I' for Inactive)
ROOT
ATOM      1  C   UNL d   1      -1.796   6.000   1.137  0.00  0.00     0.078 C 
ATOM      2  C1  UNL d   1      -0.757   5.007   0.710  0.00  0.00    -0.077 A 
ATOM      3  C2  UNL d   1      -0.860   3.657   1.067  0.00  0.00    -0.001 A 
ATOM      4  C3  UNL d   1       0.120   2.746   0.670  0.00  0.00     0.003 A 
ATOM      5  C4  UNL d   1       1.210   3.174  -0.084  0.00  0.00    -0.005 A 
ATOM      6  C5  UNL d   1       1.322   4.516  -0.442  0.00  0.00     0.003 A 
ATOM      7  C6  UNL d   1       0.343   5.429  -0.047  0.00  0.00    -0.001 A 
ENDROOT
TORSDOF 0
ENDMDL
