MODEL 1
REMARK minimizedAffinity -0.550250292
REMARK minimizedRMSD -1
REMARK  0 active torsions:
REMARK  status: ('A' for Active; 'I' for Inactive)
ROOT
ATOM      1  C   UNL d   1      -2.593   4.937  -1.906  0.00  0.00     0.078 C 
ATOM      2  C1  UNL d   1      -1.326   4.399  -1.312  0.00  0.00    -0.077 A 
ATOM      3  C2  UNL d   1      -1.357   3.514  -0.228  0.00  0.00    -0.001 A 
ATOM      4  C3  UNL d   1      -0.169   3.028   0.322  0.00  0.00     0.003 A 
ATOM      5  C4  UNL d   1       1.059   3.423  -0.206  0.00  0.00    -0.005 A 
ATOM      6  C5  UNL d   1       1.100   4.305  -1.284  0.00  0.00     0.003 A 
ATOM      7  C6  UNL d   1      -0.087   4.791  -1.835  0.00  0.00    -0.001 A 
ENDROOT
TORSDOF 0
ENDMDL
