MODEL 1
REMARK minimizedAffinity 1.99486482
REMARK minimizedRMSD -1
REMARK  0 active torsions:
REMARK  status: ('A' for Active; 'I' for Inactive)
ROOT
ATOM      1  C   UNL d   1      -2.995   3.338  -2.613  0.00  0.00     0.078 C 
ATOM      2  C1  UNL d   1      -3.929   3.368  -3.786  0.00  0.00    -0.077 A 
ATOM      3  C2  UNL d   1      -3.639   4.139  -4.919  0.00  0.00    -0.001 A 
ATOM      4  C3  UNL d   1      -4.523   4.166  -5.999  0.00  0.00     0.003 A 
ATOM      5  C4  UNL d   1      -5.702   3.425  -5.957  0.00  0.00    -0.005 A 
ATOM      6  C5  UNL d   1      -6.000   2.657  -4.833  0.00  0.00     0.003 A 
ATOM      7  C6  UNL d   1      -5.118   2.629  -3.752  0.00  0.00    -0.001 A 
ENDROOT
TORSDOF 0
ENDMDL
