MODEL 1
REMARK minimizedAffinity -5.64438725
REMARK minimizedRMSD -1
REMARK  0 active torsions:
REMARK  status: ('A' for Active; 'I' for Inactive)
ROOT
ATOM      1  C   UNL d   1      -3.360   2.120   2.602  0.00  0.00     0.078 C 
ATOM      2  C1  UNL d   1      -2.179   1.377   2.053  0.00  0.00    -0.077 A 
ATOM      3  C2  UNL d   1      -2.158  -0.022   2.021  0.00  0.00    -0.001 A 
ATOM      4  C3  UNL d   1      -1.047  -0.701   1.517  0.00  0.00     0.003 A 
ATOM      5  C4  UNL d   1       0.051   0.013   1.041  0.00  0.00    -0.005 A 
ATOM      6  C5  UNL d   1       0.041   1.406   1.070  0.00  0.00     0.003 A 
ATOM      7  C6  UNL d   1      -1.069   2.085   1.575  0.00  0.00    -0.001 A 
ENDROOT
TORSDOF 0
ENDMDL
