MODEL 1
REMARK minimizedAffinity 0.578785479
REMARK minimizedRMSD -1
REMARK  0 active torsions:
REMARK  status: ('A' for Active; 'I' for Inactive)
ROOT
ATOM      1  C   UNL d   1      -1.402  -3.195  -4.940  0.00  0.00     0.078 C 
ATOM      2  C1  UNL d   1      -2.124  -2.962  -3.646  0.00  0.00    -0.077 A 
ATOM      3  C2  UNL d   1      -3.026  -1.899  -3.505  0.00  0.00    -0.001 A 
ATOM      4  C3  UNL d   1      -3.683  -1.688  -2.292  0.00  0.00     0.003 A 
ATOM      5  C4  UNL d   1      -3.446  -2.534  -1.211  0.00  0.00    -0.005 A 
ATOM      6  C5  UNL d   1      -2.549  -3.592  -1.341  0.00  0.00     0.003 A 
ATOM      7  C6  UNL d   1      -1.890  -3.805  -2.553  0.00  0.00    -0.001 A 
ENDROOT
TORSDOF 0
ENDMDL
