MODEL 1
REMARK minimizedAffinity -1.01656032
REMARK minimizedRMSD -1
REMARK  0 active torsions:
REMARK  status: ('A' for Active; 'I' for Inactive)
ROOT
ATOM      1  C   UNL d   1      -1.502  -1.327   2.267  0.00  0.00     0.078 C 
ATOM      2  C1  UNL d   1      -1.035   0.068   1.976  0.00  0.00    -0.077 A 
ATOM      3  C2  UNL d   1       0.269   0.313   1.529  0.00  0.00    -0.001 A 
ATOM      4  C3  UNL d   1       0.694   1.617   1.271  0.00  0.00     0.003 A 
ATOM      5  C4  UNL d   1      -0.179   2.687   1.458  0.00  0.00    -0.005 A 
ATOM      6  C5  UNL d   1      -1.478   2.453   1.904  0.00  0.00     0.003 A 
ATOM      7  C6  UNL d   1      -1.905   1.150   2.162  0.00  0.00    -0.001 A 
ENDROOT
TORSDOF 0
ENDMDL
