MODEL 1
REMARK minimizedAffinity -5.04283381
REMARK minimizedRMSD -1
REMARK  0 active torsions:
REMARK  status: ('A' for Active; 'I' for Inactive)
ROOT
ATOM      1  C   UNL d   1      -3.535   1.326   3.152  0.00  0.00     0.078 C 
ATOM      2  C1  UNL d   1      -2.192   1.116   2.519  0.00  0.00    -0.077 A 
ATOM      3  C2  UNL d   1      -1.520  -0.106   2.643  0.00  0.00    -0.001 A 
ATOM      4  C3  UNL d   1      -0.266  -0.284   2.057  0.00  0.00     0.003 A 
ATOM      5  C4  UNL d   1       0.327   0.755   1.343  0.00  0.00    -0.005 A 
ATOM      6  C5  UNL d   1      -0.334   1.976   1.216  0.00  0.00     0.003 A 
ATOM      7  C6  UNL d   1      -1.587   2.156   1.802  0.00  0.00    -0.001 A 
ENDROOT
TORSDOF 0
ENDMDL
