MODEL 1
REMARK minimizedAffinity -2.40140224
REMARK minimizedRMSD -1
REMARK  0 active torsions:
REMARK  status: ('A' for Active; 'I' for Inactive)
ROOT
ATOM      1  C   UNL d   1      -2.915   0.350   2.563  0.00  0.00     0.078 C 
ATOM      2  C1  UNL d   1      -1.820   1.213   2.011  0.00  0.00    -0.077 A 
ATOM      3  C2  UNL d   1      -2.108   2.291   1.165  0.00  0.00    -0.001 A 
ATOM      4  C3  UNL d   1      -1.078   3.080   0.651  0.00  0.00     0.003 A 
ATOM      5  C4  UNL d   1       0.247   2.799   0.977  0.00  0.00    -0.005 A 
ATOM      6  C5  UNL d   1       0.544   1.727   1.816  0.00  0.00     0.003 A 
ATOM      7  C6  UNL d   1      -0.485   0.937   2.331  0.00  0.00    -0.001 A 
ENDROOT
TORSDOF 0
ENDMDL
