MODEL 1
REMARK minimizedAffinity 5.1149683
REMARK minimizedRMSD -1
REMARK  0 active torsions:
REMARK  status: ('A' for Active; 'I' for Inactive)
ROOT
ATOM      1  C   UNL d   1      -2.278   2.230   1.577  0.00  0.00     0.078 C 
ATOM      2  C1  UNL d   1      -0.878   1.812   1.241  0.00  0.00    -0.077 A 
ATOM      3  C2  UNL d   1      -0.240   2.290   0.089  0.00  0.00    -0.001 A 
ATOM      4  C3  UNL d   1       1.060   1.885  -0.217  0.00  0.00     0.003 A 
ATOM      5  C4  UNL d   1       1.733   1.000   0.623  0.00  0.00    -0.005 A 
ATOM      6  C5  UNL d   1       1.106   0.517   1.770  0.00  0.00     0.003 A 
ATOM      7  C6  UNL d   1      -0.195   0.921   2.077  0.00  0.00    -0.001 A 
ENDROOT
TORSDOF 0
ENDMDL
