MODEL 1
REMARK minimizedAffinity -2.68139982
REMARK minimizedRMSD -1
REMARK  0 active torsions:
REMARK  status: ('A' for Active; 'I' for Inactive)
ROOT
ATOM      1  C   UNL d   1       1.940   2.390   0.404  0.00  0.00     0.078 C 
ATOM      2  C1  UNL d   1       0.821   1.454   0.753  0.00  0.00    -0.077 A 
ATOM      3  C2  UNL d   1       1.083   0.178   1.268  0.00  0.00    -0.001 A 
ATOM      4  C3  UNL d   1       0.032  -0.686   1.580  0.00  0.00     0.003 A 
ATOM      5  C4  UNL d   1      -1.287  -0.284   1.379  0.00  0.00    -0.005 A 
ATOM      6  C5  UNL d   1      -1.557   0.982   0.865  0.00  0.00     0.003 A 
ATOM      7  C6  UNL d   1      -0.508   1.848   0.553  0.00  0.00    -0.001 A 
ENDROOT
TORSDOF 0
ENDMDL
