MODEL 1
REMARK minimizedAffinity 1.98259962
REMARK minimizedRMSD -1
REMARK  0 active torsions:
REMARK  status: ('A' for Active; 'I' for Inactive)
ROOT
ATOM      1  C   UNL d   1      -2.036  -5.477  -0.257  0.00  0.00     0.078 C 
ATOM      2  C1  UNL d   1      -2.628  -4.222  -0.824  0.00  0.00    -0.077 A 
ATOM      3  C2  UNL d   1      -3.860  -3.736  -0.370  0.00  0.00    -0.001 A 
ATOM      4  C3  UNL d   1      -4.404  -2.572  -0.914  0.00  0.00     0.003 A 
ATOM      5  C4  UNL d   1      -3.723  -1.883  -1.916  0.00  0.00    -0.005 A 
ATOM      6  C5  UNL d   1      -2.496  -2.359  -2.375  0.00  0.00     0.003 A 
ATOM      7  C6  UNL d   1      -1.951  -3.524  -1.832  0.00  0.00    -0.001 A 
ENDROOT
TORSDOF 0
ENDMDL
