MODEL 1
REMARK minimizedAffinity 1.345263
REMARK minimizedRMSD -1
REMARK  0 active torsions:
REMARK  status: ('A' for Active; 'I' for Inactive)
ROOT
ATOM      1  C   UNL d   1      -3.429   1.566   3.079  0.00  0.00     0.078 C 
ATOM      2  C1  UNL d   1      -2.079   1.642   2.431  0.00  0.00    -0.077 A 
ATOM      3  C2  UNL d   1      -1.111   0.658   2.663  0.00  0.00    -0.001 A 
ATOM      4  C3  UNL d   1       0.145   0.747   2.061  0.00  0.00     0.003 A 
ATOM      5  C4  UNL d   1       0.445   1.819   1.223  0.00  0.00    -0.005 A 
ATOM      6  C5  UNL d   1      -0.512   2.805   0.988  0.00  0.00     0.003 A 
ATOM      7  C6  UNL d   1      -1.768   2.718   1.589  0.00  0.00    -0.001 A 
ENDROOT
TORSDOF 0
ENDMDL
