MODEL 1
REMARK minimizedAffinity 6.69285345
REMARK minimizedRMSD -1
REMARK  0 active torsions:
REMARK  status: ('A' for Active; 'I' for Inactive)
ROOT
ATOM      1  C   UNL d   1      -3.471   1.497   2.847  0.00  0.00     0.078 C 
ATOM      2  C1  UNL d   1      -4.346   2.007   3.952  0.00  0.00    -0.077 A 
ATOM      3  C2  UNL d   1      -4.774   1.161   4.982  0.00  0.00    -0.001 A 
ATOM      4  C3  UNL d   1      -5.597   1.647   6.000  0.00  0.00     0.003 A 
ATOM      5  C4  UNL d   1      -6.000   2.981   5.997  0.00  0.00    -0.005 A 
ATOM      6  C5  UNL d   1      -5.581   3.830   4.975  0.00  0.00     0.003 A 
ATOM      7  C6  UNL d   1      -4.759   3.346   3.956  0.00  0.00    -0.001 A 
ENDROOT
TORSDOF 0
ENDMDL
