MODEL 1
REMARK minimizedAffinity 8.19420338
REMARK minimizedRMSD -1
REMARK  0 active torsions:
REMARK  status: ('A' for Active; 'I' for Inactive)
ROOT
ATOM      1  C   UNL d   1      -2.555  -5.000  -1.393  0.00  0.00     0.078 C 
ATOM      2  C1  UNL d   1      -2.883  -3.548  -1.575  0.00  0.00    -0.077 A 
ATOM      3  C2  UNL d   1      -2.655  -2.906  -2.799  0.00  0.00    -0.001 A 
ATOM      4  C3  UNL d   1      -2.957  -1.551  -2.951  0.00  0.00     0.003 A 
ATOM      5  C4  UNL d   1      -3.486  -0.828  -1.885  0.00  0.00    -0.005 A 
ATOM      6  C5  UNL d   1      -3.714  -1.458  -0.663  0.00  0.00     0.003 A 
ATOM      7  C6  UNL d   1      -3.414  -2.812  -0.509  0.00  0.00    -0.001 A 
ENDROOT
TORSDOF 0
ENDMDL
