MODEL 1
REMARK minimizedAffinity -2.329597
REMARK minimizedRMSD -1
REMARK  0 active torsions:
REMARK  status: ('A' for Active; 'I' for Inactive)
ROOT
ATOM      1  C   UNL d   1       1.058   1.846   1.053  0.00  0.00     0.078 C 
ATOM      2  C1  UNL d   1       0.551   0.725   1.911  0.00  0.00    -0.077 A 
ATOM      3  C2  UNL d   1      -0.778   0.294   1.823  0.00  0.00    -0.001 A 
ATOM      4  C3  UNL d   1      -1.238  -0.744   2.635  0.00  0.00     0.003 A 
ATOM      5  C4  UNL d   1      -0.376  -1.358   3.542  0.00  0.00    -0.005 A 
ATOM      6  C5  UNL d   1       0.947  -0.934   3.638  0.00  0.00     0.003 A 
ATOM      7  C6  UNL d   1       1.409   0.104   2.827  0.00  0.00    -0.001 A 
ENDROOT
TORSDOF 0
ENDMDL
