MODEL 1
REMARK minimizedAffinity 9.14786625
REMARK minimizedRMSD -1
REMARK  0 active torsions:
REMARK  status: ('A' for Active; 'I' for Inactive)
ROOT
ATOM      1  C   UNL d   1      -2.982  -1.162  -4.755  0.00  0.00     0.023 A 
ATOM      2  C1  UNL d   1      -3.834  -1.089  -5.857  0.00  0.00     0.003 A 
ATOM      3  C2  UNL d   1      -4.701  -0.004  -6.000  0.00  0.00     0.048 A 
ATOM      4  C3  UNL d   1      -4.710   1.006  -5.038  0.00  0.00     0.023 A 
ATOM      5  C4  UNL d   1      -3.858   0.938  -3.934  0.00  0.00     0.048 A 
ATOM      6  C5  UNL d   1      -2.994  -0.150  -3.795  0.00  0.00     0.003 A 
ATOM      7  I   UNL d   1      -6.000   2.622  -5.249  0.00  0.00    -0.146 I 
ENDROOT
TORSDOF 0
ENDMDL
