MODEL 1
REMARK minimizedAffinity 8.087183
REMARK minimizedRMSD -1
REMARK  0 active torsions:
REMARK  status: ('A' for Active; 'I' for Inactive)
ROOT
ATOM      1  C   UNL d   1      -1.175  -0.743   3.541  0.00  0.00     0.023 A 
ATOM      2  C1  UNL d   1      -0.079  -1.607   3.531  0.00  0.00     0.003 A 
ATOM      3  C2  UNL d   1       0.761  -1.659   2.417  0.00  0.00     0.048 A 
ATOM      4  C3  UNL d   1       0.500  -0.843   1.317  0.00  0.00     0.023 A 
ATOM      5  C4  UNL d   1      -0.594   0.023   1.322  0.00  0.00     0.048 A 
ATOM      6  C5  UNL d   1      -1.432   0.071   2.438  0.00  0.00     0.003 A 
ATOM      7  I   UNL d   1       1.750  -0.918  -0.343  0.00  0.00    -0.146 I 
ENDROOT
TORSDOF 0
ENDMDL
