MODEL 1
REMARK minimizedAffinity 4.39800787
REMARK minimizedRMSD -1
REMARK  0 active torsions:
REMARK  status: ('A' for Active; 'I' for Inactive)
ROOT
ATOM      1  C   UNL d   1      -4.805  -1.759  -3.739  0.00  0.00     0.023 A 
ATOM      2  C1  UNL d   1      -3.894  -1.476  -2.721  0.00  0.00     0.003 A 
ATOM      3  C2  UNL d   1      -3.354  -0.194  -2.601  0.00  0.00     0.048 A 
ATOM      4  C3  UNL d   1      -3.731   0.802  -3.502  0.00  0.00     0.023 A 
ATOM      5  C4  UNL d   1      -4.643   0.524  -4.522  0.00  0.00     0.048 A 
ATOM      6  C5  UNL d   1      -5.179  -0.760  -4.638  0.00  0.00     0.003 A 
ATOM      7  I   UNL d   1      -2.929   2.711  -3.326  0.00  0.00    -0.146 I 
ENDROOT
TORSDOF 0
ENDMDL
