MODEL 1
REMARK minimizedAffinity 4.29830408
REMARK minimizedRMSD -1
REMARK  0 active torsions:
REMARK  status: ('A' for Active; 'I' for Inactive)
ROOT
ATOM      1  C   UNL d   1       3.117  -1.051  -2.746  0.00  0.00     0.023 A 
ATOM      2  C1  UNL d   1       3.862  -1.355  -1.607  0.00  0.00     0.003 A 
ATOM      3  C2  UNL d   1       3.229  -1.470  -0.367  0.00  0.00     0.048 A 
ATOM      4  C3  UNL d   1       1.851  -1.281  -0.275  0.00  0.00     0.023 A 
ATOM      5  C4  UNL d   1       1.101  -0.977  -1.412  0.00  0.00     0.048 A 
ATOM      6  C5  UNL d   1       1.739  -0.862  -2.649  0.00  0.00     0.003 A 
ATOM      7  I   UNL d   1       0.906  -1.452   1.569  0.00  0.00    -0.146 I 
ENDROOT
TORSDOF 0
ENDMDL
