MODEL 1
REMARK minimizedAffinity 9.64139938
REMARK minimizedRMSD -1
REMARK  0 active torsions:
REMARK  status: ('A' for Active; 'I' for Inactive)
ROOT
ATOM      1  C   UNL d   1       6.000  -0.595   1.310  0.00  0.00     0.023 A 
ATOM      2  C1  UNL d   1       5.997  -1.602   0.345  0.00  0.00     0.003 A 
ATOM      3  C2  UNL d   1       4.859  -1.820  -0.435  0.00  0.00     0.048 A 
ATOM      4  C3  UNL d   1       3.728  -1.026  -0.245  0.00  0.00     0.023 A 
ATOM      5  C4  UNL d   1       3.727  -0.017   0.719  0.00  0.00     0.048 A 
ATOM      6  C5  UNL d   1       4.866   0.197   1.497  0.00  0.00     0.003 A 
ATOM      7  I   UNL d   1       2.034  -1.349  -1.404  0.00  0.00    -0.146 I 
ENDROOT
TORSDOF 0
ENDMDL
