MODEL 1
REMARK minimizedAffinity 2.66705275
REMARK minimizedRMSD -1
REMARK  0 active torsions:
REMARK  status: ('A' for Active; 'I' for Inactive)
ROOT
ATOM      1  C   UNL d   1       1.944  -0.555  -2.481  0.00  0.00     0.023 A 
ATOM      2  C1  UNL d   1       0.796  -1.272  -2.143  0.00  0.00     0.003 A 
ATOM      3  C2  UNL d   1       0.513  -1.550  -0.804  0.00  0.00     0.048 A 
ATOM      4  C3  UNL d   1       1.382  -1.107   0.192  0.00  0.00     0.023 A 
ATOM      5  C4  UNL d   1       2.531  -0.388  -0.141  0.00  0.00     0.048 A 
ATOM      6  C5  UNL d   1       2.810  -0.113  -1.482  0.00  0.00     0.003 A 
ATOM      7  I   UNL d   1       0.964  -1.518   2.186  0.00  0.00    -0.146 I 
ENDROOT
TORSDOF 0
ENDMDL
