MODEL 1
REMARK minimizedAffinity -2.47612262
REMARK minimizedRMSD -1
REMARK  0 active torsions:
REMARK  status: ('A' for Active; 'I' for Inactive)
ROOT
ATOM      1  C   UNL d   1       3.001   2.162  -1.861  0.00  0.00     0.023 A 
ATOM      2  C1  UNL d   1       3.017   0.963  -2.575  0.00  0.00     0.003 A 
ATOM      3  C2  UNL d   1       2.682  -0.234  -1.939  0.00  0.00     0.048 A 
ATOM      4  C3  UNL d   1       2.332  -0.226  -0.589  0.00  0.00     0.023 A 
ATOM      5  C4  UNL d   1       2.314   0.971   0.129  0.00  0.00     0.048 A 
ATOM      6  C5  UNL d   1       2.650   2.166  -0.511  0.00  0.00     0.003 A 
ATOM      7  I   UNL d   1       1.833  -2.006   0.359  0.00  0.00    -0.146 I 
ENDROOT
TORSDOF 0
ENDMDL
