MODEL 1
REMARK minimizedAffinity -3.62271142
REMARK minimizedRMSD -1
REMARK  3 active torsions:
REMARK  status: ('A' for Active; 'I' for Inactive)
REMARK    1  A    between atoms: C3'_2  and  C2'_3 
REMARK    2  A    between atoms: C2'_3  and  C1'_4 
REMARK    3  A    between atoms: C1'_4  and  C1_5 
ROOT
ATOM      1  C1  N4B d   1      -1.214   1.504   1.819  0.00  0.00    -0.075 A 
ATOM      2  C2  N4B d   1      -1.482   2.618   2.644  0.00  0.00     0.002 A 
ATOM      3  C3  N4B d   1      -2.549   2.593   3.508  0.00  0.00     0.002 A 
ATOM      4  C4  N4B d   1      -3.370   1.475   3.551  0.00  0.00    -0.004 A 
ATOM      5  C5  N4B d   1      -3.089   0.393   2.769  0.00  0.00     0.002 A 
ATOM      6  C6  N4B d   1      -2.017   0.403   1.899  0.00  0.00     0.002 A 
ENDROOT
BRANCH   1   7
ATOM      7  C1' N4B d   1      -0.110   1.519   0.798  0.00  0.00     0.057 C 
BRANCH   7   8
ATOM      8  C2' N4B d   1       1.046   0.656   1.296  0.00  0.00     0.009 C 
BRANCH   8   9
ATOM      9  C3' N4B d   1       0.566  -0.477   2.187  0.00  0.00     0.004 C 
ATOM     10  C4' N4B d   1       1.679  -1.121   2.958  0.00  0.00     0.003 C 
ENDBRANCH   8   9
ENDBRANCH   7   8
ENDBRANCH   1   7
TORSDOF 3
ENDMDL
