MODEL 1
REMARK minimizedAffinity -0.0106252972
REMARK minimizedRMSD -1
REMARK  3 active torsions:
REMARK  status: ('A' for Active; 'I' for Inactive)
REMARK    1  A    between atoms: C3'_2  and  C2'_3 
REMARK    2  A    between atoms: C2'_3  and  C1'_4 
REMARK    3  A    between atoms: C1'_4  and  C1_5 
ROOT
ATOM      1  C1  N4B d   1      -3.335   1.323   2.901  0.00  0.00    -0.075 A 
ATOM      2  C2  N4B d   1      -2.592   2.423   2.421  0.00  0.00     0.002 A 
ATOM      3  C3  N4B d   1      -1.454   2.213   1.680  0.00  0.00     0.002 A 
ATOM      4  C4  N4B d   1      -1.032   0.917   1.424  0.00  0.00    -0.004 A 
ATOM      5  C5  N4B d   1      -1.770  -0.141   1.870  0.00  0.00     0.002 A 
ATOM      6  C6  N4B d   1      -2.917   0.056   2.612  0.00  0.00     0.002 A 
ENDROOT
BRANCH   1   7
ATOM      7  C1' N4B d   1      -4.537   1.502   3.787  0.00  0.00     0.057 C 
BRANCH   7   8
ATOM      8  C2' N4B d   1      -4.116   2.227   5.062  0.00  0.00     0.009 C 
BRANCH   8   9
ATOM      9  C3' N4B d   1      -5.292   2.474   5.990  0.00  0.00     0.004 C 
ATOM     10  C4' N4B d   1      -5.735   3.907   5.999  0.00  0.00     0.003 C 
ENDBRANCH   8   9
ENDBRANCH   7   8
ENDBRANCH   1   7
TORSDOF 3
ENDMDL
