MODEL 1
REMARK minimizedAffinity -1.09333229
REMARK minimizedRMSD -1
REMARK  3 active torsions:
REMARK  status: ('A' for Active; 'I' for Inactive)
REMARK    1  A    between atoms: C3'_2  and  C2'_3 
REMARK    2  A    between atoms: C2'_3  and  C1'_4 
REMARK    3  A    between atoms: C1'_4  and  C1_5 
ROOT
ATOM      1  C1  N4B d   1      -1.907   1.496   2.635  0.00  0.00    -0.075 A 
ATOM      2  C2  N4B d   1      -1.850   0.092   2.494  0.00  0.00     0.002 A 
ATOM      3  C3  N4B d   1      -0.861  -0.482   1.733  0.00  0.00     0.002 A 
ATOM      4  C4  N4B d   1       0.066   0.326   1.091  0.00  0.00    -0.004 A 
ATOM      5  C5  N4B d   1       0.019   1.680   1.253  0.00  0.00     0.002 A 
ATOM      6  C6  N4B d   1      -0.967   2.269   2.019  0.00  0.00     0.002 A 
ENDROOT
BRANCH   1   7
ATOM      7  C1' N4B d   1      -3.020   2.173   3.387  0.00  0.00     0.057 C 
BRANCH   7   8
ATOM      8  C2' N4B d   1      -3.854   1.117   4.107  0.00  0.00     0.009 C 
BRANCH   8   9
ATOM      9  C3' N4B d   1      -5.136   1.698   4.679  0.00  0.00     0.004 C 
ATOM     10  C4' N4B d   1      -4.926   2.381   5.997  0.00  0.00     0.003 C 
ENDBRANCH   8   9
ENDBRANCH   7   8
ENDBRANCH   1   7
TORSDOF 3
ENDMDL
