MODEL 1
REMARK minimizedAffinity -2.18307996
REMARK minimizedRMSD -1
REMARK  3 active torsions:
REMARK  status: ('A' for Active; 'I' for Inactive)
REMARK    1  A    between atoms: C3'_2  and  C2'_3 
REMARK    2  A    between atoms: C2'_3  and  C1'_4 
REMARK    3  A    between atoms: C1'_4  and  C1_5 
ROOT
ATOM      1  C1  N4B d   1      -1.076   0.018   1.436  0.00  0.00    -0.075 A 
ATOM      2  C2  N4B d   1      -1.580   1.236   1.942  0.00  0.00     0.002 A 
ATOM      3  C3  N4B d   1      -0.805   2.369   1.901  0.00  0.00     0.002 A 
ATOM      4  C4  N4B d   1       0.478   2.304   1.378  0.00  0.00    -0.004 A 
ATOM      5  C5  N4B d   1       0.948   1.129   0.868  0.00  0.00     0.002 A 
ATOM      6  C6  N4B d   1       0.178  -0.017   0.899  0.00  0.00     0.002 A 
ENDROOT
BRANCH   1   7
ATOM      7  C1' N4B d   1      -1.854  -1.266   1.538  0.00  0.00     0.057 C 
BRANCH   7   8
ATOM      8  C2' N4B d   1      -2.704  -1.238   2.804  0.00  0.00     0.009 C 
BRANCH   8   9
ATOM      9  C3' N4B d   1      -2.230  -2.252   3.830  0.00  0.00     0.004 C 
ATOM     10  C4' N4B d   1      -3.346  -3.089   4.379  0.00  0.00     0.003 C 
ENDBRANCH   8   9
ENDBRANCH   7   8
ENDBRANCH   1   7
TORSDOF 3
ENDMDL
