MODEL 1
REMARK minimizedAffinity -2.42613029
REMARK minimizedRMSD -1
REMARK  3 active torsions:
REMARK  status: ('A' for Active; 'I' for Inactive)
REMARK    1  A    between atoms: C3'_2  and  C2'_3 
REMARK    2  A    between atoms: C2'_3  and  C1'_4 
REMARK    3  A    between atoms: C1'_4  and  C1_5 
ROOT
ATOM      1  C1  N4B d   1      -1.592   2.198   2.098  0.00  0.00    -0.075 A 
ATOM      2  C2  N4B d   1      -1.707   0.807   1.888  0.00  0.00     0.002 A 
ATOM      3  C3  N4B d   1      -0.829   0.164   1.049  0.00  0.00     0.002 A 
ATOM      4  C4  N4B d   1       0.155   0.893   0.398  0.00  0.00    -0.004 A 
ATOM      5  C5  N4B d   1       0.275   2.232   0.626  0.00  0.00     0.002 A 
ATOM      6  C6  N4B d   1      -0.597   2.890   1.469  0.00  0.00     0.002 A 
ENDROOT
BRANCH   1   7
ATOM      7  C1' N4B d   1      -2.581   2.959   2.938  0.00  0.00     0.057 C 
BRANCH   7   8
ATOM      8  C2' N4B d   1      -3.450   1.969   3.707  0.00  0.00     0.009 C 
BRANCH   8   9
ATOM      9  C3' N4B d   1      -4.648   2.645   4.352  0.00  0.00     0.004 C 
ATOM     10  C4' N4B d   1      -4.587   2.629   5.851  0.00  0.00     0.003 C 
ENDBRANCH   8   9
ENDBRANCH   7   8
ENDBRANCH   1   7
TORSDOF 3
ENDMDL
