MODEL 1
REMARK minimizedAffinity -5.23973274
REMARK minimizedRMSD -1
REMARK  3 active torsions:
REMARK  status: ('A' for Active; 'I' for Inactive)
REMARK    1  A    between atoms: C3'_2  and  C2'_3 
REMARK    2  A    between atoms: C2'_3  and  C1'_4 
REMARK    3  A    between atoms: C1'_4  and  C1_5 
ROOT
ATOM      1  C1  N4B d   1      -1.903   0.985   2.092  0.00  0.00    -0.075 A 
ATOM      2  C2  N4B d   1      -1.216   2.192   2.347  0.00  0.00     0.002 A 
ATOM      3  C3  N4B d   1       0.068   2.361   1.890  0.00  0.00     0.002 A 
ATOM      4  C4  N4B d   1       0.689   1.334   1.196  0.00  0.00    -0.004 A 
ATOM      5  C5  N4B d   1       0.010   0.181   0.932  0.00  0.00     0.002 A 
ATOM      6  C6  N4B d   1      -1.283  -0.001   1.381  0.00  0.00     0.002 A 
ENDROOT
BRANCH   1   7
ATOM      7  C1' N4B d   1      -3.277   0.721   2.645  0.00  0.00     0.057 C 
BRANCH   7   8
ATOM      8  C2' N4B d   1      -3.571   1.725   3.756  0.00  0.00     0.009 C 
BRANCH   8   9
ATOM      9  C3' N4B d   1      -4.897   1.443   4.441  0.00  0.00     0.004 C 
ATOM     10  C4' N4B d   1      -5.010   2.102   5.783  0.00  0.00     0.003 C 
ENDBRANCH   8   9
ENDBRANCH   7   8
ENDBRANCH   1   7
TORSDOF 3
ENDMDL
