MODEL 1
REMARK minimizedAffinity -0.778568029
REMARK minimizedRMSD -1
REMARK  3 active torsions:
REMARK  status: ('A' for Active; 'I' for Inactive)
REMARK    1  A    between atoms: C3'_2  and  C2'_3 
REMARK    2  A    between atoms: C2'_3  and  C1'_4 
REMARK    3  A    between atoms: C1'_4  and  C1_5 
ROOT
ATOM      1  C1  N4B d   1      -1.805   1.563   2.737  0.00  0.00    -0.075 A 
ATOM      2  C2  N4B d   1      -1.098   2.260   1.732  0.00  0.00     0.002 A 
ATOM      3  C3  N4B d   1      -0.262   1.577   0.883  0.00  0.00     0.002 A 
ATOM      4  C4  N4B d   1      -0.103   0.208   1.030  0.00  0.00    -0.004 A 
ATOM      5  C5  N4B d   1      -0.809  -0.461   1.987  0.00  0.00     0.002 A 
ATOM      6  C6  N4B d   1      -1.656   0.211   2.845  0.00  0.00     0.002 A 
ENDROOT
BRANCH   1   7
ATOM      7  C1' N4B d   1      -2.664   2.278   3.744  0.00  0.00     0.057 C 
BRANCH   7   8
ATOM      8  C2' N4B d   1      -3.865   1.403   4.088  0.00  0.00     0.009 C 
BRANCH   8   9
ATOM      9  C3' N4B d   1      -5.040   2.223   4.593  0.00  0.00     0.004 C 
ATOM     10  C4' N4B d   1      -4.847   2.711   5.998  0.00  0.00     0.003 C 
ENDBRANCH   8   9
ENDBRANCH   7   8
ENDBRANCH   1   7
TORSDOF 3
ENDMDL
