MODEL 1
REMARK minimizedAffinity -2.65838051
REMARK minimizedRMSD -1
REMARK  3 active torsions:
REMARK  status: ('A' for Active; 'I' for Inactive)
REMARK    1  A    between atoms: C3'_2  and  C2'_3 
REMARK    2  A    between atoms: C2'_3  and  C1'_4 
REMARK    3  A    between atoms: C1'_4  and  C1_5 
ROOT
ATOM      1  C1  N4B d   1      -1.644   1.693   2.382  0.00  0.00    -0.075 A 
ATOM      2  C2  N4B d   1      -1.840   0.325   2.090  0.00  0.00     0.002 A 
ATOM      3  C3  N4B d   1      -0.854  -0.390   1.455  0.00  0.00     0.002 A 
ATOM      4  C4  N4B d   1       0.324   0.244   1.088  0.00  0.00    -0.004 A 
ATOM      5  C5  N4B d   1       0.516   1.559   1.396  0.00  0.00     0.002 A 
ATOM      6  C6  N4B d   1      -0.465   2.288   2.037  0.00  0.00     0.002 A 
ENDROOT
BRANCH   1   7
ATOM      7  C1' N4B d   1      -2.727   2.536   2.997  0.00  0.00     0.057 C 
BRANCH   7   8
ATOM      8  C2' N4B d   1      -3.673   1.638   3.787  0.00  0.00     0.009 C 
BRANCH   8   9
ATOM      9  C3' N4B d   1      -4.564   2.436   4.724  0.00  0.00     0.004 C 
ATOM     10  C4' N4B d   1      -5.159   1.596   5.815  0.00  0.00     0.003 C 
ENDBRANCH   8   9
ENDBRANCH   7   8
ENDBRANCH   1   7
TORSDOF 3
ENDMDL
