MODEL 1
REMARK minimizedAffinity 0.283912003
REMARK minimizedRMSD -1
REMARK  3 active torsions:
REMARK  status: ('A' for Active; 'I' for Inactive)
REMARK    1  A    between atoms: C3'_2  and  C2'_3 
REMARK    2  A    between atoms: C2'_3  and  C1'_4 
REMARK    3  A    between atoms: C1'_4  and  C1_5 
ROOT
ATOM      1  C1  N4B d   1      -1.122   1.435   2.586  0.00  0.00    -0.075 A 
ATOM      2  C2  N4B d   1      -1.728   0.266   2.074  0.00  0.00     0.002 A 
ATOM      3  C3  N4B d   1      -1.044  -0.530   1.188  0.00  0.00     0.002 A 
ATOM      4  C4  N4B d   1       0.234  -0.169   0.787  0.00  0.00    -0.004 A 
ATOM      5  C5  N4B d   1       0.821   0.948   1.305  0.00  0.00     0.002 A 
ATOM      6  C6  N4B d   1       0.147   1.755   2.200  0.00  0.00     0.002 A 
ENDROOT
BRANCH   1   7
ATOM      7  C1' N4B d   1      -1.863   2.382   3.490  0.00  0.00     0.057 C 
BRANCH   7   8
ATOM      8  C2' N4B d   1      -3.134   1.704   3.992  0.00  0.00     0.009 C 
BRANCH   8   9
ATOM      9  C3' N4B d   1      -4.170   2.713   4.459  0.00  0.00     0.004 C 
ATOM     10  C4' N4B d   1      -4.795   2.339   5.769  0.00  0.00     0.003 C 
ENDBRANCH   8   9
ENDBRANCH   7   8
ENDBRANCH   1   7
TORSDOF 3
ENDMDL
