MODEL 1
REMARK minimizedAffinity 2.88630271
REMARK minimizedRMSD -1
REMARK  3 active torsions:
REMARK  status: ('A' for Active; 'I' for Inactive)
REMARK    1  A    between atoms: C3'_2  and  C2'_3 
REMARK    2  A    between atoms: C2'_3  and  C1'_4 
REMARK    3  A    between atoms: C1'_4  and  C1_5 
ROOT
ATOM      1  C1  N4B d   1       1.544   0.295   1.113  0.00  0.00    -0.075 A 
ATOM      2  C2  N4B d   1       0.589  -0.358   1.923  0.00  0.00     0.002 A 
ATOM      3  C3  N4B d   1      -0.553   0.303   2.305  0.00  0.00     0.002 A 
ATOM      4  C4  N4B d   1      -0.752   1.616   1.906  0.00  0.00    -0.004 A 
ATOM      5  C5  N4B d   1       0.163   2.230   1.102  0.00  0.00     0.002 A 
ATOM      6  C6  N4B d   1       1.313   1.578   0.707  0.00  0.00     0.002 A 
ENDROOT
BRANCH   1   7
ATOM      7  C1' N4B d   1       2.848  -0.357   0.741  0.00  0.00     0.057 C 
BRANCH   7   8
ATOM      8  C2' N4B d   1       2.946  -0.449  -0.779  0.00  0.00     0.009 C 
BRANCH   8   9
ATOM      9  C3' N4B d   1       2.973   0.923  -1.431  0.00  0.00     0.004 C 
ATOM     10  C4' N4B d   1       3.365   0.871  -2.877  0.00  0.00     0.003 C 
ENDBRANCH   8   9
ENDBRANCH   7   8
ENDBRANCH   1   7
TORSDOF 3
ENDMDL
