MODEL 1
REMARK minimizedAffinity -3.14383268
REMARK minimizedRMSD -1
REMARK  3 active torsions:
REMARK  status: ('A' for Active; 'I' for Inactive)
REMARK    1  A    between atoms: C3'_2  and  C2'_3 
REMARK    2  A    between atoms: C2'_3  and  C1'_4 
REMARK    3  A    between atoms: C1'_4  and  C1_5 
ROOT
ATOM      1  C1  N4B d   1      -2.470   1.228   2.622  0.00  0.00    -0.075 A 
ATOM      2  C2  N4B d   1      -1.834   2.483   2.499  0.00  0.00     0.002 A 
ATOM      3  C3  N4B d   1      -0.625   2.579   1.855  0.00  0.00     0.002 A 
ATOM      4  C4  N4B d   1      -0.026   1.437   1.345  0.00  0.00    -0.004 A 
ATOM      5  C5  N4B d   1      -0.659   0.233   1.446  0.00  0.00     0.002 A 
ATOM      6  C6  N4B d   1      -1.877   0.122   2.087  0.00  0.00     0.002 A 
ENDROOT
BRANCH   1   7
ATOM      7  C1' N4B d   1      -3.752   1.059   3.392  0.00  0.00     0.057 C 
BRANCH   7   8
ATOM      8  C2' N4B d   1      -4.021   2.325   4.200  0.00  0.00     0.009 C 
BRANCH   8   9
ATOM      9  C3' N4B d   1      -4.819   2.036   5.459  0.00  0.00     0.004 C 
ATOM     10  C4' N4B d   1      -5.515   3.251   5.997  0.00  0.00     0.003 C 
ENDBRANCH   8   9
ENDBRANCH   7   8
ENDBRANCH   1   7
TORSDOF 3
ENDMDL
