MODEL 1
REMARK minimizedAffinity 1.57644665
REMARK minimizedRMSD -1
REMARK  0 active torsions:
REMARK  status: ('A' for Active; 'I' for Inactive)
ROOT
ATOM      1  O1  BZF d   1       2.648  -5.382  -4.794  0.00  0.00    -0.204 OA
ATOM      2  C2  BZF d   1       3.155  -5.827  -5.999  0.00  0.00     0.174 A 
ATOM      3  C3  BZF d   1       4.491  -6.000  -5.922  0.00  0.00    -0.012 A 
ATOM      4  C3A BZF d   1       4.826  -5.729  -4.557  0.00  0.00    -0.107 A 
ATOM      5  C4  BZF d   1       5.999  -5.748  -3.857  0.00  0.00     0.055 A 
ATOM      6  C5  BZF d   1       5.997  -5.361  -2.555  0.00  0.00    -0.016 A 
ATOM      7  C6  BZF d   1       4.843  -4.944  -1.923  0.00  0.00     0.022 A 
ATOM      8  C7  BZF d   1       3.655  -4.912  -2.575  0.00  0.00     0.029 A 
ATOM      9  C7A BZF d   1       3.648  -5.335  -3.882  0.00  0.00     0.058 A 
ENDROOT
TORSDOF 0
ENDMDL
