MODEL 1
REMARK minimizedAffinity 1.7535435
REMARK minimizedRMSD -1
REMARK  0 active torsions:
REMARK  status: ('A' for Active; 'I' for Inactive)
ROOT
ATOM      1  O1  BZF d   1      -2.394   2.303  -4.387  0.00  0.00    -0.204 OA
ATOM      2  C2  BZF d   1      -1.582   3.272  -4.944  0.00  0.00     0.174 A 
ATOM      3  C3  BZF d   1      -2.306   4.130  -5.691  0.00  0.00    -0.012 A 
ATOM      4  C3A BZF d   1      -3.667   3.723  -5.521  0.00  0.00    -0.107 A 
ATOM      5  C4  BZF d   1      -4.855   4.196  -6.000  0.00  0.00     0.055 A 
ATOM      6  C5  BZF d   1      -6.000   3.526  -5.703  0.00  0.00    -0.016 A 
ATOM      7  C6  BZF d   1      -5.992   2.379  -4.937  0.00  0.00     0.022 A 
ATOM      8  C7  BZF d   1      -4.839   1.875  -4.435  0.00  0.00     0.029 A 
ATOM      9  C7A BZF d   1      -3.684   2.568  -4.706  0.00  0.00     0.058 A 
ENDROOT
TORSDOF 0
ENDMDL
