MODEL 1
REMARK minimizedAffinity 7.7506175
REMARK minimizedRMSD -1
REMARK  0 active torsions:
REMARK  status: ('A' for Active; 'I' for Inactive)
ROOT
ATOM      1  O1  BZF d   1       4.889   4.990  -5.998  0.00  0.00    -0.204 OA
ATOM      2  C2  BZF d   1       5.999   5.150  -5.192  0.00  0.00     0.174 A 
ATOM      3  C3  BZF d   1       5.991   4.255  -4.183  0.00  0.00    -0.012 A 
ATOM      4  C3A BZF d   1       4.849   3.427  -4.424  0.00  0.00    -0.107 A 
ATOM      5  C4  BZF d   1       4.318   2.349  -3.776  0.00  0.00     0.055 A 
ATOM      6  C5  BZF d   1       3.152   1.815  -4.228  0.00  0.00    -0.016 A 
ATOM      7  C6  BZF d   1       2.490   2.337  -5.320  0.00  0.00     0.022 A 
ATOM      8  C7  BZF d   1       2.981   3.403  -5.998  0.00  0.00     0.029 A 
ATOM      9  C7A BZF d   1       4.176   3.924  -5.564  0.00  0.00     0.058 A 
ENDROOT
TORSDOF 0
ENDMDL
