MODEL 1
REMARK minimizedAffinity 14.2834301
REMARK minimizedRMSD -1
REMARK  0 active torsions:
REMARK  status: ('A' for Active; 'I' for Inactive)
ROOT
ATOM      1  O1  BZF d   1       1.972   1.497   2.428  0.00  0.00    -0.204 OA
ATOM      2  C2  BZF d   1       3.050   1.755   1.604  0.00  0.00     0.174 A 
ATOM      3  C3  BZF d   1       2.646   2.329   0.453  0.00  0.00    -0.012 A 
ATOM      4  C3A BZF d   1       1.236   2.521   0.603  0.00  0.00    -0.107 A 
ATOM      5  C4  BZF d   1       0.272   3.062  -0.199  0.00  0.00     0.055 A 
ATOM      6  C5  BZF d   1      -1.023   3.031   0.213  0.00  0.00    -0.016 A 
ATOM      7  C6  BZF d   1      -1.389   2.464   1.416  0.00  0.00     0.022 A 
ATOM      8  C7  BZF d   1      -0.467   1.920   2.247  0.00  0.00     0.029 A 
ATOM      9  C7A BZF d   1       0.846   1.979   1.849  0.00  0.00     0.058 A 
ENDROOT
TORSDOF 0
ENDMDL
