MODEL 1
REMARK minimizedAffinity 17.2205353
REMARK minimizedRMSD -1
REMARK  0 active torsions:
REMARK  status: ('A' for Active; 'I' for Inactive)
ROOT
ATOM      1  O1  BZF d   1       3.956   4.527   5.229  0.00  0.00    -0.204 OA
ATOM      2  C2  BZF d   1       5.051   4.870   5.999  0.00  0.00     0.174 A 
ATOM      3  C3  BZF d   1       5.999   3.913   5.936  0.00  0.00    -0.012 A 
ATOM      4  C3A BZF d   1       5.502   2.953   4.999  0.00  0.00    -0.107 A 
ATOM      5  C4  BZF d   1       6.000   1.782   4.502  0.00  0.00     0.055 A 
ATOM      6  C5  BZF d   1       5.233   1.045   3.656  0.00  0.00    -0.016 A 
ATOM      7  C6  BZF d   1       3.964   1.445   3.291  0.00  0.00     0.022 A 
ATOM      8  C7  BZF d   1       3.430   2.602   3.754  0.00  0.00     0.029 A 
ATOM      9  C7A BZF d   1       4.215   3.365   4.583  0.00  0.00     0.058 A 
ENDROOT
TORSDOF 0
ENDMDL
