MODEL 1
REMARK minimizedAffinity 11.0790939
REMARK minimizedRMSD -1
REMARK  0 active torsions:
REMARK  status: ('A' for Active; 'I' for Inactive)
ROOT
ATOM      1  O1  BZF d   1       3.469  -1.032   0.089  0.00  0.00    -0.204 OA
ATOM      2  C2  BZF d   1       4.393  -1.471  -0.840  0.00  0.00     0.174 A 
ATOM      3  C3  BZF d   1       4.758  -0.466  -1.662  0.00  0.00    -0.012 A 
ATOM      4  C3A BZF d   1       4.085   0.694  -1.161  0.00  0.00    -0.107 A 
ATOM      5  C4  BZF d   1       4.061   2.004  -1.545  0.00  0.00     0.055 A 
ATOM      6  C5  BZF d   1       3.244   2.869  -0.889  0.00  0.00    -0.016 A 
ATOM      7  C6  BZF d   1       2.436   2.458   0.151  0.00  0.00     0.022 A 
ATOM      8  C7  BZF d   1       2.430   1.169   0.571  0.00  0.00     0.029 A 
ATOM      9  C7A BZF d   1       3.278   0.299  -0.069  0.00  0.00     0.058 A 
ENDROOT
TORSDOF 0
ENDMDL
