MODEL 1
REMARK minimizedAffinity 15.0485296
REMARK minimizedRMSD -1
REMARK  0 active torsions:
REMARK  status: ('A' for Active; 'I' for Inactive)
ROOT
ATOM      1  O1  BZF d   1       2.140  -4.253  -4.603  0.00  0.00    -0.204 OA
ATOM      2  C2  BZF d   1       1.503  -5.253  -5.312  0.00  0.00     0.174 A 
ATOM      3  C3  BZF d   1       2.396  -5.999  -5.993  0.00  0.00    -0.012 A 
ATOM      4  C3A BZF d   1       3.678  -5.487  -5.618  0.00  0.00    -0.107 A 
ATOM      5  C4  BZF d   1       4.959  -5.826  -5.951  0.00  0.00     0.055 A 
ATOM      6  C5  BZF d   1       5.986  -5.080  -5.468  0.00  0.00    -0.016 A 
ATOM      7  C6  BZF d   1       5.770  -3.986  -4.655  0.00  0.00     0.022 A 
ATOM      8  C7  BZF d   1       4.518  -3.614  -4.294  0.00  0.00     0.029 A 
ATOM      9  C7A BZF d   1       3.479  -4.386  -4.754  0.00  0.00     0.058 A 
ENDROOT
TORSDOF 0
ENDMDL
