MODEL 1
REMARK minimizedAffinity 9.59009838
REMARK minimizedRMSD -1
REMARK  0 active torsions:
REMARK  status: ('A' for Active; 'I' for Inactive)
ROOT
ATOM      1  O1  BZF d   1       4.494  -5.806  -5.741  0.00  0.00    -0.204 OA
ATOM      2  C2  BZF d   1       5.469  -5.352  -4.874  0.00  0.00     0.174 A 
ATOM      3  C3  BZF d   1       4.917  -4.895  -3.731  0.00  0.00    -0.012 A 
ATOM      4  C3A BZF d   1       3.517  -5.159  -3.857  0.00  0.00    -0.107 A 
ATOM      5  C4  BZF d   1       2.444  -4.948  -3.039  0.00  0.00     0.055 A 
ATOM      6  C5  BZF d   1       1.199  -5.254  -3.490  0.00  0.00    -0.016 A 
ATOM      7  C6  BZF d   1       0.990  -5.767  -4.753  0.00  0.00     0.022 A 
ATOM      8  C7  BZF d   1       2.023  -5.999  -5.599  0.00  0.00     0.029 A 
ATOM      9  C7A BZF d   1       3.286  -5.722  -5.134  0.00  0.00     0.058 A 
ENDROOT
TORSDOF 0
ENDMDL
