MODEL 1
REMARK minimizedAffinity 7.19541931
REMARK minimizedRMSD -1
REMARK  0 active torsions:
REMARK  status: ('A' for Active; 'I' for Inactive)
ROOT
ATOM      1  O1  BZF d   1       2.413  -4.476  -3.728  0.00  0.00    -0.204 OA
ATOM      2  C2  BZF d   1       1.719  -5.463  -4.402  0.00  0.00     0.174 A 
ATOM      3  C3  BZF d   1       2.465  -5.973  -5.403  0.00  0.00    -0.012 A 
ATOM      4  C3A BZF d   1       3.736  -5.326  -5.294  0.00  0.00    -0.107 A 
ATOM      5  C4  BZF d   1       4.902  -5.423  -5.997  0.00  0.00     0.055 A 
ATOM      6  C5  BZF d   1       5.935  -4.598  -5.681  0.00  0.00    -0.016 A 
ATOM      7  C6  BZF d   1       5.834  -3.662  -4.672  0.00  0.00     0.022 A 
ATOM      8  C7  BZF d   1       4.698  -3.532  -3.944  0.00  0.00     0.029 A 
ATOM      9  C7A BZF d   1       3.664  -4.386  -4.239  0.00  0.00     0.058 A 
ENDROOT
TORSDOF 0
ENDMDL
