MODEL 1
REMARK minimizedAffinity 19.7727585
REMARK minimizedRMSD -1
REMARK  0 active torsions:
REMARK  status: ('A' for Active; 'I' for Inactive)
ROOT
ATOM      1  O1  BZF d   1      -2.445  -3.698   1.252  0.00  0.00    -0.204 OA
ATOM      2  C2  BZF d   1      -1.675  -2.578   1.501  0.00  0.00     0.174 A 
ATOM      3  C3  BZF d   1      -1.366  -2.492   2.810  0.00  0.00    -0.012 A 
ATOM      4  C3A BZF d   1      -1.904  -3.677   3.403  0.00  0.00    -0.107 A 
ATOM      5  C4  BZF d   1      -1.908  -4.172   4.676  0.00  0.00     0.055 A 
ATOM      6  C5  BZF d   1      -2.585  -5.321   4.936  0.00  0.00    -0.016 A 
ATOM      7  C6  BZF d   1      -3.273  -5.998   3.950  0.00  0.00     0.022 A 
ATOM      8  C7  BZF d   1      -3.294  -5.548   2.671  0.00  0.00     0.029 A 
ATOM      9  C7A BZF d   1      -2.583  -4.405   2.399  0.00  0.00     0.058 A 
ENDROOT
TORSDOF 0
ENDMDL
