MODEL 1
REMARK minimizedAffinity -0.997412205
REMARK minimizedRMSD -1
REMARK  0 active torsions:
REMARK  status: ('A' for Active; 'I' for Inactive)
ROOT
ATOM      1  O1  BZF d   1       2.352  -4.876  -3.832  0.00  0.00    -0.204 OA
ATOM      2  C2  BZF d   1       1.558  -5.512  -4.766  0.00  0.00     0.174 A 
ATOM      3  C3  BZF d   1       2.305  -6.000  -5.777  0.00  0.00    -0.012 A 
ATOM      4  C3A BZF d   1       3.661  -5.726  -5.408  0.00  0.00    -0.107 A 
ATOM      5  C4  BZF d   1       4.865  -5.983  -6.000  0.00  0.00     0.055 A 
ATOM      6  C5  BZF d   1       6.000  -5.518  -5.415  0.00  0.00    -0.016 A 
ATOM      7  C6  BZF d   1       5.968  -4.791  -4.244  0.00  0.00     0.022 A 
ATOM      8  C7  BZF d   1       4.798  -4.515  -3.617  0.00  0.00     0.029 A 
ATOM      9  C7A BZF d   1       3.652  -5.011  -4.188  0.00  0.00     0.058 A 
ENDROOT
TORSDOF 0
ENDMDL
