MODEL 1
REMARK minimizedAffinity 13.6319723
REMARK minimizedRMSD -1
REMARK  0 active torsions:
REMARK  status: ('A' for Active; 'I' for Inactive)
ROOT
ATOM      1  O1  BZF d   1       4.837   2.560  -1.018  0.00  0.00    -0.204 OA
ATOM      2  C2  BZF d   1       5.998   3.016  -0.425  0.00  0.00     0.174 A 
ATOM      3  C3  BZF d   1       5.850   3.102   0.913  0.00  0.00    -0.012 A 
ATOM      4  C3A BZF d   1       4.542   2.585   1.180  0.00  0.00    -0.107 A 
ATOM      5  C4  BZF d   1       3.824   2.396   2.326  0.00  0.00     0.055 A 
ATOM      6  C5  BZF d   1       2.547   1.939   2.238  0.00  0.00    -0.016 A 
ATOM      7  C6  BZF d   1       1.956   1.668   1.021  0.00  0.00     0.022 A 
ATOM      8  C7  BZF d   1       2.630   1.835  -0.142  0.00  0.00     0.029 A 
ATOM      9  C7A BZF d   1       3.932   2.265  -0.054  0.00  0.00     0.058 A 
ENDROOT
TORSDOF 0
ENDMDL
