MODEL 1
REMARK minimizedAffinity 18.4760914
REMARK minimizedRMSD -1
REMARK  0 active torsions:
REMARK  status: ('A' for Active; 'I' for Inactive)
ROOT
ATOM      1  O1  BZF d   1       4.574  -5.148  -3.875  0.00  0.00    -0.204 OA
ATOM      2  C2  BZF d   1       5.257  -5.484  -5.028  0.00  0.00     0.174 A 
ATOM      3  C3  BZF d   1       4.404  -5.915  -5.980  0.00  0.00    -0.012 A 
ATOM      4  C3A BZF d   1       3.099  -5.756  -5.417  0.00  0.00    -0.107 A 
ATOM      5  C4  BZF d   1       1.839  -5.997  -5.884  0.00  0.00     0.055 A 
ATOM      6  C5  BZF d   1       0.779  -5.804  -5.056  0.00  0.00    -0.016 A 
ATOM      7  C6  BZF d   1       0.942  -5.377  -3.755  0.00  0.00     0.022 A 
ATOM      8  C7  BZF d   1       2.173  -5.120  -3.247  0.00  0.00     0.029 A 
ATOM      9  C7A BZF d   1       3.244  -5.283  -4.092  0.00  0.00     0.058 A 
ENDROOT
TORSDOF 0
ENDMDL
