MODEL 1
REMARK minimizedAffinity 17.3226299
REMARK minimizedRMSD -1
REMARK  0 active torsions:
REMARK  status: ('A' for Active; 'I' for Inactive)
ROOT
ATOM      1  O1  BZF d   1       2.118   1.611   2.434  0.00  0.00    -0.204 OA
ATOM      2  C2  BZF d   1       3.144   1.848   1.540  0.00  0.00     0.174 A 
ATOM      3  C3  BZF d   1       2.664   2.337   0.379  0.00  0.00    -0.012 A 
ATOM      4  C3A BZF d   1       1.258   2.497   0.590  0.00  0.00    -0.107 A 
ATOM      5  C4  BZF d   1       0.238   2.958  -0.191  0.00  0.00     0.055 A 
ATOM      6  C5  BZF d   1      -1.033   2.916   0.289  0.00  0.00    -0.016 A 
ATOM      7  C6  BZF d   1      -1.319   2.415   1.542  0.00  0.00     0.022 A 
ATOM      8  C7  BZF d   1      -0.340   1.951   2.356  0.00  0.00     0.029 A 
ATOM      9  C7A BZF d   1       0.949   2.023   1.886  0.00  0.00     0.058 A 
ENDROOT
TORSDOF 0
ENDMDL
