MODEL 1
REMARK minimizedAffinity 14.353775
REMARK minimizedRMSD -1
REMARK  0 active torsions:
REMARK  status: ('A' for Active; 'I' for Inactive)
ROOT
ATOM      1  O1  BZF d   1       4.216   1.145   2.125  0.00  0.00    -0.204 OA
ATOM      2  C2  BZF d   1       3.738   1.391   3.397  0.00  0.00     0.174 A 
ATOM      3  C3  BZF d   1       2.481   1.877   3.351  0.00  0.00    -0.012 A 
ATOM      4  C3A BZF d   1       2.119   1.853   1.967  0.00  0.00    -0.107 A 
ATOM      5  C4  BZF d   1       0.987   2.198   1.286  0.00  0.00     0.055 A 
ATOM      6  C5  BZF d   1       0.983   2.123  -0.071  0.00  0.00    -0.016 A 
ATOM      7  C6  BZF d   1       2.093   1.712  -0.778  0.00  0.00     0.022 A 
ATOM      8  C7  BZF d   1       3.238   1.354  -0.147  0.00  0.00     0.029 A 
ATOM      9  C7A BZF d   1       3.235   1.398   1.226  0.00  0.00     0.058 A 
ENDROOT
TORSDOF 0
ENDMDL
