MODEL 1
REMARK minimizedAffinity 20.4646873
REMARK minimizedRMSD -1
REMARK  0 active torsions:
REMARK  status: ('A' for Active; 'I' for Inactive)
ROOT
ATOM      1  O1  BZF d   1       3.930   3.487  -5.118  0.00  0.00    -0.204 OA
ATOM      2  C2  BZF d   1       3.095   2.497  -5.599  0.00  0.00     0.174 A 
ATOM      3  C3  BZF d   1       3.061   1.446  -4.754  0.00  0.00    -0.012 A 
ATOM      4  C3A BZF d   1       3.858   1.840  -3.633  0.00  0.00    -0.107 A 
ATOM      5  C4  BZF d   1       4.193   1.228  -2.459  0.00  0.00     0.055 A 
ATOM      6  C5  BZF d   1       5.049   1.854  -1.609  0.00  0.00    -0.016 A 
ATOM      7  C6  BZF d   1       5.592   3.088  -1.903  0.00  0.00     0.022 A 
ATOM      8  C7  BZF d   1       5.286   3.736  -3.054  0.00  0.00     0.029 A 
ATOM      9  C7A BZF d   1       4.395   3.120  -3.899  0.00  0.00     0.058 A 
ENDROOT
TORSDOF 0
ENDMDL
