MODEL 1
REMARK minimizedAffinity 1.54492152
REMARK minimizedRMSD -1
REMARK  0 active torsions:
REMARK  status: ('A' for Active; 'I' for Inactive)
ROOT
ATOM      1  O1  BZF d   1      -0.212  -0.792   0.421  0.00  0.00    -0.204 OA
ATOM      2  C2  BZF d   1      -1.527  -0.667   0.825  0.00  0.00     0.174 A 
ATOM      3  C3  BZF d   1      -1.699   0.456   1.553  0.00  0.00    -0.012 A 
ATOM      4  C3A BZF d   1      -0.431   1.118   1.528  0.00  0.00    -0.107 A 
ATOM      5  C4  BZF d   1       0.027   2.290   2.059  0.00  0.00     0.055 A 
ATOM      6  C5  BZF d   1       1.339   2.613   1.914  0.00  0.00    -0.016 A 
ATOM      7  C6  BZF d   1       2.221   1.786   1.250  0.00  0.00     0.022 A 
ATOM      8  C7  BZF d   1       1.813   0.615   0.702  0.00  0.00     0.029 A 
ATOM      9  C7A BZF d   1       0.480   0.302   0.819  0.00  0.00     0.058 A 
ENDROOT
TORSDOF 0
ENDMDL
