MODEL 1
REMARK minimizedAffinity 8.49227047
REMARK minimizedRMSD -1
REMARK  0 active torsions:
REMARK  status: ('A' for Active; 'I' for Inactive)
ROOT
ATOM      1  C   UNL d   1       0.064   1.010   2.974  0.00  0.00     0.020 A 
ATOM      2  C1  UNL d   1       0.056  -0.029   3.904  0.00  0.00     0.020 A 
ATOM      3  C2  UNL d   1      -1.058  -0.865   4.008  0.00  0.00     0.034 A 
ATOM      4  C3  UNL d   1      -2.169  -0.663   3.182  0.00  0.00     0.017 A 
ATOM      5  C4  UNL d   1      -2.161   0.380   2.249  0.00  0.00     0.017 A 
ATOM      6  C5  UNL d   1      -1.042   1.214   2.148  0.00  0.00     0.034 A 
ATOM      7 Cl   UNL d   1      -3.494   0.692   1.194  0.00  0.00    -0.070 Cl
ATOM      8 Cl1  UNL d   1      -3.512  -1.734   3.365  0.00  0.00    -0.070 Cl
ENDROOT
TORSDOF 0
ENDMDL
