MODEL 1
REMARK minimizedAffinity 1.51135945
REMARK minimizedRMSD -1
REMARK  0 active torsions:
REMARK  status: ('A' for Active; 'I' for Inactive)
ROOT
ATOM      1  C   UNL d   1       1.760   0.819  -4.338  0.00  0.00     0.020 A 
ATOM      2  C1  UNL d   1       2.579   1.004  -3.225  0.00  0.00     0.020 A 
ATOM      3  C2  UNL d   1       2.511   0.112  -2.153  0.00  0.00     0.034 A 
ATOM      4  C3  UNL d   1       1.624  -0.969  -2.191  0.00  0.00     0.017 A 
ATOM      5  C4  UNL d   1       0.802  -1.155  -3.309  0.00  0.00     0.017 A 
ATOM      6  C5  UNL d   1       0.874  -0.258  -4.380  0.00  0.00     0.034 A 
ATOM      7 Cl   UNL d   1      -0.318  -2.465  -3.430  0.00  0.00    -0.070 Cl
ATOM      8 Cl1  UNL d   1       1.593  -2.033  -0.830  0.00  0.00    -0.070 Cl
ENDROOT
TORSDOF 0
ENDMDL
