MODEL 1
REMARK minimizedAffinity 8.72423649
REMARK minimizedRMSD -1
REMARK  0 active torsions:
REMARK  status: ('A' for Active; 'I' for Inactive)
ROOT
ATOM      1  C   UNL d   1       0.712  -2.557  -0.114  0.00  0.00     0.020 A 
ATOM      2  C1  UNL d   1       1.601  -1.634   0.434  0.00  0.00     0.020 A 
ATOM      3  C2  UNL d   1       1.945  -0.485  -0.282  0.00  0.00     0.034 A 
ATOM      4  C3  UNL d   1       1.399  -0.257  -1.550  0.00  0.00     0.017 A 
ATOM      5  C4  UNL d   1       0.507  -1.184  -2.100  0.00  0.00     0.017 A 
ATOM      6  C5  UNL d   1       0.166  -2.332  -1.378  0.00  0.00     0.034 A 
ATOM      7 Cl   UNL d   1      -0.208  -0.971  -3.659  0.00  0.00    -0.070 Cl
ATOM      8 Cl1  UNL d   1       1.868   1.185  -2.379  0.00  0.00    -0.070 Cl
ENDROOT
TORSDOF 0
ENDMDL
