MODEL 1
REMARK minimizedAffinity 6.44981861
REMARK minimizedRMSD -1
REMARK  0 active torsions:
REMARK  status: ('A' for Active; 'I' for Inactive)
ROOT
ATOM      1  C   UNL d   1       2.301   0.897  -4.872  0.00  0.00     0.020 A 
ATOM      2  C1  UNL d   1       3.250   0.917  -3.851  0.00  0.00     0.020 A 
ATOM      3  C2  UNL d   1       2.947   0.363  -2.605  0.00  0.00     0.034 A 
ATOM      4  C3  UNL d   1       1.692  -0.212  -2.377  0.00  0.00     0.017 A 
ATOM      5  C4  UNL d   1       0.740  -0.231  -3.402  0.00  0.00     0.017 A 
ATOM      6  C5  UNL d   1       1.048   0.324  -4.648  0.00  0.00     0.034 A 
ATOM      7 Cl   UNL d   1      -0.831  -0.924  -3.196  0.00  0.00    -0.070 Cl
ATOM      8 Cl1  UNL d   1       1.385  -0.878  -0.812  0.00  0.00    -0.070 Cl
ENDROOT
TORSDOF 0
ENDMDL
