MODEL 1
REMARK minimizedAffinity 2.50496745
REMARK minimizedRMSD -1
REMARK  0 active torsions:
REMARK  status: ('A' for Active; 'I' for Inactive)
ROOT
ATOM      1  C   UNL d   1       4.645  -0.822  -3.482  0.00  0.00     0.020 A 
ATOM      2  C1  UNL d   1       3.876  -1.661  -4.286  0.00  0.00     0.020 A 
ATOM      3  C2  UNL d   1       2.516  -1.400  -4.468  0.00  0.00     0.034 A 
ATOM      4  C3  UNL d   1       1.922  -0.296  -3.846  0.00  0.00     0.017 A 
ATOM      5  C4  UNL d   1       2.695   0.546  -3.039  0.00  0.00     0.017 A 
ATOM      6  C5  UNL d   1       4.056   0.280  -2.860  0.00  0.00     0.034 A 
ATOM      7 Cl   UNL d   1       2.033   1.928  -2.238  0.00  0.00    -0.070 Cl
ATOM      8 Cl1  UNL d   1       0.236  -0.033  -4.116  0.00  0.00    -0.070 Cl
ENDROOT
TORSDOF 0
ENDMDL
