MODEL 1
REMARK minimizedAffinity 12.0777779
REMARK minimizedRMSD -1
REMARK  0 active torsions:
REMARK  status: ('A' for Active; 'I' for Inactive)
ROOT
ATOM      1  C   UNL d   1      -1.895   0.832   2.454  0.00  0.00     0.020 A 
ATOM      2  C1  UNL d   1      -1.320   2.018   2.910  0.00  0.00     0.020 A 
ATOM      3  C2  UNL d   1       0.047   2.243   2.735  0.00  0.00     0.034 A 
ATOM      4  C3  UNL d   1       0.844   1.281   2.103  0.00  0.00     0.017 A 
ATOM      5  C4  UNL d   1       0.266   0.092   1.645  0.00  0.00     0.017 A 
ATOM      6  C5  UNL d   1      -1.104  -0.129   1.823  0.00  0.00     0.034 A 
ATOM      7 Cl   UNL d   1       1.184  -1.141   0.855  0.00  0.00    -0.070 Cl
ATOM      8 Cl1  UNL d   1       2.527   1.626   1.920  0.00  0.00    -0.070 Cl
ENDROOT
TORSDOF 0
ENDMDL
