MODEL 1
REMARK minimizedAffinity 6.47307825
REMARK minimizedRMSD -1
REMARK  0 active torsions:
REMARK  status: ('A' for Active; 'I' for Inactive)
ROOT
ATOM      1  C   UNL d   1       2.253   1.050  -3.695  0.00  0.00     0.020 A 
ATOM      2  C1  UNL d   1       1.274   0.650  -4.605  0.00  0.00     0.020 A 
ATOM      3  C2  UNL d   1       0.406  -0.395  -4.282  0.00  0.00     0.034 A 
ATOM      4  C3  UNL d   1       0.515  -1.044  -3.047  0.00  0.00     0.017 A 
ATOM      5  C4  UNL d   1       1.497  -0.642  -2.134  0.00  0.00     0.017 A 
ATOM      6  C5  UNL d   1       2.363   0.406  -2.463  0.00  0.00     0.034 A 
ATOM      7 Cl   UNL d   1       1.692  -1.394  -0.591  0.00  0.00    -0.070 Cl
ATOM      8 Cl1  UNL d   1      -0.592  -2.328  -2.714  0.00  0.00    -0.070 Cl
ENDROOT
TORSDOF 0
ENDMDL
