MODEL 1
REMARK minimizedAffinity 6.56434345
REMARK minimizedRMSD -1
REMARK  0 active torsions:
REMARK  status: ('A' for Active; 'I' for Inactive)
ROOT
ATOM      1  C   UNL d   1       4.771   0.058  -3.467  0.00  0.00     0.020 A 
ATOM      2  C1  UNL d   1       4.116  -1.037  -4.027  0.00  0.00     0.020 A 
ATOM      3  C2  UNL d   1       2.738  -0.989  -4.247  0.00  0.00     0.034 A 
ATOM      4  C3  UNL d   1       2.011   0.157  -3.907  0.00  0.00     0.017 A 
ATOM      5  C4  UNL d   1       2.669   1.257  -3.345  0.00  0.00     0.017 A 
ATOM      6  C5  UNL d   1       4.050   1.203  -3.126  0.00  0.00     0.034 A 
ATOM      7 Cl   UNL d   1       1.840   2.706  -2.899  0.00  0.00    -0.070 Cl
ATOM      8 Cl1  UNL d   1       0.309   0.148  -4.207  0.00  0.00    -0.070 Cl
ENDROOT
TORSDOF 0
ENDMDL
