MODEL 1
REMARK minimizedAffinity 5.97407579
REMARK minimizedRMSD -1
REMARK  2 active torsions:
REMARK  status: ('A' for Active; 'I' for Inactive)
REMARK    1  A    between atoms: C1_2  and  C2_3 
REMARK    2  A    between atoms: C2_3  and  C3_4 
ROOT
ATOM      1  C3  UNL d   1       1.218  -1.021   0.095  0.00  0.00    -0.075 A 
ATOM      2  C4  UNL d   1       0.098  -1.794  -0.244  0.00  0.00     0.002 A 
ATOM      3  C5  UNL d   1      -1.181  -1.236  -0.220  0.00  0.00     0.002 A 
ATOM      4  C6  UNL d   1      -1.357   0.095   0.152  0.00  0.00    -0.004 A 
ATOM      5  C7  UNL d   1      -0.253   0.867   0.508  0.00  0.00     0.002 A 
ATOM      6  C8  UNL d   1       1.028   0.312   0.481  0.00  0.00     0.002 A 
ENDROOT
BRANCH   1   7
ATOM      7  C2  UNL d   1       2.607  -1.611   0.043  0.00  0.00     0.056 C 
BRANCH   7   8
ATOM      8  C1  UNL d   1       3.441  -1.137  -1.152  0.00  0.00     0.007 C 
ATOM      9  C   UNL d   1       4.208   0.149  -0.877  0.00  0.00     0.009 C 
ENDBRANCH   7   8
ENDBRANCH   1   7
TORSDOF 2
ENDMDL
