MODEL 1
REMARK minimizedAffinity 3.35490131
REMARK minimizedRMSD -1
REMARK  2 active torsions:
REMARK  status: ('A' for Active; 'I' for Inactive)
REMARK    1  A    between atoms: C1_2  and  C2_3 
REMARK    2  A    between atoms: C2_3  and  C3_4 
ROOT
ATOM      1  C3  UNL d   1       3.146  -0.500  -0.843  0.00  0.00    -0.075 A 
ATOM      2  C4  UNL d   1       3.500  -1.045  -2.085  0.00  0.00     0.002 A 
ATOM      3  C5  UNL d   1       3.247  -2.388  -2.368  0.00  0.00     0.002 A 
ATOM      4  C6  UNL d   1       2.648  -3.203  -1.410  0.00  0.00    -0.004 A 
ATOM      5  C7  UNL d   1       2.307  -2.677  -0.166  0.00  0.00     0.002 A 
ATOM      6  C8  UNL d   1       2.555  -1.332   0.117  0.00  0.00     0.002 A 
ENDROOT
BRANCH   1   7
ATOM      7  C2  UNL d   1       3.390   0.959  -0.542  0.00  0.00     0.056 C 
BRANCH   7   8
ATOM      8  C1  UNL d   1       4.682   1.514  -1.151  0.00  0.00     0.007 C 
ATOM      9  C   UNL d   1       5.217   2.735  -0.415  0.00  0.00     0.009 C 
ENDBRANCH   7   8
ENDBRANCH   1   7
TORSDOF 2
ENDMDL
