MODEL 1
REMARK minimizedAffinity 8.47402954
REMARK minimizedRMSD -1
REMARK  2 active torsions:
REMARK  status: ('A' for Active; 'I' for Inactive)
REMARK    1  A    between atoms: C1_2  and  C2_3 
REMARK    2  A    between atoms: C2_3  and  C3_4 
ROOT
ATOM      1  C3  UNL d   1      -2.431  -5.306  -2.397  0.00  0.00    -0.075 A 
ATOM      2  C4  UNL d   1      -1.862  -4.074  -2.749  0.00  0.00     0.002 A 
ATOM      3  C5  UNL d   1      -0.785  -3.559  -2.027  0.00  0.00     0.002 A 
ATOM      4  C6  UNL d   1      -0.271  -4.262  -0.940  0.00  0.00    -0.004 A 
ATOM      5  C7  UNL d   1      -0.839  -5.480  -0.571  0.00  0.00     0.002 A 
ATOM      6  C8  UNL d   1      -1.914  -5.999  -1.294  0.00  0.00     0.002 A 
ENDROOT
BRANCH   1   7
ATOM      7  C2  UNL d   1      -3.578  -5.883  -3.192  0.00  0.00     0.056 C 
BRANCH   7   8
ATOM      8  C1  UNL d   1      -3.299  -5.999  -4.694  0.00  0.00     0.007 C 
ATOM      9  C   UNL d   1      -4.564  -5.998  -5.542  0.00  0.00     0.009 C 
ENDBRANCH   7   8
ENDBRANCH   1   7
TORSDOF 2
ENDMDL
