MODEL 1
REMARK minimizedAffinity 3.32302046
REMARK minimizedRMSD -1
REMARK  2 active torsions:
REMARK  status: ('A' for Active; 'I' for Inactive)
REMARK    1  A    between atoms: C1_2  and  C2_3 
REMARK    2  A    between atoms: C2_3  and  C3_4 
ROOT
ATOM      1  C3  UNL d   1       0.445  -0.225  -0.522  0.00  0.00    -0.075 A 
ATOM      2  C4  UNL d   1      -0.614  -1.142  -0.464  0.00  0.00     0.002 A 
ATOM      3  C5  UNL d   1      -0.374  -2.511  -0.584  0.00  0.00     0.002 A 
ATOM      4  C6  UNL d   1       0.925  -2.980  -0.772  0.00  0.00    -0.004 A 
ATOM      5  C7  UNL d   1       1.983  -2.076  -0.847  0.00  0.00     0.002 A 
ATOM      6  C8  UNL d   1       1.746  -0.706  -0.723  0.00  0.00     0.002 A 
ENDROOT
BRANCH   1   7
ATOM      7  C2  UNL d   1       0.195   1.255  -0.364  0.00  0.00     0.056 C 
BRANCH   7   8
ATOM      8  C1  UNL d   1       1.140   1.946   0.626  0.00  0.00     0.007 C 
ATOM      9  C   UNL d   1       0.634   1.914   2.062  0.00  0.00     0.009 C 
ENDBRANCH   7   8
ENDBRANCH   1   7
TORSDOF 2
ENDMDL
