MODEL 1
REMARK minimizedAffinity -1.10327876
REMARK minimizedRMSD -1
REMARK  2 active torsions:
REMARK  status: ('A' for Active; 'I' for Inactive)
REMARK    1  A    between atoms: C1_2  and  C2_3 
REMARK    2  A    between atoms: C2_3  and  C3_4 
ROOT
ATOM      1  C3  UNL d   1       0.875  -1.330  -0.436  0.00  0.00    -0.075 A 
ATOM      2  C4  UNL d   1      -0.431  -1.381  -0.947  0.00  0.00     0.002 A 
ATOM      3  C5  UNL d   1      -1.224  -0.233  -0.978  0.00  0.00     0.002 A 
ATOM      4  C6  UNL d   1      -0.728   0.974  -0.489  0.00  0.00    -0.004 A 
ATOM      5  C7  UNL d   1       0.561   1.031   0.035  0.00  0.00     0.002 A 
ATOM      6  C8  UNL d   1       1.359  -0.114   0.063  0.00  0.00     0.002 A 
ENDROOT
BRANCH   1   7
ATOM      7  C2  UNL d   1       1.749  -2.562  -0.428  0.00  0.00     0.056 C 
BRANCH   7   8
ATOM      8  C1  UNL d   1       3.095  -2.376  -1.135  0.00  0.00     0.007 C 
ATOM      9  C   UNL d   1       3.143  -3.022  -2.513  0.00  0.00     0.009 C 
ENDBRANCH   7   8
ENDBRANCH   1   7
TORSDOF 2
ENDMDL
