MODEL 1
REMARK minimizedAffinity -0.406388372
REMARK minimizedRMSD -1
REMARK  2 active torsions:
REMARK  status: ('A' for Active; 'I' for Inactive)
REMARK    1  A    between atoms: C1_2  and  C2_3 
REMARK    2  A    between atoms: C2_3  and  C3_4 
ROOT
ATOM      1  C3  UNL d   1       2.896  -0.344  -0.695  0.00  0.00    -0.075 A 
ATOM      2  C4  UNL d   1       3.801  -0.597  -1.736  0.00  0.00     0.002 A 
ATOM      3  C5  UNL d   1       3.890  -1.867  -2.306  0.00  0.00     0.002 A 
ATOM      4  C6  UNL d   1       3.083  -2.902  -1.837  0.00  0.00    -0.004 A 
ATOM      5  C7  UNL d   1       2.192  -2.667  -0.792  0.00  0.00     0.002 A 
ATOM      6  C8  UNL d   1       2.099  -1.395  -0.223  0.00  0.00     0.002 A 
ENDROOT
BRANCH   1   7
ATOM      7  C2  UNL d   1       2.775   1.035  -0.094  0.00  0.00     0.056 C 
BRANCH   7   8
ATOM      8  C1  UNL d   1       1.363   1.383   0.390  0.00  0.00     0.007 C 
ATOM      9  C   UNL d   1       1.336   1.956   1.801  0.00  0.00     0.009 C 
ENDBRANCH   7   8
ENDBRANCH   1   7
TORSDOF 2
ENDMDL
