MODEL 1
REMARK minimizedAffinity 4.34730291
REMARK minimizedRMSD -1
REMARK  2 active torsions:
REMARK  status: ('A' for Active; 'I' for Inactive)
REMARK    1  A    between atoms: C2'_3  and  C1'_4 
REMARK    2  A    between atoms: C1'_4  and  C1_5 
ROOT
ATOM      1  C1  I4B d   1       4.146  -3.562  -2.018  0.00  0.00    -0.075 A 
ATOM      2  C2  I4B d   1       4.025  -4.900  -1.738  0.00  0.00     0.003 A 
ATOM      3  C3  I4B d   1       3.457  -5.779  -2.692  0.00  0.00     0.002 A 
ATOM      4  C4  I4B d   1       2.981  -5.272  -3.884  0.00  0.00    -0.004 A 
ATOM      5  C5  I4B d   1       3.126  -3.919  -4.176  0.00  0.00     0.002 A 
ATOM      6  C6  I4B d   1       3.724  -3.060  -3.242  0.00  0.00     0.003 A 
ENDROOT
BRANCH   1   7
ATOM      7  C1' I4B d   1       4.721  -2.656  -0.975  0.00  0.00     0.060 C 
BRANCH   7   8
ATOM      8  C2' I4B d   1       3.581  -2.162  -0.107  0.00  0.00    -0.013 C 
ATOM      9  C4' I4B d   1       2.771  -1.110  -0.817  0.00  0.00     0.013 C 
ATOM     10  C3' I4B d   1       2.732  -3.343   0.259  0.00  0.00     0.013 C 
ENDBRANCH   7   8
ENDBRANCH   1   7
TORSDOF 2
ENDMDL
