MODEL 1
REMARK minimizedAffinity 6.04482079
REMARK minimizedRMSD -1
REMARK  2 active torsions:
REMARK  status: ('A' for Active; 'I' for Inactive)
REMARK    1  A    between atoms: C2'_3  and  C1'_4 
REMARK    2  A    between atoms: C1'_4  and  C1_5 
ROOT
ATOM      1  C1  I4B d   1       3.443  -4.133  -2.403  0.00  0.00    -0.075 A 
ATOM      2  C2  I4B d   1       3.816  -2.978  -3.043  0.00  0.00     0.003 A 
ATOM      3  C3  I4B d   1       3.740  -1.734  -2.371  0.00  0.00     0.002 A 
ATOM      4  C4  I4B d   1       3.241  -1.686  -1.085  0.00  0.00    -0.004 A 
ATOM      5  C5  I4B d   1       2.884  -2.861  -0.430  0.00  0.00     0.002 A 
ATOM      6  C6  I4B d   1       2.997  -4.094  -1.089  0.00  0.00     0.003 A 
ENDROOT
BRANCH   1   7
ATOM      7  C1' I4B d   1       3.505  -5.425  -3.155  0.00  0.00     0.060 C 
BRANCH   7   8
ATOM      8  C2' I4B d   1       4.899  -5.995  -2.989  0.00  0.00    -0.013 C 
ATOM      9  C4' I4B d   1       5.712  -5.822  -4.245  0.00  0.00     0.013 C 
ATOM     10  C3' I4B d   1       5.546  -5.305  -1.825  0.00  0.00     0.013 C 
ENDBRANCH   7   8
ENDBRANCH   1   7
TORSDOF 2
ENDMDL
