MODEL 1
REMARK minimizedAffinity 4.79821777
REMARK minimizedRMSD -1
REMARK  2 active torsions:
REMARK  status: ('A' for Active; 'I' for Inactive)
REMARK    1  A    between atoms: C2'_3  and  C1'_4 
REMARK    2  A    between atoms: C1'_4  and  C1_5 
ROOT
ATOM      1  C1  I4B d   1       4.133  -4.217  -1.307  0.00  0.00    -0.075 A 
ATOM      2  C2  I4B d   1       5.305  -3.513  -1.179  0.00  0.00     0.003 A 
ATOM      3  C3  I4B d   1       5.306  -2.238  -0.564  0.00  0.00     0.002 A 
ATOM      4  C4  I4B d   1       4.114  -1.686  -0.140  0.00  0.00    -0.004 A 
ATOM      5  C5  I4B d   1       2.931  -2.411  -0.250  0.00  0.00     0.002 A 
ATOM      6  C6  I4B d   1       2.942  -3.689  -0.826  0.00  0.00     0.003 A 
ENDROOT
BRANCH   1   7
ATOM      7  C1' I4B d   1       4.163  -5.546  -1.992  0.00  0.00     0.060 C 
BRANCH   7   8
ATOM      8  C2' I4B d   1       3.736  -5.340  -3.431  0.00  0.00    -0.013 C 
ATOM      9  C4' I4B d   1       3.600  -3.876  -3.755  0.00  0.00     0.013 C 
ATOM     10  C3' I4B d   1       4.753  -5.998  -4.314  0.00  0.00     0.013 C 
ENDBRANCH   7   8
ENDBRANCH   1   7
TORSDOF 2
ENDMDL
