MODEL 1
REMARK minimizedAffinity 0.853946269
REMARK minimizedRMSD -1
REMARK  2 active torsions:
REMARK  status: ('A' for Active; 'I' for Inactive)
REMARK    1  A    between atoms: C2'_3  and  C1'_4 
REMARK    2  A    between atoms: C1'_4  and  C1_5 
ROOT
ATOM      1  C1  I4B d   1      -0.092   3.060  -0.021  0.00  0.00    -0.075 A 
ATOM      2  C2  I4B d   1      -0.280   3.047   1.338  0.00  0.00     0.003 A 
ATOM      3  C3  I4B d   1      -0.742   1.875   1.984  0.00  0.00     0.002 A 
ATOM      4  C4  I4B d   1      -1.049   0.760   1.230  0.00  0.00    -0.004 A 
ATOM      5  C5  I4B d   1      -0.836   0.767  -0.146  0.00  0.00     0.002 A 
ATOM      6  C6  I4B d   1      -0.343   1.920  -0.774  0.00  0.00     0.003 A 
ENDROOT
BRANCH   1   7
ATOM      7  C1' I4B d   1       0.365   4.325  -0.674  0.00  0.00     0.060 C 
BRANCH   7   8
ATOM      8  C2' I4B d   1      -0.862   5.152  -1.001  0.00  0.00    -0.013 C 
ATOM      9  C4' I4B d   1      -1.277   6.000   0.173  0.00  0.00     0.013 C 
ATOM     10  C3' I4B d   1      -0.545   5.999  -2.196  0.00  0.00     0.013 C 
ENDBRANCH   7   8
ENDBRANCH   1   7
TORSDOF 2
ENDMDL
