MODEL 1
REMARK minimizedAffinity -4.32134438
REMARK minimizedRMSD -1
REMARK  2 active torsions:
REMARK  status: ('A' for Active; 'I' for Inactive)
REMARK    1  A    between atoms: C2'_3  and  C1'_4 
REMARK    2  A    between atoms: C1'_4  and  C1_5 
ROOT
ATOM      1  C1  I4B d   1       3.724  -3.795  -1.185  0.00  0.00    -0.075 A 
ATOM      2  C2  I4B d   1       5.028  -3.375  -1.271  0.00  0.00     0.003 A 
ATOM      3  C3  I4B d   1       5.451  -2.217  -0.575  0.00  0.00     0.002 A 
ATOM      4  C4  I4B d   1       4.532  -1.486   0.150  0.00  0.00    -0.004 A 
ATOM      5  C5  I4B d   1       3.216  -1.927   0.256  0.00  0.00     0.002 A 
ATOM      6  C6  I4B d   1       2.812  -3.095  -0.406  0.00  0.00     0.003 A 
ENDROOT
BRANCH   1   7
ATOM      7  C1' I4B d   1       3.303  -5.004  -1.959  0.00  0.00     0.060 C 
BRANCH   7   8
ATOM      8  C2' I4B d   1       3.362  -4.657  -3.433  0.00  0.00    -0.013 C 
ATOM      9  C4' I4B d   1       2.952  -3.228  -3.674  0.00  0.00     0.013 C 
ATOM     10  C3' I4B d   1       4.761  -4.907  -3.912  0.00  0.00     0.013 C 
ENDBRANCH   7   8
ENDBRANCH   1   7
TORSDOF 2
ENDMDL
