MODEL 1
REMARK minimizedAffinity -0.169845253
REMARK minimizedRMSD -1
REMARK  1 active torsions:
REMARK  status: ('A' for Active; 'I' for Inactive)
REMARK    1  A    between atoms: C1_2  and  C2_3 
ROOT
ATOM      1  C2  UNL d   1      -1.861  -2.307   1.041  0.00  0.00    -0.081 A 
ATOM      2  C3  UNL d   1      -1.840  -0.981   1.490  0.00  0.00     0.006 A 
ATOM      3  C4  UNL d   1      -0.842  -0.103   1.060  0.00  0.00     0.002 A 
ATOM      4  C5  UNL d   1       0.148  -0.535   0.170  0.00  0.00    -0.080 A 
ATOM      5  C6  UNL d   1       1.208   0.405  -0.322  0.00  0.00     0.076 C 
ATOM      6  C7  UNL d   1       0.138  -1.865  -0.264  0.00  0.00     0.002 A 
ATOM      7  C8  UNL d   1      -0.860  -2.743   0.166  0.00  0.00     0.006 A 
ENDROOT
BRANCH   1   8
ATOM      8  C1  UNL d   1      -2.973  -3.238   1.452  0.00  0.00     0.054 C 
ATOM      9  C   UNL d   1      -4.216  -3.024   0.599  0.00  0.00     0.018 C 
ENDBRANCH   1   8
TORSDOF 1
ENDMDL
