MODEL 1
REMARK minimizedAffinity -1.68819094
REMARK minimizedRMSD -1
REMARK  1 active torsions:
REMARK  status: ('A' for Active; 'I' for Inactive)
REMARK    1  A    between atoms: C1_2  and  C2_3 
ROOT
ATOM      1  C2  UNL d   1       1.272   0.760   0.952  0.00  0.00    -0.081 A 
ATOM      2  C3  UNL d   1       0.417   0.626  -0.149  0.00  0.00     0.006 A 
ATOM      3  C4  UNL d   1      -0.488  -0.436  -0.218  0.00  0.00     0.002 A 
ATOM      4  C5  UNL d   1      -0.558  -1.377   0.814  0.00  0.00    -0.080 A 
ATOM      5  C6  UNL d   1      -1.545  -2.505   0.766  0.00  0.00     0.076 C 
ATOM      6  C7  UNL d   1       0.308  -1.254   1.906  0.00  0.00     0.002 A 
ATOM      7  C8  UNL d   1       1.213  -0.192   1.976  0.00  0.00     0.006 A 
ENDROOT
BRANCH   1   8
ATOM      8  C1  UNL d   1       2.203   1.940   1.061  0.00  0.00     0.054 C 
ATOM      9  C   UNL d   1       1.639   3.158   0.343  0.00  0.00     0.018 C 
ENDBRANCH   1   8
TORSDOF 1
ENDMDL
