MODEL 1
REMARK minimizedAffinity -4.18574858
REMARK minimizedRMSD -1
REMARK  1 active torsions:
REMARK  status: ('A' for Active; 'I' for Inactive)
REMARK    1  A    between atoms: C1_2  and  C2_3 
ROOT
ATOM      1  C2  UNL d   1       0.717   1.181   0.422  0.00  0.00    -0.081 A 
ATOM      2  C3  UNL d   1      -0.681   1.185   0.332  0.00  0.00     0.006 A 
ATOM      3  C4  UNL d   1      -1.399  -0.010   0.418  0.00  0.00     0.002 A 
ATOM      4  C5  UNL d   1      -0.733  -1.226   0.603  0.00  0.00    -0.080 A 
ATOM      5  C6  UNL d   1      -1.494  -2.513   0.728  0.00  0.00     0.076 C 
ATOM      6  C7  UNL d   1       0.664  -1.232   0.675  0.00  0.00     0.002 A 
ATOM      7  C8  UNL d   1       1.383  -0.038   0.588  0.00  0.00     0.006 A 
ENDROOT
BRANCH   1   8
ATOM      8  C1  UNL d   1       1.490   2.475   0.394  0.00  0.00     0.054 C 
ATOM      9  C   UNL d   1       2.868   2.310   1.019  0.00  0.00     0.018 C 
ENDBRANCH   1   8
TORSDOF 1
ENDMDL
