MODEL 1
REMARK minimizedAffinity -4.7079339
REMARK minimizedRMSD -1
REMARK  1 active torsions:
REMARK  status: ('A' for Active; 'I' for Inactive)
REMARK    1  A    between atoms: C1_2  and  C2_3 
ROOT
ATOM      1  C2  UNL d   1      -1.194  -1.066   1.153  0.00  0.00    -0.081 A 
ATOM      2  C3  UNL d   1      -2.344  -0.733   1.880  0.00  0.00     0.006 A 
ATOM      3  C4  UNL d   1      -3.030   0.454   1.615  0.00  0.00     0.002 A 
ATOM      4  C5  UNL d   1      -2.582   1.324   0.614  0.00  0.00    -0.080 A 
ATOM      5  C6  UNL d   1      -3.327   2.587   0.299  0.00  0.00     0.076 C 
ATOM      6  C7  UNL d   1      -1.424   1.000  -0.100  0.00  0.00     0.002 A 
ATOM      7  C8  UNL d   1      -0.737  -0.187   0.165  0.00  0.00     0.006 A 
ENDROOT
BRANCH   1   8
ATOM      8  C1  UNL d   1      -0.489  -2.377   1.393  0.00  0.00     0.054 C 
ATOM      9  C   UNL d   1      -0.938  -3.437   0.396  0.00  0.00     0.018 C 
ENDBRANCH   1   8
TORSDOF 1
ENDMDL
