MODEL 1
REMARK minimizedAffinity -3.10369372
REMARK minimizedRMSD -1
REMARK  1 active torsions:
REMARK  status: ('A' for Active; 'I' for Inactive)
REMARK    1  A    between atoms: C1_2  and  C2_3 
ROOT
ATOM      1  C2  UNL d   1      -0.121  -1.149   0.210  0.00  0.00    -0.081 A 
ATOM      2  C3  UNL d   1       0.221  -0.029   0.978  0.00  0.00     0.006 A 
ATOM      3  C4  UNL d   1       0.403   1.216   0.371  0.00  0.00     0.002 A 
ATOM      4  C5  UNL d   1       0.239   1.363  -1.011  0.00  0.00    -0.080 A 
ATOM      5  C6  UNL d   1       0.401   2.701  -1.670  0.00  0.00     0.076 C 
ATOM      6  C7  UNL d   1      -0.085   0.241  -1.780  0.00  0.00     0.002 A 
ATOM      7  C8  UNL d   1      -0.267  -1.005  -1.174  0.00  0.00     0.006 A 
ENDROOT
BRANCH   1   8
ATOM      8  C1  UNL d   1      -0.381  -2.479   0.870  0.00  0.00     0.054 C 
ATOM      9  C   UNL d   1      -1.647  -2.440   1.713  0.00  0.00     0.018 C 
ENDBRANCH   1   8
TORSDOF 1
ENDMDL
