MODEL 1
REMARK minimizedAffinity -3.40524817
REMARK minimizedRMSD -1
REMARK  1 active torsions:
REMARK  status: ('A' for Active; 'I' for Inactive)
REMARK    1  A    between atoms: C1_2  and  C2_3 
ROOT
ATOM      1  C2  UNL d   1       0.219   0.683   1.317  0.00  0.00    -0.081 A 
ATOM      2  C3  UNL d   1       0.683  -0.144   2.348  0.00  0.00     0.006 A 
ATOM      3  C4  UNL d   1       0.313  -1.490   2.398  0.00  0.00     0.002 A 
ATOM      4  C5  UNL d   1      -0.520  -2.034   1.414  0.00  0.00    -0.080 A 
ATOM      5  C6  UNL d   1      -0.900  -3.484   1.439  0.00  0.00     0.076 C 
ATOM      6  C7  UNL d   1      -0.998  -1.204   0.394  0.00  0.00     0.002 A 
ATOM      7  C8  UNL d   1      -0.628   0.142   0.344  0.00  0.00     0.006 A 
ENDROOT
BRANCH   1   8
ATOM      8  C1  UNL d   1       0.669   2.118   1.224  0.00  0.00     0.054 C 
ATOM      9  C   UNL d   1       0.699   2.779   2.595  0.00  0.00     0.018 C 
ENDBRANCH   1   8
TORSDOF 1
ENDMDL
