MODEL 1
REMARK minimizedAffinity -2.0405395
REMARK minimizedRMSD -1
REMARK  1 active torsions:
REMARK  status: ('A' for Active; 'I' for Inactive)
REMARK    1  A    between atoms: C1_2  and  C2_3 
ROOT
ATOM      1  C2  UNL d   1       0.427  -1.787   0.722  0.00  0.00    -0.081 A 
ATOM      2  C3  UNL d   1       1.325  -2.028  -0.324  0.00  0.00     0.006 A 
ATOM      3  C4  UNL d   1       1.242  -1.297  -1.512  0.00  0.00     0.002 A 
ATOM      4  C5  UNL d   1       0.265  -0.309  -1.670  0.00  0.00    -0.080 A 
ATOM      5  C6  UNL d   1       0.183   0.504  -2.927  0.00  0.00     0.076 C 
ATOM      6  C7  UNL d   1      -0.645  -0.080  -0.631  0.00  0.00     0.002 A 
ATOM      7  C8  UNL d   1      -0.562  -0.811   0.556  0.00  0.00     0.006 A 
ENDROOT
BRANCH   1   8
ATOM      8  C1  UNL d   1       0.555  -2.529   2.028  0.00  0.00     0.054 C 
ATOM      9  C   UNL d   1       1.954  -2.388   2.610  0.00  0.00     0.018 C 
ENDBRANCH   1   8
TORSDOF 1
ENDMDL
