MODEL 1
REMARK minimizedAffinity -3.62232065
REMARK minimizedRMSD -1
REMARK  1 active torsions:
REMARK  status: ('A' for Active; 'I' for Inactive)
REMARK    1  A    between atoms: C1_2  and  C2_3 
ROOT
ATOM      1  C2  UNL d   1       0.760   2.264  -0.454  0.00  0.00    -0.081 A 
ATOM      2  C3  UNL d   1       1.207   1.563   0.673  0.00  0.00     0.006 A 
ATOM      3  C4  UNL d   1       0.870   0.219   0.851  0.00  0.00     0.002 A 
ATOM      4  C5  UNL d   1       0.087  -0.448  -0.098  0.00  0.00    -0.080 A 
ATOM      5  C6  UNL d   1      -0.257  -1.899   0.066  0.00  0.00     0.076 C 
ATOM      6  C7  UNL d   1      -0.374   0.257  -1.215  0.00  0.00     0.002 A 
ATOM      7  C8  UNL d   1      -0.037   1.601  -1.393  0.00  0.00     0.006 A 
ENDROOT
BRANCH   1   8
ATOM      8  C1  UNL d   1       1.176   3.695  -0.681  0.00  0.00     0.054 C 
ATOM      9  C   UNL d   1       1.924   3.851  -1.997  0.00  0.00     0.018 C 
ENDBRANCH   1   8
TORSDOF 1
ENDMDL
