MODEL 1
REMARK minimizedAffinity -3.75982499
REMARK minimizedRMSD -1
REMARK  1 active torsions:
REMARK  status: ('A' for Active; 'I' for Inactive)
REMARK    1  A    between atoms: C1_2  and  C2_3 
ROOT
ATOM      1  C2  UNL d   1      -0.035   0.435  -0.257  0.00  0.00    -0.081 A 
ATOM      2  C3  UNL d   1      -0.534  -0.106   0.934  0.00  0.00     0.006 A 
ATOM      3  C4  UNL d   1      -0.524  -1.488   1.143  0.00  0.00     0.002 A 
ATOM      4  C5  UNL d   1      -0.009  -2.349   0.169  0.00  0.00    -0.080 A 
ATOM      5  C6  UNL d   1       0.035  -3.831   0.393  0.00  0.00     0.076 C 
ATOM      6  C7  UNL d   1       0.473  -1.810  -1.029  0.00  0.00     0.002 A 
ATOM      7  C8  UNL d   1       0.463  -0.429  -1.238  0.00  0.00     0.006 A 
ENDROOT
BRANCH   1   8
ATOM      8  C1  UNL d   1       0.015   1.928  -0.458  0.00  0.00     0.054 C 
ATOM      9  C   UNL d   1       1.119   2.562   0.376  0.00  0.00     0.018 C 
ENDBRANCH   1   8
TORSDOF 1
ENDMDL
