MODEL 1
REMARK minimizedAffinity -3.92047596
REMARK minimizedRMSD -1
REMARK  1 active torsions:
REMARK  status: ('A' for Active; 'I' for Inactive)
REMARK    1  A    between atoms: C1_2  and  C2_3 
ROOT
ATOM      1  C2  UNL d   1      -0.838  -0.291   1.064  0.00  0.00    -0.081 A 
ATOM      2  C3  UNL d   1      -0.279   0.226   2.239  0.00  0.00     0.006 A 
ATOM      3  C4  UNL d   1       0.686   1.234   2.180  0.00  0.00     0.002 A 
ATOM      4  C5  UNL d   1       1.101   1.748   0.947  0.00  0.00    -0.080 A 
ATOM      5  C6  UNL d   1       2.114   2.852   0.871  0.00  0.00     0.076 C 
ATOM      6  C7  UNL d   1       0.556   1.220  -0.228  0.00  0.00     0.002 A 
ATOM      7  C8  UNL d   1      -0.408   0.211  -0.170  0.00  0.00     0.006 A 
ENDROOT
BRANCH   1   8
ATOM      8  C1  UNL d   1      -1.925  -1.333   1.126  0.00  0.00     0.054 C 
ATOM      9  C   UNL d   1      -1.402  -2.704   0.722  0.00  0.00     0.018 C 
ENDBRANCH   1   8
TORSDOF 1
ENDMDL
