MODEL 1
REMARK minimizedAffinity -0.986181498
REMARK minimizedRMSD -1
REMARK  1 active torsions:
REMARK  status: ('A' for Active; 'I' for Inactive)
REMARK    1  A    between atoms: C1_2  and  C2_3 
ROOT
ATOM      1  C2  UNL d   1       0.015   0.669  -0.415  0.00  0.00    -0.081 A 
ATOM      2  C3  UNL d   1      -0.635   0.639   0.826  0.00  0.00     0.006 A 
ATOM      3  C4  UNL d   1      -1.002  -0.578   1.404  0.00  0.00     0.002 A 
ATOM      4  C5  UNL d   1      -0.719  -1.786   0.756  0.00  0.00    -0.080 A 
ATOM      5  C6  UNL d   1      -1.081  -3.101   1.379  0.00  0.00     0.076 C 
ATOM      6  C7  UNL d   1      -0.086  -1.755  -0.491  0.00  0.00     0.002 A 
ATOM      7  C8  UNL d   1       0.281  -0.538  -1.070  0.00  0.00     0.006 A 
ENDROOT
BRANCH   1   8
ATOM      8  C1  UNL d   1       0.470   1.977  -1.010  0.00  0.00     0.054 C 
ATOM      9  C   UNL d   1       1.282   2.787  -0.010  0.00  0.00     0.018 C 
ENDBRANCH   1   8
TORSDOF 1
ENDMDL
