MODEL 1
REMARK minimizedAffinity 4.94977522
REMARK minimizedRMSD -1
REMARK  1 active torsions:
REMARK  status: ('A' for Active; 'I' for Inactive)
REMARK    1  A    between atoms: C1_2  and  C2_3 
ROOT
ATOM      1  C2  UNL d   1       1.875   3.724   0.835  0.00  0.00    -0.081 A 
ATOM      2  C3  UNL d   1       1.740   3.079  -0.400  0.00  0.00     0.006 A 
ATOM      3  C4  UNL d   1       2.783   3.101  -1.328  0.00  0.00     0.002 A 
ATOM      4  C5  UNL d   1       3.981   3.762  -1.035  0.00  0.00    -0.080 A 
ATOM      5  C6  UNL d   1       5.120   3.768  -2.011  0.00  0.00     0.076 C 
ATOM      6  C7  UNL d   1       4.109   4.422   0.192  0.00  0.00     0.002 A 
ATOM      7  C8  UNL d   1       3.066   4.401   1.121  0.00  0.00     0.006 A 
ENDROOT
BRANCH   1   8
ATOM      8  C1  UNL d   1       0.777   3.647   1.865  0.00  0.00     0.054 C 
ATOM      9  C   UNL d   1       0.530   5.002   2.513  0.00  0.00     0.018 C 
ENDBRANCH   1   8
TORSDOF 1
ENDMDL
