MODEL 1
REMARK minimizedAffinity 6.32834864
REMARK minimizedRMSD -1
REMARK  1 active torsions:
REMARK  status: ('A' for Active; 'I' for Inactive)
REMARK    1  A    between atoms: C1_2  and  C2_3 
ROOT
ATOM      1  C2  UNL d   1       0.724   2.514   0.814  0.00  0.00    -0.081 A 
ATOM      2  C3  UNL d   1       0.556   2.156  -0.529  0.00  0.00     0.006 A 
ATOM      3  C4  UNL d   1      -0.044   0.941  -0.868  0.00  0.00     0.002 A 
ATOM      4  C5  UNL d   1      -0.492   0.068   0.129  0.00  0.00    -0.080 A 
ATOM      5  C6  UNL d   1      -1.165  -1.226  -0.222  0.00  0.00     0.076 C 
ATOM      6  C7  UNL d   1      -0.308   0.418   1.471  0.00  0.00     0.002 A 
ATOM      7  C8  UNL d   1       0.292   1.633   1.810  0.00  0.00     0.006 A 
ENDROOT
BRANCH   1   8
ATOM      8  C1  UNL d   1       1.311   3.853   1.182  0.00  0.00     0.054 C 
ATOM      9  C   UNL d   1       2.656   4.072   0.504  0.00  0.00     0.018 C 
ENDBRANCH   1   8
TORSDOF 1
ENDMDL
