MODEL 1
REMARK minimizedAffinity 11.5294132
REMARK minimizedRMSD -1
REMARK  1 active torsions:
REMARK  status: ('A' for Active; 'I' for Inactive)
REMARK    1  A    between atoms: C1_2  and  C2_3 
ROOT
ATOM      1  C2  UNL d   1       0.025   2.380   0.546  0.00  0.00    -0.081 A 
ATOM      2  C3  UNL d   1       0.201   3.276   1.607  0.00  0.00     0.006 A 
ATOM      3  C4  UNL d   1       1.347   4.072   1.679  0.00  0.00     0.002 A 
ATOM      4  C5  UNL d   1       2.330   3.991   0.688  0.00  0.00    -0.080 A 
ATOM      5  C6  UNL d   1       3.551   4.862   0.737  0.00  0.00     0.076 C 
ATOM      6  C7  UNL d   1       2.163   3.084  -0.363  0.00  0.00     0.002 A 
ATOM      7  C8  UNL d   1       1.018   2.287  -0.435  0.00  0.00     0.006 A 
ENDROOT
BRANCH   1   8
ATOM      8  C1  UNL d   1      -1.239   1.567   0.431  0.00  0.00     0.054 C 
ATOM      9  C   UNL d   1      -0.944   0.147  -0.032  0.00  0.00     0.018 C 
ENDBRANCH   1   8
TORSDOF 1
ENDMDL
