MODEL 1
REMARK minimizedAffinity 6.60519457
REMARK minimizedRMSD -1
REMARK  0 active torsions:
REMARK  status: ('A' for Active; 'I' for Inactive)
ROOT
ATOM      1  C   UNL d   1       3.276   2.871  -0.526  0.00  0.00     0.020 A 
ATOM      2  C1  UNL d   1       2.845   2.292   0.667  0.00  0.00     0.020 A 
ATOM      3  C2  UNL d   1       1.807   1.358   0.655  0.00  0.00     0.034 A 
ATOM      4  C3  UNL d   1       1.195   1.001  -0.552  0.00  0.00     0.017 A 
ATOM      5  C4  UNL d   1       1.628   1.582  -1.749  0.00  0.00     0.017 A 
ATOM      6  C5  UNL d   1       2.669   2.517  -1.731  0.00  0.00     0.034 A 
ATOM      7 Cl   UNL d   1       0.923   1.192  -3.278  0.00  0.00    -0.070 Cl
ATOM      8 Cl1  UNL d   1      -0.083  -0.161  -0.493  0.00  0.00    -0.070 Cl
ENDROOT
TORSDOF 0
ENDMDL
