MODEL 1
REMARK minimizedAffinity 9.18235588
REMARK minimizedRMSD -1
REMARK  0 active torsions:
REMARK  status: ('A' for Active; 'I' for Inactive)
ROOT
ATOM      1  C   UNL d   1      -3.542   0.070   1.154  0.00  0.00     0.020 A 
ATOM      2  C1  UNL d   1      -2.847   0.382  -0.014  0.00  0.00     0.020 A 
ATOM      3  C2  UNL d   1      -1.453   0.305  -0.039  0.00  0.00     0.034 A 
ATOM      4  C3  UNL d   1      -0.749  -0.085   1.107  0.00  0.00     0.017 A 
ATOM      5  C4  UNL d   1      -1.447  -0.398   2.279  0.00  0.00     0.017 A 
ATOM      6  C5  UNL d   1      -2.843  -0.319   2.298  0.00  0.00     0.034 A 
ATOM      7 Cl   UNL d   1      -0.648  -0.887   3.731  0.00  0.00    -0.070 Cl
ATOM      8 Cl1  UNL d   1       0.974  -0.159   1.004  0.00  0.00    -0.070 Cl
ENDROOT
TORSDOF 0
ENDMDL
