MODEL 1
REMARK minimizedAffinity 4.29627371
REMARK minimizedRMSD -1
REMARK  0 active torsions:
REMARK  status: ('A' for Active; 'I' for Inactive)
ROOT
ATOM      1  C   UNL d   1       1.256  -2.251   6.000  0.00  0.00     0.020 A 
ATOM      2  C1  UNL d   1       2.441  -1.898   5.354  0.00  0.00     0.020 A 
ATOM      3  C2  UNL d   1       2.400  -1.343   4.074  0.00  0.00     0.034 A 
ATOM      4  C3  UNL d   1       1.172  -1.138   3.434  0.00  0.00     0.017 A 
ATOM      5  C4  UNL d   1      -0.017  -1.492   4.083  0.00  0.00     0.017 A 
ATOM      6  C5  UNL d   1       0.030  -2.048   5.365  0.00  0.00     0.034 A 
ATOM      7 Cl   UNL d   1      -1.570  -1.269   3.358  0.00  0.00    -0.070 Cl
ATOM      8 Cl1  UNL d   1       1.196  -0.446   1.851  0.00  0.00    -0.070 Cl
ENDROOT
TORSDOF 0
ENDMDL
