MODEL 1
REMARK minimizedAffinity -4.71543741
REMARK minimizedRMSD -1
REMARK  0 active torsions:
REMARK  status: ('A' for Active; 'I' for Inactive)
ROOT
ATOM      1  C   UNL d   1      -0.697   0.192   1.584  0.00  0.00     0.020 A 
ATOM      2  C1  UNL d   1      -1.647   1.068   2.106  0.00  0.00     0.020 A 
ATOM      3  C2  UNL d   1      -1.577   1.458   3.445  0.00  0.00     0.034 A 
ATOM      4  C3  UNL d   1      -0.554   0.971   4.267  0.00  0.00     0.017 A 
ATOM      5  C4  UNL d   1       0.400   0.092   3.742  0.00  0.00     0.017 A 
ATOM      6  C5  UNL d   1       0.324  -0.296   2.401  0.00  0.00     0.034 A 
ATOM      7 Cl   UNL d   1       1.691  -0.551   4.694  0.00  0.00    -0.070 Cl
ATOM      8 Cl1  UNL d   1      -0.528   1.496   5.913  0.00  0.00    -0.070 Cl
ENDROOT
TORSDOF 0
ENDMDL
