MODEL 1
REMARK minimizedAffinity -0.0831418037
REMARK minimizedRMSD -1
REMARK  0 active torsions:
REMARK  status: ('A' for Active; 'I' for Inactive)
ROOT
ATOM      1  C   UNL d   1       0.036  -0.833   3.528  0.00  0.00     0.020 A 
ATOM      2  C1  UNL d   1      -1.337  -0.590   3.563  0.00  0.00     0.020 A 
ATOM      3  C2  UNL d   1      -1.986  -0.092   2.432  0.00  0.00     0.034 A 
ATOM      4  C3  UNL d   1      -1.264   0.163   1.260  0.00  0.00     0.017 A 
ATOM      5  C4  UNL d   1       0.114  -0.082   1.226  0.00  0.00     0.017 A 
ATOM      6  C5  UNL d   1       0.759  -0.580   2.362  0.00  0.00     0.034 A 
ATOM      7 Cl   UNL d   1       1.072   0.208  -0.182  0.00  0.00    -0.070 Cl
ATOM      8 Cl1  UNL d   1      -2.132   0.777  -0.101  0.00  0.00    -0.070 Cl
ENDROOT
TORSDOF 0
ENDMDL
