MODEL 1
REMARK minimizedAffinity 6.70802164
REMARK minimizedRMSD -1
REMARK  0 active torsions:
REMARK  status: ('A' for Active; 'I' for Inactive)
ROOT
ATOM      1  C   UNL d   1      -3.082   0.158   1.773  0.00  0.00     0.020 A 
ATOM      2  C1  UNL d   1      -2.805   0.326   0.417  0.00  0.00     0.020 A 
ATOM      3  C2  UNL d   1      -1.512   0.107  -0.064  0.00  0.00     0.034 A 
ATOM      4  C3  UNL d   1      -0.491  -0.280   0.811  0.00  0.00     0.017 A 
ATOM      5  C4  UNL d   1      -0.770  -0.449   2.173  0.00  0.00     0.017 A 
ATOM      6  C5  UNL d   1      -2.067  -0.229   2.649  0.00  0.00     0.034 A 
ATOM      7 Cl   UNL d   1       0.437  -0.926   3.314  0.00  0.00    -0.070 Cl
ATOM      8 Cl1  UNL d   1       1.084  -0.534   0.148  0.00  0.00    -0.070 Cl
ENDROOT
TORSDOF 0
ENDMDL
