MODEL 1
REMARK minimizedAffinity 5.83592272
REMARK minimizedRMSD -1
REMARK  0 active torsions:
REMARK  status: ('A' for Active; 'I' for Inactive)
ROOT
ATOM      1  C   UNL d   1      -2.466   0.330   0.047  0.00  0.00     0.020 A 
ATOM      2  C1  UNL d   1      -2.958   0.139   1.338  0.00  0.00     0.020 A 
ATOM      3  C2  UNL d   1      -2.110  -0.322   2.347  0.00  0.00     0.034 A 
ATOM      4  C3  UNL d   1      -0.767  -0.595   2.068  0.00  0.00     0.017 A 
ATOM      5  C4  UNL d   1      -0.274  -0.404   0.772  0.00  0.00     0.017 A 
ATOM      6  C5  UNL d   1      -1.127   0.059  -0.235  0.00  0.00     0.034 A 
ATOM      7 Cl   UNL d   1       1.373  -0.719   0.350  0.00  0.00    -0.070 Cl
ATOM      8 Cl1  UNL d   1       0.225  -1.163   3.364  0.00  0.00    -0.070 Cl
ENDROOT
TORSDOF 0
ENDMDL
