MODEL 1
REMARK minimizedAffinity 2.5367074
REMARK minimizedRMSD -1
REMARK  0 active torsions:
REMARK  status: ('A' for Active; 'I' for Inactive)
ROOT
ATOM      1  C   UNL d   1       0.376  -0.698   0.297  0.00  0.00     0.020 A 
ATOM      2  C1  UNL d   1      -0.895  -0.215  -0.009  0.00  0.00     0.020 A 
ATOM      3  C2  UNL d   1      -1.872  -0.140   0.987  0.00  0.00     0.034 A 
ATOM      4  C3  UNL d   1      -1.578  -0.548   2.293  0.00  0.00     0.017 A 
ATOM      5  C4  UNL d   1      -0.301  -1.033   2.599  0.00  0.00     0.017 A 
ATOM      6  C5  UNL d   1       0.673  -1.106   1.598  0.00  0.00     0.034 A 
ATOM      7 Cl   UNL d   1       0.137  -1.555   4.188  0.00  0.00    -0.070 Cl
ATOM      8 Cl1  UNL d   1      -2.833  -0.428   3.475  0.00  0.00    -0.070 Cl
ENDROOT
TORSDOF 0
ENDMDL
