MODEL 1
REMARK minimizedAffinity 0.120387681
REMARK minimizedRMSD -1
REMARK  0 active torsions:
REMARK  status: ('A' for Active; 'I' for Inactive)
ROOT
ATOM      1  C   UNL d   1      -3.135   0.309   1.419  0.00  0.00     0.020 A 
ATOM      2  C1  UNL d   1      -2.753   0.210   0.082  0.00  0.00     0.020 A 
ATOM      3  C2  UNL d   1      -1.468  -0.226  -0.247  0.00  0.00     0.034 A 
ATOM      4  C3  UNL d   1      -0.560  -0.564   0.763  0.00  0.00     0.017 A 
ATOM      5  C4  UNL d   1      -0.944  -0.465   2.105  0.00  0.00     0.017 A 
ATOM      6  C5  UNL d   1      -2.232  -0.028   2.428  0.00  0.00     0.034 A 
ATOM      7 Cl   UNL d   1       0.121  -0.865   3.406  0.00  0.00    -0.070 Cl
ATOM      8 Cl1  UNL d   1       1.013  -1.096   0.284  0.00  0.00    -0.070 Cl
ENDROOT
TORSDOF 0
ENDMDL
