MODEL 1
REMARK minimizedAffinity -1.02579546
REMARK minimizedRMSD -1
REMARK  0 active torsions:
REMARK  status: ('A' for Active; 'I' for Inactive)
ROOT
ATOM      1  C   UNL d   1      -1.797  -0.358   2.229  0.00  0.00     0.020 A 
ATOM      2  C1  UNL d   1      -1.871  -0.117   0.857  0.00  0.00     0.020 A 
ATOM      3  C2  UNL d   1      -0.747  -0.313   0.052  0.00  0.00     0.034 A 
ATOM      4  C3  UNL d   1       0.456  -0.751   0.618  0.00  0.00     0.017 A 
ATOM      5  C4  UNL d   1       0.530  -0.994   1.994  0.00  0.00     0.017 A 
ATOM      6  C5  UNL d   1      -0.599  -0.796   2.796  0.00  0.00     0.034 A 
ATOM      7 Cl   UNL d   1       1.979  -1.537   2.764  0.00  0.00    -0.070 Cl
ATOM      8 Cl1  UNL d   1       1.806  -0.973  -0.438  0.00  0.00    -0.070 Cl
ENDROOT
TORSDOF 0
ENDMDL
