MODEL 1
REMARK minimizedAffinity -0.748563468
REMARK minimizedRMSD -1
REMARK  0 active torsions:
REMARK  status: ('A' for Active; 'I' for Inactive)
ROOT
ATOM      1  C   UNL d   1      -1.258   0.950  -0.293  0.00  0.00     0.020 A 
ATOM      2  C1  UNL d   1      -1.890   0.674   0.919  0.00  0.00     0.020 A 
ATOM      3  C2  UNL d   1      -1.390  -0.326   1.755  0.00  0.00     0.034 A 
ATOM      4  C3  UNL d   1      -0.255  -1.054   1.381  0.00  0.00     0.017 A 
ATOM      5  C4  UNL d   1       0.379  -0.777   0.165  0.00  0.00     0.017 A 
ATOM      6  C5  UNL d   1      -0.125   0.226  -0.669  0.00  0.00     0.034 A 
ATOM      7 Cl   UNL d   1       1.784  -1.632  -0.365  0.00  0.00    -0.070 Cl
ATOM      8 Cl1  UNL d   1       0.309  -2.277   2.464  0.00  0.00    -0.070 Cl
ENDROOT
TORSDOF 0
ENDMDL
