MODEL 1
REMARK minimizedAffinity -2.01830173
REMARK minimizedRMSD -1
REMARK  0 active torsions:
REMARK  status: ('A' for Active; 'I' for Inactive)
ROOT
ATOM      1  C   UNL d   1      -1.020   3.007  -3.138  0.00  0.00     0.020 A 
ATOM      2  C1  UNL d   1      -1.070   3.772  -1.974  0.00  0.00     0.020 A 
ATOM      3  C2  UNL d   1      -0.974   3.152  -0.726  0.00  0.00     0.034 A 
ATOM      4  C3  UNL d   1      -0.829   1.762  -0.641  0.00  0.00     0.017 A 
ATOM      5  C4  UNL d   1      -0.779   0.995  -1.810  0.00  0.00     0.017 A 
ATOM      6  C5  UNL d   1      -0.874   1.622  -3.057  0.00  0.00     0.034 A 
ATOM      7 Cl   UNL d   1      -0.600  -0.724  -1.784  0.00  0.00    -0.070 Cl
ATOM      8 Cl1  UNL d   1      -0.717   1.062   0.935  0.00  0.00    -0.070 Cl
ENDROOT
TORSDOF 0
ENDMDL
