MODEL 1
REMARK minimizedAffinity -3.20776343
REMARK minimizedRMSD -1
REMARK  0 active torsions:
REMARK  status: ('A' for Active; 'I' for Inactive)
ROOT
ATOM      1  C   UNL d   1       1.616  -2.363   2.120  0.00  0.00     0.020 A 
ATOM      2  C1  UNL d   1       2.264  -2.325   0.886  0.00  0.00     0.020 A 
ATOM      3  C2  UNL d   1       1.727  -1.575  -0.162  0.00  0.00     0.034 A 
ATOM      4  C3  UNL d   1       0.538  -0.859   0.021  0.00  0.00     0.017 A 
ATOM      5  C4  UNL d   1      -0.112  -0.898   1.260  0.00  0.00     0.017 A 
ATOM      6  C5  UNL d   1       0.430  -1.650   2.307  0.00  0.00     0.034 A 
ATOM      7 Cl   UNL d   1      -1.582  -0.041   1.562  0.00  0.00    -0.070 Cl
ATOM      8 Cl1  UNL d   1      -0.068   0.047  -1.318  0.00  0.00    -0.070 Cl
ENDROOT
TORSDOF 0
ENDMDL
