MODEL 1
REMARK minimizedAffinity -2.77713227
REMARK minimizedRMSD -1
REMARK  0 active torsions:
REMARK  status: ('A' for Active; 'I' for Inactive)
ROOT
ATOM      1  C   UNL d   1      -1.019  -0.306   2.161  0.00  0.00     0.020 A 
ATOM      2  C1  UNL d   1      -0.054  -1.046   2.844  0.00  0.00     0.020 A 
ATOM      3  C2  UNL d   1       0.966  -1.685   2.137  0.00  0.00     0.034 A 
ATOM      4  C3  UNL d   1       1.025  -1.586   0.742  0.00  0.00     0.017 A 
ATOM      5  C4  UNL d   1       0.056  -0.842   0.057  0.00  0.00     0.017 A 
ATOM      6  C5  UNL d   1      -0.963  -0.204   0.771  0.00  0.00     0.034 A 
ATOM      7 Cl   UNL d   1       0.063  -0.673  -1.663  0.00  0.00    -0.070 Cl
ATOM      8 Cl1  UNL d   1       2.314  -2.401  -0.068  0.00  0.00    -0.070 Cl
ENDROOT
TORSDOF 0
ENDMDL
