MODEL 1
REMARK minimizedAffinity 26.248497
REMARK minimizedRMSD -1
REMARK  0 active torsions:
REMARK  status: ('A' for Active; 'I' for Inactive)
ROOT
ATOM      1  C   UNL d   1       1.254  -3.253  -0.524  0.00  0.00     0.124 A 
ATOM      2  C1  UNL d   1       2.206  -2.307  -0.171  0.00  0.00     0.062 A 
ATOM      3  C2  UNL d   1       3.562  -2.595  -0.304  0.00  0.00     0.162 A 
ATOM      4  C3  UNL d   1       3.974  -3.834  -0.794  0.00  0.00    -0.034 A 
ATOM      5  C4  UNL d   1       3.010  -4.781  -1.146  0.00  0.00     0.162 A 
ATOM      6  C5  UNL d   1       1.657  -4.489  -1.012  0.00  0.00     0.062 A 
ATOM      7  F   UNL d   1       0.739  -5.404  -1.353  0.00  0.00    -0.097 F 
ATOM      8  F1  UNL d   1       3.371  -5.982  -1.621  0.00  0.00    -0.096 F 
ATOM      9  I   UNL d   1       5.999  -4.267  -0.995  0.00  0.00    -0.060 I 
ATOM     10  F2  UNL d   1       4.460  -1.661   0.045  0.00  0.00    -0.096 F 
ATOM     11  F3  UNL d   1       1.820  -1.113   0.301  0.00  0.00    -0.097 F 
ATOM     12  F4  UNL d   1      -0.049  -2.975  -0.394  0.00  0.00    -0.092 F 
ENDROOT
TORSDOF 0
ENDMDL
