MODEL 1
REMARK minimizedAffinity 19.4407215
REMARK minimizedRMSD -1
REMARK  0 active torsions:
REMARK  status: ('A' for Active; 'I' for Inactive)
ROOT
ATOM      1  C   UNL d   1       1.361   3.901  -1.365  0.00  0.00     0.124 A 
ATOM      2  C1  UNL d   1       2.258   4.038  -0.314  0.00  0.00     0.062 A 
ATOM      3  C2  UNL d   1       1.989   3.448   0.917  0.00  0.00     0.162 A 
ATOM      4  C3  UNL d   1       0.818   2.714   1.105  0.00  0.00    -0.034 A 
ATOM      5  C4  UNL d   1      -0.080   2.581   0.044  0.00  0.00     0.162 A 
ATOM      6  C5  UNL d   1       0.194   3.172  -1.185  0.00  0.00     0.062 A 
ATOM      7  F   UNL d   1      -0.673   3.038  -2.199  0.00  0.00    -0.097 F 
ATOM      8  F1  UNL d   1      -1.215   1.881   0.189  0.00  0.00    -0.096 F 
ATOM      9  I   UNL d   1       0.411   1.830   2.945  0.00  0.00    -0.060 I 
ATOM     10  F2  UNL d   1       2.873   3.597   1.915  0.00  0.00    -0.096 F 
ATOM     11  F3  UNL d   1       3.386   4.742  -0.485  0.00  0.00    -0.097 F 
ATOM     12  F4  UNL d   1       1.622   4.470  -2.549  0.00  0.00    -0.092 F 
ENDROOT
TORSDOF 0
ENDMDL
