MODEL 1
REMARK minimizedAffinity 22.4572525
REMARK minimizedRMSD -1
REMARK  0 active torsions:
REMARK  status: ('A' for Active; 'I' for Inactive)
ROOT
ATOM      1  C   UNL d   1       0.042   4.010  -1.373  0.00  0.00     0.124 A 
ATOM      2  C1  UNL d   1       1.313   4.275  -0.884  0.00  0.00     0.062 A 
ATOM      3  C2  UNL d   1       1.911   3.403   0.021  0.00  0.00     0.162 A 
ATOM      4  C3  UNL d   1       1.237   2.256   0.443  0.00  0.00    -0.034 A 
ATOM      5  C4  UNL d   1      -0.041   1.997  -0.053  0.00  0.00     0.162 A 
ATOM      6  C5  UNL d   1      -0.634   2.872  -0.958  0.00  0.00     0.062 A 
ATOM      7  F   UNL d   1      -1.863   2.614  -1.430  0.00  0.00    -0.097 F 
ATOM      8  F1  UNL d   1      -0.717   0.903   0.331  0.00  0.00    -0.096 F 
ATOM      9  I   UNL d   1       2.127   0.950   1.796  0.00  0.00    -0.060 I 
ATOM     10  F2  UNL d   1       3.140   3.684   0.478  0.00  0.00    -0.096 F 
ATOM     11  F3  UNL d   1       1.968   5.375  -1.283  0.00  0.00    -0.097 F 
ATOM     12  F4  UNL d   1      -0.531   4.852  -2.244  0.00  0.00    -0.092 F 
ENDROOT
TORSDOF 0
ENDMDL
