MODEL 1
REMARK minimizedAffinity 29.5534248
REMARK minimizedRMSD -1
REMARK  0 active torsions:
REMARK  status: ('A' for Active; 'I' for Inactive)
ROOT
ATOM      1  C   UNL d   1       1.200  -3.521  -0.940  0.00  0.00     0.124 A 
ATOM      2  C1  UNL d   1       1.830  -4.699  -1.318  0.00  0.00     0.062 A 
ATOM      3  C2  UNL d   1       3.200  -4.851  -1.129  0.00  0.00     0.162 A 
ATOM      4  C3  UNL d   1       3.950  -3.824  -0.556  0.00  0.00    -0.034 A 
ATOM      5  C4  UNL d   1       3.310  -2.643  -0.179  0.00  0.00     0.162 A 
ATOM      6  C5  UNL d   1       1.940  -2.495  -0.370  0.00  0.00     0.062 A 
ATOM      7  F   UNL d   1       1.333  -1.357  -0.004  0.00  0.00    -0.097 F 
ATOM      8  F1  UNL d   1       4.001  -1.635   0.375  0.00  0.00    -0.096 F 
ATOM      9  I   UNL d   1       6.000  -4.049  -0.271  0.00  0.00    -0.060 I 
ATOM     10  F2  UNL d   1       3.783  -6.000  -1.504  0.00  0.00    -0.096 F 
ATOM     11  F3  UNL d   1       1.117  -5.691  -1.870  0.00  0.00    -0.097 F 
ATOM     12  F4  UNL d   1      -0.119  -3.376  -1.124  0.00  0.00    -0.092 F 
ENDROOT
TORSDOF 0
ENDMDL
