MODEL 1
REMARK minimizedAffinity 16.9659233
REMARK minimizedRMSD -1
REMARK  0 active torsions:
REMARK  status: ('A' for Active; 'I' for Inactive)
ROOT
ATOM      1  C   UNL d   1      -0.477  -3.702  -3.006  0.00  0.00     0.124 A 
ATOM      2  C1  UNL d   1      -0.246  -2.426  -2.509  0.00  0.00     0.062 A 
ATOM      3  C2  UNL d   1       0.754  -2.214  -1.565  0.00  0.00     0.162 A 
ATOM      4  C3  UNL d   1       1.532  -3.280  -1.112  0.00  0.00    -0.034 A 
ATOM      5  C4  UNL d   1       1.292  -4.559  -1.615  0.00  0.00     0.162 A 
ATOM      6  C5  UNL d   1       0.292  -4.767  -2.559  0.00  0.00     0.062 A 
ATOM      7  F   UNL d   1       0.070  -5.999  -3.038  0.00  0.00    -0.097 F 
ATOM      8  F1  UNL d   1       2.021  -5.606  -1.201  0.00  0.00    -0.096 F 
ATOM      9  I   UNL d   1       3.028  -2.966   0.301  0.00  0.00    -0.060 I 
ATOM     10  F2  UNL d   1       0.955  -0.971  -1.102  0.00  0.00    -0.096 F 
ATOM     11  F3  UNL d   1      -0.989  -1.396  -2.939  0.00  0.00    -0.097 F 
ATOM     12  F4  UNL d   1      -1.441  -3.903  -3.914  0.00  0.00    -0.092 F 
ENDROOT
TORSDOF 0
ENDMDL
