MODEL 1
REMARK minimizedAffinity 9.60536861
REMARK minimizedRMSD -1
REMARK  0 active torsions:
REMARK  status: ('A' for Active; 'I' for Inactive)
ROOT
ATOM      1  C   UNL d   1      -2.698   0.949  -2.333  0.00  0.00     0.077 C 
ATOM      2  C1  UNL d   1      -3.037   1.764  -1.120  0.00  0.00    -0.074 A 
ATOM      3  C2  UNL d   1      -2.103   1.951  -0.096  0.00  0.00    -0.005 A 
ATOM      4  C3  UNL d   1      -2.430   2.720   1.021  0.00  0.00     0.006 A 
ATOM      5  C4  UNL d   1      -3.691   3.308   1.125  0.00  0.00    -0.005 A 
ATOM      6  C5  UNL d   1      -4.637   3.132   0.110  0.00  0.00    -0.074 A 
ATOM      7  C6  UNL d   1      -5.994   3.766   0.202  0.00  0.00     0.077 C 
ATOM      8  C7  UNL d   1      -4.299   2.364  -1.012  0.00  0.00    -0.001 A 
ENDROOT
TORSDOF 0
ENDMDL
