MODEL 1
REMARK minimizedAffinity -2.14960003
REMARK minimizedRMSD -1
REMARK  0 active torsions:
REMARK  status: ('A' for Active; 'I' for Inactive)
ROOT
ATOM      1  C   UNL d   1       0.681  -5.981  -5.859  0.00  0.00     0.077 C 
ATOM      2  C1  UNL d   1       2.025  -5.994  -5.194  0.00  0.00    -0.074 A 
ATOM      3  C2  UNL d   1       3.201  -5.996  -5.950  0.00  0.00    -0.005 A 
ATOM      4  C3  UNL d   1       4.444  -5.999  -5.317  0.00  0.00     0.006 A 
ATOM      5  C4  UNL d   1       4.523  -6.000  -3.923  0.00  0.00    -0.005 A 
ATOM      6  C5  UNL d   1       3.357  -5.998  -3.151  0.00  0.00    -0.074 A 
ATOM      7  C6  UNL d   1       3.424  -5.989  -1.653  0.00  0.00     0.077 C 
ATOM      8  C7  UNL d   1       2.112  -5.988  -3.795  0.00  0.00    -0.001 A 
ENDROOT
TORSDOF 0
ENDMDL
