MODEL 1
REMARK minimizedAffinity -2.79961872
REMARK minimizedRMSD -1
REMARK  0 active torsions:
REMARK  status: ('A' for Active; 'I' for Inactive)
ROOT
ATOM      1  C   UNL d   1       5.965  -5.795  -6.000  0.00  0.00     0.077 C 
ATOM      2  C1  UNL d   1       4.697  -5.859  -5.201  0.00  0.00    -0.074 A 
ATOM      3  C2  UNL d   1       3.451  -5.901  -5.834  0.00  0.00    -0.005 A 
ATOM      4  C3  UNL d   1       2.280  -5.971  -5.078  0.00  0.00     0.006 A 
ATOM      5  C4  UNL d   1       2.345  -6.000  -3.684  0.00  0.00    -0.005 A 
ATOM      6  C5  UNL d   1       3.582  -5.960  -3.034  0.00  0.00    -0.074 A 
ATOM      7  C6  UNL d   1       3.669  -6.000  -1.537  0.00  0.00     0.077 C 
ATOM      8  C7  UNL d   1       4.754  -5.897  -3.801  0.00  0.00    -0.001 A 
ENDROOT
TORSDOF 0
ENDMDL
