MODEL 1
REMARK minimizedAffinity 4.6916666
REMARK minimizedRMSD -1
REMARK  0 active torsions:
REMARK  status: ('A' for Active; 'I' for Inactive)
ROOT
ATOM      1  C   UNL d   1       4.550  -3.104  -2.590  0.00  0.00     0.077 C 
ATOM      2  C1  UNL d   1       4.544  -4.108  -3.704  0.00  0.00    -0.074 A 
ATOM      3  C2  UNL d   1       5.740  -4.604  -4.232  0.00  0.00    -0.005 A 
ATOM      4  C3  UNL d   1       5.718  -5.545  -5.261  0.00  0.00     0.006 A 
ATOM      5  C4  UNL d   1       4.502  -5.999  -5.772  0.00  0.00    -0.005 A 
ATOM      6  C5  UNL d   1       3.295  -5.515  -5.257  0.00  0.00    -0.074 A 
ATOM      7  C6  UNL d   1       1.979  -5.999  -5.789  0.00  0.00     0.077 C 
ATOM      8  C7  UNL d   1       3.326  -4.574  -4.218  0.00  0.00    -0.001 A 
ENDROOT
TORSDOF 0
ENDMDL
