MODEL 1
REMARK minimizedAffinity -2.25947142
REMARK minimizedRMSD -1
REMARK  0 active torsions:
REMARK  status: ('A' for Active; 'I' for Inactive)
ROOT
ATOM      1  C   UNL d   1       4.151  -6.000  -1.498  0.00  0.00     0.077 C 
ATOM      2  C1  UNL d   1       4.200  -5.988  -2.997  0.00  0.00    -0.074 A 
ATOM      3  C2  UNL d   1       5.422  -5.987  -3.677  0.00  0.00    -0.005 A 
ATOM      4  C3  UNL d   1       5.452  -5.986  -5.071  0.00  0.00     0.006 A 
ATOM      5  C4  UNL d   1       4.261  -5.986  -5.799  0.00  0.00    -0.005 A 
ATOM      6  C5  UNL d   1       3.029  -5.989  -5.137  0.00  0.00    -0.074 A 
ATOM      7  C6  UNL d   1       1.741  -5.999  -5.904  0.00  0.00     0.077 C 
ATOM      8  C7  UNL d   1       3.008  -5.997  -3.735  0.00  0.00    -0.001 A 
ENDROOT
TORSDOF 0
ENDMDL
