MODEL 1
REMARK minimizedAffinity 1.01251364
REMARK minimizedRMSD -1
REMARK  0 active torsions:
REMARK  status: ('A' for Active; 'I' for Inactive)
ROOT
ATOM      1  C   UNL d   1       3.821  -0.286  -1.371  0.00  0.00     0.077 C 
ATOM      2  C1  UNL d   1       4.499  -0.370  -2.707  0.00  0.00    -0.074 A 
ATOM      3  C2  UNL d   1       5.384  -1.413  -2.998  0.00  0.00    -0.005 A 
ATOM      4  C3  UNL d   1       6.000  -1.484  -4.248  0.00  0.00     0.006 A 
ATOM      5  C4  UNL d   1       5.738  -0.514  -5.216  0.00  0.00    -0.005 A 
ATOM      6  C5  UNL d   1       4.855   0.535  -4.943  0.00  0.00    -0.074 A 
ATOM      7  C6  UNL d   1       4.554   1.580  -5.976  0.00  0.00     0.077 C 
ATOM      8  C7  UNL d   1       4.234   0.595  -3.688  0.00  0.00    -0.001 A 
ENDROOT
TORSDOF 0
ENDMDL
