MODEL 1
REMARK minimizedAffinity 1.97068274
REMARK minimizedRMSD -1
REMARK  0 active torsions:
REMARK  status: ('A' for Active; 'I' for Inactive)
ROOT
ATOM      1  C   UNL d   1      -0.398  -2.233   0.143  0.00  0.00     0.077 C 
ATOM      2  C1  UNL d   1      -1.491  -2.679  -0.781  0.00  0.00    -0.074 A 
ATOM      3  C2  UNL d   1      -2.065  -1.792  -1.698  0.00  0.00    -0.005 A 
ATOM      4  C3  UNL d   1      -3.075  -2.225  -2.557  0.00  0.00     0.006 A 
ATOM      5  C4  UNL d   1      -3.521  -3.546  -2.509  0.00  0.00    -0.005 A 
ATOM      6  C5  UNL d   1      -2.959  -4.448  -1.599  0.00  0.00    -0.074 A 
ATOM      7  C6  UNL d   1      -3.420  -5.874  -1.541  0.00  0.00     0.077 C 
ATOM      8  C7  UNL d   1      -1.939  -4.007  -0.744  0.00  0.00    -0.001 A 
ENDROOT
TORSDOF 0
ENDMDL
