MODEL 1
REMARK minimizedAffinity 0.5769912
REMARK minimizedRMSD -1
REMARK  0 active torsions:
REMARK  status: ('A' for Active; 'I' for Inactive)
ROOT
ATOM      1  C   UNL d   1       0.656  -4.698   5.885  0.00  0.00     0.077 C 
ATOM      2  C1  UNL d   1       1.398  -4.051   4.754  0.00  0.00    -0.074 A 
ATOM      3  C2  UNL d   1       2.280  -4.788   3.958  0.00  0.00    -0.005 A 
ATOM      4  C3  UNL d   1       2.956  -4.175   2.903  0.00  0.00     0.006 A 
ATOM      5  C4  UNL d   1       2.758  -2.820   2.635  0.00  0.00    -0.005 A 
ATOM      6  C5  UNL d   1       1.880  -2.067   3.420  0.00  0.00    -0.074 A 
ATOM      7  C6  UNL d   1       1.648  -0.612   3.139  0.00  0.00     0.077 C 
ATOM      8  C7  UNL d   1       1.199  -2.692   4.473  0.00  0.00    -0.001 A 
ENDROOT
TORSDOF 0
ENDMDL
