MODEL 1
REMARK minimizedAffinity 9.28543377
REMARK minimizedRMSD -1
REMARK  0 active torsions:
REMARK  status: ('A' for Active; 'I' for Inactive)
ROOT
ATOM      1  C   UNL d   1       0.340   1.410   0.462  0.00  0.00     0.023 A 
ATOM      2  C1  UNL d   1       1.677   1.799   0.387  0.00  0.00     0.003 A 
ATOM      3  C2  UNL d   1       2.026   2.989  -0.254  0.00  0.00     0.048 A 
ATOM      4  C3  UNL d   1       1.031   3.787  -0.818  0.00  0.00     0.023 A 
ATOM      5  C4  UNL d   1      -0.309   3.403  -0.745  0.00  0.00     0.048 A 
ATOM      6  C5  UNL d   1      -0.652   2.212  -0.104  0.00  0.00     0.003 A 
ATOM      7  I   UNL d   1       1.547   5.560  -1.773  0.00  0.00    -0.146 I 
ENDROOT
TORSDOF 0
ENDMDL
