MODEL 1
REMARK minimizedAffinity -2.5223496
REMARK minimizedRMSD -1
REMARK  0 active torsions:
REMARK  status: ('A' for Active; 'I' for Inactive)
ROOT
ATOM      1  C   UNL d   1       5.257  -5.988  -2.765  0.00  0.00     0.023 A 
ATOM      2  C1  UNL d   1       5.535  -5.980  -4.132  0.00  0.00     0.003 A 
ATOM      3  C2  UNL d   1       4.489  -5.980  -5.058  0.00  0.00     0.048 A 
ATOM      4  C3  UNL d   1       3.169  -5.987  -4.610  0.00  0.00     0.023 A 
ATOM      5  C4  UNL d   1       2.887  -5.994  -3.243  0.00  0.00     0.048 A 
ATOM      6  C5  UNL d   1       3.935  -5.995  -2.321  0.00  0.00     0.003 A 
ATOM      7  I   UNL d   1       1.612  -5.987  -5.986  0.00  0.00    -0.146 I 
ENDROOT
TORSDOF 0
ENDMDL
