MODEL 1
REMARK minimizedAffinity 5.02185631
REMARK minimizedRMSD -1
REMARK  0 active torsions:
REMARK  status: ('A' for Active; 'I' for Inactive)
ROOT
ATOM      1  C   UNL d   1       5.246  -5.814  -2.012  0.00  0.00     0.023 A 
ATOM      2  C1  UNL d   1       5.749  -6.000  -0.724  0.00  0.00     0.003 A 
ATOM      3  C2  UNL d   1       4.885  -5.993   0.373  0.00  0.00     0.048 A 
ATOM      4  C3  UNL d   1       3.518  -5.802   0.175  0.00  0.00     0.023 A 
ATOM      5  C4  UNL d   1       3.009  -5.617  -1.112  0.00  0.00     0.048 A 
ATOM      6  C5  UNL d   1       3.877  -5.623  -2.205  0.00  0.00     0.003 A 
ATOM      7  I   UNL d   1       2.230  -5.792   1.806  0.00  0.00    -0.146 I 
ENDROOT
TORSDOF 0
ENDMDL
