MODEL 1
REMARK minimizedAffinity 4.81246471
REMARK minimizedRMSD -1
REMARK  0 active torsions:
REMARK  status: ('A' for Active; 'I' for Inactive)
ROOT
ATOM      1  C   UNL d   1       3.730  -5.997  -4.881  0.00  0.00     0.023 A 
ATOM      2  C1  UNL d   1       4.882  -5.998  -4.094  0.00  0.00     0.003 A 
ATOM      3  C2  UNL d   1       4.778  -5.998  -2.701  0.00  0.00     0.048 A 
ATOM      4  C3  UNL d   1       3.518  -5.998  -2.102  0.00  0.00     0.023 A 
ATOM      5  C4  UNL d   1       2.363  -5.998  -2.886  0.00  0.00     0.048 A 
ATOM      6  C5  UNL d   1       2.473  -5.997  -4.278  0.00  0.00     0.003 A 
ATOM      7  I   UNL d   1       3.360  -5.999  -0.030  0.00  0.00    -0.146 I 
ENDROOT
TORSDOF 0
ENDMDL
