MODEL 1
REMARK minimizedAffinity 4.210217
REMARK minimizedRMSD -1
REMARK  0 active torsions:
REMARK  status: ('A' for Active; 'I' for Inactive)
ROOT
ATOM      1  C   UNL d   1       2.796  -5.973  -5.997  0.00  0.00     0.023 A 
ATOM      2  C1  UNL d   1       4.061  -5.969  -5.409  0.00  0.00     0.003 A 
ATOM      3  C2  UNL d   1       4.186  -5.976  -4.018  0.00  0.00     0.048 A 
ATOM      4  C3  UNL d   1       3.042  -5.989  -3.221  0.00  0.00     0.023 A 
ATOM      5  C4  UNL d   1       1.774  -5.994  -3.805  0.00  0.00     0.048 A 
ATOM      6  C5  UNL d   1       1.654  -5.985  -5.196  0.00  0.00     0.003 A 
ATOM      7  I   UNL d   1       3.225  -6.000  -1.151  0.00  0.00    -0.146 I 
ENDROOT
TORSDOF 0
ENDMDL
