MODEL 1
REMARK minimizedAffinity 0.612245917
REMARK minimizedRMSD -1
REMARK  0 active torsions:
REMARK  status: ('A' for Active; 'I' for Inactive)
ROOT
ATOM      1  C   UNL d   1       3.131  -5.978  -0.535  0.00  0.00     0.023 A 
ATOM      2  C1  UNL d   1       4.244  -5.967  -1.376  0.00  0.00     0.003 A 
ATOM      3  C2  UNL d   1       4.075  -5.974  -2.762  0.00  0.00     0.048 A 
ATOM      4  C3  UNL d   1       2.789  -5.990  -3.301  0.00  0.00     0.023 A 
ATOM      5  C4  UNL d   1       1.672  -6.000  -2.464  0.00  0.00     0.048 A 
ATOM      6  C5  UNL d   1       1.846  -5.994  -1.079  0.00  0.00     0.003 A 
ATOM      7  I   UNL d   1       2.534  -5.999  -5.363  0.00  0.00    -0.146 I 
ENDROOT
TORSDOF 0
ENDMDL
