MODEL 1
REMARK minimizedAffinity -4.2018671
REMARK minimizedRMSD -1
REMARK  1 active torsions:
REMARK  status: ('A' for Active; 'I' for Inactive)
REMARK    1  A    between atoms: C3_4  and  O_7 
ROOT
ATOM      1  C   UNL d   1       0.578   2.608   0.292  0.00  0.00    -0.033 A 
ATOM      2  C1  UNL d   1      -0.765   2.274   0.106  0.00  0.00     0.039 A 
ATOM      3  C2  UNL d   1      -1.137   0.939  -0.059  0.00  0.00    -0.080 A 
ATOM      4  C3  UNL d   1      -0.159  -0.052  -0.035  0.00  0.00     0.150 A 
ATOM      5  C4  UNL d   1       1.180   0.274   0.154  0.00  0.00    -0.007 A 
ATOM      6  C5  UNL d   1       1.550   1.608   0.317  0.00  0.00     0.039 A 
ENDROOT
BRANCH   4   7
ATOM      7  O   UNL d   1      -0.473  -1.368  -0.197  0.00  0.00    -0.526 OA
ATOM      8  H5  UNL d   1      -1.431  -1.440  -0.346  0.00  0.00     0.418 HD
ENDBRANCH   4   7
TORSDOF 1
ENDMDL
