MODEL 1
REMARK minimizedAffinity 1.84752166
REMARK minimizedRMSD -1
REMARK  1 active torsions:
REMARK  status: ('A' for Active; 'I' for Inactive)
REMARK    1  A    between atoms: C3_4  and  O_7 
ROOT
ATOM      1  C   UNL d   1      -0.543   1.567   1.070  0.00  0.00    -0.033 A 
ATOM      2  C1  UNL d   1      -1.020   2.652   0.333  0.00  0.00     0.039 A 
ATOM      3  C2  UNL d   1      -1.932   2.446  -0.705  0.00  0.00    -0.080 A 
ATOM      4  C3  UNL d   1      -2.358   1.153  -0.994  0.00  0.00     0.150 A 
ATOM      5  C4  UNL d   1      -1.889   0.068  -0.261  0.00  0.00    -0.007 A 
ATOM      6  C5  UNL d   1      -0.979   0.275   0.775  0.00  0.00     0.039 A 
ENDROOT
BRANCH   4   7
ATOM      7  O   UNL d   1      -3.242   0.902  -2.001  0.00  0.00    -0.526 OA
ATOM      8  H5  UNL d   1      -3.456   1.743  -2.438  0.00  0.00     0.418 HD
ENDBRANCH   4   7
TORSDOF 1
ENDMDL
