MODEL 1
REMARK minimizedAffinity -3.61001706
REMARK minimizedRMSD -1
REMARK  1 active torsions:
REMARK  status: ('A' for Active; 'I' for Inactive)
REMARK    1  A    between atoms: C3_4  and  O_7 
ROOT
ATOM      1  C   UNL d   1      -0.297   2.327   0.717  0.00  0.00    -0.033 A 
ATOM      2  C1  UNL d   1       1.031   2.755   0.759  0.00  0.00     0.039 A 
ATOM      3  C2  UNL d   1       2.069   1.829   0.643  0.00  0.00    -0.080 A 
ATOM      4  C3  UNL d   1       1.767   0.480   0.485  0.00  0.00     0.150 A 
ATOM      5  C4  UNL d   1       0.446   0.046   0.438  0.00  0.00    -0.007 A 
ATOM      6  C5  UNL d   1      -0.590   0.973   0.555  0.00  0.00     0.039 A 
ENDROOT
BRANCH   4   7
ATOM      7  O   UNL d   1       2.746  -0.462   0.372  0.00  0.00    -0.526 OA
ATOM      8  H5  UNL d   1       3.608  -0.020   0.451  0.00  0.00     0.418 HD
ENDBRANCH   4   7
TORSDOF 1
ENDMDL
