MODEL 1
REMARK minimizedAffinity -4.86883497
REMARK minimizedRMSD -1
REMARK  1 active torsions:
REMARK  status: ('A' for Active; 'I' for Inactive)
REMARK    1  A    between atoms: C3_4  and  O_7 
ROOT
ATOM      1  C   UNL d   1      -0.333   1.987   0.494  0.00  0.00    -0.033 A 
ATOM      2  C1  UNL d   1       0.991   2.289   0.819  0.00  0.00     0.039 A 
ATOM      3  C2  UNL d   1       1.949   1.274   0.866  0.00  0.00    -0.080 A 
ATOM      4  C3  UNL d   1       1.571  -0.036   0.586  0.00  0.00     0.150 A 
ATOM      5  C4  UNL d   1       0.255  -0.344   0.258  0.00  0.00    -0.007 A 
ATOM      6  C5  UNL d   1      -0.701   0.671   0.212  0.00  0.00     0.039 A 
ENDROOT
BRANCH   4   7
ATOM      7  O   UNL d   1       2.470  -1.061   0.624  0.00  0.00    -0.526 OA
ATOM      8  H5  UNL d   1       3.332  -0.703   0.893  0.00  0.00     0.418 HD
ENDBRANCH   4   7
TORSDOF 1
ENDMDL
