MODEL 1
REMARK minimizedAffinity -5.32097387
REMARK minimizedRMSD -1
REMARK  1 active torsions:
REMARK  status: ('A' for Active; 'I' for Inactive)
REMARK    1  A    between atoms: C3_4  and  O_7 
ROOT
ATOM      1  C   UNL d   1      -0.651   1.959  -0.248  0.00  0.00    -0.033 A 
ATOM      2  C1  UNL d   1      -0.295   0.612  -0.161  0.00  0.00     0.039 A 
ATOM      3  C2  UNL d   1       1.008   0.253   0.191  0.00  0.00    -0.080 A 
ATOM      4  C3  UNL d   1       1.943   1.249   0.456  0.00  0.00     0.150 A 
ATOM      5  C4  UNL d   1       1.594   2.593   0.376  0.00  0.00    -0.007 A 
ATOM      6  C5  UNL d   1       0.294   2.950   0.022  0.00  0.00     0.039 A 
ENDROOT
BRANCH   4   7
ATOM      7  O   UNL d   1       3.227   0.948   0.799  0.00  0.00    -0.526 OA
ATOM      8  H5  UNL d   1       3.331  -0.018   0.787  0.00  0.00     0.418 HD
ENDBRANCH   4   7
TORSDOF 1
ENDMDL
