MODEL 1
REMARK minimizedAffinity -4.21901751
REMARK minimizedRMSD -1
REMARK  1 active torsions:
REMARK  status: ('A' for Active; 'I' for Inactive)
REMARK    1  A    between atoms: C3_4  and  O_7 
ROOT
ATOM      1  C   UNL d   1      -0.611   0.956   0.201  0.00  0.00    -0.033 A 
ATOM      2  C1  UNL d   1      -0.627   2.338   0.402  0.00  0.00     0.039 A 
ATOM      3  C2  UNL d   1       0.524   2.994   0.845  0.00  0.00    -0.080 A 
ATOM      4  C3  UNL d   1       1.681   2.257   1.083  0.00  0.00     0.150 A 
ATOM      5  C4  UNL d   1       1.704   0.881   0.882  0.00  0.00    -0.007 A 
ATOM      6  C5  UNL d   1       0.554   0.228   0.440  0.00  0.00     0.039 A 
ENDROOT
BRANCH   4   7
ATOM      7  O   UNL d   1       2.826   2.852   1.522  0.00  0.00    -0.526 OA
ATOM      8  H5  UNL d   1       2.653   3.801   1.644  0.00  0.00     0.418 HD
ENDBRANCH   4   7
TORSDOF 1
ENDMDL
