MODEL 1
REMARK minimizedAffinity -3.84698081
REMARK minimizedRMSD -1
REMARK  1 active torsions:
REMARK  status: ('A' for Active; 'I' for Inactive)
REMARK    1  A    between atoms: C3_4  and  O_7 
ROOT
ATOM      1  C   UNL d   1      -0.024  -1.475   0.613  0.00  0.00    -0.033 A 
ATOM      2  C1  UNL d   1       0.922  -0.509   0.268  0.00  0.00     0.039 A 
ATOM      3  C2  UNL d   1       0.559   0.838   0.213  0.00  0.00    -0.080 A 
ATOM      4  C3  UNL d   1      -0.752   1.205   0.505  0.00  0.00     0.150 A 
ATOM      5  C4  UNL d   1      -1.699   0.247   0.854  0.00  0.00    -0.007 A 
ATOM      6  C5  UNL d   1      -1.334  -1.097   0.907  0.00  0.00     0.039 A 
ENDROOT
BRANCH   4   7
ATOM      7  O   UNL d   1      -1.155   2.506   0.460  0.00  0.00    -0.526 OA
ATOM      8  H5  UNL d   1      -0.402   3.052   0.177  0.00  0.00     0.418 HD
ENDBRANCH   4   7
TORSDOF 1
ENDMDL
