MODEL 1
REMARK minimizedAffinity -5.19675064
REMARK minimizedRMSD -1
REMARK  1 active torsions:
REMARK  status: ('A' for Active; 'I' for Inactive)
REMARK    1  A    between atoms: C3_4  and  O_7 
ROOT
ATOM      1  C   UNL d   1       0.410   3.240   0.153  0.00  0.00    -0.033 A 
ATOM      2  C1  UNL d   1       1.539   2.490  -0.182  0.00  0.00     0.039 A 
ATOM      3  C2  UNL d   1       1.431   1.113  -0.382  0.00  0.00    -0.080 A 
ATOM      4  C3  UNL d   1       0.189   0.498  -0.244  0.00  0.00     0.150 A 
ATOM      5  C4  UNL d   1      -0.940   1.239   0.085  0.00  0.00    -0.007 A 
ATOM      6  C5  UNL d   1      -0.830   2.614   0.285  0.00  0.00     0.039 A 
ENDROOT
BRANCH   4   7
ATOM      7  O   UNL d   1       0.035  -0.845  -0.425  0.00  0.00    -0.526 OA
ATOM      8  H5  UNL d   1       0.905  -1.231  -0.620  0.00  0.00     0.418 HD
ENDBRANCH   4   7
TORSDOF 1
ENDMDL
