MODEL 1
REMARK minimizedAffinity -3.1665678
REMARK minimizedRMSD -1
REMARK  1 active torsions:
REMARK  status: ('A' for Active; 'I' for Inactive)
REMARK    1  A    between atoms: C3_4  and  O_7 
ROOT
ATOM      1  C   UNL d   1       1.674   3.105   1.872  0.00  0.00    -0.033 A 
ATOM      2  C1  UNL d   1       0.296   3.108   1.648  0.00  0.00     0.039 A 
ATOM      3  C2  UNL d   1      -0.313   2.022   1.016  0.00  0.00    -0.080 A 
ATOM      4  C3  UNL d   1       0.466   0.941   0.615  0.00  0.00     0.150 A 
ATOM      5  C4  UNL d   1       1.839   0.929   0.838  0.00  0.00    -0.007 A 
ATOM      6  C5  UNL d   1       2.446   2.015   1.468  0.00  0.00     0.039 A 
ENDROOT
BRANCH   4   7
ATOM      7  O   UNL d   1      -0.082  -0.140  -0.010  0.00  0.00    -0.526 OA
ATOM      8  H5  UNL d   1      -1.034   0.021  -0.123  0.00  0.00     0.418 HD
ENDBRANCH   4   7
TORSDOF 1
ENDMDL
