MODEL 1
REMARK minimizedAffinity -5.06868649
REMARK minimizedRMSD -1
REMARK  1 active torsions:
REMARK  status: ('A' for Active; 'I' for Inactive)
REMARK    1  A    between atoms: C3_4  and  O_7 
ROOT
ATOM      1  C   UNL d   1       1.980   0.201   0.662  0.00  0.00    -0.033 A 
ATOM      2  C1  UNL d   1       0.632   0.195   0.300  0.00  0.00     0.039 A 
ATOM      3  C2  UNL d   1      -0.123   1.367   0.393  0.00  0.00    -0.080 A 
ATOM      4  C3  UNL d   1       0.482   2.535   0.847  0.00  0.00     0.150 A 
ATOM      5  C4  UNL d   1       1.826   2.549   1.206  0.00  0.00    -0.007 A 
ATOM      6  C5  UNL d   1       2.578   1.378   1.114  0.00  0.00     0.039 A 
ENDROOT
BRANCH   4   7
ATOM      7  O   UNL d   1      -0.214   3.702   0.959  0.00  0.00    -0.526 OA
ATOM      8  H5  UNL d   1      -1.137   3.535   0.704  0.00  0.00     0.418 HD
ENDBRANCH   4   7
TORSDOF 1
ENDMDL
