MODEL 1
REMARK minimizedAffinity -5.75898933
REMARK minimizedRMSD -1
REMARK  1 active torsions:
REMARK  status: ('A' for Active; 'I' for Inactive)
REMARK    1  A    between atoms: C3_4  and  O_7 
ROOT
ATOM      1  C   UNL d   1       2.532   1.094   0.138  0.00  0.00    -0.033 A 
ATOM      2  C1  UNL d   1       3.022   2.373   0.412  0.00  0.00     0.039 A 
ATOM      3  C2  UNL d   1       2.190   3.486   0.270  0.00  0.00    -0.080 A 
ATOM      4  C3  UNL d   1       0.873   3.306  -0.144  0.00  0.00     0.150 A 
ATOM      5  C4  UNL d   1       0.378   2.035  -0.414  0.00  0.00    -0.007 A 
ATOM      6  C5  UNL d   1       1.210   0.925  -0.274  0.00  0.00     0.039 A 
ENDROOT
BRANCH   4   7
ATOM      7  O   UNL d   1       0.026   4.363  -0.300  0.00  0.00    -0.526 OA
ATOM      8  H5  UNL d   1       0.514   5.180  -0.106  0.00  0.00     0.418 HD
ENDBRANCH   4   7
TORSDOF 1
ENDMDL
