MODEL 1
REMARK minimizedAffinity 2.40686893
REMARK minimizedRMSD -1
REMARK  1 active torsions:
REMARK  status: ('A' for Active; 'I' for Inactive)
REMARK    1  A    between atoms: N_2  and  C1_3 
ROOT
ATOM      1  C1  UNL d   1      -2.001   3.646  -4.553  0.00  0.00     0.143 A 
ATOM      2  C2  UNL d   1      -3.388   3.825  -4.513  0.00  0.00    -0.057 A 
ATOM      3  C3  UNL d   1      -4.208   2.973  -3.762  0.00  0.00     0.033 A 
ATOM      4  C4  UNL d   1      -3.656   1.908  -3.059  0.00  0.00    -0.042 A 
ATOM      5  C5  UNL d   1      -2.282   1.696  -3.104  0.00  0.00     0.033 A 
ATOM      6  C6  UNL d   1      -1.468   2.554  -3.850  0.00  0.00    -0.057 A 
ENDROOT
BRANCH   1   7
ATOM      7  N   UNL d   1      -1.143   4.399  -5.359  0.00  0.00    -0.732 N 
ATOM      8  C   UNL d   1      -0.001   3.781  -5.998  0.00  0.00     0.284 C 
ATOM      9  H3  UNL d   1      -1.644   5.058  -5.949  0.00  0.00     0.395 HD
ENDBRANCH   1   7
TORSDOF 1
ENDMDL
