MODEL 1
REMARK minimizedAffinity 1.9201864
REMARK minimizedRMSD -1
REMARK  1 active torsions:
REMARK  status: ('A' for Active; 'I' for Inactive)
REMARK    1  A    between atoms: N_2  and  C1_3 
ROOT
ATOM      1  C1  UNL d   1      -1.872   3.896  -4.117  0.00  0.00     0.143 A 
ATOM      2  C2  UNL d   1      -1.511   4.866  -5.058  0.00  0.00    -0.057 A 
ATOM      3  C3  UNL d   1      -0.503   4.624  -6.000  0.00  0.00     0.033 A 
ATOM      4  C4  UNL d   1       0.183   3.414  -5.998  0.00  0.00    -0.042 A 
ATOM      5  C5  UNL d   1      -0.142   2.445  -5.055  0.00  0.00     0.033 A 
ATOM      6  C6  UNL d   1      -1.154   2.690  -4.122  0.00  0.00    -0.057 A 
ENDROOT
BRANCH   1   7
ATOM      7  N   UNL d   1      -2.797   4.113  -3.093  0.00  0.00    -0.732 N 
ATOM      8  C   UNL d   1      -3.750   3.086  -2.731  0.00  0.00     0.284 C 
ATOM      9  H3  UNL d   1      -2.390   4.600  -2.298  0.00  0.00     0.395 HD
ENDBRANCH   1   7
TORSDOF 1
ENDMDL
