MODEL 1
REMARK minimizedAffinity 2.59023905
REMARK minimizedRMSD -1
REMARK  1 active torsions:
REMARK  status: ('A' for Active; 'I' for Inactive)
REMARK    1  A    between atoms: N_2  and  C1_3 
ROOT
ATOM      1  C1  UNL d   1      -1.959   3.778  -4.004  0.00  0.00     0.143 A 
ATOM      2  C2  UNL d   1      -1.610   3.537  -2.671  0.00  0.00    -0.057 A 
ATOM      3  C3  UNL d   1      -2.553   3.071  -1.747  0.00  0.00     0.033 A 
ATOM      4  C4  UNL d   1      -3.873   2.865  -2.134  0.00  0.00    -0.042 A 
ATOM      5  C5  UNL d   1      -4.248   3.122  -3.448  0.00  0.00     0.033 A 
ATOM      6  C6  UNL d   1      -3.301   3.581  -4.368  0.00  0.00    -0.057 A 
ENDROOT
BRANCH   1   7
ATOM      7  N   UNL d   1      -1.092   4.336  -4.947  0.00  0.00    -0.732 N 
ATOM      8  C   UNL d   1      -0.067   3.528  -5.574  0.00  0.00     0.284 C 
ATOM      9  H3  UNL d   1      -1.566   4.972  -5.583  0.00  0.00     0.395 HD
ENDBRANCH   1   7
TORSDOF 1
ENDMDL
