MODEL 1
REMARK minimizedAffinity 9.54779816
REMARK minimizedRMSD -1
REMARK  1 active torsions:
REMARK  status: ('A' for Active; 'I' for Inactive)
REMARK    1  A    between atoms: N_2  and  C1_3 
ROOT
ATOM      1  C1  UNL d   1       3.862  -3.875   2.436  0.00  0.00     0.143 A 
ATOM      2  C2  UNL d   1       2.746  -3.045   2.588  0.00  0.00    -0.057 A 
ATOM      3  C3  UNL d   1       2.039  -2.569   1.477  0.00  0.00     0.033 A 
ATOM      4  C4  UNL d   1       2.454  -2.892   0.190  0.00  0.00    -0.042 A 
ATOM      5  C5  UNL d   1       3.575  -3.695   0.014  0.00  0.00     0.033 A 
ATOM      6  C6  UNL d   1       4.274  -4.173   1.127  0.00  0.00    -0.057 A 
ENDROOT
BRANCH   1   7
ATOM      7  N   UNL d   1       4.666  -4.300   3.496  0.00  0.00    -0.732 N 
ATOM      8  C   UNL d   1       4.837  -3.471   4.670  0.00  0.00     0.284 C 
ATOM      9  H3  UNL d   1       4.549  -5.290   3.700  0.00  0.00     0.395 HD
ENDBRANCH   1   7
TORSDOF 1
ENDMDL
