MODEL 1
REMARK minimizedAffinity -4.16121531
REMARK minimizedRMSD -1
REMARK  0 active torsions:
REMARK  status: ('A' for Active; 'I' for Inactive)
ROOT
ATOM      1  O1  BZF d   1       1.116   1.358   0.689  0.00  0.00    -0.204 OA
ATOM      2  C2  BZF d   1       0.702   0.933  -0.559  0.00  0.00     0.174 A 
ATOM      3  C3  BZF d   1      -0.238  -0.028  -0.450  0.00  0.00    -0.012 A 
ATOM      4  C3A BZF d   1      -0.489  -0.150   0.953  0.00  0.00    -0.107 A 
ATOM      5  C4  BZF d   1      -1.334  -0.930   1.691  0.00  0.00     0.055 A 
ATOM      6  C5  BZF d   1      -1.283  -0.859   3.047  0.00  0.00    -0.016 A 
ATOM      7  C6  BZF d   1      -0.398  -0.024   3.697  0.00  0.00     0.022 A 
ATOM      8  C7  BZF d   1       0.456   0.771   3.008  0.00  0.00     0.029 A 
ATOM      9  C7A BZF d   1       0.384   0.726   1.637  0.00  0.00     0.058 A 
ENDROOT
TORSDOF 0
ENDMDL
