MODEL 1
REMARK minimizedAffinity -4.37695217
REMARK minimizedRMSD -1
REMARK  0 active torsions:
REMARK  status: ('A' for Active; 'I' for Inactive)
ROOT
ATOM      1  O1  BZF d   1      -0.948  -0.569  -0.856  0.00  0.00    -0.204 OA
ATOM      2  C2  BZF d   1       0.078  -0.145  -1.679  0.00  0.00     0.174 A 
ATOM      3  C3  BZF d   1       1.095   0.362  -0.953  0.00  0.00    -0.012 A 
ATOM      4  C3A BZF d   1       0.718   0.163   0.413  0.00  0.00    -0.107 A 
ATOM      5  C4  BZF d   1       1.324   0.444   1.605  0.00  0.00     0.055 A 
ATOM      6  C5  BZF d   1       0.656   0.190   2.761  0.00  0.00    -0.016 A 
ATOM      7  C6  BZF d   1      -0.618  -0.339   2.762  0.00  0.00     0.022 A 
ATOM      8  C7  BZF d   1      -1.257  -0.639   1.605  0.00  0.00     0.029 A 
ATOM      9  C7A BZF d   1      -0.573  -0.414   0.436  0.00  0.00     0.058 A 
ENDROOT
TORSDOF 0
ENDMDL
