MODEL 1
REMARK minimizedAffinity -4.26469707
REMARK minimizedRMSD -1
REMARK  0 active torsions:
REMARK  status: ('A' for Active; 'I' for Inactive)
ROOT
ATOM      1  O1  BZF d   1      -0.508   1.257  -0.534  0.00  0.00    -0.204 OA
ATOM      2  C2  BZF d   1       0.871   1.328  -0.531  0.00  0.00     0.174 A 
ATOM      3  C3  BZF d   1       1.354   1.202   0.722  0.00  0.00    -0.012 A 
ATOM      4  C3A BZF d   1       0.210   0.950   1.543  0.00  0.00    -0.107 A 
ATOM      5  C4  BZF d   1       0.045   0.722   2.879  0.00  0.00     0.055 A 
ATOM      6  C5  BZF d   1      -1.212   0.585   3.376  0.00  0.00    -0.016 A 
ATOM      7  C6  BZF d   1      -2.326   0.676   2.567  0.00  0.00     0.022 A 
ATOM      8  C7  BZF d   1      -2.213   0.896   1.234  0.00  0.00     0.029 A 
ATOM      9  C7A BZF d   1      -0.942   1.002   0.724  0.00  0.00     0.058 A 
ENDROOT
TORSDOF 0
ENDMDL
