MODEL 1
REMARK minimizedAffinity 0.864012837
REMARK minimizedRMSD -1
REMARK  0 active torsions:
REMARK  status: ('A' for Active; 'I' for Inactive)
ROOT
ATOM      1  O1  BZF d   1       0.490   0.824  -0.759  0.00  0.00    -0.204 OA
ATOM      2  C2  BZF d   1      -0.760   0.707  -0.182  0.00  0.00     0.174 A 
ATOM      3  C3  BZF d   1      -1.456  -0.299  -0.749  0.00  0.00    -0.012 A 
ATOM      4  C3A BZF d   1      -0.553  -0.904  -1.679  0.00  0.00    -0.107 A 
ATOM      5  C4  BZF d   1      -0.657  -1.963  -2.535  0.00  0.00     0.055 A 
ATOM      6  C5  BZF d   1       0.384  -2.250  -3.360  0.00  0.00    -0.016 A 
ATOM      7  C6  BZF d   1       1.540  -1.497  -3.359  0.00  0.00     0.022 A 
ATOM      8  C7  BZF d   1       1.692  -0.441  -2.524  0.00  0.00     0.029 A 
ATOM      9  C7A BZF d   1       0.655  -0.168  -1.666  0.00  0.00     0.058 A 
ENDROOT
TORSDOF 0
ENDMDL
