MODEL 1
REMARK minimizedAffinity -4.96437216
REMARK minimizedRMSD -1
REMARK  0 active torsions:
REMARK  status: ('A' for Active; 'I' for Inactive)
ROOT
ATOM      1  O1  BZF d   1      -1.893   0.021  -0.155  0.00  0.00    -0.204 OA
ATOM      2  C2  BZF d   1      -1.234   0.703  -1.160  0.00  0.00     0.174 A 
ATOM      3  C3  BZF d   1       0.001   1.067  -0.761  0.00  0.00    -0.012 A 
ATOM      4  C3A BZF d   1       0.157   0.503   0.545  0.00  0.00    -0.107 A 
ATOM      5  C4  BZF d   1       1.177   0.505   1.453  0.00  0.00     0.055 A 
ATOM      6  C5  BZF d   1       0.982  -0.076   2.665  0.00  0.00    -0.016 A 
ATOM      7  C6  BZF d   1      -0.219  -0.664   3.005  0.00  0.00     0.022 A 
ATOM      8  C7  BZF d   1      -1.258  -0.695   2.135  0.00  0.00     0.029 A 
ATOM      9  C7A BZF d   1      -1.054  -0.137   0.897  0.00  0.00     0.058 A 
ENDROOT
TORSDOF 0
ENDMDL
