MODEL 1
REMARK minimizedAffinity -4.5456233
REMARK minimizedRMSD -1
REMARK  0 active torsions:
REMARK  status: ('A' for Active; 'I' for Inactive)
ROOT
ATOM      1  O1  BZF d   1      -1.253  -0.068  -0.410  0.00  0.00    -0.204 OA
ATOM      2  C2  BZF d   1      -0.261   0.322  -1.288  0.00  0.00     0.174 A 
ATOM      3  C3  BZF d   1       0.922   0.442  -0.651  0.00  0.00    -0.012 A 
ATOM      4  C3A BZF d   1       0.671   0.017   0.692  0.00  0.00    -0.107 A 
ATOM      5  C4  BZF d   1       1.458  -0.105   1.801  0.00  0.00     0.055 A 
ATOM      6  C5  BZF d   1       0.889  -0.479   2.977  0.00  0.00    -0.016 A 
ATOM      7  C6  BZF d   1      -0.463  -0.734   3.081  0.00  0.00     0.022 A 
ATOM      8  C7  BZF d   1      -1.283  -0.632   2.007  0.00  0.00     0.029 A 
ATOM      9  C7A BZF d   1      -0.706  -0.286   0.810  0.00  0.00     0.058 A 
ENDROOT
TORSDOF 0
ENDMDL
