MODEL 1
REMARK minimizedAffinity -4.57877779
REMARK minimizedRMSD -1
REMARK  0 active torsions:
REMARK  status: ('A' for Active; 'I' for Inactive)
ROOT
ATOM      1  O1  BZF d   1      -1.476   0.476  -0.365  0.00  0.00    -0.204 OA
ATOM      2  C2  BZF d   1      -0.402   0.880  -1.135  0.00  0.00     0.174 A 
ATOM      3  C3  BZF d   1       0.749   0.783  -0.439  0.00  0.00    -0.012 A 
ATOM      4  C3A BZF d   1       0.383   0.201   0.815  0.00  0.00    -0.107 A 
ATOM      5  C4  BZF d   1       1.091  -0.158   1.926  0.00  0.00     0.055 A 
ATOM      6  C5  BZF d   1       0.424  -0.633   3.010  0.00  0.00    -0.016 A 
ATOM      7  C6  BZF d   1      -0.950  -0.757   3.020  0.00  0.00     0.022 A 
ATOM      8  C7  BZF d   1      -1.695  -0.419   1.940  0.00  0.00     0.029 A 
ATOM      9  C7A BZF d   1      -1.021   0.031   0.831  0.00  0.00     0.058 A 
ENDROOT
TORSDOF 0
ENDMDL
