MODEL 1
REMARK minimizedAffinity -4.36136627
REMARK minimizedRMSD -1
REMARK  0 active torsions:
REMARK  status: ('A' for Active; 'I' for Inactive)
ROOT
ATOM      1  O1  BZF d   1      -1.694   0.485   1.670  0.00  0.00    -0.204 OA
ATOM      2  C2  BZF d   1      -2.004   0.669   0.337  0.00  0.00     0.174 A 
ATOM      3  C3  BZF d   1      -0.884   0.813  -0.400  0.00  0.00    -0.012 A 
ATOM      4  C3A BZF d   1       0.197   0.620   0.517  0.00  0.00    -0.107 A 
ATOM      5  C4  BZF d   1       1.556   0.625   0.381  0.00  0.00     0.055 A 
ATOM      6  C5  BZF d   1       2.331   0.477   1.488  0.00  0.00    -0.016 A 
ATOM      7  C6  BZF d   1       1.781   0.327   2.744  0.00  0.00     0.022 A 
ATOM      8  C7  BZF d   1       0.438   0.311   2.928  0.00  0.00     0.029 A 
ATOM      9  C7A BZF d   1      -0.347   0.427   1.808  0.00  0.00     0.058 A 
ENDROOT
TORSDOF 0
ENDMDL
