MODEL 1
REMARK minimizedAffinity 1.12676048
REMARK minimizedRMSD -1
REMARK  0 active torsions:
REMARK  status: ('A' for Active; 'I' for Inactive)
ROOT
ATOM      1  O1  BZF d   1      -0.035   0.376  -2.979  0.00  0.00    -0.204 OA
ATOM      2  C2  BZF d   1       0.981  -0.554  -3.088  0.00  0.00     0.174 A 
ATOM      3  C3  BZF d   1       1.244  -1.118  -1.892  0.00  0.00    -0.012 A 
ATOM      4  C3A BZF d   1       0.273  -0.569  -0.995  0.00  0.00    -0.107 A 
ATOM      5  C4  BZF d   1       0.011  -0.753   0.332  0.00  0.00     0.055 A 
ATOM      6  C5  BZF d   1      -0.961  -0.009   0.923  0.00  0.00    -0.016 A 
ATOM      7  C6  BZF d   1      -1.685   0.931   0.219  0.00  0.00     0.022 A 
ATOM      8  C7  BZF d   1      -1.464   1.146  -1.101  0.00  0.00     0.029 A 
ATOM      9  C7A BZF d   1      -0.505   0.372  -1.708  0.00  0.00     0.058 A 
ENDROOT
TORSDOF 0
ENDMDL
