MODEL 1
REMARK minimizedAffinity -3.63242412
REMARK minimizedRMSD -1
REMARK  0 active torsions:
REMARK  status: ('A' for Active; 'I' for Inactive)
ROOT
ATOM      1  O1  BZF d   1      -0.216  -0.385  -1.379  0.00  0.00    -0.204 OA
ATOM      2  C2  BZF d   1       0.845  -1.058  -1.955  0.00  0.00     0.174 A 
ATOM      3  C3  BZF d   1       1.810  -1.299  -1.044  0.00  0.00    -0.012 A 
ATOM      4  C3A BZF d   1       1.282  -0.825   0.198  0.00  0.00    -0.107 A 
ATOM      5  C4  BZF d   1       1.765  -0.800   1.475  0.00  0.00     0.055 A 
ATOM      6  C5  BZF d   1       1.030  -0.200   2.448  0.00  0.00    -0.016 A 
ATOM      7  C6  BZF d   1      -0.188   0.389   2.178  0.00  0.00     0.022 A 
ATOM      8  C7  BZF d   1      -0.711   0.386   0.928  0.00  0.00     0.029 A 
ATOM      9  C7A BZF d   1       0.015  -0.249  -0.051  0.00  0.00     0.058 A 
ENDROOT
TORSDOF 0
ENDMDL
