MODEL 1
REMARK minimizedAffinity -4.74842215
REMARK minimizedRMSD -1
REMARK  0 active torsions:
REMARK  status: ('A' for Active; 'I' for Inactive)
ROOT
ATOM      1  O1  BZF d   1      -0.158  -1.302   0.937  0.00  0.00    -0.204 OA
ATOM      2  C2  BZF d   1      -0.087   0.043   1.247  0.00  0.00     0.174 A 
ATOM      3  C3  BZF d   1       0.180   0.774   0.146  0.00  0.00    -0.012 A 
ATOM      4  C3A BZF d   1       0.190  -0.163  -0.935  0.00  0.00    -0.107 A 
ATOM      5  C4  BZF d   1       0.383  -0.042  -2.281  0.00  0.00     0.055 A 
ATOM      6  C5  BZF d   1       0.403  -1.163  -3.049  0.00  0.00    -0.016 A 
ATOM      7  C6  BZF d   1       0.237  -2.419  -2.505  0.00  0.00     0.022 A 
ATOM      8  C7  BZF d   1       0.037  -2.590  -1.175  0.00  0.00     0.029 A 
ATOM      9  C7A BZF d   1      -0.016  -1.457  -0.401  0.00  0.00     0.058 A 
ENDROOT
TORSDOF 0
ENDMDL
