MODEL 1
REMARK minimizedAffinity -0.691040576
REMARK minimizedRMSD -1
REMARK  0 active torsions:
REMARK  status: ('A' for Active; 'I' for Inactive)
ROOT
ATOM      1  O1  BZF d   1       1.129   2.000   4.026  0.00  0.00    -0.204 OA
ATOM      2  C2  BZF d   1       0.883   3.196   4.671  0.00  0.00     0.174 A 
ATOM      3  C3  BZF d   1      -0.411   3.553   4.542  0.00  0.00    -0.012 A 
ATOM      4  C3A BZF d   1      -1.032   2.469   3.845  0.00  0.00    -0.107 A 
ATOM      5  C4  BZF d   1      -2.312   2.228   3.433  0.00  0.00     0.055 A 
ATOM      6  C5  BZF d   1      -2.573   1.106   2.713  0.00  0.00    -0.016 A 
ATOM      7  C6  BZF d   1      -1.580   0.207   2.381  0.00  0.00     0.022 A 
ATOM      8  C7  BZF d   1      -0.297   0.401   2.772  0.00  0.00     0.029 A 
ATOM      9  C7A BZF d   1      -0.035   1.517   3.528  0.00  0.00     0.058 A 
ENDROOT
TORSDOF 0
ENDMDL
