MODEL 1
REMARK minimizedAffinity -5.10226107
REMARK minimizedRMSD -1
REMARK  0 active torsions:
REMARK  status: ('A' for Active; 'I' for Inactive)
ROOT
ATOM      1  O1  BZF d   1       0.465   0.720   3.308  0.00  0.00    -0.204 OA
ATOM      2  C2  BZF d   1       1.336   0.853   2.244  0.00  0.00     0.174 A 
ATOM      3  C3  BZF d   1       0.854   0.228   1.151  0.00  0.00    -0.012 A 
ATOM      4  C3A BZF d   1      -0.438  -0.253   1.531  0.00  0.00    -0.107 A 
ATOM      5  C4  BZF d   1      -1.416  -0.941   0.871  0.00  0.00     0.055 A 
ATOM      6  C5  BZF d   1      -2.530  -1.321   1.550  0.00  0.00    -0.016 A 
ATOM      7  C6  BZF d   1      -2.697  -1.034   2.889  0.00  0.00     0.022 A 
ATOM      8  C7  BZF d   1      -1.757  -0.349   3.585  0.00  0.00     0.029 A 
ATOM      9  C7A BZF d   1      -0.645   0.065   2.893  0.00  0.00     0.058 A 
ENDROOT
TORSDOF 0
ENDMDL
