MODEL 1
REMARK minimizedAffinity -4.15381241
REMARK minimizedRMSD -1
REMARK  0 active torsions:
REMARK  status: ('A' for Active; 'I' for Inactive)
ROOT
ATOM      1  O1  BZF d   1      -1.348  -0.057   0.612  0.00  0.00    -0.204 OA
ATOM      2  C2  BZF d   1      -1.046  -0.045  -0.736  0.00  0.00     0.174 A 
ATOM      3  C3  BZF d   1       0.137   0.565  -0.955  0.00  0.00    -0.012 A 
ATOM      4  C3A BZF d   1       0.646   0.877   0.346  0.00  0.00    -0.107 A 
ATOM      5  C4  BZF d   1       1.792   1.474   0.787  0.00  0.00     0.055 A 
ATOM      6  C5  BZF d   1       1.952   1.694   2.118  0.00  0.00    -0.016 A 
ATOM      7  C6  BZF d   1       0.986   1.335   3.035  0.00  0.00     0.022 A 
ATOM      8  C7  BZF d   1      -0.166   0.735   2.645  0.00  0.00     0.029 A 
ATOM      9  C7A BZF d   1      -0.316   0.481   1.304  0.00  0.00     0.058 A 
ENDROOT
TORSDOF 0
ENDMDL
