MODEL 1
REMARK minimizedAffinity -4.93787003
REMARK minimizedRMSD -1
REMARK  0 active torsions:
REMARK  status: ('A' for Active; 'I' for Inactive)
ROOT
ATOM      1  O1  BZF d   1      -1.216  -0.044  -0.765  0.00  0.00    -0.204 OA
ATOM      2  C2  BZF d   1       0.133  -0.335  -0.822  0.00  0.00     0.174 A 
ATOM      3  C3  BZF d   1       0.650  -0.456   0.418  0.00  0.00    -0.012 A 
ATOM      4  C3A BZF d   1      -0.465  -0.318   1.305  0.00  0.00    -0.107 A 
ATOM      5  C4  BZF d   1      -0.594  -0.361   2.664  0.00  0.00     0.055 A 
ATOM      6  C5  BZF d   1      -1.809  -0.115   3.219  0.00  0.00    -0.016 A 
ATOM      7  C6  BZF d   1      -2.914   0.181   2.448  0.00  0.00     0.022 A 
ATOM      8  C7  BZF d   1      -2.836   0.230   1.096  0.00  0.00     0.029 A 
ATOM      9  C7A BZF d   1      -1.617  -0.050   0.530  0.00  0.00     0.058 A 
ENDROOT
TORSDOF 0
ENDMDL
