MODEL 1
REMARK minimizedAffinity -2.06994605
REMARK minimizedRMSD -1
REMARK  0 active torsions:
REMARK  status: ('A' for Active; 'I' for Inactive)
ROOT
ATOM      1  O1  BZF d   1       1.464  -4.255  -1.382  0.00  0.00    -0.204 OA
ATOM      2  C2  BZF d   1       0.238  -4.690  -0.917  0.00  0.00     0.174 A 
ATOM      3  C3  BZF d   1      -0.711  -3.753  -1.120  0.00  0.00    -0.012 A 
ATOM      4  C3A BZF d   1      -0.054  -2.702  -1.835  0.00  0.00    -0.107 A 
ATOM      5  C4  BZF d   1      -0.474  -1.503  -2.336  0.00  0.00     0.055 A 
ATOM      6  C5  BZF d   1       0.434  -0.676  -2.917  0.00  0.00    -0.016 A 
ATOM      7  C6  BZF d   1       1.768  -1.012  -3.009  0.00  0.00     0.022 A 
ATOM      8  C7  BZF d   1       2.231  -2.193  -2.531  0.00  0.00     0.029 A 
ATOM      9  C7A BZF d   1       1.310  -3.045  -1.972  0.00  0.00     0.058 A 
ENDROOT
TORSDOF 0
ENDMDL
