MODEL 1
REMARK minimizedAffinity -5.84909773
REMARK minimizedRMSD -1
REMARK  0 active torsions:
REMARK  status: ('A' for Active; 'I' for Inactive)
ROOT
ATOM      1  O1  BZF d   1      -2.521   0.331   0.390  0.00  0.00    -0.204 OA
ATOM      2  C2  BZF d   1      -2.180   0.613  -0.919  0.00  0.00     0.174 A 
ATOM      3  C3  BZF d   1      -0.846   0.763  -1.044  0.00  0.00    -0.012 A 
ATOM      4  C3A BZF d   1      -0.311   0.472   0.251  0.00  0.00    -0.107 A 
ATOM      5  C4  BZF d   1       0.957   0.436   0.757  0.00  0.00     0.055 A 
ATOM      6  C5  BZF d   1       1.133   0.187   2.081  0.00  0.00    -0.016 A 
ATOM      7  C6  BZF d   1       0.065  -0.024   2.928  0.00  0.00     0.022 A 
ATOM      8  C7  BZF d   1      -1.211  -0.003   2.472  0.00  0.00     0.029 A 
ATOM      9  C7A BZF d   1      -1.390   0.215   1.128  0.00  0.00     0.058 A 
ENDROOT
TORSDOF 0
ENDMDL
