MODEL 1
REMARK minimizedAffinity 8.29582214
REMARK minimizedRMSD -1
REMARK  1 active torsions:
REMARK  status: ('A' for Active; 'I' for Inactive)
REMARK    1  A    between atoms: C1_2  and  C2_3 
ROOT
ATOM      1  C2  UNL d   1       3.596   4.895  -2.680  0.00  0.00    -0.073 A 
ATOM      2  C3  UNL d   1       4.639   5.195  -1.797  0.00  0.00    -0.002 A 
ATOM      3  C4  UNL d   1       5.832   5.741  -2.274  0.00  0.00     0.004 A 
ATOM      4  C5  UNL d   1       5.990   6.000  -3.635  0.00  0.00    -0.004 A 
ATOM      5  C6  UNL d   1       4.955   5.718  -4.532  0.00  0.00    -0.075 A 
ATOM      6  C7  UNL d   1       5.111   5.989  -6.000  0.00  0.00     0.076 C 
ATOM      7  C8  UNL d   1       3.761   5.167  -4.046  0.00  0.00     0.001 A 
ENDROOT
BRANCH   1   8
ATOM      8  C1  UNL d   1       2.304   4.311  -2.169  0.00  0.00     0.053 C 
ATOM      9  C   UNL d   1       2.252   4.286  -0.650  0.00  0.00     0.018 C 
ENDBRANCH   1   8
TORSDOF 1
ENDMDL
