MODEL 1
REMARK minimizedAffinity 4.86939335
REMARK minimizedRMSD -1
REMARK  1 active torsions:
REMARK  status: ('A' for Active; 'I' for Inactive)
REMARK    1  A    between atoms: C1_2  and  C2_3 
ROOT
ATOM      1  C2  UNL d   1       3.531   4.216  -2.562  0.00  0.00    -0.073 A 
ATOM      2  C3  UNL d   1       4.301   5.210  -1.948  0.00  0.00    -0.002 A 
ATOM      3  C4  UNL d   1       5.527   5.592  -2.494  0.00  0.00     0.004 A 
ATOM      4  C5  UNL d   1       5.992   4.989  -3.663  0.00  0.00    -0.004 A 
ATOM      5  C6  UNL d   1       5.233   4.001  -4.298  0.00  0.00    -0.075 A 
ATOM      6  C7  UNL d   1       5.721   3.342  -5.554  0.00  0.00     0.076 C 
ATOM      7  C8  UNL d   1       4.004   3.622  -3.742  0.00  0.00     0.001 A 
ENDROOT
BRANCH   1   8
ATOM      8  C1  UNL d   1       2.204   3.805  -1.980  0.00  0.00     0.053 C 
ATOM      9  C   UNL d   1       2.126   4.084  -0.487  0.00  0.00     0.018 C 
ENDBRANCH   1   8
TORSDOF 1
ENDMDL
