MODEL 1
REMARK minimizedAffinity -1.63974583
REMARK minimizedRMSD -1
REMARK  1 active torsions:
REMARK  status: ('A' for Active; 'I' for Inactive)
REMARK    1  A    between atoms: C1_2  and  C2_3 
ROOT
ATOM      1  C2  UNL d   1       3.564   5.044  -2.602  0.00  0.00    -0.073 A 
ATOM      2  C3  UNL d   1       4.545   5.999  -2.310  0.00  0.00    -0.002 A 
ATOM      3  C4  UNL d   1       5.758   5.998  -3.001  0.00  0.00     0.004 A 
ATOM      4  C5  UNL d   1       5.999   5.048  -3.993  0.00  0.00    -0.004 A 
ATOM      5  C6  UNL d   1       5.027   4.093  -4.308  0.00  0.00    -0.075 A 
ATOM      6  C7  UNL d   1       5.272   3.063  -5.371  0.00  0.00     0.076 C 
ATOM      7  C8  UNL d   1       3.813   4.099  -3.608  0.00  0.00     0.001 A 
ENDROOT
BRANCH   1   8
ATOM      8  C1  UNL d   1       2.251   5.046  -1.863  0.00  0.00     0.053 C 
ATOM      9  C   UNL d   1       2.220   4.007  -0.754  0.00  0.00     0.018 C 
ENDBRANCH   1   8
TORSDOF 1
ENDMDL
