MODEL 1
REMARK minimizedAffinity 1.84350622
REMARK minimizedRMSD -1
REMARK  1 active torsions:
REMARK  status: ('A' for Active; 'I' for Inactive)
REMARK    1  A    between atoms: C1_2  and  C2_3 
ROOT
ATOM      1  C2  UNL d   1       3.811   4.994  -1.935  0.00  0.00    -0.073 A 
ATOM      2  C3  UNL d   1       4.909   5.738  -1.487  0.00  0.00    -0.002 A 
ATOM      3  C4  UNL d   1       5.999   5.964  -2.328  0.00  0.00     0.004 A 
ATOM      4  C5  UNL d   1       6.000   5.455  -3.627  0.00  0.00    -0.004 A 
ATOM      5  C6  UNL d   1       4.907   4.720  -4.098  0.00  0.00    -0.075 A 
ATOM      6  C7  UNL d   1       4.894   4.164  -5.492  0.00  0.00     0.076 C 
ATOM      7  C8  UNL d   1       3.818   4.495  -3.246  0.00  0.00     0.001 A 
ENDROOT
BRANCH   1   8
ATOM      8  C1  UNL d   1       2.629   4.753  -1.032  0.00  0.00     0.053 C 
ATOM      9  C   UNL d   1       2.247   5.998  -0.249  0.00  0.00     0.018 C 
ENDBRANCH   1   8
TORSDOF 1
ENDMDL
