MODEL 1
REMARK minimizedAffinity -0.768149912
REMARK minimizedRMSD -1
REMARK  1 active torsions:
REMARK  status: ('A' for Active; 'I' for Inactive)
REMARK    1  A    between atoms: C1_2  and  C2_3 
ROOT
ATOM      1  C2  UNL d   1       5.091   4.880  -4.344  0.00  0.00    -0.073 A 
ATOM      2  C3  UNL d   1       5.999   5.656  -3.615  0.00  0.00    -0.002 A 
ATOM      3  C4  UNL d   1       5.729   5.998  -2.289  0.00  0.00     0.004 A 
ATOM      4  C5  UNL d   1       4.553   5.563  -1.677  0.00  0.00    -0.004 A 
ATOM      5  C6  UNL d   1       3.639   4.776  -2.386  0.00  0.00    -0.075 A 
ATOM      6  C7  UNL d   1       2.369   4.301  -1.743  0.00  0.00     0.076 C 
ATOM      7  C8  UNL d   1       3.917   4.439  -3.717  0.00  0.00     0.001 A 
ENDROOT
BRANCH   1   8
ATOM      8  C1  UNL d   1       5.382   4.502  -5.773  0.00  0.00     0.053 C 
ATOM      9  C   UNL d   1       5.275   3.003  -6.000  0.00  0.00     0.018 C 
ENDBRANCH   1   8
TORSDOF 1
ENDMDL
