MODEL 1
REMARK minimizedAffinity -1.97744179
REMARK minimizedRMSD -1
REMARK  1 active torsions:
REMARK  status: ('A' for Active; 'I' for Inactive)
REMARK    1  A    between atoms: C1_2  and  C2_3 
ROOT
ATOM      1  C2  UNL d   1       5.078   4.414  -4.640  0.00  0.00    -0.073 A 
ATOM      2  C3  UNL d   1       6.000   5.387  -4.238  0.00  0.00    -0.002 A 
ATOM      3  C4  UNL d   1       5.899   5.974  -2.976  0.00  0.00     0.004 A 
ATOM      4  C5  UNL d   1       4.882   5.590  -2.102  0.00  0.00    -0.004 A 
ATOM      5  C6  UNL d   1       3.958   4.611  -2.482  0.00  0.00    -0.075 A 
ATOM      6  C7  UNL d   1       2.857   4.189  -1.554  0.00  0.00     0.076 C 
ATOM      7  C8  UNL d   1       4.064   4.028  -3.752  0.00  0.00     0.001 A 
ENDROOT
BRANCH   1   8
ATOM      8  C1  UNL d   1       5.187   3.773  -6.000  0.00  0.00     0.053 C 
ATOM      9  C   UNL d   1       6.000   2.489  -5.961  0.00  0.00     0.018 C 
ENDBRANCH   1   8
TORSDOF 1
ENDMDL
