MODEL 1
REMARK minimizedAffinity 1.68233836
REMARK minimizedRMSD -1
REMARK  1 active torsions:
REMARK  status: ('A' for Active; 'I' for Inactive)
REMARK    1  A    between atoms: C1_2  and  C2_3 
ROOT
ATOM      1  C2  UNL d   1       2.663   4.388  -1.608  0.00  0.00    -0.073 A 
ATOM      2  C3  UNL d   1       1.765   4.913  -2.544  0.00  0.00    -0.002 A 
ATOM      3  C4  UNL d   1       2.236   5.561  -3.687  0.00  0.00     0.004 A 
ATOM      4  C5  UNL d   1       3.607   5.685  -3.908  0.00  0.00    -0.004 A 
ATOM      5  C6  UNL d   1       4.521   5.156  -2.990  0.00  0.00    -0.075 A 
ATOM      6  C7  UNL d   1       5.999   5.283  -3.212  0.00  0.00     0.076 C 
ATOM      7  C8  UNL d   1       4.040   4.509  -1.844  0.00  0.00     0.001 A 
ENDROOT
BRANCH   1   8
ATOM      8  C1  UNL d   1       2.159   3.681  -0.376  0.00  0.00     0.053 C 
ATOM      9  C   UNL d   1       0.740   4.097  -0.021  0.00  0.00     0.018 C 
ENDBRANCH   1   8
TORSDOF 1
ENDMDL
