MODEL 1
REMARK minimizedAffinity 9.0400486
REMARK minimizedRMSD -1
REMARK  1 active torsions:
REMARK  status: ('A' for Active; 'I' for Inactive)
REMARK    1  A    between atoms: C1_2  and  C2_3 
ROOT
ATOM      1  C2  UNL d   1       3.576   5.004  -2.557  0.00  0.00    -0.073 A 
ATOM      2  C3  UNL d   1       4.550   5.998  -2.407  0.00  0.00    -0.002 A 
ATOM      3  C4  UNL d   1       5.755   5.915  -3.106  0.00  0.00     0.004 A 
ATOM      4  C5  UNL d   1       5.995   4.844  -3.966  0.00  0.00    -0.004 A 
ATOM      5  C6  UNL d   1       5.029   3.847  -4.138  0.00  0.00    -0.075 A 
ATOM      6  C7  UNL d   1       5.273   2.686  -5.058  0.00  0.00     0.076 C 
ATOM      7  C8  UNL d   1       3.823   3.936  -3.430  0.00  0.00     0.001 A 
ENDROOT
BRANCH   1   8
ATOM      8  C1  UNL d   1       2.271   5.093  -1.808  0.00  0.00     0.053 C 
ATOM      9  C   UNL d   1       1.903   3.775  -1.147  0.00  0.00     0.018 C 
ENDBRANCH   1   8
TORSDOF 1
ENDMDL
