MODEL 1
REMARK minimizedAffinity -2.45203185
REMARK minimizedRMSD -1
REMARK  1 active torsions:
REMARK  status: ('A' for Active; 'I' for Inactive)
REMARK    1  A    between atoms: C1_2  and  C2_3 
ROOT
ATOM      1  C2  UNL d   1       5.051   4.745  -4.441  0.00  0.00    -0.073 A 
ATOM      2  C3  UNL d   1       6.000   5.560  -3.814  0.00  0.00    -0.002 A 
ATOM      3  C4  UNL d   1       5.834   5.938  -2.481  0.00  0.00     0.004 A 
ATOM      4  C5  UNL d   1       4.724   5.500  -1.760  0.00  0.00    -0.004 A 
ATOM      5  C6  UNL d   1       3.771   4.674  -2.365  0.00  0.00    -0.075 A 
ATOM      6  C7  UNL d   1       2.569   4.196  -1.604  0.00  0.00     0.076 C 
ATOM      7  C8  UNL d   1       3.943   4.301  -3.705  0.00  0.00     0.001 A 
ENDROOT
BRANCH   1   8
ATOM      8  C1  UNL d   1       5.229   4.329  -5.878  0.00  0.00     0.053 C 
ATOM      9  C   UNL d   1       5.924   2.982  -6.000  0.00  0.00     0.018 C 
ENDBRANCH   1   8
TORSDOF 1
ENDMDL
