MODEL 1
REMARK minimizedAffinity 0.989222825
REMARK minimizedRMSD -1
REMARK  1 active torsions:
REMARK  status: ('A' for Active; 'I' for Inactive)
REMARK    1  A    between atoms: C1_2  and  C2_3 
ROOT
ATOM      1  C2  UNL d   1       3.378   4.459  -2.793  0.00  0.00    -0.073 A 
ATOM      2  C3  UNL d   1       4.218   5.355  -2.123  0.00  0.00    -0.002 A 
ATOM      3  C4  UNL d   1       5.522   5.567  -2.570  0.00  0.00     0.004 A 
ATOM      4  C5  UNL d   1       5.998   4.893  -3.694  0.00  0.00    -0.004 A 
ATOM      5  C6  UNL d   1       5.169   4.002  -4.385  0.00  0.00    -0.075 A 
ATOM      6  C7  UNL d   1       5.666   3.267  -5.595  0.00  0.00     0.076 C 
ATOM      7  C8  UNL d   1       3.861   3.792  -3.928  0.00  0.00     0.001 A 
ENDROOT
BRANCH   1   8
ATOM      8  C1  UNL d   1       1.966   4.231  -2.318  0.00  0.00     0.053 C 
ATOM      9  C   UNL d   1       1.905   3.962  -0.823  0.00  0.00     0.018 C 
ENDBRANCH   1   8
TORSDOF 1
ENDMDL
