MODEL 1
REMARK minimizedAffinity -1.65767574
REMARK minimizedRMSD -1
REMARK  1 active torsions:
REMARK  status: ('A' for Active; 'I' for Inactive)
REMARK    1  A    between atoms: C1_2  and  C2_3 
ROOT
ATOM      1  C2  UNL d   1       5.679   5.351  -3.517  0.00  0.00    -0.073 A 
ATOM      2  C3  UNL d   1       5.995   5.999  -4.716  0.00  0.00    -0.002 A 
ATOM      3  C4  UNL d   1       5.706   5.397  -5.941  0.00  0.00     0.004 A 
ATOM      4  C5  UNL d   1       5.092   4.145  -5.980  0.00  0.00    -0.004 A 
ATOM      5  C6  UNL d   1       4.758   3.486  -4.793  0.00  0.00    -0.075 A 
ATOM      6  C7  UNL d   1       4.099   2.138  -4.818  0.00  0.00     0.076 C 
ATOM      7  C8  UNL d   1       5.054   4.096  -3.566  0.00  0.00     0.001 A 
ENDROOT
BRANCH   1   8
ATOM      8  C1  UNL d   1       5.984   6.000  -2.192  0.00  0.00     0.053 C 
ATOM      9  C   UNL d   1       5.198   5.368  -1.053  0.00  0.00     0.018 C 
ENDBRANCH   1   8
TORSDOF 1
ENDMDL
