MODEL 1
REMARK minimizedAffinity 0.741645217
REMARK minimizedRMSD -1
REMARK  1 active torsions:
REMARK  status: ('A' for Active; 'I' for Inactive)
REMARK    1  A    between atoms: C1_2  and  C2_3 
ROOT
ATOM      1  C2  UNL d   1       3.474   4.440  -2.097  0.00  0.00    -0.073 A 
ATOM      2  C3  UNL d   1       4.516   5.217  -1.579  0.00  0.00    -0.002 A 
ATOM      3  C4  UNL d   1       5.773   5.205  -2.184  0.00  0.00     0.004 A 
ATOM      4  C5  UNL d   1       6.000   4.422  -3.315  0.00  0.00    -0.004 A 
ATOM      5  C6  UNL d   1       4.968   3.647  -3.856  0.00  0.00    -0.075 A 
ATOM      6  C7  UNL d   1       5.196   2.798  -5.071  0.00  0.00     0.076 C 
ATOM      7  C8  UNL d   1       3.709   3.663  -3.241  0.00  0.00     0.001 A 
ENDROOT
BRANCH   1   8
ATOM      8  C1  UNL d   1       2.113   4.455  -1.451  0.00  0.00     0.053 C 
ATOM      9  C   UNL d   1       2.100   3.701  -0.131  0.00  0.00     0.018 C 
ENDBRANCH   1   8
TORSDOF 1
ENDMDL
