MODEL 1
REMARK minimizedAffinity 4.46538448
REMARK minimizedRMSD -1
REMARK  0 active torsions:
REMARK  status: ('A' for Active; 'I' for Inactive)
ROOT
ATOM      1  C   UNL d   1       2.166   1.980  -4.750  0.00  0.00     0.020 A 
ATOM      2  C1  UNL d   1       3.540   1.823  -4.567  0.00  0.00     0.020 A 
ATOM      3  C2  UNL d   1       4.087   0.543  -4.457  0.00  0.00     0.034 A 
ATOM      4  C3  UNL d   1       3.261  -0.584  -4.529  0.00  0.00     0.017 A 
ATOM      5  C4  UNL d   1       1.882  -0.425  -4.712  0.00  0.00     0.017 A 
ATOM      6  C5  UNL d   1       1.340   0.859  -4.822  0.00  0.00     0.034 A 
ATOM      7 Cl   UNL d   1       0.799  -1.769  -4.810  0.00  0.00    -0.070 Cl
ATOM      8 Cl1  UNL d   1       4.006  -2.137  -4.385  0.00  0.00    -0.070 Cl
ENDROOT
TORSDOF 0
ENDMDL
