MODEL 1
REMARK minimizedAffinity -2.01178718
REMARK minimizedRMSD -1
REMARK  0 active torsions:
REMARK  status: ('A' for Active; 'I' for Inactive)
ROOT
ATOM      1  C   UNL d   1       0.463   0.038  -1.102  0.00  0.00     0.020 A 
ATOM      2  C1  UNL d   1       1.809   0.060  -0.739  0.00  0.00     0.020 A 
ATOM      3  C2  UNL d   1       2.782   0.386  -1.686  0.00  0.00     0.034 A 
ATOM      4  C3  UNL d   1       2.410   0.691  -3.001  0.00  0.00     0.017 A 
ATOM      5  C4  UNL d   1       1.058   0.669  -3.364  0.00  0.00     0.017 A 
ATOM      6  C5  UNL d   1       0.088   0.342  -2.411  0.00  0.00     0.034 A 
ATOM      7 Cl   UNL d   1       0.523   1.034  -4.966  0.00  0.00    -0.070 Cl
ATOM      8 Cl1  UNL d   1       3.666   1.086  -4.120  0.00  0.00    -0.070 Cl
ENDROOT
TORSDOF 0
ENDMDL
