MODEL 1
REMARK minimizedAffinity 1.86256099
REMARK minimizedRMSD -1
REMARK  0 active torsions:
REMARK  status: ('A' for Active; 'I' for Inactive)
ROOT
ATOM      1  C   UNL d   1      -0.598  -1.134  -0.481  0.00  0.00     0.020 A 
ATOM      2  C1  UNL d   1      -0.940  -0.033   0.302  0.00  0.00     0.020 A 
ATOM      3  C2  UNL d   1       0.056   0.690   0.963  0.00  0.00     0.034 A 
ATOM      4  C3  UNL d   1       1.398   0.312   0.842  0.00  0.00     0.017 A 
ATOM      5  C4  UNL d   1       1.740  -0.794   0.056  0.00  0.00     0.017 A 
ATOM      6  C5  UNL d   1       0.740  -1.514  -0.604  0.00  0.00     0.034 A 
ATOM      7 Cl   UNL d   1       3.375  -1.321  -0.141  0.00  0.00    -0.070 Cl
ATOM      8 Cl1  UNL d   1       2.577   1.252   1.687  0.00  0.00    -0.070 Cl
ENDROOT
TORSDOF 0
ENDMDL
