MODEL 1
REMARK minimizedAffinity 7.54764032
REMARK minimizedRMSD -1
REMARK  0 active torsions:
REMARK  status: ('A' for Active; 'I' for Inactive)
ROOT
ATOM      1  C   UNL d   1       6.000   2.996   3.551  0.00  0.00     0.020 A 
ATOM      2  C1  UNL d   1       5.000   2.978   4.523  0.00  0.00     0.020 A 
ATOM      3  C2  UNL d   1       3.698   2.609   4.179  0.00  0.00     0.034 A 
ATOM      4  C3  UNL d   1       3.392   2.256   2.860  0.00  0.00     0.017 A 
ATOM      5  C4  UNL d   1       4.396   2.274   1.885  0.00  0.00     0.017 A 
ATOM      6  C5  UNL d   1       5.698   2.645   2.235  0.00  0.00     0.034 A 
ATOM      7 Cl   UNL d   1       4.095   1.852   0.236  0.00  0.00    -0.070 Cl
ATOM      8 Cl1  UNL d   1       1.761   1.809   2.505  0.00  0.00    -0.070 Cl
ENDROOT
TORSDOF 0
ENDMDL
