MODEL 1
REMARK minimizedAffinity 2.35404444
REMARK minimizedRMSD -1
REMARK  0 active torsions:
REMARK  status: ('A' for Active; 'I' for Inactive)
ROOT
ATOM      1  C   UNL d   1      -0.211  -0.630   0.052  0.00  0.00     0.020 A 
ATOM      2  C1  UNL d   1       0.528  -1.504  -0.745  0.00  0.00     0.020 A 
ATOM      3  C2  UNL d   1       1.918  -1.552  -0.625  0.00  0.00     0.034 A 
ATOM      4  C3  UNL d   1       2.574  -0.724   0.293  0.00  0.00     0.017 A 
ATOM      5  C4  UNL d   1       1.832   0.153   1.092  0.00  0.00     0.017 A 
ATOM      6  C5  UNL d   1       0.440   0.197   0.968  0.00  0.00     0.034 A 
ATOM      7 Cl   UNL d   1       2.571   1.205   2.248  0.00  0.00    -0.070 Cl
ATOM      8 Cl1  UNL d   1       4.296  -0.836   0.388  0.00  0.00    -0.070 Cl
ENDROOT
TORSDOF 0
ENDMDL
