MODEL 1
REMARK minimizedAffinity 4.33285284
REMARK minimizedRMSD -1
REMARK  0 active torsions:
REMARK  status: ('A' for Active; 'I' for Inactive)
ROOT
ATOM      1  C   UNL d   1       0.744   0.581   4.155  0.00  0.00     0.020 A 
ATOM      2  C1  UNL d   1      -0.382  -0.173   3.829  0.00  0.00     0.020 A 
ATOM      3  C2  UNL d   1      -0.577  -0.604   2.515  0.00  0.00     0.034 A 
ATOM      4  C3  UNL d   1       0.356  -0.282   1.523  0.00  0.00     0.017 A 
ATOM      5  C4  UNL d   1       1.487   0.475   1.852  0.00  0.00     0.017 A 
ATOM      6  C5  UNL d   1       1.677   0.904   3.169  0.00  0.00     0.034 A 
ATOM      7 Cl   UNL d   1       2.682   0.912   0.682  0.00  0.00    -0.070 Cl
ATOM      8 Cl1  UNL d   1       0.052  -0.849  -0.081  0.00  0.00    -0.070 Cl
ENDROOT
TORSDOF 0
ENDMDL
