MODEL 1
REMARK minimizedAffinity 12.5322342
REMARK minimizedRMSD -1
REMARK  0 active torsions:
REMARK  status: ('A' for Active; 'I' for Inactive)
ROOT
ATOM      1  C   UNL d   1      -2.146  -2.088   5.813  0.00  0.00     0.020 A 
ATOM      2  C1  UNL d   1      -0.841  -1.608   5.709  0.00  0.00     0.020 A 
ATOM      3  C2  UNL d   1      -0.345  -1.196   4.471  0.00  0.00     0.034 A 
ATOM      4  C3  UNL d   1      -1.155  -1.262   3.331  0.00  0.00     0.017 A 
ATOM      5  C4  UNL d   1      -2.464  -1.744   3.436  0.00  0.00     0.017 A 
ATOM      6  C5  UNL d   1      -2.956  -2.156   4.678  0.00  0.00     0.034 A 
ATOM      7 Cl   UNL d   1      -3.523  -1.856   2.074  0.00  0.00    -0.070 Cl
ATOM      8 Cl1  UNL d   1      -0.476  -0.735   1.832  0.00  0.00    -0.070 Cl
ENDROOT
TORSDOF 0
ENDMDL
