MODEL 1
REMARK minimizedAffinity 3.40768313
REMARK minimizedRMSD -1
REMARK  0 active torsions:
REMARK  status: ('A' for Active; 'I' for Inactive)
ROOT
ATOM      1  C   UNL d   1      -2.415  -1.333   1.573  0.00  0.00     0.020 A 
ATOM      2  C1  UNL d   1      -2.728  -0.199   2.321  0.00  0.00     0.020 A 
ATOM      3  C2  UNL d   1      -3.422   0.858   1.729  0.00  0.00     0.034 A 
ATOM      4  C3  UNL d   1      -3.805   0.784   0.385  0.00  0.00     0.017 A 
ATOM      5  C4  UNL d   1      -3.490  -0.355  -0.365  0.00  0.00     0.017 A 
ATOM      6  C5  UNL d   1      -2.795  -1.411   0.232  0.00  0.00     0.034 A 
ATOM      7 Cl   UNL d   1      -3.929  -0.519  -2.029  0.00  0.00    -0.070 Cl
ATOM      8 Cl1  UNL d   1      -4.662   2.128  -0.282  0.00  0.00    -0.070 Cl
ENDROOT
TORSDOF 0
ENDMDL
