MODEL 1
REMARK minimizedAffinity -3.56522155
REMARK minimizedRMSD -1
REMARK  0 active torsions:
REMARK  status: ('A' for Active; 'I' for Inactive)
ROOT
ATOM      1  C2' OXE d   1       4.059  -0.723   1.795  0.00  0.00     0.078 C 
ATOM      2  C1' OXE d   1       3.208   1.681   2.968  0.00  0.00     0.078 C 
ATOM      3  C1  OXE d   1       2.402   1.137   1.815  0.00  0.00    -0.078 A 
ATOM      4  C2  OXE d   1       2.853  -0.015   1.217  0.00  0.00    -0.078 A 
ATOM      5  C3  OXE d   1       2.117  -0.589   0.184  0.00  0.00     0.003 A 
ATOM      6  C4  OXE d   1       1.008   0.077  -0.352  0.00  0.00    -0.002 A 
ATOM      7  C5  OXE d   1       0.556   1.273   0.217  0.00  0.00    -0.002 A 
ATOM      8  C6  OXE d   1       1.215   1.793   1.325  0.00  0.00     0.003 A 
ENDROOT
TORSDOF 0
ENDMDL
