MODEL 1
REMARK minimizedAffinity -6.74431562
REMARK minimizedRMSD -1
REMARK  0 active torsions:
REMARK  status: ('A' for Active; 'I' for Inactive)
ROOT
ATOM      1  C2' OXE d   1      -0.860  -1.138   1.340  0.00  0.00     0.078 C 
ATOM      2  C1' OXE d   1      -0.039   1.439   0.589  0.00  0.00     0.078 C 
ATOM      3  C1  OXE d   1       1.027   0.390   0.784  0.00  0.00    -0.078 A 
ATOM      4  C2  OXE d   1       0.620  -0.856   1.197  0.00  0.00    -0.078 A 
ATOM      5  C3  OXE d   1       1.557  -1.875   1.339  0.00  0.00     0.003 A 
ATOM      6  C4  OXE d   1       2.925  -1.603   1.214  0.00  0.00    -0.002 A 
ATOM      7  C5  OXE d   1       3.364  -0.331   0.833  0.00  0.00    -0.002 A 
ATOM      8  C6  OXE d   1       2.427   0.663   0.573  0.00  0.00     0.003 A 
ENDROOT
TORSDOF 0
ENDMDL
