MODEL 1
REMARK minimizedAffinity -0.898808837
REMARK minimizedRMSD -1
REMARK  0 active torsions:
REMARK  status: ('A' for Active; 'I' for Inactive)
ROOT
ATOM      1  C2' OXE d   1       1.053  -2.181   0.587  0.00  0.00     0.078 C 
ATOM      2  C1' OXE d   1       3.381  -0.851   1.417  0.00  0.00     0.078 C 
ATOM      3  C1  OXE d   1       2.173  -0.012   1.083  0.00  0.00    -0.078 A 
ATOM      4  C2  OXE d   1       1.053  -0.669   0.633  0.00  0.00    -0.078 A 
ATOM      5  C3  OXE d   1      -0.107   0.053   0.363  0.00  0.00     0.003 A 
ATOM      6  C4  OXE d   1      -0.095   1.452   0.399  0.00  0.00    -0.002 A 
ATOM      7  C5  OXE d   1       1.047   2.143   0.816  0.00  0.00    -0.002 A 
ATOM      8  C6  OXE d   1       2.174   1.425   1.202  0.00  0.00     0.003 A 
ENDROOT
TORSDOF 0
ENDMDL
