MODEL 1
REMARK minimizedAffinity -3.91301608
REMARK minimizedRMSD -1
REMARK  0 active torsions:
REMARK  status: ('A' for Active; 'I' for Inactive)
ROOT
ATOM      1  C2' OXE d   1       2.771  -0.275   0.518  0.00  0.00     0.078 C 
ATOM      2  C1' OXE d   1       0.630  -2.089   0.534  0.00  0.00     0.078 C 
ATOM      3  C1  OXE d   1       0.308  -0.623   0.389  0.00  0.00    -0.078 A 
ATOM      4  C2  OXE d   1       1.359   0.262   0.429  0.00  0.00    -0.078 A 
ATOM      5  C3  OXE d   1       1.123   1.621   0.245  0.00  0.00     0.003 A 
ATOM      6  C4  OXE d   1      -0.187   2.110   0.174  0.00  0.00    -0.002 A 
ATOM      7  C5  OXE d   1      -1.274   1.229   0.171  0.00  0.00    -0.002 A 
ATOM      8  C6  OXE d   1      -1.042  -0.140   0.235  0.00  0.00     0.003 A 
ENDROOT
TORSDOF 0
ENDMDL
