MODEL 1
REMARK minimizedAffinity -4.14406729
REMARK minimizedRMSD -1
REMARK  0 active torsions:
REMARK  status: ('A' for Active; 'I' for Inactive)
ROOT
ATOM      1  C2' OXE d   1       0.364   2.721   0.307  0.00  0.00     0.078 C 
ATOM      2  C1' OXE d   1      -1.231   0.415   0.170  0.00  0.00     0.078 C 
ATOM      3  C1  OXE d   1       0.248   0.235   0.409  0.00  0.00    -0.078 A 
ATOM      4  C2  OXE d   1       1.027   1.366   0.428  0.00  0.00    -0.078 A 
ATOM      5  C3  OXE d   1       2.389   1.261   0.698  0.00  0.00     0.003 A 
ATOM      6  C4  OXE d   1       2.996   0.003   0.799  0.00  0.00    -0.002 A 
ATOM      7  C5  OXE d   1       2.226  -1.164   0.743  0.00  0.00    -0.002 A 
ATOM      8  C6  OXE d   1       0.847  -1.064   0.592  0.00  0.00     0.003 A 
ENDROOT
TORSDOF 0
ENDMDL
