MODEL 1
REMARK minimizedAffinity -3.06183553
REMARK minimizedRMSD -1
REMARK  0 active torsions:
REMARK  status: ('A' for Active; 'I' for Inactive)
ROOT
ATOM      1  C2' OXE d   1      -0.633  -1.420   1.439  0.00  0.00     0.078 C 
ATOM      2  C1' OXE d   1      -1.411   0.580  -0.370  0.00  0.00     0.078 C 
ATOM      3  C1  OXE d   1      -0.015   0.648   0.195  0.00  0.00    -0.078 A 
ATOM      4  C2  OXE d   1       0.342  -0.308   1.115  0.00  0.00    -0.078 A 
ATOM      5  C3  OXE d   1       1.636  -0.324   1.627  0.00  0.00     0.003 A 
ATOM      6  C4  OXE d   1       2.528   0.714   1.330  0.00  0.00    -0.002 A 
ATOM      7  C5  OXE d   1       2.172   1.720   0.426  0.00  0.00    -0.002 A 
ATOM      8  C6  OXE d   1       0.922   1.678  -0.182  0.00  0.00     0.003 A 
ENDROOT
TORSDOF 0
ENDMDL
