MODEL 1
REMARK minimizedAffinity -2.44893527
REMARK minimizedRMSD -1
REMARK  0 active torsions:
REMARK  status: ('A' for Active; 'I' for Inactive)
ROOT
ATOM      1  C2' OXE d   1      -0.047  -2.057   1.668  0.00  0.00     0.078 C 
ATOM      2  C1' OXE d   1       1.662   0.137   1.285  0.00  0.00     0.078 C 
ATOM      3  C1  OXE d   1       0.408   0.068   0.449  0.00  0.00    -0.078 A 
ATOM      4  C2  OXE d   1      -0.399  -1.033   0.610  0.00  0.00    -0.078 A 
ATOM      5  C3  OXE d   1      -1.596  -1.120  -0.096  0.00  0.00     0.003 A 
ATOM      6  C4  OXE d   1      -1.909  -0.174  -1.079  0.00  0.00    -0.002 A 
ATOM      7  C5  OXE d   1      -1.081   0.935  -1.287  0.00  0.00    -0.002 A 
ATOM      8  C6  OXE d   1       0.057   1.092  -0.503  0.00  0.00     0.003 A 
ENDROOT
TORSDOF 0
ENDMDL
