MODEL 1
REMARK minimizedAffinity -4.07263231
REMARK minimizedRMSD -1
REMARK  0 active torsions:
REMARK  status: ('A' for Active; 'I' for Inactive)
ROOT
ATOM      1  C2' OXE d   1      -1.487   0.007  -0.267  0.00  0.00     0.078 C 
ATOM      2  C1' OXE d   1       0.220  -1.854   0.959  0.00  0.00     0.078 C 
ATOM      3  C1  OXE d   1       0.785  -0.496   0.623  0.00  0.00    -0.078 A 
ATOM      4  C2  OXE d   1      -0.044   0.392  -0.019  0.00  0.00    -0.078 A 
ATOM      5  C3  OXE d   1       0.409   1.677  -0.302  0.00  0.00     0.003 A 
ATOM      6  C4  OXE d   1       1.748   2.022  -0.079  0.00  0.00    -0.002 A 
ATOM      7  C5  OXE d   1       2.620   1.118   0.538  0.00  0.00    -0.002 A 
ATOM      8  C6  OXE d   1       2.144  -0.127   0.933  0.00  0.00     0.003 A 
ENDROOT
TORSDOF 0
ENDMDL
