MODEL 1
REMARK minimizedAffinity 0.970340967
REMARK minimizedRMSD -1
REMARK  0 active torsions:
REMARK  status: ('A' for Active; 'I' for Inactive)
ROOT
ATOM      1  C   UNL d   1       0.412  -0.287  -5.052  0.00  0.00    -0.002 A 
ATOM      2  C1  UNL d   1       1.601   0.407  -4.877  0.00  0.00     0.010 A 
ATOM      3  C2  UNL d   1       2.034   0.762  -3.597  0.00  0.00     0.041 A 
ATOM      4  C3  UNL d   1       1.245   0.403  -2.487  0.00  0.00    -0.075 A 
ATOM      5  S   UNL d   1       1.576   0.731  -0.827  0.00  0.00     0.015 SA
ATOM      6  C4  UNL d   1       0.147  -0.043  -0.312  0.00  0.00     0.022 A 
ATOM      7  C5  UNL d   1      -0.577  -0.545  -1.368  0.00  0.00     0.026 A 
ATOM      8  C6  UNL d   1       0.044  -0.296  -2.639  0.00  0.00    -0.082 A 
ATOM      9  C7  UNL d   1      -0.368  -0.641  -3.948  0.00  0.00     0.045 A 
ENDROOT
TORSDOF 0
ENDMDL
