MODEL 1
REMARK minimizedAffinity -3.605021
REMARK minimizedRMSD -1
REMARK  0 active torsions:
REMARK  status: ('A' for Active; 'I' for Inactive)
ROOT
ATOM      1  C   UNL d   1      -0.729   1.086   2.944  0.00  0.00    -0.002 A 
ATOM      2  C1  UNL d   1       0.588   1.205   2.521  0.00  0.00     0.010 A 
ATOM      3  C2  UNL d   1       0.945   0.883   1.210  0.00  0.00     0.041 A 
ATOM      4  C3  UNL d   1      -0.053   0.437   0.322  0.00  0.00    -0.075 A 
ATOM      5  S   UNL d   1       0.151  -0.013  -1.330  0.00  0.00     0.015 SA
ATOM      6  C4  UNL d   1      -1.505  -0.374  -1.514  0.00  0.00     0.022 A 
ATOM      7  C5  UNL d   1      -2.210  -0.162  -0.353  0.00  0.00     0.026 A 
ATOM      8  C6  UNL d   1      -1.386   0.309   0.724  0.00  0.00    -0.082 A 
ATOM      9  C7  UNL d   1      -1.716   0.642   2.060  0.00  0.00     0.045 A 
ENDROOT
TORSDOF 0
ENDMDL
