MODEL 1
REMARK minimizedAffinity -2.04084158
REMARK minimizedRMSD -1
REMARK  0 active torsions:
REMARK  status: ('A' for Active; 'I' for Inactive)
ROOT
ATOM      1  C   UNL d   1      -1.125   0.932   3.000  0.00  0.00    -0.002 A 
ATOM      2  C1  UNL d   1       0.259   0.986   2.914  0.00  0.00     0.010 A 
ATOM      3  C2  UNL d   1       0.921   0.485   1.792  0.00  0.00     0.041 A 
ATOM      4  C3  UNL d   1       0.161  -0.075   0.746  0.00  0.00    -0.075 A 
ATOM      5  S   UNL d   1       0.756  -0.750  -0.725  0.00  0.00     0.015 SA
ATOM      6  C4  UNL d   1      -0.814  -1.125  -1.274  0.00  0.00     0.022 A 
ATOM      7  C5  UNL d   1      -1.779  -0.752  -0.370  0.00  0.00     0.026 A 
ATOM      8  C6  UNL d   1      -1.234  -0.140   0.809  0.00  0.00    -0.082 A 
ATOM      9  C7  UNL d   1      -1.875   0.376   1.961  0.00  0.00     0.045 A 
ENDROOT
TORSDOF 0
ENDMDL
