MODEL 1
REMARK minimizedAffinity -4.99084473
REMARK minimizedRMSD -1
REMARK  0 active torsions:
REMARK  status: ('A' for Active; 'I' for Inactive)
ROOT
ATOM      1  C   UNL d   1      -0.466   1.144   3.198  0.00  0.00    -0.002 A 
ATOM      2  C1  UNL d   1      -1.544   1.168   2.325  0.00  0.00     0.010 A 
ATOM      3  C2  UNL d   1      -1.487   0.487   1.107  0.00  0.00     0.041 A 
ATOM      4  C3  UNL d   1      -0.317  -0.225   0.779  0.00  0.00    -0.075 A 
ATOM      5  S   UNL d   1      -0.021  -1.133  -0.657  0.00  0.00     0.015 SA
ATOM      6  C4  UNL d   1       1.544  -1.574  -0.145  0.00  0.00     0.022 A 
ATOM      7  C5  UNL d   1       1.849  -1.050   1.089  0.00  0.00     0.026 A 
ATOM      8  C6  UNL d   1       0.782  -0.265   1.642  0.00  0.00    -0.082 A 
ATOM      9  C7  UNL d   1       0.693   0.436   2.869  0.00  0.00     0.045 A 
ENDROOT
TORSDOF 0
ENDMDL
