MODEL 1
REMARK minimizedAffinity -4.66166925
REMARK minimizedRMSD -1
REMARK  0 active torsions:
REMARK  status: ('A' for Active; 'I' for Inactive)
ROOT
ATOM      1  C   UNL d   1      -0.919   1.371   2.423  0.00  0.00    -0.002 A 
ATOM      2  C1  UNL d   1       0.439   1.268   2.690  0.00  0.00     0.010 A 
ATOM      3  C2  UNL d   1       1.273   0.525   1.852  0.00  0.00     0.041 A 
ATOM      4  C3  UNL d   1       0.714  -0.117   0.729  0.00  0.00    -0.075 A 
ATOM      5  S   UNL d   1       1.543  -1.079  -0.437  0.00  0.00     0.015 SA
ATOM      6  C4  UNL d   1       0.113  -1.375  -1.317  0.00  0.00     0.022 A 
ATOM      7  C5  UNL d   1      -0.978  -0.763  -0.749  0.00  0.00     0.026 A 
ATOM      8  C6  UNL d   1      -0.650  -0.027   0.439  0.00  0.00    -0.082 A 
ATOM      9  C7  UNL d   1      -1.469   0.733   1.309  0.00  0.00     0.045 A 
ENDROOT
TORSDOF 0
ENDMDL
