MODEL 1
REMARK minimizedAffinity -4.95230579
REMARK minimizedRMSD -1
REMARK  0 active torsions:
REMARK  status: ('A' for Active; 'I' for Inactive)
ROOT
ATOM      1  C   UNL d   1      -1.526   1.525   2.604  0.00  0.00    -0.002 A 
ATOM      2  C1  UNL d   1      -0.154   1.575   2.807  0.00  0.00     0.010 A 
ATOM      3  C2  UNL d   1       0.718   0.916   1.937  0.00  0.00     0.041 A 
ATOM      4  C3  UNL d   1       0.182   0.200   0.849  0.00  0.00    -0.075 A 
ATOM      5  S   UNL d   1       1.057  -0.683  -0.346  0.00  0.00     0.015 SA
ATOM      6  C4  UNL d   1      -0.370  -1.147  -1.155  0.00  0.00     0.022 A 
ATOM      7  C5  UNL d   1      -1.495  -0.650  -0.541  0.00  0.00     0.026 A 
ATOM      8  C6  UNL d   1      -1.196   0.135   0.623  0.00  0.00    -0.082 A 
ATOM      9  C7  UNL d   1      -2.053   0.813   1.523  0.00  0.00     0.045 A 
ENDROOT
TORSDOF 0
ENDMDL
