MODEL 1
REMARK minimizedAffinity -5.83362913
REMARK minimizedRMSD -1
REMARK  3 active torsions:
REMARK  status: ('A' for Active; 'I' for Inactive)
REMARK    1  A    between atoms: C3'_2  and  C2'_3 
REMARK    2  A    between atoms: C2'_3  and  C1'_4 
REMARK    3  A    between atoms: C1'_4  and  C1_5 
ROOT
ATOM      1  C1  N4B d   1       0.065  -0.066   0.874  0.00  0.00    -0.075 A 
ATOM      2  C2  N4B d   1       1.078  -0.035   1.857  0.00  0.00     0.002 A 
ATOM      3  C3  N4B d   1       0.833   0.546   3.077  0.00  0.00     0.002 A 
ATOM      4  C4  N4B d   1      -0.406   1.117   3.328  0.00  0.00    -0.004 A 
ATOM      5  C5  N4B d   1      -1.387   1.061   2.382  0.00  0.00     0.002 A 
ATOM      6  C6  N4B d   1      -1.156   0.476   1.153  0.00  0.00     0.002 A 
ENDROOT
BRANCH   1   7
ATOM      7  C1' N4B d   1       0.314  -0.614  -0.505  0.00  0.00     0.057 C 
BRANCH   7   8
ATOM      8  C2' N4B d   1       0.478   0.546  -1.483  0.00  0.00     0.009 C 
BRANCH   8   9
ATOM      9  C3' N4B d   1       0.930   0.073  -2.854  0.00  0.00     0.004 C 
ATOM     10  C4' N4B d   1       1.745   1.100  -3.583  0.00  0.00     0.003 C 
ENDBRANCH   8   9
ENDBRANCH   7   8
ENDBRANCH   1   7
TORSDOF 3
ENDMDL
