MODEL 1
REMARK minimizedAffinity -0.730971098
REMARK minimizedRMSD -1
REMARK  3 active torsions:
REMARK  status: ('A' for Active; 'I' for Inactive)
REMARK    1  A    between atoms: C3'_2  and  C2'_3 
REMARK    2  A    between atoms: C2'_3  and  C1'_4 
REMARK    3  A    between atoms: C1'_4  and  C1_5 
ROOT
ATOM      1  C1  N4B d   1      -1.350  -1.554  -0.463  0.00  0.00    -0.075 A 
ATOM      2  C2  N4B d   1      -0.532  -2.582  -0.978  0.00  0.00     0.002 A 
ATOM      3  C3  N4B d   1      -1.083  -3.793  -1.320  0.00  0.00     0.002 A 
ATOM      4  C4  N4B d   1      -2.442  -4.003  -1.139  0.00  0.00    -0.004 A 
ATOM      5  C5  N4B d   1      -3.230  -2.996  -0.664  0.00  0.00     0.002 A 
ATOM      6  C6  N4B d   1      -2.690  -1.773  -0.320  0.00  0.00     0.002 A 
ENDROOT
BRANCH   1   7
ATOM      7  C1' N4B d   1      -0.779  -0.243   0.006  0.00  0.00     0.057 C 
BRANCH   7   8
ATOM      8  C2' N4B d   1       0.401  -0.515   0.934  0.00  0.00     0.009 C 
BRANCH   8   9
ATOM      9  C3' N4B d   1       0.801   0.722   1.721  0.00  0.00     0.004 C 
ATOM     10  C4' N4B d   1      -0.150   1.033   2.837  0.00  0.00     0.003 C 
ENDBRANCH   8   9
ENDBRANCH   7   8
ENDBRANCH   1   7
TORSDOF 3
ENDMDL
