MODEL 1
REMARK minimizedAffinity -6.10724878
REMARK minimizedRMSD -1
REMARK  3 active torsions:
REMARK  status: ('A' for Active; 'I' for Inactive)
REMARK    1  A    between atoms: C3'_2  and  C2'_3 
REMARK    2  A    between atoms: C2'_3  and  C1'_4 
REMARK    3  A    between atoms: C1'_4  and  C1_5 
ROOT
ATOM      1  C1  N4B d   1      -1.726  -0.232   0.635  0.00  0.00    -0.075 A 
ATOM      2  C2  N4B d   1      -0.474  -0.313  -0.014  0.00  0.00     0.002 A 
ATOM      3  C3  N4B d   1       0.643   0.220   0.580  0.00  0.00     0.002 A 
ATOM      4  C4  N4B d   1       0.531   0.852   1.810  0.00  0.00    -0.004 A 
ATOM      5  C5  N4B d   1      -0.677   0.903   2.442  0.00  0.00     0.002 A 
ATOM      6  C6  N4B d   1      -1.807   0.368   1.858  0.00  0.00     0.002 A 
ENDROOT
BRANCH   1   7
ATOM      7  C1' N4B d   1      -2.990  -0.724  -0.014  0.00  0.00     0.057 C 
BRANCH   7   8
ATOM      8  C2' N4B d   1      -2.674  -1.957  -0.855  0.00  0.00     0.009 C 
BRANCH   8   9
ATOM      9  C3' N4B d   1      -3.915  -2.789  -1.133  0.00  0.00     0.004 C 
ATOM     10  C4' N4B d   1      -3.730  -4.238  -0.796  0.00  0.00     0.003 C 
ENDBRANCH   8   9
ENDBRANCH   7   8
ENDBRANCH   1   7
TORSDOF 3
ENDMDL
