MODEL 1
REMARK minimizedAffinity -1.25733876
REMARK minimizedRMSD -1
REMARK  3 active torsions:
REMARK  status: ('A' for Active; 'I' for Inactive)
REMARK    1  A    between atoms: C3'_2  and  C2'_3 
REMARK    2  A    between atoms: C2'_3  and  C1'_4 
REMARK    3  A    between atoms: C1'_4  and  C1_5 
ROOT
ATOM      1  C1  N4B d   1       2.185   0.933  -1.456  0.00  0.00    -0.075 A 
ATOM      2  C2  N4B d   1       3.223   1.418  -2.282  0.00  0.00     0.002 A 
ATOM      3  C3  N4B d   1       2.973   1.705  -3.601  0.00  0.00     0.002 A 
ATOM      4  C4  N4B d   1       1.704   1.499  -4.120  0.00  0.00    -0.004 A 
ATOM      5  C5  N4B d   1       0.700   1.054  -3.309  0.00  0.00     0.002 A 
ATOM      6  C6  N4B d   1       0.936   0.765  -1.980  0.00  0.00     0.002 A 
ENDROOT
BRANCH   1   7
ATOM      7  C1' N4B d   1       2.431   0.524  -0.029  0.00  0.00     0.057 C 
BRANCH   7   8
ATOM      8  C2' N4B d   1       1.402  -0.528   0.374  0.00  0.00     0.009 C 
BRANCH   8   9
ATOM      9  C3' N4B d   1       0.538  -0.062   1.534  0.00  0.00     0.004 C 
ATOM     10  C4' N4B d   1       0.769   1.376   1.889  0.00  0.00     0.003 C 
ENDBRANCH   8   9
ENDBRANCH   7   8
ENDBRANCH   1   7
TORSDOF 3
ENDMDL
