MODEL 1
REMARK minimizedAffinity -1.38178921
REMARK minimizedRMSD -1
REMARK  3 active torsions:
REMARK  status: ('A' for Active; 'I' for Inactive)
REMARK    1  A    between atoms: C3'_2  and  C2'_3 
REMARK    2  A    between atoms: C2'_3  and  C1'_4 
REMARK    3  A    between atoms: C1'_4  and  C1_5 
ROOT
ATOM      1  C1  N4B d   1      -1.281  -1.363  -0.744  0.00  0.00    -0.075 A 
ATOM      2  C2  N4B d   1      -2.640  -1.129  -0.438  0.00  0.00     0.002 A 
ATOM      3  C3  N4B d   1      -3.594  -2.047  -0.802  0.00  0.00     0.002 A 
ATOM      4  C4  N4B d   1      -3.217  -3.193  -1.487  0.00  0.00    -0.004 A 
ATOM      5  C5  N4B d   1      -1.899  -3.423  -1.756  0.00  0.00     0.002 A 
ATOM      6  C6  N4B d   1      -0.930  -2.511  -1.393  0.00  0.00     0.002 A 
ENDROOT
BRANCH   1   7
ATOM      7  C1' N4B d   1      -0.213  -0.347  -0.443  0.00  0.00     0.057 C 
BRANCH   7   8
ATOM      8  C2' N4B d   1       1.012  -1.061   0.119  0.00  0.00     0.009 C 
BRANCH   8   9
ATOM      9  C3' N4B d   1       1.628  -0.303   1.282  0.00  0.00     0.004 C 
ATOM     10  C4' N4B d   1       0.639   0.569   1.997  0.00  0.00     0.003 C 
ENDBRANCH   8   9
ENDBRANCH   7   8
ENDBRANCH   1   7
TORSDOF 3
ENDMDL
