MODEL 1
REMARK minimizedAffinity -2.84445786
REMARK minimizedRMSD -1
REMARK  3 active torsions:
REMARK  status: ('A' for Active; 'I' for Inactive)
REMARK    1  A    between atoms: C3'_2  and  C2'_3 
REMARK    2  A    between atoms: C2'_3  and  C1'_4 
REMARK    3  A    between atoms: C1'_4  and  C1_5 
ROOT
ATOM      1  C1  N4B d   1       0.856  -0.421  -2.083  0.00  0.00    -0.075 A 
ATOM      2  C2  N4B d   1       0.126   0.515  -2.848  0.00  0.00     0.002 A 
ATOM      3  C3  N4B d   1       0.702   1.101  -3.948  0.00  0.00     0.002 A 
ATOM      4  C4  N4B d   1       2.008   0.783  -4.290  0.00  0.00    -0.004 A 
ATOM      5  C5  N4B d   1       2.698  -0.141  -3.560  0.00  0.00     0.002 A 
ATOM      6  C6  N4B d   1       2.130  -0.741  -2.455  0.00  0.00     0.002 A 
ENDROOT
BRANCH   1   7
ATOM      7  C1' N4B d   1       0.299  -1.024  -0.822  0.00  0.00     0.057 C 
BRANCH   7   8
ATOM      8  C2' N4B d   1      -0.560   0.015  -0.107  0.00  0.00     0.009 C 
BRANCH   8   9
ATOM      9  C3' N4B d   1      -0.017   0.350   1.271  0.00  0.00     0.004 C 
ATOM     10  C4' N4B d   1       1.215  -0.432   1.616  0.00  0.00     0.003 C 
ENDBRANCH   8   9
ENDBRANCH   7   8
ENDBRANCH   1   7
TORSDOF 3
ENDMDL
