MODEL 1
REMARK minimizedAffinity -0.233987257
REMARK minimizedRMSD -1
REMARK  3 active torsions:
REMARK  status: ('A' for Active; 'I' for Inactive)
REMARK    1  A    between atoms: C3'_2  and  C2'_3 
REMARK    2  A    between atoms: C2'_3  and  C1'_4 
REMARK    3  A    between atoms: C1'_4  and  C1_5 
ROOT
ATOM      1  C1  N4B d   1       1.492  -0.676   4.992  0.00  0.00    -0.075 A 
ATOM      2  C2  N4B d   1       1.893   0.579   4.486  0.00  0.00     0.002 A 
ATOM      3  C3  N4B d   1       1.132   1.695   4.734  0.00  0.00     0.002 A 
ATOM      4  C4  N4B d   1      -0.040   1.576   5.466  0.00  0.00    -0.004 A 
ATOM      5  C5  N4B d   1      -0.408   0.364   5.972  0.00  0.00     0.002 A 
ATOM      6  C6  N4B d   1       0.351  -0.765   5.734  0.00  0.00     0.002 A 
ENDROOT
BRANCH   1   7
ATOM      7  C1' N4B d   1       2.247  -1.938   4.674  0.00  0.00     0.057 C 
BRANCH   7   8
ATOM      8  C2' N4B d   1       2.643  -2.626   5.977  0.00  0.00     0.009 C 
BRANCH   8   9
ATOM      9  C3' N4B d   1       4.116  -2.996   6.000  0.00  0.00     0.004 C 
ATOM     10  C4' N4B d   1       5.016  -1.797   5.972  0.00  0.00     0.003 C 
ENDBRANCH   8   9
ENDBRANCH   7   8
ENDBRANCH   1   7
TORSDOF 3
ENDMDL
