MODEL 1
REMARK minimizedAffinity -0.770327389
REMARK minimizedRMSD -1
REMARK  0 active torsions:
REMARK  status: ('A' for Active; 'I' for Inactive)
ROOT
ATOM      1  C   UNL d   1       2.648   4.108  -3.787  0.00  0.00     0.172 C 
ATOM      2  N   UNL d   1       3.766   4.619  -4.545  0.00  0.00    -0.070 N 
ATOM      3  C1  UNL d   1       4.899   3.920  -4.866  0.00  0.00    -0.004 A 
ATOM      4  C2  UNL d   1       5.719   4.755  -5.593  0.00  0.00    -0.047 A 
ATOM      5  C3  UNL d   1       5.056   6.000  -5.712  0.00  0.00    -0.047 A 
ATOM      6  C4  UNL d   1       3.849   5.887  -5.054  0.00  0.00    -0.004 A 
ENDROOT
TORSDOF 0
ENDMDL
