MODEL 1
REMARK minimizedAffinity 4.49827003
REMARK minimizedRMSD -1
REMARK  0 active torsions:
REMARK  status: ('A' for Active; 'I' for Inactive)
ROOT
ATOM      1  C   UNL d   1      -2.498  -4.917  -1.688  0.00  0.00     0.172 C 
ATOM      2  N   UNL d   1      -1.749  -4.270  -0.636  0.00  0.00    -0.070 N 
ATOM      3  C1  UNL d   1      -0.533  -4.679  -0.154  0.00  0.00    -0.004 A 
ATOM      4  C2  UNL d   1      -0.157  -3.801   0.839  0.00  0.00    -0.047 A 
ATOM      5  C3  UNL d   1      -1.181  -2.832   0.959  0.00  0.00    -0.047 A 
ATOM      6  C4  UNL d   1      -2.154  -3.147   0.035  0.00  0.00    -0.004 A 
ENDROOT
TORSDOF 0
ENDMDL
