MODEL 1
REMARK minimizedAffinity 2.95667124
REMARK minimizedRMSD -1
REMARK  0 active torsions:
REMARK  status: ('A' for Active; 'I' for Inactive)
ROOT
ATOM      1  C   UNL d   1       2.922   1.153   0.189  0.00  0.00     0.172 C 
ATOM      2  N   UNL d   1       1.803   0.822  -0.662  0.00  0.00    -0.070 N 
ATOM      3  C1  UNL d   1       1.221   1.659  -1.577  0.00  0.00    -0.004 A 
ATOM      4  C2  UNL d   1       0.191   0.971  -2.182  0.00  0.00    -0.047 A 
ATOM      5  C3  UNL d   1       0.152  -0.323  -1.611  0.00  0.00    -0.047 A 
ATOM      6  C4  UNL d   1       1.161  -0.388  -0.673  0.00  0.00    -0.004 A 
ENDROOT
TORSDOF 0
ENDMDL
