MODEL 1
REMARK minimizedAffinity -1.80525899
REMARK minimizedRMSD -1
REMARK  0 active torsions:
REMARK  status: ('A' for Active; 'I' for Inactive)
ROOT
ATOM      1  C   UNL d   1      -4.132   2.498   3.361  0.00  0.00     0.172 C 
ATOM      2  N   UNL d   1      -4.737   1.497   4.209  0.00  0.00    -0.070 N 
ATOM      3  C1  UNL d   1      -4.884   1.584   5.567  0.00  0.00    -0.004 A 
ATOM      4  C2  UNL d   1      -5.505   0.433   6.000  0.00  0.00    -0.047 A 
ATOM      5  C3  UNL d   1      -5.738  -0.375   4.861  0.00  0.00    -0.047 A 
ATOM      6  C4  UNL d   1      -5.253   0.308   3.766  0.00  0.00    -0.004 A 
ENDROOT
TORSDOF 0
ENDMDL
