MODEL 1
REMARK minimizedAffinity 0.407189667
REMARK minimizedRMSD -1
REMARK  0 active torsions:
REMARK  status: ('A' for Active; 'I' for Inactive)
ROOT
ATOM      1  C   UNL d   1      -2.002  -5.309  -1.998  0.00  0.00     0.172 C 
ATOM      2  N   UNL d   1      -1.585  -4.212  -1.157  0.00  0.00    -0.070 N 
ATOM      3  C1  UNL d   1      -0.516  -4.224  -0.301  0.00  0.00    -0.004 A 
ATOM      4  C2  UNL d   1      -0.455  -2.993   0.315  0.00  0.00    -0.047 A 
ATOM      5  C3  UNL d   1      -1.524  -2.214  -0.189  0.00  0.00    -0.047 A 
ATOM      6  C4  UNL d   1      -2.207  -2.993  -1.098  0.00  0.00    -0.004 A 
ENDROOT
TORSDOF 0
ENDMDL
