MODEL 1
REMARK minimizedAffinity 7.41592264
REMARK minimizedRMSD -1
REMARK  0 active torsions:
REMARK  status: ('A' for Active; 'I' for Inactive)
ROOT
ATOM      1  C   UNL d   1      -1.450  -4.930  -2.787  0.00  0.00     0.172 C 
ATOM      2  N   UNL d   1      -1.806  -4.477  -1.463  0.00  0.00    -0.070 N 
ATOM      3  C1  UNL d   1      -2.701  -5.086  -0.624  0.00  0.00    -0.004 A 
ATOM      4  C2  UNL d   1      -2.759  -4.348   0.538  0.00  0.00    -0.047 A 
ATOM      5  C3  UNL d   1      -1.869  -3.257   0.393  0.00  0.00    -0.047 A 
ATOM      6  C4  UNL d   1      -1.293  -3.361  -0.856  0.00  0.00    -0.004 A 
ENDROOT
TORSDOF 0
ENDMDL
