MODEL 1
REMARK minimizedAffinity 5.60017824
REMARK minimizedRMSD -1
REMARK  0 active torsions:
REMARK  status: ('A' for Active; 'I' for Inactive)
ROOT
ATOM      1  C   UNL d   1      -0.051   1.628  -2.778  0.00  0.00     0.172 C 
ATOM      2  N   UNL d   1       0.744   0.923  -1.799  0.00  0.00    -0.070 N 
ATOM      3  C1  UNL d   1       1.524   1.505  -0.836  0.00  0.00    -0.004 A 
ATOM      4  C2  UNL d   1       2.116   0.496  -0.107  0.00  0.00    -0.047 A 
ATOM      5  C3  UNL d   1       1.676  -0.734  -0.651  0.00  0.00    -0.047 A 
ATOM      6  C4  UNL d   1       0.828  -0.440  -1.697  0.00  0.00    -0.004 A 
ENDROOT
TORSDOF 0
ENDMDL
