MODEL 1
REMARK minimizedAffinity 1.42913222
REMARK minimizedRMSD -1
REMARK  0 active torsions:
REMARK  status: ('A' for Active; 'I' for Inactive)
ROOT
ATOM      1  C   UNL d   1       0.340  -0.691  -0.412  0.00  0.00     0.172 C 
ATOM      2  N   UNL d   1       1.152   0.395   0.083  0.00  0.00    -0.070 N 
ATOM      3  C1  UNL d   1       1.105   0.914   1.349  0.00  0.00    -0.004 A 
ATOM      4  C2  UNL d   1       2.032   1.931   1.423  0.00  0.00    -0.047 A 
ATOM      5  C3  UNL d   1       2.657   2.027   0.158  0.00  0.00    -0.047 A 
ATOM      6  C4  UNL d   1       2.094   1.064  -0.653  0.00  0.00    -0.004 A 
ENDROOT
TORSDOF 0
ENDMDL
