MODEL 1
REMARK minimizedAffinity 4.18320036
REMARK minimizedRMSD -1
REMARK  0 active torsions:
REMARK  status: ('A' for Active; 'I' for Inactive)
ROOT
ATOM      1  C   UNL d   1       2.496   0.360  -1.013  0.00  0.00     0.172 C 
ATOM      2  N   UNL d   1       1.513   0.629  -2.036  0.00  0.00    -0.070 N 
ATOM      3  C1  UNL d   1       1.285   1.844  -2.624  0.00  0.00    -0.004 A 
ATOM      4  C2  UNL d   1       0.272   1.683  -3.545  0.00  0.00    -0.047 A 
ATOM      5  C3  UNL d   1      -0.123   0.325  -3.508  0.00  0.00    -0.047 A 
ATOM      6  C4  UNL d   1       0.662  -0.305  -2.565  0.00  0.00    -0.004 A 
ENDROOT
TORSDOF 0
ENDMDL
