MODEL 1
REMARK minimizedAffinity 2.93452501
REMARK minimizedRMSD -1
REMARK  0 active torsions:
REMARK  status: ('A' for Active; 'I' for Inactive)
ROOT
ATOM      1  C   UNL d   1       1.467   3.881   0.334  0.00  0.00     0.172 C 
ATOM      2  N   UNL d   1       1.161   2.854   1.301  0.00  0.00    -0.070 N 
ATOM      3  C1  UNL d   1      -0.077   2.598   1.828  0.00  0.00    -0.004 A 
ATOM      4  C2  UNL d   1       0.049   1.546   2.710  0.00  0.00    -0.047 A 
ATOM      5  C3  UNL d   1       1.410   1.157   2.713  0.00  0.00    -0.047 A 
ATOM      6  C4  UNL d   1       2.075   1.983   1.832  0.00  0.00    -0.004 A 
ENDROOT
TORSDOF 0
ENDMDL
