MODEL 1
REMARK minimizedAffinity 0.747053564
REMARK minimizedRMSD -1
REMARK  0 active torsions:
REMARK  status: ('A' for Active; 'I' for Inactive)
ROOT
ATOM      1  C   UNL d   1       2.974   1.619  -0.289  0.00  0.00     0.172 C 
ATOM      2  N   UNL d   1       2.007   1.005  -1.168  0.00  0.00    -0.070 N 
ATOM      3  C1  UNL d   1       1.698  -0.328  -1.209  0.00  0.00    -0.004 A 
ATOM      4  C2  UNL d   1       0.733  -0.508  -2.176  0.00  0.00    -0.047 A 
ATOM      5  C3  UNL d   1       0.453   0.760  -2.737  0.00  0.00    -0.047 A 
ATOM      6  C4  UNL d   1       1.256   1.679  -2.094  0.00  0.00    -0.004 A 
ENDROOT
TORSDOF 0
ENDMDL
