MODEL 1
REMARK minimizedAffinity -0.638299346
REMARK minimizedRMSD -1
REMARK  0 active torsions:
REMARK  status: ('A' for Active; 'I' for Inactive)
ROOT
ATOM      1  C   UNL d   1       1.167   1.832   2.004  0.00  0.00     0.172 C 
ATOM      2  N   UNL d   1       1.035   0.509   1.440  0.00  0.00    -0.070 N 
ATOM      3  C1  UNL d   1       0.222  -0.484   1.917  0.00  0.00    -0.004 A 
ATOM      4  C2  UNL d   1       0.383  -1.586   1.105  0.00  0.00    -0.047 A 
ATOM      5  C3  UNL d   1       1.326  -1.244   0.108  0.00  0.00    -0.047 A 
ATOM      6  C4  UNL d   1       1.713   0.059   0.339  0.00  0.00    -0.004 A 
ENDROOT
TORSDOF 0
ENDMDL
