MODEL 1
REMARK minimizedAffinity 5.9519577
REMARK minimizedRMSD -1
REMARK  0 active torsions:
REMARK  status: ('A' for Active; 'I' for Inactive)
ROOT
ATOM      1  C   UNL d   1      -2.259  -5.628  -3.755  0.00  0.00     0.172 C 
ATOM      2  N   UNL d   1      -3.597  -5.260  -3.355  0.00  0.00    -0.070 N 
ATOM      3  C1  UNL d   1      -3.940  -4.130  -2.662  0.00  0.00    -0.004 A 
ATOM      4  C2  UNL d   1      -5.306  -4.146  -2.478  0.00  0.00    -0.047 A 
ATOM      5  C3  UNL d   1      -5.801  -5.327  -3.080  0.00  0.00    -0.047 A 
ATOM      6  C4  UNL d   1      -4.721  -5.998  -3.615  0.00  0.00    -0.004 A 
ENDROOT
TORSDOF 0
ENDMDL
