MODEL 1
REMARK minimizedAffinity 4.00077248
REMARK minimizedRMSD -1
REMARK  0 active torsions:
REMARK  status: ('A' for Active; 'I' for Inactive)
ROOT
ATOM      1  C   UNL d   1       2.392  -0.092  -0.756  0.00  0.00     0.172 C 
ATOM      2  N   UNL d   1       2.143   0.966   0.195  0.00  0.00    -0.070 N 
ATOM      3  C1  UNL d   1       2.453   2.288   0.019  0.00  0.00    -0.004 A 
ATOM      4  C2  UNL d   1       2.057   2.969   1.149  0.00  0.00    -0.047 A 
ATOM      5  C3  UNL d   1       1.489   2.023   2.036  0.00  0.00    -0.047 A 
ATOM      6  C4  UNL d   1       1.556   0.791   1.420  0.00  0.00    -0.004 A 
ENDROOT
TORSDOF 0
ENDMDL
