MODEL 1
REMARK minimizedAffinity 0.438116789
REMARK minimizedRMSD -1
REMARK  0 active torsions:
REMARK  status: ('A' for Active; 'I' for Inactive)
ROOT
ATOM      1  C   UNL d   1       1.925  -0.020   0.114  0.00  0.00     0.172 C 
ATOM      2  N   UNL d   1       1.232   0.812   1.069  0.00  0.00    -0.070 N 
ATOM      3  C1  UNL d   1       1.794   1.819   1.807  0.00  0.00    -0.004 A 
ATOM      4  C2  UNL d   1       0.805   2.368   2.594  0.00  0.00    -0.047 A 
ATOM      5  C3  UNL d   1      -0.393   1.666   2.320  0.00  0.00    -0.047 A 
ATOM      6  C4  UNL d   1      -0.100   0.708   1.373  0.00  0.00    -0.004 A 
ENDROOT
TORSDOF 0
ENDMDL
