MODEL 1
REMARK minimizedAffinity 0.878444493
REMARK minimizedRMSD -1
REMARK  0 active torsions:
REMARK  status: ('A' for Active; 'I' for Inactive)
ROOT
ATOM      1  C   UNL d   1      -0.496   2.197  -2.945  0.00  0.00     0.172 C 
ATOM      2  N   UNL d   1       0.195   1.059  -2.386  0.00  0.00    -0.070 N 
ATOM      3  C1  UNL d   1       0.351   0.796  -1.051  0.00  0.00    -0.004 A 
ATOM      4  C2  UNL d   1       1.064  -0.377  -0.932  0.00  0.00    -0.047 A 
ATOM      5  C3  UNL d   1       1.348  -0.835  -2.241  0.00  0.00    -0.047 A 
ATOM      6  C4  UNL d   1       0.799   0.073  -3.122  0.00  0.00    -0.004 A 
ENDROOT
TORSDOF 0
ENDMDL
