MODEL 1
REMARK minimizedAffinity 3.30564833
REMARK minimizedRMSD -1
REMARK  0 active torsions:
REMARK  status: ('A' for Active; 'I' for Inactive)
ROOT
ATOM      1  C   UNL d   1       1.922  -0.053  -0.467  0.00  0.00     0.172 C 
ATOM      2  N   UNL d   1       1.155   0.259  -1.650  0.00  0.00    -0.070 N 
ATOM      3  C1  UNL d   1       1.000   1.506  -2.195  0.00  0.00    -0.004 A 
ATOM      4  C2  UNL d   1       0.202   1.382  -3.311  0.00  0.00    -0.047 A 
ATOM      5  C3  UNL d   1      -0.135   0.014  -3.442  0.00  0.00    -0.047 A 
ATOM      6  C4  UNL d   1       0.469  -0.658  -2.400  0.00  0.00    -0.004 A 
ENDROOT
TORSDOF 0
ENDMDL
