MODEL 1
REMARK minimizedAffinity -0.784610093
REMARK minimizedRMSD -1
REMARK  0 active torsions:
REMARK  status: ('A' for Active; 'I' for Inactive)
ROOT
ATOM      1  C   UNL d   1      -3.118  -4.693  -2.611  0.00  0.00     0.172 C 
ATOM      2  N   UNL d   1      -2.329  -5.074  -1.462  0.00  0.00    -0.070 N 
ATOM      3  C1  UNL d   1      -2.618  -4.769  -0.159  0.00  0.00    -0.004 A 
ATOM      4  C2  UNL d   1      -1.627  -5.310   0.631  0.00  0.00    -0.047 A 
ATOM      5  C3  UNL d   1      -0.710  -5.963  -0.228  0.00  0.00    -0.047 A 
ATOM      6  C4  UNL d   1      -1.169  -5.800  -1.518  0.00  0.00    -0.004 A 
ENDROOT
TORSDOF 0
ENDMDL
