MODEL 1
REMARK minimizedAffinity 1.66380513
REMARK minimizedRMSD -1
REMARK  0 active torsions:
REMARK  status: ('A' for Active; 'I' for Inactive)
ROOT
ATOM      1  C   UNL d   1       2.406   1.854   2.444  0.00  0.00     0.172 C 
ATOM      2  N   UNL d   1       1.008   1.511   2.322  0.00  0.00    -0.070 N 
ATOM      3  C1  UNL d   1      -0.025   2.401   2.202  0.00  0.00    -0.004 A 
ATOM      4  C2  UNL d   1      -1.196   1.679   2.111  0.00  0.00    -0.047 A 
ATOM      5  C3  UNL d   1      -0.854   0.308   2.180  0.00  0.00    -0.047 A 
ATOM      6  C4  UNL d   1       0.517   0.232   2.310  0.00  0.00    -0.004 A 
ENDROOT
TORSDOF 0
ENDMDL
