MODEL 1
REMARK minimizedAffinity -2.51868486
REMARK minimizedRMSD -1
REMARK  1 active torsions:
REMARK  status: ('A' for Active; 'I' for Inactive)
REMARK    1  A    between atoms: C1_2  and  C2_3 
ROOT
ATOM      1  C2  UNL d   1      -0.405  -1.015   4.000  0.00  0.00    -0.076 A 
ATOM      2  C3  UNL d   1      -1.368  -0.379   3.197  0.00  0.00     0.004 A 
ATOM      3  C4  UNL d   1      -1.006   0.266   2.016  0.00  0.00    -0.003 A 
ATOM      4  C5  UNL d   1       0.327   0.286   1.618  0.00  0.00     0.000 A 
ATOM      5  C6  UNL d   1       1.293  -0.355   2.393  0.00  0.00     0.000 A 
ATOM      6  C7  UNL d   1       0.942  -1.024   3.578  0.00  0.00    -0.073 A 
ATOM      7  C8  UNL d   1       2.026  -1.693   4.378  0.00  0.00     0.078 C 
ENDROOT
BRANCH   1   8
ATOM      8  C1  UNL d   1      -0.854  -1.675   5.284  0.00  0.00     0.053 C 
ATOM      9  C   UNL d   1      -1.977  -2.676   5.062  0.00  0.00     0.018 C 
ENDBRANCH   1   8
TORSDOF 1
ENDMDL
