MODEL 1
REMARK minimizedAffinity 11.2483482
REMARK minimizedRMSD -1
REMARK  1 active torsions:
REMARK  status: ('A' for Active; 'I' for Inactive)
REMARK    1  A    between atoms: C1_2  and  C2_3 
ROOT
ATOM      1  C2  UNL d   1       0.292  -0.141   1.046  0.00  0.00    -0.076 A 
ATOM      2  C3  UNL d   1       0.051  -1.266   0.238  0.00  0.00     0.004 A 
ATOM      3  C4  UNL d   1      -1.202  -1.483  -0.334  0.00  0.00    -0.003 A 
ATOM      4  C5  UNL d   1      -2.234  -0.579  -0.107  0.00  0.00     0.000 A 
ATOM      5  C6  UNL d   1      -2.007   0.551   0.678  0.00  0.00     0.000 A 
ATOM      6  C7  UNL d   1      -0.746   0.794   1.248  0.00  0.00    -0.073 A 
ATOM      7  C8  UNL d   1      -0.560   2.025   2.091  0.00  0.00     0.078 C 
ENDROOT
BRANCH   1   8
ATOM      8  C1  UNL d   1       1.662   0.028   1.662  0.00  0.00     0.053 C 
ATOM      9  C   UNL d   1       2.600   0.839   0.781  0.00  0.00     0.018 C 
ENDBRANCH   1   8
TORSDOF 1
ENDMDL
