MODEL 1
REMARK minimizedAffinity 1.36459494
REMARK minimizedRMSD -1
REMARK  1 active torsions:
REMARK  status: ('A' for Active; 'I' for Inactive)
REMARK    1  A    between atoms: C1_2  and  C2_3 
ROOT
ATOM      1  C2  UNL d   1       0.774   1.036   2.608  0.00  0.00    -0.076 A 
ATOM      2  C3  UNL d   1       0.645  -0.347   2.389  0.00  0.00     0.004 A 
ATOM      3  C4  UNL d   1      -0.611  -0.939   2.266  0.00  0.00    -0.003 A 
ATOM      4  C5  UNL d   1      -1.758  -0.157   2.360  0.00  0.00     0.000 A 
ATOM      5  C6  UNL d   1      -1.647   1.218   2.559  0.00  0.00     0.000 A 
ATOM      6  C7  UNL d   1      -0.388   1.833   2.669  0.00  0.00    -0.073 A 
ATOM      7  C8  UNL d   1      -0.328   3.320   2.890  0.00  0.00     0.078 C 
ENDROOT
BRANCH   1   8
ATOM      8  C1  UNL d   1       2.162   1.618   2.761  0.00  0.00     0.053 C 
ATOM      9  C   UNL d   1       2.852   1.152   4.033  0.00  0.00     0.018 C 
ENDBRANCH   1   8
TORSDOF 1
ENDMDL
