MODEL 1
REMARK minimizedAffinity 11.128974
REMARK minimizedRMSD -1
REMARK  1 active torsions:
REMARK  status: ('A' for Active; 'I' for Inactive)
REMARK    1  A    between atoms: C1_2  and  C2_3 
ROOT
ATOM      1  C2  UNL d   1      -2.943  -0.127  -0.433  0.00  0.00    -0.076 A 
ATOM      2  C3  UNL d   1      -1.985   0.272  -1.381  0.00  0.00     0.004 A 
ATOM      3  C4  UNL d   1      -0.743   0.764  -0.982  0.00  0.00    -0.003 A 
ATOM      4  C5  UNL d   1      -0.439   0.864   0.371  0.00  0.00     0.000 A 
ATOM      5  C6  UNL d   1      -1.371   0.455   1.325  0.00  0.00     0.000 A 
ATOM      6  C7  UNL d   1      -2.621  -0.058   0.939  0.00  0.00    -0.073 A 
ATOM      7  C8  UNL d   1      -3.591  -0.478   2.010  0.00  0.00     0.078 C 
ENDROOT
BRANCH   1   8
ATOM      8  C1  UNL d   1      -4.283  -0.627  -0.925  0.00  0.00     0.053 C 
ATOM      9  C   UNL d   1      -4.283  -2.124  -1.195  0.00  0.00     0.018 C 
ENDBRANCH   1   8
TORSDOF 1
ENDMDL
