MODEL 1
REMARK minimizedAffinity 9.68951797
REMARK minimizedRMSD -1
REMARK  1 active torsions:
REMARK  status: ('A' for Active; 'I' for Inactive)
REMARK    1  A    between atoms: C1_2  and  C2_3 
ROOT
ATOM      1  C2  UNL d   1       1.098  -0.510  -0.009  0.00  0.00    -0.076 A 
ATOM      2  C3  UNL d   1       0.088  -0.778  -0.949  0.00  0.00     0.004 A 
ATOM      3  C4  UNL d   1      -1.233  -0.403  -0.709  0.00  0.00    -0.003 A 
ATOM      4  C5  UNL d   1      -1.565   0.246   0.475  0.00  0.00     0.000 A 
ATOM      5  C6  UNL d   1      -0.573   0.535   1.411  0.00  0.00     0.000 A 
ATOM      6  C7  UNL d   1       0.766   0.179   1.177  0.00  0.00    -0.073 A 
ATOM      7  C8  UNL d   1       1.795   0.510   2.224  0.00  0.00     0.078 C 
ENDROOT
BRANCH   1   8
ATOM      8  C1  UNL d   1       2.508  -0.964  -0.312  0.00  0.00     0.053 C 
ATOM      9  C   UNL d   1       3.384   0.164  -0.834  0.00  0.00     0.018 C 
ENDBRANCH   1   8
TORSDOF 1
ENDMDL
