MODEL 1
REMARK minimizedAffinity 5.89484501
REMARK minimizedRMSD -1
REMARK  1 active torsions:
REMARK  status: ('A' for Active; 'I' for Inactive)
REMARK    1  A    between atoms: C1_2  and  C2_3 
ROOT
ATOM      1  C2  UNL d   1      -1.815  -0.330   1.638  0.00  0.00    -0.076 A 
ATOM      2  C3  UNL d   1      -1.984  -1.084   0.463  0.00  0.00     0.004 A 
ATOM      3  C4  UNL d   1      -0.955  -1.199  -0.469  0.00  0.00    -0.003 A 
ATOM      4  C5  UNL d   1       0.261  -0.563  -0.242  0.00  0.00     0.000 A 
ATOM      5  C6  UNL d   1       0.452   0.174   0.927  0.00  0.00     0.000 A 
ATOM      6  C7  UNL d   1      -0.570   0.287   1.885  0.00  0.00    -0.073 A 
ATOM      7  C8  UNL d   1      -0.312   1.100   3.124  0.00  0.00     0.078 C 
ENDROOT
BRANCH   1   8
ATOM      8  C1  UNL d   1      -2.977  -0.218   2.600  0.00  0.00     0.053 C 
ATOM      9  C   UNL d   1      -3.766  -1.513   2.713  0.00  0.00     0.018 C 
ENDBRANCH   1   8
TORSDOF 1
ENDMDL
