MODEL 1
REMARK minimizedAffinity -4.13361311
REMARK minimizedRMSD -1
REMARK  0 active torsions:
REMARK  status: ('A' for Active; 'I' for Inactive)
ROOT
ATOM      1  C   UNL d   1       1.185  -1.404  -0.724  0.00  0.00     0.023 A 
ATOM      2  C1  UNL d   1       1.347  -0.440   0.271  0.00  0.00     0.003 A 
ATOM      3  C2  UNL d   1       0.283   0.397   0.614  0.00  0.00     0.048 A 
ATOM      4  C3  UNL d   1      -0.940   0.263  -0.042  0.00  0.00     0.023 A 
ATOM      5  C4  UNL d   1      -1.107  -0.701  -1.037  0.00  0.00     0.048 A 
ATOM      6  C5  UNL d   1      -0.040  -1.535  -1.377  0.00  0.00     0.003 A 
ATOM      7  I   UNL d   1      -2.526   1.507   0.467  0.00  0.00    -0.146 I 
ENDROOT
TORSDOF 0
ENDMDL
