MODEL 1
REMARK minimizedAffinity -4.14129877
REMARK minimizedRMSD -1
REMARK  0 active torsions:
REMARK  status: ('A' for Active; 'I' for Inactive)
ROOT
ATOM      1  C   UNL d   1       3.722  -0.482   0.861  0.00  0.00     0.023 A 
ATOM      2  C1  UNL d   1       2.823  -1.524   0.627  0.00  0.00     0.003 A 
ATOM      3  C2  UNL d   1       1.536  -1.246   0.161  0.00  0.00     0.048 A 
ATOM      4  C3  UNL d   1       1.155   0.075  -0.071  0.00  0.00     0.023 A 
ATOM      5  C4  UNL d   1       2.051   1.120   0.160  0.00  0.00     0.048 A 
ATOM      6  C5  UNL d   1       3.336   0.838   0.627  0.00  0.00     0.003 A 
ATOM      7  I   UNL d   1      -0.759   0.491  -0.766  0.00  0.00    -0.146 I 
ENDROOT
TORSDOF 0
ENDMDL
