MODEL 1
REMARK minimizedAffinity -2.27056789
REMARK minimizedRMSD -1
REMARK  0 active torsions:
REMARK  status: ('A' for Active; 'I' for Inactive)
ROOT
ATOM      1  C   UNL d   1       2.896  -2.106   1.026  0.00  0.00     0.023 A 
ATOM      2  C1  UNL d   1       2.200  -2.271  -0.172  0.00  0.00     0.003 A 
ATOM      3  C2  UNL d   1       1.282  -1.304  -0.586  0.00  0.00     0.048 A 
ATOM      4  C3  UNL d   1       1.065  -0.174   0.201  0.00  0.00     0.023 A 
ATOM      5  C4  UNL d   1       1.760  -0.004   1.400  0.00  0.00     0.048 A 
ATOM      6  C5  UNL d   1       2.676  -0.974   1.811  0.00  0.00     0.003 A 
ATOM      7  I   UNL d   1      -0.300   1.267  -0.414  0.00  0.00    -0.146 I 
ENDROOT
TORSDOF 0
ENDMDL
