MODEL 1
REMARK minimizedAffinity 7.29030085
REMARK minimizedRMSD -1
REMARK  2 active torsions:
REMARK  status: ('A' for Active; 'I' for Inactive)
REMARK    1  A    between atoms: C1_2  and  C2_3 
REMARK    2  A    between atoms: C2_3  and  C3_4 
ROOT
ATOM      1  C3  UNL d   1       4.156   5.514  -3.394  0.00  0.00    -0.075 A 
ATOM      2  C4  UNL d   1       2.856   5.097  -3.075  0.00  0.00     0.002 A 
ATOM      3  C5  UNL d   1       2.414   5.103  -1.752  0.00  0.00     0.002 A 
ATOM      4  C6  UNL d   1       3.268   5.516  -0.732  0.00  0.00    -0.004 A 
ATOM      5  C7  UNL d   1       4.568   5.917  -1.035  0.00  0.00     0.002 A 
ATOM      6  C8  UNL d   1       5.010   5.916  -2.359  0.00  0.00     0.002 A 
ENDROOT
BRANCH   1   7
ATOM      7  C2  UNL d   1       4.630   5.537  -4.828  0.00  0.00     0.056 C 
BRANCH   7   8
ATOM      8  C1  UNL d   1       6.000   4.885  -5.043  0.00  0.00     0.007 C 
ATOM      9  C   UNL d   1       5.913   3.398  -5.361  0.00  0.00     0.009 C 
ENDBRANCH   7   8
ENDBRANCH   1   7
TORSDOF 2
ENDMDL
