MODEL 1
REMARK minimizedAffinity 6.96655273
REMARK minimizedRMSD -1
REMARK  2 active torsions:
REMARK  status: ('A' for Active; 'I' for Inactive)
REMARK    1  A    between atoms: C1_2  and  C2_3 
REMARK    2  A    between atoms: C2_3  and  C3_4 
ROOT
ATOM      1  C3  UNL d   1      -5.271  -3.187  -5.069  0.00  0.00    -0.075 A 
ATOM      2  C4  UNL d   1      -4.573  -3.849  -4.048  0.00  0.00     0.002 A 
ATOM      3  C5  UNL d   1      -4.579  -5.242  -3.975  0.00  0.00     0.002 A 
ATOM      4  C6  UNL d   1      -5.289  -5.989  -4.912  0.00  0.00    -0.004 A 
ATOM      5  C7  UNL d   1      -6.000  -5.342  -5.920  0.00  0.00     0.002 A 
ATOM      6  C8  UNL d   1      -5.992  -3.948  -5.999  0.00  0.00     0.002 A 
ENDROOT
BRANCH   1   7
ATOM      7  C2  UNL d   1      -5.245  -1.681  -5.171  0.00  0.00     0.056 C 
BRANCH   7   8
ATOM      8  C1  UNL d   1      -3.991  -1.036  -4.570  0.00  0.00     0.007 C 
ATOM      9  C   UNL d   1      -4.183   0.432  -4.213  0.00  0.00     0.009 C 
ENDBRANCH   7   8
ENDBRANCH   1   7
TORSDOF 2
ENDMDL
