MODEL 1
REMARK minimizedAffinity 13.2086496
REMARK minimizedRMSD -1
REMARK  2 active torsions:
REMARK  status: ('A' for Active; 'I' for Inactive)
REMARK    1  A    between atoms: C1_2  and  C2_3 
REMARK    2  A    between atoms: C2_3  and  C3_4 
ROOT
ATOM      1  C3  UNL d   1      -3.240   2.352  -0.485  0.00  0.00    -0.075 A 
ATOM      2  C4  UNL d   1      -3.664   2.910  -1.700  0.00  0.00     0.002 A 
ATOM      3  C5  UNL d   1      -3.601   2.169  -2.880  0.00  0.00     0.002 A 
ATOM      4  C6  UNL d   1      -3.104   0.867  -2.864  0.00  0.00    -0.004 A 
ATOM      5  C7  UNL d   1      -2.664   0.309  -1.665  0.00  0.00     0.002 A 
ATOM      6  C8  UNL d   1      -2.731   1.047  -0.482  0.00  0.00     0.002 A 
ENDROOT
BRANCH   1   7
ATOM      7  C2  UNL d   1      -3.333   3.139   0.800  0.00  0.00     0.056 C 
BRANCH   7   8
ATOM      8  C1  UNL d   1      -4.631   2.905   1.582  0.00  0.00     0.007 C 
ATOM      9  C   UNL d   1      -5.709   3.936   1.277  0.00  0.00     0.009 C 
ENDBRANCH   7   8
ENDBRANCH   1   7
TORSDOF 2
ENDMDL
