MODEL 1
REMARK minimizedAffinity 9.00346279
REMARK minimizedRMSD -1
REMARK  2 active torsions:
REMARK  status: ('A' for Active; 'I' for Inactive)
REMARK    1  A    between atoms: C1_2  and  C2_3 
REMARK    2  A    between atoms: C2_3  and  C3_4 
ROOT
ATOM      1  C3  UNL d   1       2.368  -1.496   2.611  0.00  0.00    -0.075 A 
ATOM      2  C4  UNL d   1       1.162  -2.173   2.373  0.00  0.00     0.002 A 
ATOM      3  C5  UNL d   1       0.163  -1.588   1.595  0.00  0.00     0.002 A 
ATOM      4  C6  UNL d   1       0.351  -0.318   1.054  0.00  0.00    -0.004 A 
ATOM      5  C7  UNL d   1       1.538   0.370   1.297  0.00  0.00     0.002 A 
ATOM      6  C8  UNL d   1       2.541  -0.214   2.072  0.00  0.00     0.002 A 
ENDROOT
BRANCH   1   7
ATOM      7  C2  UNL d   1       3.465  -2.135   3.428  0.00  0.00     0.056 C 
BRANCH   7   8
ATOM      8  C1  UNL d   1       4.806  -2.242   2.696  0.00  0.00     0.007 C 
ATOM      9  C   UNL d   1       6.000  -2.321   3.639  0.00  0.00     0.009 C 
ENDBRANCH   7   8
ENDBRANCH   1   7
TORSDOF 2
ENDMDL
