MODEL 1
REMARK minimizedAffinity 8.3387394
REMARK minimizedRMSD -1
REMARK  2 active torsions:
REMARK  status: ('A' for Active; 'I' for Inactive)
REMARK    1  A    between atoms: C1_2  and  C2_3 
REMARK    2  A    between atoms: C2_3  and  C3_4 
ROOT
ATOM      1  C3  UNL d   1       2.992  -3.015   3.928  0.00  0.00    -0.075 A 
ATOM      2  C4  UNL d   1       1.752  -3.648   3.763  0.00  0.00     0.002 A 
ATOM      3  C5  UNL d   1       0.742  -3.045   3.013  0.00  0.00     0.002 A 
ATOM      4  C6  UNL d   1       0.955  -1.799   2.428  0.00  0.00    -0.004 A 
ATOM      5  C7  UNL d   1       2.178  -1.152   2.599  0.00  0.00     0.002 A 
ATOM      6  C8  UNL d   1       3.191  -1.756   3.345  0.00  0.00     0.002 A 
ENDROOT
BRANCH   1   7
ATOM      7  C2  UNL d   1       4.100  -3.676   4.713  0.00  0.00     0.056 C 
BRANCH   7   8
ATOM      8  C1  UNL d   1       5.501  -3.162   4.369  0.00  0.00     0.007 C 
ATOM      9  C   UNL d   1       5.998  -3.638   3.010  0.00  0.00     0.009 C 
ENDBRANCH   7   8
ENDBRANCH   1   7
TORSDOF 2
ENDMDL
