MODEL 1
REMARK minimizedAffinity -3.87610745
REMARK minimizedRMSD -1
REMARK  0 active torsions:
REMARK  status: ('A' for Active; 'I' for Inactive)
ROOT
ATOM      1  C   UNL d   1      -1.697   1.766   1.671  0.00  0.00     0.020 A 
ATOM      2  C1  UNL d   1      -1.292   0.434   1.753  0.00  0.00     0.020 A 
ATOM      3  C2  UNL d   1      -0.314  -0.053   0.884  0.00  0.00     0.034 A 
ATOM      4  C3  UNL d   1       0.263   0.792  -0.071  0.00  0.00     0.017 A 
ATOM      5  C4  UNL d   1      -0.143   2.128  -0.152  0.00  0.00     0.017 A 
ATOM      6  C5  UNL d   1      -1.123   2.611   0.721  0.00  0.00     0.034 A 
ATOM      7 Cl   UNL d   1       0.523   3.231  -1.304  0.00  0.00    -0.070 Cl
ATOM      8 Cl1  UNL d   1       1.467   0.122  -1.114  0.00  0.00    -0.070 Cl
ENDROOT
TORSDOF 0
ENDMDL
