MODEL 1
REMARK minimizedAffinity -3.73391724
REMARK minimizedRMSD -1
REMARK  0 active torsions:
REMARK  status: ('A' for Active; 'I' for Inactive)
ROOT
ATOM      1  C   UNL d   1      -1.805   1.960   1.209  0.00  0.00     0.020 A 
ATOM      2  C1  UNL d   1      -1.567   2.036  -0.163  0.00  0.00     0.020 A 
ATOM      3  C2  UNL d   1      -0.715   1.114  -0.775  0.00  0.00     0.034 A 
ATOM      4  C3  UNL d   1      -0.099   0.113  -0.016  0.00  0.00     0.017 A 
ATOM      5  C4  UNL d   1      -0.339   0.038   1.360  0.00  0.00     0.017 A 
ATOM      6  C5  UNL d   1      -1.192   0.963   1.969  0.00  0.00     0.034 A 
ATOM      7 Cl   UNL d   1       0.386  -1.170   2.363  0.00  0.00    -0.070 Cl
ATOM      8 Cl1  UNL d   1       0.942  -0.994  -0.840  0.00  0.00    -0.070 Cl
ENDROOT
TORSDOF 0
ENDMDL
