MODEL 1
REMARK minimizedAffinity -2.91985536
REMARK minimizedRMSD -1
REMARK  0 active torsions:
REMARK  status: ('A' for Active; 'I' for Inactive)
ROOT
ATOM      1  C   UNL d   1      -0.349  -0.947   0.992  0.00  0.00     0.020 A 
ATOM      2  C1  UNL d   1       0.314  -0.722  -0.214  0.00  0.00     0.020 A 
ATOM      3  C2  UNL d   1       0.191   0.511  -0.858  0.00  0.00     0.034 A 
ATOM      4  C3  UNL d   1      -0.597   1.523  -0.297  0.00  0.00     0.017 A 
ATOM      5  C4  UNL d   1      -1.262   1.296   0.913  0.00  0.00     0.017 A 
ATOM      6  C5  UNL d   1      -1.135   0.060   1.554  0.00  0.00     0.034 A 
ATOM      7 Cl   UNL d   1      -2.251   2.496   1.667  0.00  0.00    -0.070 Cl
ATOM      8 Cl1  UNL d   1      -0.703   3.023  -1.148  0.00  0.00    -0.070 Cl
ENDROOT
TORSDOF 0
ENDMDL
