MODEL 1
REMARK minimizedAffinity -2.05572367
REMARK minimizedRMSD -1
REMARK  0 active torsions:
REMARK  status: ('A' for Active; 'I' for Inactive)
ROOT
ATOM      1  C   UNL d   1      -1.238   1.971   1.631  0.00  0.00     0.020 A 
ATOM      2  C1  UNL d   1      -1.229   2.015   0.237  0.00  0.00     0.020 A 
ATOM      3  C2  UNL d   1      -0.625   0.986  -0.490  0.00  0.00     0.034 A 
ATOM      4  C3  UNL d   1      -0.029  -0.090   0.176  0.00  0.00     0.017 A 
ATOM      5  C4  UNL d   1      -0.039  -0.133   1.575  0.00  0.00     0.017 A 
ATOM      6  C5  UNL d   1      -0.644   0.899   2.298  0.00  0.00     0.034 A 
ATOM      7 Cl   UNL d   1       0.676  -1.429   2.468  0.00  0.00    -0.070 Cl
ATOM      8 Cl1  UNL d   1       0.698  -1.327  -0.786  0.00  0.00    -0.070 Cl
ENDROOT
TORSDOF 0
ENDMDL
