MODEL 1
REMARK minimizedAffinity -3.37270713
REMARK minimizedRMSD -1
REMARK  0 active torsions:
REMARK  status: ('A' for Active; 'I' for Inactive)
ROOT
ATOM      1  C   UNL d   1       0.339  -1.020   1.180  0.00  0.00     0.020 A 
ATOM      2  C1  UNL d   1       1.017  -0.853  -0.028  0.00  0.00     0.020 A 
ATOM      3  C2  UNL d   1       0.678   0.202  -0.877  0.00  0.00     0.034 A 
ATOM      4  C3  UNL d   1      -0.341   1.094  -0.521  0.00  0.00     0.017 A 
ATOM      5  C4  UNL d   1      -1.020   0.925   0.691  0.00  0.00     0.017 A 
ATOM      6  C5  UNL d   1      -0.677  -0.133   1.538  0.00  0.00     0.034 A 
ATOM      7 Cl   UNL d   1      -2.288   1.984   1.198  0.00  0.00    -0.070 Cl
ATOM      8 Cl1  UNL d   1      -0.707   2.376  -1.620  0.00  0.00    -0.070 Cl
ENDROOT
TORSDOF 0
ENDMDL
