MODEL 1
REMARK minimizedAffinity -1.55799723
REMARK minimizedRMSD -1
REMARK  0 active torsions:
REMARK  status: ('A' for Active; 'I' for Inactive)
ROOT
ATOM      1  C   UNL d   1      -0.003  -1.418   0.618  0.00  0.00     0.020 A 
ATOM      2  C1  UNL d   1       0.659  -1.190  -0.588  0.00  0.00     0.020 A 
ATOM      3  C2  UNL d   1       0.749   0.106  -1.100  0.00  0.00     0.034 A 
ATOM      4  C3  UNL d   1       0.176   1.179  -0.407  0.00  0.00     0.017 A 
ATOM      5  C4  UNL d   1      -0.488   0.949   0.804  0.00  0.00     0.017 A 
ATOM      6  C5  UNL d   1      -0.575  -0.351   1.312  0.00  0.00     0.034 A 
ATOM      7 Cl   UNL d   1      -1.219   2.221   1.716  0.00  0.00    -0.070 Cl
ATOM      8 Cl1  UNL d   1       0.326   2.755  -1.099  0.00  0.00    -0.070 Cl
ENDROOT
TORSDOF 0
ENDMDL
