MODEL 1
REMARK minimizedAffinity -3.93898034
REMARK minimizedRMSD -1
REMARK  0 active torsions:
REMARK  status: ('A' for Active; 'I' for Inactive)
ROOT
ATOM      1  C   UNL d   1      -1.363   1.943  -0.050  0.00  0.00     0.020 A 
ATOM      2  C1  UNL d   1      -1.721   1.673   1.270  0.00  0.00     0.020 A 
ATOM      3  C2  UNL d   1      -1.182   0.565   1.927  0.00  0.00     0.034 A 
ATOM      4  C3  UNL d   1      -0.282  -0.277   1.265  0.00  0.00     0.017 A 
ATOM      5  C4  UNL d   1       0.076  -0.006  -0.061  0.00  0.00     0.017 A 
ATOM      6  C5  UNL d   1      -0.466   1.105  -0.714  0.00  0.00     0.034 A 
ATOM      7 Cl   UNL d   1       1.180  -1.000  -0.944  0.00  0.00    -0.070 Cl
ATOM      8 Cl1  UNL d   1       0.346  -1.629   2.139  0.00  0.00    -0.070 Cl
ENDROOT
TORSDOF 0
ENDMDL
