MODEL 1
REMARK minimizedAffinity -2.3350482
REMARK minimizedRMSD -1
REMARK  0 active torsions:
REMARK  status: ('A' for Active; 'I' for Inactive)
ROOT
ATOM      1  C   UNL d   1       0.103  -2.470  -2.963  0.00  0.00     0.020 A 
ATOM      2  C1  UNL d   1       0.850  -3.255  -2.086  0.00  0.00     0.020 A 
ATOM      3  C2  UNL d   1       1.131  -2.791  -0.800  0.00  0.00     0.034 A 
ATOM      4  C3  UNL d   1       0.664  -1.538  -0.386  0.00  0.00     0.017 A 
ATOM      5  C4  UNL d   1      -0.086  -0.750  -1.267  0.00  0.00     0.017 A 
ATOM      6  C5  UNL d   1      -0.364  -1.220  -2.555  0.00  0.00     0.034 A 
ATOM      7 Cl   UNL d   1      -0.696   0.806  -0.829  0.00  0.00    -0.070 Cl
ATOM      8 Cl1  UNL d   1       1.048  -1.027   1.219  0.00  0.00    -0.070 Cl
ENDROOT
TORSDOF 0
ENDMDL
