MODEL 1
REMARK minimizedAffinity -3.20046329
REMARK minimizedRMSD -1
REMARK  0 active torsions:
REMARK  status: ('A' for Active; 'I' for Inactive)
ROOT
ATOM      1  C   UNL d   1       0.592  -0.881   0.279  0.00  0.00     0.020 A 
ATOM      2  C1  UNL d   1      -0.123  -0.903   1.476  0.00  0.00     0.020 A 
ATOM      3  C2  UNL d   1      -1.023   0.123   1.771  0.00  0.00     0.034 A 
ATOM      4  C3  UNL d   1      -1.209   1.177   0.868  0.00  0.00     0.017 A 
ATOM      5  C4  UNL d   1      -0.491   1.198  -0.333  0.00  0.00     0.017 A 
ATOM      6  C5  UNL d   1       0.408   0.168  -0.623  0.00  0.00     0.034 A 
ATOM      7 Cl   UNL d   1      -0.668   2.464  -1.496  0.00  0.00    -0.070 Cl
ATOM      8 Cl1  UNL d   1      -2.338   2.412   1.298  0.00  0.00    -0.070 Cl
ENDROOT
TORSDOF 0
ENDMDL
