MODEL 1
REMARK minimizedAffinity 1.13013268
REMARK minimizedRMSD -1
REMARK  0 active torsions:
REMARK  status: ('A' for Active; 'I' for Inactive)
ROOT
ATOM      1  C   UNL d   1       0.624  -1.082  -0.078  0.00  0.00     0.020 A 
ATOM      2  C1  UNL d   1       0.032  -1.259   1.171  0.00  0.00     0.020 A 
ATOM      3  C2  UNL d   1      -0.886  -0.321   1.648  0.00  0.00     0.034 A 
ATOM      4  C3  UNL d   1      -1.216   0.798   0.874  0.00  0.00     0.017 A 
ATOM      5  C4  UNL d   1      -0.621   0.975  -0.380  0.00  0.00     0.017 A 
ATOM      6  C5  UNL d   1       0.298   0.033  -0.852  0.00  0.00     0.034 A 
ATOM      7 Cl   UNL d   1      -0.977   2.330  -1.392  0.00  0.00    -0.070 Cl
ATOM      8 Cl1  UNL d   1      -2.360   1.917   1.526  0.00  0.00    -0.070 Cl
ENDROOT
TORSDOF 0
ENDMDL
