MODEL 1
REMARK minimizedAffinity 1.224648
REMARK minimizedRMSD -1
REMARK  0 active torsions:
REMARK  status: ('A' for Active; 'I' for Inactive)
ROOT
ATOM      1  C   UNL d   1       0.577  -1.131   0.745  0.00  0.00     0.020 A 
ATOM      2  C1  UNL d   1       0.592  -0.869  -0.624  0.00  0.00     0.020 A 
ATOM      3  C2  UNL d   1       0.128   0.357  -1.106  0.00  0.00     0.034 A 
ATOM      4  C3  UNL d   1      -0.351   1.327  -0.217  0.00  0.00     0.017 A 
ATOM      5  C4  UNL d   1      -0.365   1.063   1.157  0.00  0.00     0.017 A 
ATOM      6  C5  UNL d   1       0.100  -0.166   1.634  0.00  0.00     0.034 A 
ATOM      7 Cl   UNL d   1      -0.942   2.210   2.315  0.00  0.00    -0.070 Cl
ATOM      8 Cl1  UNL d   1      -0.908   2.821  -0.882  0.00  0.00    -0.070 Cl
ENDROOT
TORSDOF 0
ENDMDL
