MODEL 1
REMARK minimizedAffinity -3.16091442
REMARK minimizedRMSD -1
REMARK  0 active torsions:
REMARK  status: ('A' for Active; 'I' for Inactive)
ROOT
ATOM      1  C   UNL d   1      -1.654   2.154   1.665  0.00  0.00     0.020 A 
ATOM      2  C1  UNL d   1      -1.854   2.203   0.287  0.00  0.00     0.020 A 
ATOM      3  C2  UNL d   1      -1.277   1.235  -0.538  0.00  0.00     0.034 A 
ATOM      4  C3  UNL d   1      -0.496   0.214   0.016  0.00  0.00     0.017 A 
ATOM      5  C4  UNL d   1      -0.295   0.165   1.400  0.00  0.00     0.017 A 
ATOM      6  C5  UNL d   1      -0.876   1.137   2.221  0.00  0.00     0.034 A 
ATOM      7 Cl   UNL d   1       0.655  -1.064   2.156  0.00  0.00    -0.070 Cl
ATOM      8 Cl1  UNL d   1       0.187  -0.950  -1.063  0.00  0.00    -0.070 Cl
ENDROOT
TORSDOF 0
ENDMDL
