MODEL 1
REMARK minimizedAffinity -2.99663448
REMARK minimizedRMSD -1
REMARK  0 active torsions:
REMARK  status: ('A' for Active; 'I' for Inactive)
ROOT
ATOM      1  C   UNL d   1       0.647  -1.182   0.216  0.00  0.00     0.020 A 
ATOM      2  C1  UNL d   1       1.431  -0.715  -0.839  0.00  0.00     0.020 A 
ATOM      3  C2  UNL d   1       1.214   0.563  -1.357  0.00  0.00     0.034 A 
ATOM      4  C3  UNL d   1       0.210   1.379  -0.822  0.00  0.00     0.017 A 
ATOM      5  C4  UNL d   1      -0.576   0.909   0.237  0.00  0.00     0.017 A 
ATOM      6  C5  UNL d   1      -0.354  -0.372   0.752  0.00  0.00     0.034 A 
ATOM      7 Cl   UNL d   1      -1.833   1.857   0.949  0.00  0.00    -0.070 Cl
ATOM      8 Cl1  UNL d   1      -0.002   2.948  -1.512  0.00  0.00    -0.070 Cl
ENDROOT
TORSDOF 0
ENDMDL
