MODEL 1
REMARK minimizedAffinity -1.71384442
REMARK minimizedRMSD -1
REMARK  0 active torsions:
REMARK  status: ('A' for Active; 'I' for Inactive)
ROOT
ATOM      1  C   UNL d   1      -0.157   2.640  -1.334  0.00  0.00     0.020 A 
ATOM      2  C1  UNL d   1       0.974   1.835  -1.204  0.00  0.00     0.020 A 
ATOM      3  C2  UNL d   1       0.849   0.524  -0.741  0.00  0.00     0.034 A 
ATOM      4  C3  UNL d   1      -0.411   0.013  -0.405  0.00  0.00     0.017 A 
ATOM      5  C4  UNL d   1      -1.545   0.822  -0.535  0.00  0.00     0.017 A 
ATOM      6  C5  UNL d   1      -1.414   2.134  -1.000  0.00  0.00     0.034 A 
ATOM      7 Cl   UNL d   1      -3.133   0.263  -0.141  0.00  0.00    -0.070 Cl
ATOM      8 Cl1  UNL d   1      -0.492  -1.617   0.162  0.00  0.00    -0.070 Cl
ENDROOT
TORSDOF 0
ENDMDL
