MODEL 1
REMARK minimizedAffinity -5.21698332
REMARK minimizedRMSD -1
REMARK  3 active torsions:
REMARK  status: ('A' for Active; 'I' for Inactive)
REMARK    1  A    between atoms: C3'_2  and  C2'_3 
REMARK    2  A    between atoms: C2'_3  and  C1'_4 
REMARK    3  A    between atoms: C1'_4  and  C1_5 
ROOT
ATOM      1  C1  N4B d   1       1.049   0.423  -0.118  0.00  0.00    -0.075 A 
ATOM      2  C2  N4B d   1       2.366   0.831  -0.426  0.00  0.00     0.002 A 
ATOM      3  C3  N4B d   1       2.948   0.436  -1.606  0.00  0.00     0.002 A 
ATOM      4  C4  N4B d   1       2.244  -0.377  -2.480  0.00  0.00    -0.004 A 
ATOM      5  C5  N4B d   1       0.963  -0.746  -2.187  0.00  0.00     0.002 A 
ATOM      6  C6  N4B d   1       0.364  -0.353  -1.007  0.00  0.00     0.002 A 
ENDROOT
BRANCH   1   7
ATOM      7  C1' N4B d   1       0.401   0.758   1.197  0.00  0.00     0.057 C 
BRANCH   7   8
ATOM      8  C2' N4B d   1      -0.784  -0.176   1.424  0.00  0.00     0.009 C 
BRANCH   8   9
ATOM      9  C3' N4B d   1      -1.930   0.523   2.136  0.00  0.00     0.004 C 
ATOM     10  C4' N4B d   1      -3.271  -0.035   1.765  0.00  0.00     0.003 C 
ENDBRANCH   8   9
ENDBRANCH   7   8
ENDBRANCH   1   7
TORSDOF 3
ENDMDL
