MODEL 1
REMARK minimizedAffinity -2.11586714
REMARK minimizedRMSD -1
REMARK  3 active torsions:
REMARK  status: ('A' for Active; 'I' for Inactive)
REMARK    1  A    between atoms: C3'_2  and  C2'_3 
REMARK    2  A    between atoms: C2'_3  and  C1'_4 
REMARK    3  A    between atoms: C1'_4  and  C1_5 
ROOT
ATOM      1  C1  N4B d   1      -0.257   0.100   0.671  0.00  0.00    -0.075 A 
ATOM      2  C2  N4B d   1      -0.089  -1.285   0.453  0.00  0.00     0.002 A 
ATOM      3  C3  N4B d   1       0.812  -1.728  -0.484  0.00  0.00     0.002 A 
ATOM      4  C4  N4B d   1       1.538  -0.808  -1.226  0.00  0.00    -0.004 A 
ATOM      5  C5  N4B d   1       1.387   0.527  -0.992  0.00  0.00     0.002 A 
ATOM      6  C6  N4B d   1       0.489   0.987  -0.050  0.00  0.00     0.002 A 
ENDROOT
BRANCH   1   7
ATOM      7  C1' N4B d   1      -1.292   0.634   1.624  0.00  0.00     0.057 C 
BRANCH   7   8
ATOM      8  C2' N4B d   1      -2.680   0.413   1.032  0.00  0.00     0.009 C 
BRANCH   8   9
ATOM      9  C3' N4B d   1      -3.764   1.085   1.857  0.00  0.00     0.004 C 
ATOM     10  C4' N4B d   1      -3.385   2.468   2.297  0.00  0.00     0.003 C 
ENDBRANCH   8   9
ENDBRANCH   7   8
ENDBRANCH   1   7
TORSDOF 3
ENDMDL
