MODEL 1
REMARK minimizedAffinity -4.24436712
REMARK minimizedRMSD -1
REMARK  3 active torsions:
REMARK  status: ('A' for Active; 'I' for Inactive)
REMARK    1  A    between atoms: C3'_2  and  C2'_3 
REMARK    2  A    between atoms: C2'_3  and  C1'_4 
REMARK    3  A    between atoms: C1'_4  and  C1_5 
ROOT
ATOM      1  C1  N4B d   1      -1.742   0.386   1.412  0.00  0.00    -0.075 A 
ATOM      2  C2  N4B d   1      -1.754   1.735   1.828  0.00  0.00     0.002 A 
ATOM      3  C3  N4B d   1      -2.949   2.374   2.054  0.00  0.00     0.002 A 
ATOM      4  C4  N4B d   1      -4.139   1.692   1.854  0.00  0.00    -0.004 A 
ATOM      5  C5  N4B d   1      -4.119   0.381   1.477  0.00  0.00     0.002 A 
ATOM      6  C6  N4B d   1      -2.926  -0.274   1.250  0.00  0.00     0.002 A 
ENDROOT
BRANCH   1   7
ATOM      7  C1' N4B d   1      -0.464  -0.329   1.070  0.00  0.00     0.057 C 
BRANCH   7   8
ATOM      8  C2' N4B d   1       0.177   0.344  -0.140  0.00  0.00     0.009 C 
BRANCH   8   9
ATOM      9  C3' N4B d   1       0.334  -0.615  -1.307  0.00  0.00     0.004 C 
ATOM     10  C4' N4B d   1       1.060  -0.004  -2.468  0.00  0.00     0.003 C 
ENDBRANCH   8   9
ENDBRANCH   7   8
ENDBRANCH   1   7
TORSDOF 3
ENDMDL
