MODEL 1
REMARK minimizedAffinity -4.96704721
REMARK minimizedRMSD -1
REMARK  3 active torsions:
REMARK  status: ('A' for Active; 'I' for Inactive)
REMARK    1  A    between atoms: C3'_2  and  C2'_3 
REMARK    2  A    between atoms: C2'_3  and  C1'_4 
REMARK    3  A    between atoms: C1'_4  and  C1_5 
ROOT
ATOM      1  C1  N4B d   1      -1.890   0.477   1.891  0.00  0.00    -0.075 A 
ATOM      2  C2  N4B d   1      -1.739   1.806   2.344  0.00  0.00     0.002 A 
ATOM      3  C3  N4B d   1      -2.844   2.604   2.512  0.00  0.00     0.002 A 
ATOM      4  C4  N4B d   1      -4.103   2.102   2.217  0.00  0.00    -0.004 A 
ATOM      5  C5  N4B d   1      -4.243   0.809   1.805  0.00  0.00     0.002 A 
ATOM      6  C6  N4B d   1      -3.141  -0.005   1.635  0.00  0.00     0.002 A 
ENDROOT
BRANCH   1   7
ATOM      7  C1' N4B d   1      -0.704  -0.405   1.609  0.00  0.00     0.057 C 
BRANCH   7   8
ATOM      8  C2' N4B d   1       0.208   0.288   0.602  0.00  0.00     0.009 C 
BRANCH   8   9
ATOM      9  C3' N4B d   1       0.336  -0.504  -0.688  0.00  0.00     0.004 C 
ATOM     10  C4' N4B d   1       0.891   0.310  -1.818  0.00  0.00     0.003 C 
ENDBRANCH   8   9
ENDBRANCH   7   8
ENDBRANCH   1   7
TORSDOF 3
ENDMDL
