MODEL 1
REMARK minimizedAffinity -4.01251745
REMARK minimizedRMSD -1
REMARK  3 active torsions:
REMARK  status: ('A' for Active; 'I' for Inactive)
REMARK    1  A    between atoms: C3'_2  and  C2'_3 
REMARK    2  A    between atoms: C2'_3  and  C1'_4 
REMARK    3  A    between atoms: C1'_4  and  C1_5 
ROOT
ATOM      1  C1  N4B d   1       1.181   0.587  -0.765  0.00  0.00    -0.075 A 
ATOM      2  C2  N4B d   1       2.515   0.795  -1.180  0.00  0.00     0.002 A 
ATOM      3  C3  N4B d   1       2.884   0.512  -2.473  0.00  0.00     0.002 A 
ATOM      4  C4  N4B d   1       1.945   0.005  -3.359  0.00  0.00    -0.004 A 
ATOM      5  C5  N4B d   1       0.653  -0.168  -2.957  0.00  0.00     0.002 A 
ATOM      6  C6  N4B d   1       0.267   0.115  -1.662  0.00  0.00     0.002 A 
ENDROOT
BRANCH   1   7
ATOM      7  C1' N4B d   1       0.751   0.800   0.660  0.00  0.00     0.057 C 
BRANCH   7   8
ATOM      8  C2' N4B d   1      -0.268  -0.270   1.041  0.00  0.00     0.009 C 
BRANCH   8   9
ATOM      9  C3' N4B d   1       0.394  -1.605   1.334  0.00  0.00     0.004 C 
ATOM     10  C4' N4B d   1       0.282  -2.572   0.193  0.00  0.00     0.003 C 
ENDBRANCH   8   9
ENDBRANCH   7   8
ENDBRANCH   1   7
TORSDOF 3
ENDMDL
