MODEL 1
REMARK minimizedAffinity 18.4818974
REMARK minimizedRMSD -1
REMARK  0 active torsions:
REMARK  status: ('A' for Active; 'I' for Inactive)
ROOT
ATOM      1  N1  IND d   1       6.000   4.679  -0.070  0.00  0.00    -0.196 N 
ATOM      2  C2  IND d   1       5.998   4.136   1.184  0.00  0.00     0.054 A 
ATOM      3  C3  IND d   1       5.264   3.001   1.204  0.00  0.00    -0.031 A 
ATOM      4  C4  IND d   1       4.063   1.796  -0.728  0.00  0.00     0.051 A 
ATOM      5  C5  IND d   1       3.751   1.928  -2.052  0.00  0.00    -0.031 A 
ATOM      6  C6  IND d   1       4.184   3.005  -2.799  0.00  0.00     0.015 A 
ATOM      7  C7  IND d   1       4.958   3.987  -2.249  0.00  0.00    -0.016 A 
ATOM      8  C8  IND d   1       5.271   3.860  -0.904  0.00  0.00    -0.047 A 
ATOM      9  C9  IND d   1       4.799   2.792  -0.130  0.00  0.00    -0.096 A 
ATOM     10  HN1 IND d   1       6.391   5.410  -0.300  0.00  0.00     0.298 HD
ENDROOT
TORSDOF 0
ENDMDL
