MODEL 1
REMARK minimizedAffinity 17.0356503
REMARK minimizedRMSD -1
REMARK  0 active torsions:
REMARK  status: ('A' for Active; 'I' for Inactive)
ROOT
ATOM      1  N1  IND d   1       3.409  -2.329   0.389  0.00  0.00    -0.196 N 
ATOM      2  C2  IND d   1       3.408  -3.397  -0.464  0.00  0.00     0.054 A 
ATOM      3  C3  IND d   1       2.155  -3.883  -0.608  0.00  0.00    -0.031 A 
ATOM      4  C4  IND d   1      -0.058  -3.019   0.383  0.00  0.00     0.051 A 
ATOM      5  C5  IND d   1      -0.560  -2.090   1.252  0.00  0.00    -0.031 A 
ATOM      6  C6  IND d   1       0.252  -1.174   1.888  0.00  0.00     0.015 A 
ATOM      7  C7  IND d   1       1.600  -1.144   1.670  0.00  0.00    -0.016 A 
ATOM      8  C8  IND d   1       2.114  -2.090   0.794  0.00  0.00    -0.047 A 
ATOM      9  C9  IND d   1       1.301  -3.050   0.178  0.00  0.00    -0.096 A 
ATOM     10  HN1 IND d   1       4.102  -1.881   0.633  0.00  0.00     0.298 HD
ENDROOT
TORSDOF 0
ENDMDL
