MODEL 1
REMARK minimizedAffinity 12.027647
REMARK minimizedRMSD -1
REMARK  0 active torsions:
REMARK  status: ('A' for Active; 'I' for Inactive)
ROOT
ATOM      1  N1  IND d   1       3.006   2.612  -2.312  0.00  0.00    -0.196 N 
ATOM      2  C2  IND d   1       3.395   3.357  -3.390  0.00  0.00     0.054 A 
ATOM      3  C3  IND d   1       4.526   4.041  -3.105  0.00  0.00    -0.031 A 
ATOM      4  C4  IND d   1       5.962   4.009  -0.969  0.00  0.00     0.051 A 
ATOM      5  C5  IND d   1       5.991   3.509   0.303  0.00  0.00    -0.031 A 
ATOM      6  C6  IND d   1       5.007   2.665   0.776  0.00  0.00     0.015 A 
ATOM      7  C7  IND d   1       3.960   2.279  -0.011  0.00  0.00    -0.016 A 
ATOM      8  C8  IND d   1       3.924   2.791  -1.301  0.00  0.00    -0.047 A 
ATOM      9  C9  IND d   1       4.896   3.682  -1.773  0.00  0.00    -0.096 A 
ATOM     10  HN1 IND d   1       2.305   2.116  -2.272  0.00  0.00     0.298 HD
ENDROOT
TORSDOF 0
ENDMDL
