MODEL 1
REMARK minimizedAffinity 9.46135902
REMARK minimizedRMSD -1
REMARK  0 active torsions:
REMARK  status: ('A' for Active; 'I' for Inactive)
ROOT
ATOM      1  N1  IND d   1      -2.598   1.184   3.946  0.00  0.00    -0.196 N 
ATOM      2  C2  IND d   1      -2.449   1.434   5.282  0.00  0.00     0.054 A 
ATOM      3  C3  IND d   1      -3.371   0.748   5.995  0.00  0.00    -0.031 A 
ATOM      4  C4  IND d   1      -5.153  -0.923   5.184  0.00  0.00     0.051 A 
ATOM      5  C5  IND d   1      -5.698  -1.450   4.046  0.00  0.00    -0.031 A 
ATOM      6  C6  IND d   1      -5.225  -1.121   2.792  0.00  0.00     0.015 A 
ATOM      7  C7  IND d   1      -4.179  -0.258   2.629  0.00  0.00    -0.016 A 
ATOM      8  C8  IND d   1      -3.628   0.284   3.781  0.00  0.00    -0.047 A 
ATOM      9  C9  IND d   1      -4.131  -0.013   5.055  0.00  0.00    -0.096 A 
ATOM     10  HN1 IND d   1      -2.128   1.530   3.316  0.00  0.00     0.298 HD
ENDROOT
TORSDOF 0
ENDMDL
