MODEL 1
REMARK minimizedAffinity 16.9983921
REMARK minimizedRMSD -1
REMARK  0 active torsions:
REMARK  status: ('A' for Active; 'I' for Inactive)
ROOT
ATOM      1  N1  IND d   1       1.810   2.238  -3.364  0.00  0.00    -0.196 N 
ATOM      2  C2  IND d   1       0.639   2.887  -3.086  0.00  0.00     0.054 A 
ATOM      3  C3  IND d   1       0.890   4.128  -2.612  0.00  0.00    -0.031 A 
ATOM      4  C4  IND d   1       3.142   5.337  -2.308  0.00  0.00     0.051 A 
ATOM      5  C5  IND d   1       4.492   5.139  -2.393  0.00  0.00    -0.031 A 
ATOM      6  C6  IND d   1       5.027   3.940  -2.817  0.00  0.00     0.015 A 
ATOM      7  C7  IND d   1       4.229   2.894  -3.185  0.00  0.00    -0.016 A 
ATOM      8  C8  IND d   1       2.858   3.089  -3.093  0.00  0.00    -0.047 A 
ATOM      9  C9  IND d   1       2.310   4.289  -2.623  0.00  0.00    -0.096 A 
ATOM     10  HN1 IND d   1       1.879   1.433  -3.659  0.00  0.00     0.298 HD
ENDROOT
TORSDOF 0
ENDMDL
