MODEL 1
REMARK minimizedAffinity 0.579649925
REMARK minimizedRMSD -1
REMARK  0 active torsions:
REMARK  status: ('A' for Active; 'I' for Inactive)
ROOT
ATOM      1  N1  IND d   1      -2.104   1.197   4.689  0.00  0.00    -0.196 N 
ATOM      2  C2  IND d   1      -2.863   1.420   5.804  0.00  0.00     0.054 A 
ATOM      3  C3  IND d   1      -4.030   0.742   5.721  0.00  0.00    -0.031 A 
ATOM      4  C4  IND d   1      -4.858  -0.873   3.896  0.00  0.00     0.051 A 
ATOM      5  C5  IND d   1      -4.529  -1.367   2.664  0.00  0.00    -0.031 A 
ATOM      6  C6  IND d   1      -3.350  -1.027   2.033  0.00  0.00     0.015 A 
ATOM      7  C7  IND d   1      -2.447  -0.185   2.618  0.00  0.00    -0.016 A 
ATOM      8  C8  IND d   1      -2.781   0.324   3.865  0.00  0.00    -0.047 A 
ATOM      9  C9  IND d   1      -3.995   0.015   4.492  0.00  0.00    -0.096 A 
ATOM     10  HN1 IND d   1      -1.334   1.544   4.529  0.00  0.00     0.298 HD
ENDROOT
TORSDOF 0
ENDMDL
