MODEL 1
REMARK minimizedAffinity 10.0140724
REMARK minimizedRMSD -1
REMARK  0 active torsions:
REMARK  status: ('A' for Active; 'I' for Inactive)
ROOT
ATOM      1  N1  IND d   1      -2.108   0.704   4.015  0.00  0.00    -0.196 N 
ATOM      2  C2  IND d   1      -2.338   1.183   5.275  0.00  0.00     0.054 A 
ATOM      3  C3  IND d   1      -3.503   0.698   5.758  0.00  0.00    -0.031 A 
ATOM      4  C4  IND d   1      -5.144  -0.977   4.694  0.00  0.00     0.051 A 
ATOM      5  C5  IND d   1      -5.380  -1.667   3.538  0.00  0.00    -0.031 A 
ATOM      6  C6  IND d   1      -4.520  -1.602   2.461  0.00  0.00     0.015 A 
ATOM      7  C7  IND d   1      -3.379  -0.851   2.505  0.00  0.00    -0.016 A 
ATOM      8  C8  IND d   1      -3.139  -0.144   3.674  0.00  0.00    -0.047 A 
ATOM      9  C9  IND d   1      -4.031  -0.172   4.755  0.00  0.00    -0.096 A 
ATOM     10  HN1 IND d   1      -1.434   0.899   3.519  0.00  0.00     0.298 HD
ENDROOT
TORSDOF 0
ENDMDL
