MODEL 1
REMARK minimizedAffinity 12.3176031
REMARK minimizedRMSD -1
REMARK  0 active torsions:
REMARK  status: ('A' for Active; 'I' for Inactive)
ROOT
ATOM      1  N1  IND d   1       4.739  -3.464  -1.230  0.00  0.00    -0.196 N 
ATOM      2  C2  IND d   1       4.339  -4.715  -0.850  0.00  0.00     0.054 A 
ATOM      3  C3  IND d   1       3.499  -4.639   0.206  0.00  0.00    -0.031 A 
ATOM      4  C4  IND d   1       2.564  -2.562   1.406  0.00  0.00     0.051 A 
ATOM      5  C5  IND d   1       2.668  -1.199   1.441  0.00  0.00    -0.031 A 
ATOM      6  C6  IND d   1       3.482  -0.508   0.567  0.00  0.00     0.015 A 
ATOM      7  C7  IND d   1       4.217  -1.156  -0.385  0.00  0.00    -0.016 A 
ATOM      8  C8  IND d   1       4.119  -2.540  -0.419  0.00  0.00    -0.047 A 
ATOM      9  C9  IND d   1       3.327  -3.250   0.493  0.00  0.00    -0.096 A 
ATOM     10  HN1 IND d   1       5.286  -3.285  -1.869  0.00  0.00     0.298 HD
ENDROOT
TORSDOF 0
ENDMDL
