MODEL 1
REMARK minimizedAffinity 10.353385
REMARK minimizedRMSD -1
REMARK  0 active torsions:
REMARK  status: ('A' for Active; 'I' for Inactive)
ROOT
ATOM      1  N1  IND d   1       3.740  -2.371  -1.142  0.00  0.00    -0.196 N 
ATOM      2  C2  IND d   1       4.913  -1.712  -1.386  0.00  0.00     0.054 A 
ATOM      3  C3  IND d   1       5.967  -2.516  -1.122  0.00  0.00    -0.031 A 
ATOM      4  C4  IND d   1       6.000  -4.981  -0.379  0.00  0.00     0.051 A 
ATOM      5  C5  IND d   1       5.176  -6.000   0.008  0.00  0.00    -0.031 A 
ATOM      6  C6  IND d   1       3.803  -5.860   0.029  0.00  0.00     0.015 A 
ATOM      7  C7  IND d   1       3.200  -4.693  -0.348  0.00  0.00    -0.016 A 
ATOM      8  C8  IND d   1       4.034  -3.654  -0.735  0.00  0.00    -0.047 A 
ATOM      9  C9  IND d   1       5.430  -3.776  -0.718  0.00  0.00    -0.096 A 
ATOM     10  HN1 IND d   1       2.951  -2.040  -1.228  0.00  0.00     0.298 HD
ENDROOT
TORSDOF 0
ENDMDL
