MODEL 1
REMARK minimizedAffinity 0.658951998
REMARK minimizedRMSD -1
REMARK  0 active torsions:
REMARK  status: ('A' for Active; 'I' for Inactive)
ROOT
ATOM      1  N1  IND d   1      -2.532  -4.935  -4.774  0.00  0.00    -0.196 N 
ATOM      2  C2  IND d   1      -2.627  -4.105  -3.692  0.00  0.00     0.054 A 
ATOM      3  C3  IND d   1      -1.396  -3.810  -3.217  0.00  0.00    -0.031 A 
ATOM      4  C4  IND d   1       0.915  -4.496  -4.122  0.00  0.00     0.051 A 
ATOM      5  C5  IND d   1       1.511  -5.279  -5.070  0.00  0.00    -0.031 A 
ATOM      6  C6  IND d   1       0.776  -6.000  -5.988  0.00  0.00     0.015 A 
ATOM      7  C7  IND d   1      -0.589  -5.955  -6.000  0.00  0.00    -0.016 A 
ATOM      8  C8  IND d   1      -1.199  -5.167  -5.034  0.00  0.00    -0.047 A 
ATOM      9  C9  IND d   1      -0.459  -4.466  -4.073  0.00  0.00    -0.096 A 
ATOM     10  HN1 IND d   1      -3.194  -5.259  -5.218  0.00  0.00     0.298 HD
ENDROOT
TORSDOF 0
ENDMDL
