MODEL 1
REMARK minimizedAffinity 7.06325388
REMARK minimizedRMSD -1
REMARK  0 active torsions:
REMARK  status: ('A' for Active; 'I' for Inactive)
ROOT
ATOM      1  N1  IND d   1      -5.982   0.341  -3.365  0.00  0.00    -0.196 N 
ATOM      2  C2  IND d   1      -5.976  -0.010  -2.044  0.00  0.00     0.054 A 
ATOM      3  C3  IND d   1      -5.982  -1.356  -1.916  0.00  0.00    -0.031 A 
ATOM      4  C4  IND d   1      -5.901  -3.174  -3.737  0.00  0.00     0.051 A 
ATOM      5  C5  IND d   1      -5.932  -3.342  -5.093  0.00  0.00    -0.031 A 
ATOM      6  C6  IND d   1      -5.980  -2.269  -5.960  0.00  0.00     0.015 A 
ATOM      7  C7  IND d   1      -5.986  -0.983  -5.501  0.00  0.00    -0.016 A 
ATOM      8  C8  IND d   1      -5.962  -0.808  -4.125  0.00  0.00    -0.047 A 
ATOM      9  C9  IND d   1      -5.957  -1.893  -3.239  0.00  0.00    -0.096 A 
ATOM     10  HN1 IND d   1      -5.996   1.145  -3.671  0.00  0.00     0.298 HD
ENDROOT
TORSDOF 0
ENDMDL
