MODEL 1
REMARK minimizedAffinity 15.3380556
REMARK minimizedRMSD -1
REMARK  0 active torsions:
REMARK  status: ('A' for Active; 'I' for Inactive)
ROOT
ATOM      1  N1  IND d   1      -4.196  -3.865   2.459  0.00  0.00    -0.196 N 
ATOM      2  C2  IND d   1      -5.140  -4.398   1.626  0.00  0.00     0.054 A 
ATOM      3  C3  IND d   1      -5.893  -5.305   2.288  0.00  0.00    -0.031 A 
ATOM      4  C4  IND d   1      -5.817  -5.998   4.766  0.00  0.00     0.051 A 
ATOM      5  C5  IND d   1      -5.100  -5.812   5.915  0.00  0.00    -0.031 A 
ATOM      6  C6  IND d   1      -4.026  -4.948   5.972  0.00  0.00     0.015 A 
ATOM      7  C7  IND d   1      -3.633  -4.226   4.881  0.00  0.00    -0.016 A 
ATOM      8  C8  IND d   1      -4.354  -4.418   3.711  0.00  0.00    -0.047 A 
ATOM      9  C9  IND d   1      -5.419  -5.325   3.635  0.00  0.00    -0.096 A 
ATOM     10  HN1 IND d   1      -3.604  -3.283   2.237  0.00  0.00     0.298 HD
ENDROOT
TORSDOF 0
ENDMDL
