MODEL 1
REMARK minimizedAffinity 7.0419693
REMARK minimizedRMSD -1
REMARK  0 active torsions:
REMARK  status: ('A' for Active; 'I' for Inactive)
ROOT
ATOM      1  N1  IND d   1       2.634  -4.435  -0.370  0.00  0.00    -0.196 N 
ATOM      2  C2  IND d   1       3.722  -4.025  -1.090  0.00  0.00     0.054 A 
ATOM      3  C3  IND d   1       4.140  -2.813  -0.662  0.00  0.00    -0.031 A 
ATOM      4  C4  IND d   1       3.252  -1.367   1.274  0.00  0.00     0.051 A 
ATOM      5  C5  IND d   1       2.249  -1.305   2.200  0.00  0.00    -0.031 A 
ATOM      6  C6  IND d   1       1.306  -2.304   2.321  0.00  0.00     0.015 A 
ATOM      7  C7  IND d   1       1.337  -3.414   1.524  0.00  0.00    -0.016 A 
ATOM      8  C8  IND d   1       2.350  -3.477   0.578  0.00  0.00    -0.047 A 
ATOM      9  C9  IND d   1       3.285  -2.446   0.422  0.00  0.00    -0.096 A 
ATOM     10  HN1 IND d   1       2.201  -5.168  -0.489  0.00  0.00     0.298 HD
ENDROOT
TORSDOF 0
ENDMDL
