MODEL 1
REMARK minimizedAffinity 11.8725758
REMARK minimizedRMSD -1
REMARK  0 active torsions:
REMARK  status: ('A' for Active; 'I' for Inactive)
ROOT
ATOM      1  N1  IND d   1       0.289  -4.688  -3.676  0.00  0.00    -0.196 N 
ATOM      2  C2  IND d   1      -1.060  -4.615  -3.886  0.00  0.00     0.054 A 
ATOM      3  C3  IND d   1      -1.711  -4.470  -2.710  0.00  0.00    -0.031 A 
ATOM      4  C4  IND d   1      -0.758  -4.225  -0.331  0.00  0.00     0.051 A 
ATOM      5  C5  IND d   1       0.415  -4.265   0.369  0.00  0.00    -0.031 A 
ATOM      6  C6  IND d   1       1.631  -4.449  -0.257  0.00  0.00     0.015 A 
ATOM      7  C7  IND d   1       1.721  -4.589  -1.613  0.00  0.00    -0.016 A 
ATOM      8  C8  IND d   1       0.531  -4.556  -2.326  0.00  0.00    -0.047 A 
ATOM      9  C9  IND d   1      -0.710  -4.412  -1.692  0.00  0.00    -0.096 A 
ATOM     10  HN1 IND d   1       0.887  -4.797  -4.285  0.00  0.00     0.298 HD
ENDROOT
TORSDOF 0
ENDMDL
