MODEL 1
REMARK minimizedAffinity 11.2817106
REMARK minimizedRMSD -1
REMARK  0 active torsions:
REMARK  status: ('A' for Active; 'I' for Inactive)
ROOT
ATOM      1  N1  IND d   1       1.054  -0.699   1.615  0.00  0.00    -0.196 N 
ATOM      2  C2  IND d   1       1.565  -1.955   1.437  0.00  0.00     0.054 A 
ATOM      3  C3  IND d   1       0.567  -2.864   1.375  0.00  0.00    -0.031 A 
ATOM      4  C4  IND d   1      -1.981  -2.502   1.439  0.00  0.00     0.051 A 
ATOM      5  C5  IND d   1      -2.927  -1.534   1.625  0.00  0.00    -0.031 A 
ATOM      6  C6  IND d   1      -2.588  -0.210   1.818  0.00  0.00     0.015 A 
ATOM      7  C7  IND d   1      -1.284   0.197   1.821  0.00  0.00    -0.016 A 
ATOM      8  C8  IND d   1      -0.320  -0.785   1.640  0.00  0.00    -0.047 A 
ATOM      9  C9  IND d   1      -0.657  -2.136   1.486  0.00  0.00    -0.096 A 
ATOM     10  HN1 IND d   1       1.515   0.023   1.697  0.00  0.00     0.298 HD
ENDROOT
TORSDOF 0
ENDMDL
