MODEL 1
REMARK minimizedAffinity -4.77576113
REMARK minimizedRMSD -1
REMARK  0 active torsions:
REMARK  status: ('A' for Active; 'I' for Inactive)
ROOT
ATOM      1  N1  IND d   1       1.645   0.732  -0.504  0.00  0.00    -0.196 N 
ATOM      2  C2  IND d   1       0.906   1.776  -0.987  0.00  0.00     0.054 A 
ATOM      3  C3  IND d   1      -0.415   1.511  -0.869  0.00  0.00    -0.031 A 
ATOM      4  C4  IND d   1      -1.587  -0.527   0.180  0.00  0.00     0.051 A 
ATOM      5  C5  IND d   1      -1.332  -1.755   0.722  0.00  0.00    -0.031 A 
ATOM      6  C6  IND d   1      -0.046  -2.226   0.889  0.00  0.00     0.015 A 
ATOM      7  C7  IND d   1       1.039  -1.477   0.529  0.00  0.00    -0.016 A 
ATOM      8  C8  IND d   1       0.783  -0.232  -0.028  0.00  0.00    -0.047 A 
ATOM      9  C9  IND d   1      -0.521   0.233  -0.239  0.00  0.00    -0.096 A 
ATOM     10  HN1 IND d   1       2.503   0.685  -0.498  0.00  0.00     0.298 HD
ENDROOT
TORSDOF 0
ENDMDL
