MODEL 1
REMARK minimizedAffinity 2.62755752
REMARK minimizedRMSD -1
REMARK  0 active torsions:
REMARK  status: ('A' for Active; 'I' for Inactive)
ROOT
ATOM      1  C   UNL d   1      -4.297   0.157   0.784  0.00  0.00     0.023 A 
ATOM      2  C1  UNL d   1      -4.143  -0.609   1.939  0.00  0.00     0.003 A 
ATOM      3  C2  UNL d   1      -3.428  -1.807   1.894  0.00  0.00     0.048 A 
ATOM      4  C3  UNL d   1      -2.869  -2.234   0.689  0.00  0.00     0.023 A 
ATOM      5  C4  UNL d   1      -3.021  -1.470  -0.470  0.00  0.00     0.048 A 
ATOM      6  C5  UNL d   1      -3.737  -0.273  -0.419  0.00  0.00     0.003 A 
ATOM      7  I   UNL d   1      -1.805  -4.017   0.618  0.00  0.00    -0.146 I 
ENDROOT
TORSDOF 0
ENDMDL
