MODEL 1
REMARK minimizedAffinity 7.51063967
REMARK minimizedRMSD -1
REMARK  0 active torsions:
REMARK  status: ('A' for Active; 'I' for Inactive)
ROOT
ATOM      1  C   UNL d   1       1.754   2.990   3.724  0.00  0.00     0.023 A 
ATOM      2  C1  UNL d   1       2.921   2.291   4.035  0.00  0.00     0.003 A 
ATOM      3  C2  UNL d   1       2.845   1.040   4.650  0.00  0.00     0.048 A 
ATOM      4  C3  UNL d   1       1.598   0.493   4.951  0.00  0.00     0.023 A 
ATOM      5  C4  UNL d   1       0.428   1.188   4.642  0.00  0.00     0.048 A 
ATOM      6  C5  UNL d   1       0.509   2.439   4.027  0.00  0.00     0.003 A 
ATOM      7  I   UNL d   1       1.482  -1.369   5.867  0.00  0.00    -0.146 I 
ENDROOT
TORSDOF 0
ENDMDL
