MODEL 1
REMARK minimizedAffinity 6.69482279
REMARK minimizedRMSD -1
REMARK  0 active torsions:
REMARK  status: ('A' for Active; 'I' for Inactive)
ROOT
ATOM      1  C   UNL d   1      -0.463   0.340   4.656  0.00  0.00     0.023 A 
ATOM      2  C1  UNL d   1      -0.479   1.039   3.449  0.00  0.00     0.003 A 
ATOM      3  C2  UNL d   1      -1.422   0.721   2.469  0.00  0.00     0.048 A 
ATOM      4  C3  UNL d   1      -2.348  -0.295   2.704  0.00  0.00     0.023 A 
ATOM      5  C4  UNL d   1      -2.337  -0.996   3.911  0.00  0.00     0.048 A 
ATOM      6  C5  UNL d   1      -1.391  -0.675   4.887  0.00  0.00     0.003 A 
ATOM      7  I   UNL d   1      -3.753  -0.769   1.248  0.00  0.00    -0.146 I 
ENDROOT
TORSDOF 0
ENDMDL
