MODEL 1
REMARK minimizedAffinity 6.25051785
REMARK minimizedRMSD -1
REMARK  0 active torsions:
REMARK  status: ('A' for Active; 'I' for Inactive)
ROOT
ATOM      1  C   UNL d   1      -0.852   0.312   4.509  0.00  0.00     0.023 A 
ATOM      2  C1  UNL d   1      -1.777  -0.667   4.873  0.00  0.00     0.003 A 
ATOM      3  C2  UNL d   1      -2.788  -1.038   3.984  0.00  0.00     0.048 A 
ATOM      4  C3  UNL d   1      -2.868  -0.427   2.734  0.00  0.00     0.023 A 
ATOM      5  C4  UNL d   1      -1.945   0.552   2.365  0.00  0.00     0.048 A 
ATOM      6  C5  UNL d   1      -0.936   0.921   3.257  0.00  0.00     0.003 A 
ATOM      7  I   UNL d   1      -4.373  -0.978   1.410  0.00  0.00    -0.146 I 
ENDROOT
TORSDOF 0
ENDMDL
