MODEL 1
REMARK minimizedAffinity -2.98933792
REMARK minimizedRMSD -1
REMARK  0 active torsions:
REMARK  status: ('A' for Active; 'I' for Inactive)
ROOT
ATOM      1  C   UNL d   1      -1.928  -6.000   4.092  0.00  0.00     0.023 A 
ATOM      2  C1  UNL d   1      -1.110  -5.217   3.276  0.00  0.00     0.003 A 
ATOM      3  C2  UNL d   1      -0.408  -4.139   3.819  0.00  0.00     0.048 A 
ATOM      4  C3  UNL d   1      -0.526  -3.850   5.178  0.00  0.00     0.023 A 
ATOM      5  C4  UNL d   1      -1.342  -4.631   5.998  0.00  0.00     0.048 A 
ATOM      6  C5  UNL d   1      -2.043  -5.707   5.451  0.00  0.00     0.003 A 
ATOM      7  I   UNL d   1       0.519  -2.246   5.988  0.00  0.00    -0.146 I 
ENDROOT
TORSDOF 0
ENDMDL
