MODEL 1
REMARK minimizedAffinity 7.26488638
REMARK minimizedRMSD -1
REMARK  0 active torsions:
REMARK  status: ('A' for Active; 'I' for Inactive)
ROOT
ATOM      1  C   UNL d   1       3.868   0.661  -0.486  0.00  0.00     0.023 A 
ATOM      2  C1  UNL d   1       2.761  -0.130  -0.178  0.00  0.00     0.003 A 
ATOM      3  C2  UNL d   1       1.641   0.439   0.431  0.00  0.00     0.048 A 
ATOM      4  C3  UNL d   1       1.634   1.802   0.728  0.00  0.00     0.023 A 
ATOM      5  C4  UNL d   1       2.738   2.598   0.422  0.00  0.00     0.048 A 
ATOM      6  C5  UNL d   1       3.856   2.024  -0.186  0.00  0.00     0.003 A 
ATOM      7  I   UNL d   1      -0.033   2.652   1.634  0.00  0.00    -0.146 I 
ENDROOT
TORSDOF 0
ENDMDL
