MODEL 1
REMARK minimizedAffinity 1.27571106
REMARK minimizedRMSD -1
REMARK  0 active torsions:
REMARK  status: ('A' for Active; 'I' for Inactive)
ROOT
ATOM      1  C2' OXE d   1      -1.203  -1.924   1.362  0.00  0.00     0.078 C 
ATOM      2  C1' OXE d   1      -1.248   0.424   2.899  0.00  0.00     0.078 C 
ATOM      3  C1  OXE d   1       0.086  -0.240   2.668  0.00  0.00    -0.078 A 
ATOM      4  C2  OXE d   1       0.093  -1.414   1.954  0.00  0.00    -0.078 A 
ATOM      5  C3  OXE d   1       1.303  -2.038   1.664  0.00  0.00     0.003 A 
ATOM      6  C4  OXE d   1       2.496  -1.565   2.224  0.00  0.00    -0.002 A 
ATOM      7  C5  OXE d   1       2.506  -0.393   2.987  0.00  0.00    -0.002 A 
ATOM      8  C6  OXE d   1       1.319   0.304   3.183  0.00  0.00     0.003 A 
ENDROOT
TORSDOF 0
ENDMDL
