MODEL 1
REMARK minimizedAffinity 3.64112616
REMARK minimizedRMSD -1
REMARK  0 active torsions:
REMARK  status: ('A' for Active; 'I' for Inactive)
ROOT
ATOM      1  C2' OXE d   1      -0.016  -0.740  -0.751  0.00  0.00     0.078 C 
ATOM      2  C1' OXE d   1       0.260  -0.584   2.038  0.00  0.00     0.078 C 
ATOM      3  C1  OXE d   1       1.318  -1.332   1.267  0.00  0.00    -0.078 A 
ATOM      4  C2  OXE d   1       1.151  -1.443  -0.092  0.00  0.00    -0.078 A 
ATOM      5  C3  OXE d   1       2.126  -2.076  -0.858  0.00  0.00     0.003 A 
ATOM      6  C4  OXE d   1       3.197  -2.732  -0.239  0.00  0.00    -0.002 A 
ATOM      7  C5  OXE d   1       3.365  -2.665   1.148  0.00  0.00    -0.002 A 
ATOM      8  C6  OXE d   1       2.460  -1.935   1.910  0.00  0.00     0.003 A 
ENDROOT
TORSDOF 0
ENDMDL
