MODEL 1
REMARK minimizedAffinity 5.19679832
REMARK minimizedRMSD -1
REMARK  0 active torsions:
REMARK  status: ('A' for Active; 'I' for Inactive)
ROOT
ATOM      1  C2' OXE d   1       3.525  -2.664   3.170  0.00  0.00     0.078 C 
ATOM      2  C1' OXE d   1       3.142  -2.817   0.394  0.00  0.00     0.078 C 
ATOM      3  C1  OXE d   1       2.064  -2.158   1.217  0.00  0.00    -0.078 A 
ATOM      4  C2  OXE d   1       2.238  -2.129   2.580  0.00  0.00    -0.078 A 
ATOM      5  C3  OXE d   1       1.300  -1.485   3.381  0.00  0.00     0.003 A 
ATOM      6  C4  OXE d   1       0.108  -1.002   2.829  0.00  0.00    -0.002 A 
ATOM      7  C5  OXE d   1      -0.108  -1.057   1.447  0.00  0.00    -0.002 A 
ATOM      8  C6  OXE d   1       0.877  -1.593   0.625  0.00  0.00     0.003 A 
ENDROOT
TORSDOF 0
ENDMDL
