MODEL 1
REMARK minimizedAffinity 0.262136102
REMARK minimizedRMSD -1
REMARK  0 active torsions:
REMARK  status: ('A' for Active; 'I' for Inactive)
ROOT
ATOM      1  C2' OXE d   1       0.175  -0.606  -1.335  0.00  0.00     0.078 C 
ATOM      2  C1' OXE d   1       2.506  -1.507  -0.055  0.00  0.00     0.078 C 
ATOM      3  C1  OXE d   1       1.285  -1.264   0.796  0.00  0.00    -0.078 A 
ATOM      4  C2  OXE d   1       0.163  -0.779   0.168  0.00  0.00    -0.078 A 
ATOM      5  C3  OXE d   1      -1.008  -0.589   0.898  0.00  0.00     0.003 A 
ATOM      6  C4  OXE d   1      -1.008  -0.741   2.290  0.00  0.00    -0.002 A 
ATOM      7  C5  OXE d   1       0.136  -1.197   2.954  0.00  0.00    -0.002 A 
ATOM      8  C6  OXE d   1       1.275  -1.503   2.218  0.00  0.00     0.003 A 
ENDROOT
TORSDOF 0
ENDMDL
