MODEL 1
REMARK minimizedAffinity 8.36245155
REMARK minimizedRMSD -1
REMARK  0 active torsions:
REMARK  status: ('A' for Active; 'I' for Inactive)
ROOT
ATOM      1  C2' OXE d   1       1.091  -0.698  -0.620  0.00  0.00     0.078 C 
ATOM      2  C1' OXE d   1       3.160  -1.865   0.875  0.00  0.00     0.078 C 
ATOM      3  C1  OXE d   1       1.883  -1.513   1.597  0.00  0.00    -0.078 A 
ATOM      4  C2  OXE d   1       0.894  -0.899   0.867  0.00  0.00    -0.078 A 
ATOM      5  C3  OXE d   1      -0.325  -0.603   1.471  0.00  0.00     0.003 A 
ATOM      6  C4  OXE d   1      -0.495  -0.783   2.849  0.00  0.00    -0.002 A 
ATOM      7  C5  OXE d   1       0.515  -1.369   3.619  0.00  0.00    -0.002 A 
ATOM      8  C6  OXE d   1       1.692  -1.778   3.001  0.00  0.00     0.003 A 
ENDROOT
TORSDOF 0
ENDMDL
