MODEL 1
REMARK minimizedAffinity 3.12875319
REMARK minimizedRMSD -1
REMARK  0 active torsions:
REMARK  status: ('A' for Active; 'I' for Inactive)
ROOT
ATOM      1  C2' OXE d   1       2.662  -0.849   0.142  0.00  0.00     0.078 C 
ATOM      2  C1' OXE d   1       3.242   1.861   0.592  0.00  0.00     0.078 C 
ATOM      3  C1  OXE d   1       2.831   1.451  -0.800  0.00  0.00    -0.078 A 
ATOM      4  C2  OXE d   1       2.595   0.116  -1.022  0.00  0.00    -0.078 A 
ATOM      5  C3  OXE d   1       2.160  -0.308  -2.275  0.00  0.00     0.003 A 
ATOM      6  C4  OXE d   1       2.110   0.589  -3.349  0.00  0.00    -0.002 A 
ATOM      7  C5  OXE d   1       2.386   1.946  -3.153  0.00  0.00    -0.002 A 
ATOM      8  C6  OXE d   1       2.706   2.400  -1.879  0.00  0.00     0.003 A 
ENDROOT
TORSDOF 0
ENDMDL
