MODEL 1
REMARK minimizedAffinity 11.9416513
REMARK minimizedRMSD -1
REMARK  0 active torsions:
REMARK  status: ('A' for Active; 'I' for Inactive)
ROOT
ATOM      1  C2' OXE d   1       1.219  -0.771  -0.590  0.00  0.00     0.078 C 
ATOM      2  C1' OXE d   1       3.489  -2.191   0.254  0.00  0.00     0.078 C 
ATOM      3  C1  OXE d   1       2.438  -1.867   1.287  0.00  0.00    -0.078 A 
ATOM      4  C2  OXE d   1       1.353  -1.132   0.874  0.00  0.00    -0.078 A 
ATOM      5  C3  OXE d   1       0.328  -0.852   1.774  0.00  0.00     0.003 A 
ATOM      6  C4  OXE d   1       0.464  -1.180   3.128  0.00  0.00    -0.002 A 
ATOM      7  C5  OXE d   1       1.580  -1.894   3.577  0.00  0.00    -0.002 A 
ATOM      8  C6  OXE d   1       2.554  -2.282   2.663  0.00  0.00     0.003 A 
ENDROOT
TORSDOF 0
ENDMDL
