MODEL 1
REMARK minimizedAffinity 4.1525259
REMARK minimizedRMSD -1
REMARK  0 active torsions:
REMARK  status: ('A' for Active; 'I' for Inactive)
ROOT
ATOM      1  C2' OXE d   1       3.284  -2.255   3.630  0.00  0.00     0.078 C 
ATOM      2  C1' OXE d   1       0.762  -1.049   3.369  0.00  0.00     0.078 C 
ATOM      3  C1  OXE d   1       1.518  -1.380   2.106  0.00  0.00    -0.078 A 
ATOM      4  C2  OXE d   1       2.771  -1.927   2.244  0.00  0.00    -0.078 A 
ATOM      5  C3  OXE d   1       3.488  -2.301   1.112  0.00  0.00     0.003 A 
ATOM      6  C4  OXE d   1       3.011  -1.986  -0.166  0.00  0.00    -0.002 A 
ATOM      7  C5  OXE d   1       1.755  -1.392  -0.328  0.00  0.00    -0.002 A 
ATOM      8  C6  OXE d   1       0.979  -1.122   0.794  0.00  0.00     0.003 A 
ENDROOT
TORSDOF 0
ENDMDL
