MODEL 1
REMARK minimizedAffinity -1.73491549
REMARK minimizedRMSD -1
REMARK  0 active torsions:
REMARK  status: ('A' for Active; 'I' for Inactive)
ROOT
ATOM      1  C2' OXE d   1       2.363   0.920   2.966  0.00  0.00     0.078 C 
ATOM      2  C1' OXE d   1       3.233   1.125   0.305  0.00  0.00     0.078 C 
ATOM      3  C1  OXE d   1       2.984  -0.255   0.859  0.00  0.00    -0.078 A 
ATOM      4  C2  OXE d   1       2.603  -0.349   2.176  0.00  0.00    -0.078 A 
ATOM      5  C3  OXE d   1       2.307  -1.595   2.722  0.00  0.00     0.003 A 
ATOM      6  C4  OXE d   1       2.541  -2.764   1.987  0.00  0.00    -0.002 A 
ATOM      7  C5  OXE d   1       2.967  -2.693   0.657  0.00  0.00    -0.002 A 
ATOM      8  C6  OXE d   1       3.151  -1.448   0.066  0.00  0.00     0.003 A 
ENDROOT
TORSDOF 0
ENDMDL
