MODEL 1
REMARK minimizedAffinity -2.05470896
REMARK minimizedRMSD -1
REMARK  0 active torsions:
REMARK  status: ('A' for Active; 'I' for Inactive)
ROOT
ATOM      1  C   UNL d   1       1.126  -0.665   3.415  0.00  0.00    -0.002 A 
ATOM      2  C1  UNL d   1      -0.245  -0.855   3.329  0.00  0.00     0.010 A 
ATOM      3  C2  UNL d   1      -0.913  -0.674   2.116  0.00  0.00     0.041 A 
ATOM      4  C3  UNL d   1      -0.170  -0.296   0.980  0.00  0.00    -0.075 A 
ATOM      5  S   UNL d   1      -0.774  -0.017  -0.611  0.00  0.00     0.015 SA
ATOM      6  C4  UNL d   1       0.775   0.360  -1.214  0.00  0.00     0.022 A 
ATOM      7  C5  UNL d   1       1.741   0.281  -0.238  0.00  0.00     0.026 A 
ATOM      8  C6  UNL d   1       1.212  -0.099   1.041  0.00  0.00    -0.082 A 
ATOM      9  C7  UNL d   1       1.859  -0.290   2.286  0.00  0.00     0.045 A 
ENDROOT
TORSDOF 0
ENDMDL
