MODEL 1
REMARK minimizedAffinity -2.89794779
REMARK minimizedRMSD -1
REMARK  0 active torsions:
REMARK  status: ('A' for Active; 'I' for Inactive)
ROOT
ATOM      1  C   UNL d   1       2.345  -1.474   2.671  0.00  0.00    -0.002 A 
ATOM      2  C1  UNL d   1       2.866  -1.765   1.418  0.00  0.00     0.010 A 
ATOM      3  C2  UNL d   1       2.126  -1.506   0.263  0.00  0.00     0.041 A 
ATOM      4  C3  UNL d   1       0.841  -0.942   0.389  0.00  0.00    -0.075 A 
ATOM      5  S   UNL d   1      -0.247  -0.538  -0.886  0.00  0.00     0.015 SA
ATOM      6  C4  UNL d   1      -1.428   0.032   0.202  0.00  0.00     0.022 A 
ATOM      7  C5  UNL d   1      -1.020  -0.076   1.510  0.00  0.00     0.026 A 
ATOM      8  C6  UNL d   1       0.295  -0.639   1.640  0.00  0.00    -0.082 A 
ATOM      9  C7  UNL d   1       1.070  -0.914   2.792  0.00  0.00     0.045 A 
ENDROOT
TORSDOF 0
ENDMDL
