MODEL 1
REMARK minimizedAffinity -2.27708483
REMARK minimizedRMSD -1
REMARK  0 active torsions:
REMARK  status: ('A' for Active; 'I' for Inactive)
ROOT
ATOM      1  C   UNL d   1       2.124  -0.930   2.378  0.00  0.00    -0.002 A 
ATOM      2  C1  UNL d   1       0.968  -1.145   3.115  0.00  0.00     0.010 A 
ATOM      3  C2  UNL d   1      -0.289  -0.988   2.528  0.00  0.00     0.041 A 
ATOM      4  C3  UNL d   1      -0.365  -0.610   1.173  0.00  0.00    -0.075 A 
ATOM      5  S   UNL d   1      -1.795  -0.359   0.243  0.00  0.00     0.015 SA
ATOM      6  C4  UNL d   1      -0.906   0.038  -1.155  0.00  0.00     0.022 A 
ATOM      7  C5  UNL d   1       0.450  -0.014  -0.936  0.00  0.00     0.026 A 
ATOM      8  C6  UNL d   1       0.784  -0.389   0.409  0.00  0.00    -0.082 A 
ATOM      9  C7  UNL d   1       2.044  -0.555   1.034  0.00  0.00     0.045 A 
ENDROOT
TORSDOF 0
ENDMDL
