MODEL 1
REMARK minimizedAffinity -1.86452794
REMARK minimizedRMSD -1
REMARK  0 active torsions:
REMARK  status: ('A' for Active; 'I' for Inactive)
ROOT
ATOM      1  C   UNL d   1       0.761  -0.656   3.118  0.00  0.00    -0.002 A 
ATOM      2  C1  UNL d   1       1.953  -0.172   2.599  0.00  0.00     0.010 A 
ATOM      3  C2  UNL d   1       2.022   0.282   1.280  0.00  0.00     0.041 A 
ATOM      4  C3  UNL d   1       0.859   0.243   0.485  0.00  0.00    -0.075 A 
ATOM      5  S   UNL d   1       0.705   0.748  -1.156  0.00  0.00     0.015 SA
ATOM      6  C4  UNL d   1      -0.947   0.334  -1.207  0.00  0.00     0.022 A 
ATOM      7  C5  UNL d   1      -1.387  -0.178  -0.009  0.00  0.00     0.026 A 
ATOM      8  C6  UNL d   1      -0.354  -0.239   0.986  0.00  0.00    -0.082 A 
ATOM      9  C7  UNL d   1      -0.390  -0.693   2.326  0.00  0.00     0.045 A 
ENDROOT
TORSDOF 0
ENDMDL
