MODEL 1
REMARK minimizedAffinity -1.5989126
REMARK minimizedRMSD -1
REMARK  0 active torsions:
REMARK  status: ('A' for Active; 'I' for Inactive)
ROOT
ATOM      1  C   UNL d   1      -0.252  -0.896   2.851  0.00  0.00    -0.002 A 
ATOM      2  C1  UNL d   1       1.120  -0.708   2.761  0.00  0.00     0.010 A 
ATOM      3  C2  UNL d   1       1.688  -0.163   1.608  0.00  0.00     0.041 A 
ATOM      4  C3  UNL d   1       0.846   0.196   0.537  0.00  0.00    -0.075 A 
ATOM      5  S   UNL d   1       1.319   0.882  -0.972  0.00  0.00     0.015 SA
ATOM      6  C4  UNL d   1      -0.289   0.942  -1.533  0.00  0.00     0.022 A 
ATOM      7  C5  UNL d   1      -1.178   0.455  -0.605  0.00  0.00     0.026 A 
ATOM      8  C6  UNL d   1      -0.538   0.017   0.604  0.00  0.00    -0.082 A 
ATOM      9  C7  UNL d   1      -1.084  -0.539   1.786  0.00  0.00     0.045 A 
ENDROOT
TORSDOF 0
ENDMDL
