MODEL 1
REMARK minimizedAffinity -1.0045929
REMARK minimizedRMSD -1
REMARK  0 active torsions:
REMARK  status: ('A' for Active; 'I' for Inactive)
ROOT
ATOM      1  C   UNL d   1       0.759  -0.512   2.840  0.00  0.00    -0.002 A 
ATOM      2  C1  UNL d   1       1.961  -0.672   2.165  0.00  0.00     0.010 A 
ATOM      3  C2  UNL d   1       2.034  -0.464   0.786  0.00  0.00     0.041 A 
ATOM      4  C3  UNL d   1       0.868  -0.086   0.091  0.00  0.00    -0.075 A 
ATOM      5  S   UNL d   1       0.720   0.224  -1.598  0.00  0.00     0.015 SA
ATOM      6  C4  UNL d   1      -0.942   0.577  -1.463  0.00  0.00     0.022 A 
ATOM      7  C5  UNL d   1      -1.389   0.466  -0.168  0.00  0.00     0.026 A 
ATOM      8  C6  UNL d   1      -0.353   0.082   0.749  0.00  0.00    -0.082 A 
ATOM      9  C7  UNL d   1      -0.395  -0.137   2.147  0.00  0.00     0.045 A 
ENDROOT
TORSDOF 0
ENDMDL
