MODEL 1
REMARK minimizedAffinity -1.7155062
REMARK minimizedRMSD -1
REMARK  0 active torsions:
REMARK  status: ('A' for Active; 'I' for Inactive)
ROOT
ATOM      1  C   UNL d   1       2.317  -1.084   2.592  0.00  0.00    -0.002 A 
ATOM      2  C1  UNL d   1       2.800  -0.784   1.326  0.00  0.00     0.010 A 
ATOM      3  C2  UNL d   1       1.921  -0.561   0.264  0.00  0.00     0.041 A 
ATOM      4  C3  UNL d   1       0.534  -0.642   0.500  0.00  0.00    -0.075 A 
ATOM      5  S   UNL d   1      -0.730  -0.406  -0.648  0.00  0.00     0.015 SA
ATOM      6  C4  UNL d   1      -1.942  -0.696   0.516  0.00  0.00     0.022 A 
ATOM      7  C5  UNL d   1      -1.412  -0.969   1.755  0.00  0.00     0.026 A 
ATOM      8  C6  UNL d   1       0.024  -0.942   1.766  0.00  0.00    -0.082 A 
ATOM      9  C7  UNL d   1       0.941  -1.164   2.821  0.00  0.00     0.045 A 
ENDROOT
TORSDOF 0
ENDMDL
