MODEL 1
REMARK minimizedAffinity -3.7743547
REMARK minimizedRMSD -1
REMARK  0 active torsions:
REMARK  status: ('A' for Active; 'I' for Inactive)
ROOT
ATOM      1  C   UNL d   1      -0.013  -0.878   2.479  0.00  0.00    -0.002 A 
ATOM      2  C1  UNL d   1       1.059  -1.703   2.169  0.00  0.00     0.010 A 
ATOM      3  C2  UNL d   1       1.515  -1.813   0.854  0.00  0.00     0.041 A 
ATOM      4  C3  UNL d   1       0.870  -1.071  -0.155  0.00  0.00    -0.075 A 
ATOM      5  S   UNL d   1       1.255  -1.047  -1.835  0.00  0.00     0.015 SA
ATOM      6  C4  UNL d   1       0.006   0.060  -2.182  0.00  0.00     0.022 A 
ATOM      7  C5  UNL d   1      -0.697   0.413  -1.055  0.00  0.00     0.026 A 
ATOM      8  C6  UNL d   1      -0.211  -0.232   0.132  0.00  0.00    -0.082 A 
ATOM      9  C7  UNL d   1      -0.650  -0.143   1.475  0.00  0.00     0.045 A 
ENDROOT
TORSDOF 0
ENDMDL
