MODEL 1
REMARK minimizedAffinity -3.22643042
REMARK minimizedRMSD -1
REMARK  0 active torsions:
REMARK  status: ('A' for Active; 'I' for Inactive)
ROOT
ATOM      1  C   UNL d   1      -0.986  -2.220   1.308  0.00  0.00     0.020 A 
ATOM      2  C1  UNL d   1      -1.147  -0.997   1.958  0.00  0.00     0.020 A 
ATOM      3  C2  UNL d   1      -0.754   0.185   1.327  0.00  0.00     0.034 A 
ATOM      4  C3  UNL d   1      -0.199   0.148   0.043  0.00  0.00     0.017 A 
ATOM      5  C4  UNL d   1      -0.037  -1.080  -0.608  0.00  0.00     0.017 A 
ATOM      6  C5  UNL d   1      -0.432  -2.262   0.027  0.00  0.00     0.034 A 
ATOM      7 Cl   UNL d   1       0.641  -1.207  -2.193  0.00  0.00    -0.070 Cl
ATOM      8 Cl1  UNL d   1       0.264   1.649  -0.676  0.00  0.00    -0.070 Cl
ENDROOT
TORSDOF 0
ENDMDL
