MODEL 1
REMARK minimizedAffinity -3.17051506
REMARK minimizedRMSD -1
REMARK  0 active torsions:
REMARK  status: ('A' for Active; 'I' for Inactive)
ROOT
ATOM      1  C   UNL d   1       0.272   1.314  -1.069  0.00  0.00     0.020 A 
ATOM      2  C1  UNL d   1       0.746   0.109  -1.586  0.00  0.00     0.020 A 
ATOM      3  C2  UNL d   1       0.375  -1.099  -0.993  0.00  0.00     0.034 A 
ATOM      4  C3  UNL d   1      -0.472  -1.105   0.122  0.00  0.00     0.017 A 
ATOM      5  C4  UNL d   1      -0.947   0.105   0.640  0.00  0.00     0.017 A 
ATOM      6  C5  UNL d   1      -0.573   1.312   0.042  0.00  0.00     0.034 A 
ATOM      7 Cl   UNL d   1      -1.996   0.177   2.012  0.00  0.00    -0.070 Cl
ATOM      8 Cl1  UNL d   1      -0.890  -2.637   0.804  0.00  0.00    -0.070 Cl
ENDROOT
TORSDOF 0
ENDMDL
