MODEL 1
REMARK minimizedAffinity -4.47279692
REMARK minimizedRMSD -1
REMARK  0 active torsions:
REMARK  status: ('A' for Active; 'I' for Inactive)
ROOT
ATOM      1  C   UNL d   1       0.573  -2.462  -0.432  0.00  0.00     0.020 A 
ATOM      2  C1  UNL d   1      -0.347  -3.006   0.463  0.00  0.00     0.020 A 
ATOM      3  C2  UNL d   1      -1.084  -2.168   1.303  0.00  0.00     0.034 A 
ATOM      4  C3  UNL d   1      -0.902  -0.782   1.249  0.00  0.00     0.017 A 
ATOM      5  C4  UNL d   1       0.022  -0.236   0.350  0.00  0.00     0.017 A 
ATOM      6  C5  UNL d   1       0.758  -1.080  -0.488  0.00  0.00     0.034 A 
ATOM      7 Cl   UNL d   1       0.302   1.465   0.226  0.00  0.00    -0.070 Cl
ATOM      8 Cl1  UNL d   1      -1.847   0.195   2.316  0.00  0.00    -0.070 Cl
ENDROOT
TORSDOF 0
ENDMDL
