MODEL 1
REMARK minimizedAffinity -3.55290055
REMARK minimizedRMSD -1
REMARK  0 active torsions:
REMARK  status: ('A' for Active; 'I' for Inactive)
ROOT
ATOM      1  C   UNL d   1       0.591   0.144  -1.853  0.00  0.00     0.020 A 
ATOM      2  C1  UNL d   1       0.196   1.343  -1.260  0.00  0.00     0.020 A 
ATOM      3  C2  UNL d   1      -0.461   1.329  -0.028  0.00  0.00     0.034 A 
ATOM      4  C3  UNL d   1      -0.727   0.114   0.615  0.00  0.00     0.017 A 
ATOM      5  C4  UNL d   1      -0.330  -1.088   0.018  0.00  0.00     0.017 A 
ATOM      6  C5  UNL d   1       0.328  -1.069  -1.215  0.00  0.00     0.034 A 
ATOM      7 Cl   UNL d   1      -0.623  -2.626   0.751  0.00  0.00    -0.070 Cl
ATOM      8 Cl1  UNL d   1      -1.544   0.172   2.136  0.00  0.00    -0.070 Cl
ENDROOT
TORSDOF 0
ENDMDL
