MODEL 1
REMARK minimizedAffinity -4.85560989
REMARK minimizedRMSD -1
REMARK  0 active torsions:
REMARK  status: ('A' for Active; 'I' for Inactive)
ROOT
ATOM      1  C   UNL d   1       0.627  -2.730  -0.110  0.00  0.00     0.020 A 
ATOM      2  C1  UNL d   1       1.239  -2.108  -1.198  0.00  0.00     0.020 A 
ATOM      3  C2  UNL d   1       1.055  -0.740  -1.414  0.00  0.00     0.034 A 
ATOM      4  C3  UNL d   1       0.258   0.010  -0.542  0.00  0.00     0.017 A 
ATOM      5  C4  UNL d   1      -0.356  -0.616   0.550  0.00  0.00     0.017 A 
ATOM      6  C5  UNL d   1      -0.169  -1.985   0.761  0.00  0.00     0.034 A 
ATOM      7 Cl   UNL d   1      -1.353   0.244   1.669  0.00  0.00    -0.070 Cl
ATOM      8 Cl1  UNL d   1       0.075   1.696  -0.870  0.00  0.00    -0.070 Cl
ENDROOT
TORSDOF 0
ENDMDL
