MODEL 1
REMARK minimizedAffinity -3.29041839
REMARK minimizedRMSD -1
REMARK  0 active torsions:
REMARK  status: ('A' for Active; 'I' for Inactive)
ROOT
ATOM      1  C   UNL d   1      -0.096  -3.061   0.478  0.00  0.00     0.020 A 
ATOM      2  C1  UNL d   1      -0.596  -2.032   1.275  0.00  0.00     0.020 A 
ATOM      3  C2  UNL d   1      -0.618  -0.722   0.791  0.00  0.00     0.034 A 
ATOM      4  C3  UNL d   1      -0.138  -0.438  -0.493  0.00  0.00     0.017 A 
ATOM      5  C4  UNL d   1       0.363  -1.471  -1.292  0.00  0.00     0.017 A 
ATOM      6  C5  UNL d   1       0.382  -2.781  -0.803  0.00  0.00     0.034 A 
ATOM      7 Cl   UNL d   1       0.972  -1.198  -2.886  0.00  0.00    -0.070 Cl
ATOM      8 Cl1  UNL d   1      -0.196   1.205  -1.026  0.00  0.00    -0.070 Cl
ENDROOT
TORSDOF 0
ENDMDL
