MODEL 1
REMARK minimizedAffinity -4.16213226
REMARK minimizedRMSD -1
REMARK  0 active torsions:
REMARK  status: ('A' for Active; 'I' for Inactive)
ROOT
ATOM      1  C   UNL d   1      -0.504  -2.615   1.319  0.00  0.00     0.020 A 
ATOM      2  C1  UNL d   1      -0.710  -1.419   2.004  0.00  0.00     0.020 A 
ATOM      3  C2  UNL d   1      -0.433  -0.200   1.381  0.00  0.00     0.034 A 
ATOM      4  C3  UNL d   1       0.052  -0.176   0.068  0.00  0.00     0.017 A 
ATOM      5  C4  UNL d   1       0.259  -1.377  -0.619  0.00  0.00     0.017 A 
ATOM      6  C5  UNL d   1      -0.021  -2.595   0.010  0.00  0.00     0.034 A 
ATOM      7 Cl   UNL d   1       0.855  -1.427  -2.241  0.00  0.00    -0.070 Cl
ATOM      8 Cl1  UNL d   1       0.373   1.367  -0.641  0.00  0.00    -0.070 Cl
ENDROOT
TORSDOF 0
ENDMDL
