MODEL 1
REMARK minimizedAffinity -1.21085119
REMARK minimizedRMSD -1
REMARK  0 active torsions:
REMARK  status: ('A' for Active; 'I' for Inactive)
ROOT
ATOM      1  C   UNL d   1       0.513   0.410  -1.605  0.00  0.00     0.020 A 
ATOM      2  C1  UNL d   1       0.070   1.509  -0.871  0.00  0.00     0.020 A 
ATOM      3  C2  UNL d   1      -0.599   1.318   0.339  0.00  0.00     0.034 A 
ATOM      4  C3  UNL d   1      -0.828   0.023   0.820  0.00  0.00     0.017 A 
ATOM      5  C4  UNL d   1      -0.383  -1.080   0.082  0.00  0.00     0.017 A 
ATOM      6  C5  UNL d   1       0.286  -0.883  -1.129  0.00  0.00     0.034 A 
ATOM      7 Cl   UNL d   1      -0.629  -2.708   0.610  0.00  0.00    -0.070 Cl
ATOM      8 Cl1  UNL d   1      -1.661  -0.140   2.324  0.00  0.00    -0.070 Cl
ENDROOT
TORSDOF 0
ENDMDL
