MODEL 1
REMARK minimizedAffinity -4.88355827
REMARK minimizedRMSD -1
REMARK  0 active torsions:
REMARK  status: ('A' for Active; 'I' for Inactive)
ROOT
ATOM      1  C   UNL d   1      -0.245  -3.456  -0.419  0.00  0.00     0.020 A 
ATOM      2  C1  UNL d   1       0.444  -2.869  -1.479  0.00  0.00     0.020 A 
ATOM      3  C2  UNL d   1       0.591  -1.482  -1.534  0.00  0.00     0.034 A 
ATOM      4  C3  UNL d   1       0.048  -0.676  -0.526  0.00  0.00     0.017 A 
ATOM      5  C4  UNL d   1      -0.643  -1.266   0.538  0.00  0.00     0.017 A 
ATOM      6  C5  UNL d   1      -0.787  -2.656   0.588  0.00  0.00     0.034 A 
ATOM      7 Cl   UNL d   1      -1.341  -0.338   1.818  0.00  0.00    -0.070 Cl
ATOM      8 Cl1  UNL d   1       0.268   1.033  -0.658  0.00  0.00    -0.070 Cl
ENDROOT
TORSDOF 0
ENDMDL
