MODEL 1
REMARK minimizedAffinity -2.24785233
REMARK minimizedRMSD -1
REMARK  0 active torsions:
REMARK  status: ('A' for Active; 'I' for Inactive)
ROOT
ATOM      1  C   UNL d   1      -0.372  -0.883   1.128  0.00  0.00     0.020 A 
ATOM      2  C1  UNL d   1       0.366  -0.264   2.136  0.00  0.00     0.020 A 
ATOM      3  C2  UNL d   1       1.109   0.884   1.852  0.00  0.00     0.034 A 
ATOM      4  C3  UNL d   1       1.116   1.416   0.558  0.00  0.00     0.017 A 
ATOM      5  C4  UNL d   1       0.375   0.794  -0.453  0.00  0.00     0.017 A 
ATOM      6  C5  UNL d   1      -0.368  -0.354  -0.164  0.00  0.00     0.034 A 
ATOM      7 Cl   UNL d   1       0.334   1.393  -2.074  0.00  0.00    -0.070 Cl
ATOM      8 Cl1  UNL d   1       2.058   2.838   0.279  0.00  0.00    -0.070 Cl
ENDROOT
TORSDOF 0
ENDMDL
