MODEL 1
REMARK minimizedAffinity -4.72521877
REMARK minimizedRMSD -1
REMARK  0 active torsions:
REMARK  status: ('A' for Active; 'I' for Inactive)
ROOT
ATOM      1  C   UNL d   1       0.881  -3.006  -1.536  0.00  0.00     0.020 A 
ATOM      2  C1  UNL d   1       0.055  -3.715  -0.666  0.00  0.00     0.020 A 
ATOM      3  C2  UNL d   1      -0.740  -3.030   0.257  0.00  0.00     0.034 A 
ATOM      4  C3  UNL d   1      -0.709  -1.632   0.311  0.00  0.00     0.017 A 
ATOM      5  C4  UNL d   1       0.121  -0.921  -0.564  0.00  0.00     0.017 A 
ATOM      6  C5  UNL d   1       0.914  -1.612  -1.485  0.00  0.00     0.034 A 
ATOM      7 Cl   UNL d   1       0.213   0.805  -0.557  0.00  0.00    -0.070 Cl
ATOM      8 Cl1  UNL d   1      -1.717  -0.850   1.476  0.00  0.00    -0.070 Cl
ENDROOT
TORSDOF 0
ENDMDL
