MODEL 1
REMARK minimizedAffinity -3.88011003
REMARK minimizedRMSD -1
REMARK  0 active torsions:
REMARK  status: ('A' for Active; 'I' for Inactive)
ROOT
ATOM      1  C   UNL d   1      -0.232  -3.000   0.199  0.00  0.00     0.020 A 
ATOM      2  C1  UNL d   1       0.573  -2.449  -0.797  0.00  0.00     0.020 A 
ATOM      3  C2  UNL d   1       0.690  -1.062  -0.913  0.00  0.00     0.034 A 
ATOM      4  C3  UNL d   1       0.000  -0.221  -0.032  0.00  0.00     0.017 A 
ATOM      5  C4  UNL d   1      -0.808  -0.775   0.968  0.00  0.00     0.017 A 
ATOM      6  C5  UNL d   1      -0.921  -2.164   1.080  0.00  0.00     0.034 A 
ATOM      7 Cl   UNL d   1      -1.689   0.198   2.092  0.00  0.00    -0.070 Cl
ATOM      8 Cl1  UNL d   1       0.191   1.484  -0.234  0.00  0.00    -0.070 Cl
ENDROOT
TORSDOF 0
ENDMDL
