MODEL 1
REMARK minimizedAffinity -1.06539309
REMARK minimizedRMSD -1
REMARK  0 active torsions:
REMARK  status: ('A' for Active; 'I' for Inactive)
ROOT
ATOM      1  C   UNL d   1       0.885  -2.208  -0.236  0.00  0.00     0.020 A 
ATOM      2  C1  UNL d   1       0.052  -2.786   0.721  0.00  0.00     0.020 A 
ATOM      3  C2  UNL d   1      -0.791  -1.981   1.491  0.00  0.00     0.034 A 
ATOM      4  C3  UNL d   1      -0.802  -0.594   1.305  0.00  0.00     0.017 A 
ATOM      5  C4  UNL d   1       0.035  -0.015   0.345  0.00  0.00     0.017 A 
ATOM      6  C5  UNL d   1       0.877  -0.825  -0.423  0.00  0.00     0.034 A 
ATOM      7 Cl   UNL d   1       0.077   1.689   0.059  0.00  0.00    -0.070 Cl
ATOM      8 Cl1  UNL d   1      -1.869   0.340   2.292  0.00  0.00    -0.070 Cl
ENDROOT
TORSDOF 0
ENDMDL
