MODEL 1
REMARK minimizedAffinity -4.76621532
REMARK minimizedRMSD -1
REMARK  0 active torsions:
REMARK  status: ('A' for Active; 'I' for Inactive)
ROOT
ATOM      1  C   UNL d   1       0.413  -3.049   0.015  0.00  0.00     0.020 A 
ATOM      2  C1  UNL d   1       0.151  -2.300   1.161  0.00  0.00     0.020 A 
ATOM      3  C2  UNL d   1       0.010  -0.913   1.071  0.00  0.00     0.034 A 
ATOM      4  C3  UNL d   1       0.132  -0.272  -0.167  0.00  0.00     0.017 A 
ATOM      5  C4  UNL d   1       0.395  -1.025  -1.317  0.00  0.00     0.017 A 
ATOM      6  C5  UNL d   1       0.535  -2.413  -1.221  0.00  0.00     0.034 A 
ATOM      7 Cl   UNL d   1       0.559  -0.305  -2.879  0.00  0.00    -0.070 Cl
ATOM      8 Cl1  UNL d   1      -0.054   1.445  -0.204  0.00  0.00    -0.070 Cl
ENDROOT
TORSDOF 0
ENDMDL
