MODEL 1
REMARK minimizedAffinity -2.47397542
REMARK minimizedRMSD -1
REMARK  0 active torsions:
REMARK  status: ('A' for Active; 'I' for Inactive)
ROOT
ATOM      1  C   UNL d   1      -0.364   1.101  -0.203  0.00  0.00     0.020 A 
ATOM      2  C1  UNL d   1      -0.909   0.383   0.861  0.00  0.00     0.020 A 
ATOM      3  C2  UNL d   1      -0.809  -1.010   0.887  0.00  0.00     0.034 A 
ATOM      4  C3  UNL d   1      -0.164  -1.689  -0.152  0.00  0.00     0.017 A 
ATOM      5  C4  UNL d   1       0.383  -0.968  -1.220  0.00  0.00     0.017 A 
ATOM      6  C5  UNL d   1       0.281   0.427  -1.241  0.00  0.00     0.034 A 
ATOM      7 Cl   UNL d   1       1.195  -1.736  -2.538  0.00  0.00    -0.070 Cl
ATOM      8 Cl1  UNL d   1      -0.077  -3.412  -0.054  0.00  0.00    -0.070 Cl
ENDROOT
TORSDOF 0
ENDMDL
