MODEL 1
REMARK minimizedAffinity -4.46367121
REMARK minimizedRMSD -1
REMARK  0 active torsions:
REMARK  status: ('A' for Active; 'I' for Inactive)
ROOT
ATOM      1  C   UNL d   1       0.419  -2.854  -0.055  0.00  0.00     0.020 A 
ATOM      2  C1  UNL d   1      -0.795  -3.143   0.566  0.00  0.00     0.020 A 
ATOM      3  C2  UNL d   1      -1.564  -2.111   1.109  0.00  0.00     0.034 A 
ATOM      4  C3  UNL d   1      -1.121  -0.786   1.030  0.00  0.00     0.017 A 
ATOM      5  C4  UNL d   1       0.098  -0.497   0.406  0.00  0.00     0.017 A 
ATOM      6  C5  UNL d   1       0.865  -1.534  -0.135  0.00  0.00     0.034 A 
ATOM      7 Cl   UNL d   1       0.711   1.113   0.271  0.00  0.00    -0.070 Cl
ATOM      8 Cl1  UNL d   1      -2.124   0.439   1.722  0.00  0.00    -0.070 Cl
ENDROOT
TORSDOF 0
ENDMDL
