MODEL 1
REMARK minimizedAffinity 8.87096691
REMARK minimizedRMSD -1
REMARK  0 active torsions:
REMARK  status: ('A' for Active; 'I' for Inactive)
ROOT
ATOM      1  C   UNL d   1       5.667   0.548   2.888  0.00  0.00     0.172 C 
ATOM      2  N   UNL d   1       5.274   1.497   1.873  0.00  0.00    -0.070 N 
ATOM      3  C1  UNL d   1       4.128   2.247   1.882  0.00  0.00    -0.004 A 
ATOM      4  C2  UNL d   1       4.124   3.025   0.744  0.00  0.00    -0.047 A 
ATOM      5  C3  UNL d   1       5.307   2.730   0.025  0.00  0.00    -0.047 A 
ATOM      6  C4  UNL d   1       6.000   1.781   0.747  0.00  0.00    -0.004 A 
ENDROOT
TORSDOF 0
ENDMDL
