MODEL 1
REMARK minimizedAffinity 4.87425947
REMARK minimizedRMSD -1
REMARK  0 active torsions:
REMARK  status: ('A' for Active; 'I' for Inactive)
ROOT
ATOM      1  C   UNL d   1       5.446   0.892   2.200  0.00  0.00     0.172 C 
ATOM      2  N   UNL d   1       5.166   1.789   1.104  0.00  0.00    -0.070 N 
ATOM      3  C1  UNL d   1       4.059   2.587   0.989  0.00  0.00    -0.004 A 
ATOM      4  C2  UNL d   1       4.165   3.287  -0.193  0.00  0.00    -0.047 A 
ATOM      5  C3  UNL d   1       5.377   2.896  -0.810  0.00  0.00    -0.047 A 
ATOM      6  C4  UNL d   1       5.976   1.968   0.014  0.00  0.00    -0.004 A 
ENDROOT
TORSDOF 0
ENDMDL
