MODEL 1
REMARK minimizedAffinity 5.57134628
REMARK minimizedRMSD -1
REMARK  0 active torsions:
REMARK  status: ('A' for Active; 'I' for Inactive)
ROOT
ATOM      1  C   UNL d   1       5.264   5.722   0.358  0.00  0.00     0.172 C 
ATOM      2  N   UNL d   1       5.283   4.283   0.480  0.00  0.00    -0.070 N 
ATOM      3  C1  UNL d   1       4.599   3.552   1.414  0.00  0.00    -0.004 A 
ATOM      4  C2  UNL d   1       4.879   2.220   1.195  0.00  0.00    -0.047 A 
ATOM      5  C3  UNL d   1       5.762   2.149   0.091  0.00  0.00    -0.047 A 
ATOM      6  C4  UNL d   1       5.996   3.440  -0.332  0.00  0.00    -0.004 A 
ENDROOT
TORSDOF 0
ENDMDL
