MODEL 1
REMARK minimizedAffinity 12.6938753
REMARK minimizedRMSD -1
REMARK  0 active torsions:
REMARK  status: ('A' for Active; 'I' for Inactive)
ROOT
ATOM      1  C   UNL d   1       3.753   2.605   0.682  0.00  0.00     0.172 C 
ATOM      2  N   UNL d   1       4.481   3.649  -0.000  0.00  0.00    -0.070 N 
ATOM      3  C1  UNL d   1       5.617   3.475  -0.745  0.00  0.00    -0.004 A 
ATOM      4  C2  UNL d   1       6.000   4.708  -1.226  0.00  0.00    -0.047 A 
ATOM      5  C3  UNL d   1       5.062   5.657  -0.752  0.00  0.00    -0.047 A 
ATOM      6  C4  UNL d   1       4.133   4.974   0.004  0.00  0.00    -0.004 A 
ENDROOT
TORSDOF 0
ENDMDL
