MODEL 1
REMARK minimizedAffinity 3.19194078
REMARK minimizedRMSD -1
REMARK  0 active torsions:
REMARK  status: ('A' for Active; 'I' for Inactive)
ROOT
ATOM      1  C   UNL d   1      -2.031  -1.696  -0.438  0.00  0.00     0.172 C 
ATOM      2  N   UNL d   1      -1.615  -2.603   0.606  0.00  0.00    -0.070 N 
ATOM      3  C1  UNL d   1      -1.971  -2.518   1.925  0.00  0.00    -0.004 A 
ATOM      4  C2  UNL d   1      -1.372  -3.564   2.592  0.00  0.00    -0.047 A 
ATOM      5  C3  UNL d   1      -0.629  -4.303   1.641  0.00  0.00    -0.047 A 
ATOM      6  C4  UNL d   1      -0.797  -3.686   0.419  0.00  0.00    -0.004 A 
ENDROOT
TORSDOF 0
ENDMDL
