MODEL 1
REMARK minimizedAffinity 6.35357523
REMARK minimizedRMSD -1
REMARK  0 active torsions:
REMARK  status: ('A' for Active; 'I' for Inactive)
ROOT
ATOM      1  C   UNL d   1       5.641   0.514   2.890  0.00  0.00     0.172 C 
ATOM      2  N   UNL d   1       5.258   1.446   1.855  0.00  0.00    -0.070 N 
ATOM      3  C1  UNL d   1       4.109   2.191   1.836  0.00  0.00    -0.004 A 
ATOM      4  C2  UNL d   1       4.117   2.950   0.686  0.00  0.00    -0.047 A 
ATOM      5  C3  UNL d   1       5.312   2.650  -0.011  0.00  0.00    -0.047 A 
ATOM      6  C4  UNL d   1       5.999   1.716   0.735  0.00  0.00    -0.004 A 
ENDROOT
TORSDOF 0
ENDMDL
