MODEL 1
REMARK minimizedAffinity 4.032197
REMARK minimizedRMSD -1
REMARK  0 active torsions:
REMARK  status: ('A' for Active; 'I' for Inactive)
ROOT
ATOM      1  C   UNL d   1       5.248   5.469   0.352  0.00  0.00     0.172 C 
ATOM      2  N   UNL d   1       5.246   4.036   0.523  0.00  0.00    -0.070 N 
ATOM      3  C1  UNL d   1       5.993   3.144  -0.200  0.00  0.00    -0.004 A 
ATOM      4  C2  UNL d   1       5.708   1.879   0.267  0.00  0.00    -0.047 A 
ATOM      5  C3  UNL d   1       4.757   2.015   1.306  0.00  0.00    -0.047 A 
ATOM      6  C4  UNL d   1       4.489   3.360   1.444  0.00  0.00    -0.004 A 
ENDROOT
TORSDOF 0
ENDMDL
