MODEL 1
REMARK minimizedAffinity 0.149867475
REMARK minimizedRMSD -1
REMARK  0 active torsions:
REMARK  status: ('A' for Active; 'I' for Inactive)
ROOT
ATOM      1  C   UNL d   1      -4.131   6.000  -2.494  0.00  0.00     0.172 C 
ATOM      2  N   UNL d   1      -4.677   5.527  -1.244  0.00  0.00    -0.070 N 
ATOM      3  C1  UNL d   1      -5.811   5.999  -0.638  0.00  0.00    -0.004 A 
ATOM      4  C2  UNL d   1      -5.992   5.290   0.530  0.00  0.00    -0.047 A 
ATOM      5  C3  UNL d   1      -4.930   4.360   0.630  0.00  0.00    -0.047 A 
ATOM      6  C4  UNL d   1      -4.131   4.528  -0.481  0.00  0.00    -0.004 A 
ENDROOT
TORSDOF 0
ENDMDL
