MODEL 1
REMARK minimizedAffinity 10.4106665
REMARK minimizedRMSD -1
REMARK  0 active torsions:
REMARK  status: ('A' for Active; 'I' for Inactive)
ROOT
ATOM      1  C   UNL d   1       2.719  -0.114  -1.920  0.00  0.00     0.172 C 
ATOM      2  N   UNL d   1       3.997  -0.027  -2.587  0.00  0.00    -0.070 N 
ATOM      3  C1  UNL d   1       4.607   1.128  -2.996  0.00  0.00    -0.004 A 
ATOM      4  C2  UNL d   1       5.805   0.787  -3.586  0.00  0.00    -0.047 A 
ATOM      5  C3  UNL d   1       5.918  -0.622  -3.530  0.00  0.00    -0.047 A 
ATOM      6  C4  UNL d   1       4.785  -1.101  -2.907  0.00  0.00    -0.004 A 
ENDROOT
TORSDOF 0
ENDMDL
