MODEL 1
REMARK minimizedAffinity 8.21273136
REMARK minimizedRMSD -1
REMARK  0 active torsions:
REMARK  status: ('A' for Active; 'I' for Inactive)
ROOT
ATOM      1  C   UNL d   1       3.934   2.212   4.722  0.00  0.00     0.172 C 
ATOM      2  N   UNL d   1       4.551   1.929   3.447  0.00  0.00    -0.070 N 
ATOM      3  C1  UNL d   1       5.610   1.085   3.243  0.00  0.00    -0.004 A 
ATOM      4  C2  UNL d   1       5.898   1.088   1.896  0.00  0.00    -0.047 A 
ATOM      5  C3  UNL d   1       4.983   1.966   1.268  0.00  0.00    -0.047 A 
ATOM      6  C4  UNL d   1       4.160   2.473   2.252  0.00  0.00    -0.004 A 
ENDROOT
TORSDOF 0
ENDMDL
