MODEL 1
REMARK minimizedAffinity 8.57547951
REMARK minimizedRMSD -1
REMARK  0 active torsions:
REMARK  status: ('A' for Active; 'I' for Inactive)
ROOT
ATOM      1  C   UNL d   1       4.267   2.564   1.146  0.00  0.00     0.172 C 
ATOM      2  N   UNL d   1       4.811   3.811   0.659  0.00  0.00    -0.070 N 
ATOM      3  C1  UNL d   1       4.497   5.057   1.133  0.00  0.00    -0.004 A 
ATOM      4  C2  UNL d   1       5.224   5.978   0.409  0.00  0.00    -0.047 A 
ATOM      5  C3  UNL d   1       6.000   5.261  -0.532  0.00  0.00    -0.047 A 
ATOM      6  C4  UNL d   1       5.725   3.921  -0.355  0.00  0.00    -0.004 A 
ENDROOT
TORSDOF 0
ENDMDL
