MODEL 1
REMARK minimizedAffinity 4.20315218
REMARK minimizedRMSD -1
REMARK  0 active torsions:
REMARK  status: ('A' for Active; 'I' for Inactive)
ROOT
ATOM      1  C   UNL d   1       5.992   0.392   2.999  0.00  0.00     0.172 C 
ATOM      2  N   UNL d   1       5.517   1.376   2.056  0.00  0.00    -0.070 N 
ATOM      3  C1  UNL d   1       5.999   1.567   0.789  0.00  0.00    -0.004 A 
ATOM      4  C2  UNL d   1       5.284   2.595   0.214  0.00  0.00    -0.047 A 
ATOM      5  C3  UNL d   1       4.339   3.038   1.170  0.00  0.00    -0.047 A 
ATOM      6  C4  UNL d   1       4.505   2.267   2.301  0.00  0.00    -0.004 A 
ENDROOT
TORSDOF 0
ENDMDL
