MODEL 1
REMARK minimizedAffinity 0.810392737
REMARK minimizedRMSD -1
REMARK  0 active torsions:
REMARK  status: ('A' for Active; 'I' for Inactive)
ROOT
ATOM      1  C   UNL d   1      -2.903  -1.503   0.006  0.00  0.00     0.172 C 
ATOM      2  N   UNL d   1      -2.306  -2.485   0.881  0.00  0.00    -0.070 N 
ATOM      3  C1  UNL d   1      -2.705  -2.763   2.160  0.00  0.00    -0.004 A 
ATOM      4  C2  UNL d   1      -1.886  -3.756   2.652  0.00  0.00    -0.047 A 
ATOM      5  C3  UNL d   1      -0.961  -4.085   1.633  0.00  0.00    -0.047 A 
ATOM      6  C4  UNL d   1      -1.244  -3.284   0.547  0.00  0.00    -0.004 A 
ENDROOT
TORSDOF 0
ENDMDL
