MODEL 1
REMARK minimizedAffinity 9.51242733
REMARK minimizedRMSD -1
REMARK  0 active torsions:
REMARK  status: ('A' for Active; 'I' for Inactive)
ROOT
ATOM      1  C   UNL d   1       4.897   1.029   2.524  0.00  0.00     0.172 C 
ATOM      2  N   UNL d   1       5.036   1.948   1.419  0.00  0.00    -0.070 N 
ATOM      3  C1  UNL d   1       5.989   1.878   0.438  0.00  0.00    -0.004 A 
ATOM      4  C2  UNL d   1       5.783   2.931  -0.427  0.00  0.00    -0.047 A 
ATOM      5  C3  UNL d   1       4.667   3.659   0.051  0.00  0.00    -0.047 A 
ATOM      6  C4  UNL d   1       4.225   3.029   1.195  0.00  0.00    -0.004 A 
ENDROOT
TORSDOF 0
ENDMDL
