MODEL 1
REMARK minimizedAffinity 3.94033265
REMARK minimizedRMSD -1
REMARK  0 active torsions:
REMARK  status: ('A' for Active; 'I' for Inactive)
ROOT
ATOM      1  C   UNL d   1      -1.855  -2.427   3.204  0.00  0.00     0.172 C 
ATOM      2  N   UNL d   1      -1.793  -2.590   1.770  0.00  0.00    -0.070 N 
ATOM      3  C1  UNL d   1      -2.129  -1.639   0.844  0.00  0.00    -0.004 A 
ATOM      4  C2  UNL d   1      -1.932  -2.181  -0.408  0.00  0.00    -0.047 A 
ATOM      5  C3  UNL d   1      -1.462  -3.504  -0.227  0.00  0.00    -0.047 A 
ATOM      6  C4  UNL d   1      -1.385  -3.730   1.131  0.00  0.00    -0.004 A 
ENDROOT
TORSDOF 0
ENDMDL
