MODEL 1
REMARK minimizedAffinity 4.0475235
REMARK minimizedRMSD -1
REMARK  0 active torsions:
REMARK  status: ('A' for Active; 'I' for Inactive)
ROOT
ATOM      1  C   UNL d   1      -0.300  -4.790   0.409  0.00  0.00     0.172 C 
ATOM      2  N   UNL d   1      -0.965  -3.531   0.168  0.00  0.00    -0.070 N 
ATOM      3  C1  UNL d   1      -0.673  -2.654  -0.842  0.00  0.00    -0.004 A 
ATOM      4  C2  UNL d   1      -1.528  -1.579  -0.729  0.00  0.00    -0.047 A 
ATOM      5  C3  UNL d   1      -2.364  -1.819   0.388  0.00  0.00    -0.047 A 
ATOM      6  C4  UNL d   1      -1.993  -3.034   0.924  0.00  0.00    -0.004 A 
ENDROOT
TORSDOF 0
ENDMDL
