MODEL 1
REMARK minimizedAffinity 5.64113617
REMARK minimizedRMSD -1
REMARK  1 active torsions:
REMARK  status: ('A' for Active; 'I' for Inactive)
REMARK    1  A    between atoms: N_2  and  C1_3 
ROOT
ATOM      1  C1  UNL d   1      -1.121   3.472  -4.918  0.00  0.00     0.143 A 
ATOM      2  C2  UNL d   1      -0.878   4.432  -3.930  0.00  0.00    -0.057 A 
ATOM      3  C3  UNL d   1      -1.514   5.679  -3.957  0.00  0.00     0.033 A 
ATOM      4  C4  UNL d   1      -2.385   6.000  -4.993  0.00  0.00    -0.042 A 
ATOM      5  C5  UNL d   1      -2.622   5.071  -6.000  0.00  0.00     0.033 A 
ATOM      6  C6  UNL d   1      -1.989   3.824  -5.963  0.00  0.00    -0.057 A 
ENDROOT
BRANCH   1   7
ATOM      7  N   UNL d   1      -0.446   2.252  -5.000  0.00  0.00    -0.732 N 
ATOM      8  C   UNL d   1       0.996   2.198  -4.882  0.00  0.00     0.284 C 
ATOM      9  H3  UNL d   1      -0.931   1.505  -4.507  0.00  0.00     0.395 HD
ENDBRANCH   1   7
TORSDOF 1
ENDMDL
