MODEL 1
REMARK minimizedAffinity 10.7455368
REMARK minimizedRMSD -1
REMARK  1 active torsions:
REMARK  status: ('A' for Active; 'I' for Inactive)
REMARK    1  A    between atoms: N_2  and  C1_3 
ROOT
ATOM      1  C1  UNL d   1       3.989  -1.711   0.233  0.00  0.00     0.143 A 
ATOM      2  C2  UNL d   1       2.819  -1.817  -0.528  0.00  0.00    -0.057 A 
ATOM      3  C3  UNL d   1       2.064  -0.685  -0.859  0.00  0.00     0.033 A 
ATOM      4  C4  UNL d   1       2.451   0.573  -0.409  0.00  0.00    -0.042 A 
ATOM      5  C5  UNL d   1       3.596   0.699   0.369  0.00  0.00     0.033 A 
ATOM      6  C6  UNL d   1       4.350  -0.434   0.691  0.00  0.00    -0.057 A 
ENDROOT
BRANCH   1   7
ATOM      7  N   UNL d   1       4.729  -2.809   0.677  0.00  0.00    -0.732 N 
ATOM      8  C   UNL d   1       5.990  -3.149   0.054  0.00  0.00     0.284 C 
ATOM      9  H3  UNL d   1       4.731  -2.891   1.692  0.00  0.00     0.395 HD
ENDBRANCH   1   7
TORSDOF 1
ENDMDL
