MODEL 1
REMARK minimizedAffinity 11.8313465
REMARK minimizedRMSD -1
REMARK  1 active torsions:
REMARK  status: ('A' for Active; 'I' for Inactive)
REMARK    1  A    between atoms: N_2  and  C1_3 
ROOT
ATOM      1  C1  UNL d   1      -2.160  -3.242  -4.488  0.00  0.00     0.143 A 
ATOM      2  C2  UNL d   1      -2.572  -2.526  -5.616  0.00  0.00    -0.057 A 
ATOM      3  C3  UNL d   1      -3.918  -2.487  -6.000  0.00  0.00     0.033 A 
ATOM      4  C4  UNL d   1      -4.875  -3.190  -5.275  0.00  0.00    -0.042 A 
ATOM      5  C5  UNL d   1      -4.484  -3.930  -4.165  0.00  0.00     0.033 A 
ATOM      6  C6  UNL d   1      -3.139  -3.959  -3.783  0.00  0.00    -0.057 A 
ENDROOT
BRANCH   1   7
ATOM      7  N   UNL d   1      -0.823  -3.400  -4.112  0.00  0.00    -0.732 N 
ATOM      8  C   UNL d   1      -0.474  -4.163  -2.933  0.00  0.00     0.284 C 
ATOM      9  H3  UNL d   1      -0.213  -3.564  -4.910  0.00  0.00     0.395 HD
ENDBRANCH   1   7
TORSDOF 1
ENDMDL
