MODEL 1
REMARK minimizedAffinity 9.14980793
REMARK minimizedRMSD -1
REMARK  1 active torsions:
REMARK  status: ('A' for Active; 'I' for Inactive)
REMARK    1  A    between atoms: N_2  and  C1_3 
ROOT
ATOM      1  C1  UNL d   1      -1.746   1.145   2.464  0.00  0.00     0.143 A 
ATOM      2  C2  UNL d   1      -2.791   0.329   2.015  0.00  0.00    -0.057 A 
ATOM      3  C3  UNL d   1      -4.081   0.445   2.546  0.00  0.00     0.033 A 
ATOM      4  C4  UNL d   1      -4.343   1.362   3.558  0.00  0.00    -0.042 A 
ATOM      5  C5  UNL d   1      -3.315   2.166   4.037  0.00  0.00     0.033 A 
ATOM      6  C6  UNL d   1      -2.030   2.050   3.498  0.00  0.00    -0.057 A 
ENDROOT
BRANCH   1   7
ATOM      7  N   UNL d   1      -0.420   1.010   2.045  0.00  0.00    -0.732 N 
ATOM      8  C   UNL d   1       0.671   1.217   2.974  0.00  0.00     0.284 C 
ATOM      9  H3  UNL d   1      -0.288   0.218   1.420  0.00  0.00     0.395 HD
ENDBRANCH   1   7
TORSDOF 1
ENDMDL
