MODEL 1
REMARK minimizedAffinity 9.94851112
REMARK minimizedRMSD -1
REMARK  1 active torsions:
REMARK  status: ('A' for Active; 'I' for Inactive)
REMARK    1  A    between atoms: N_2  and  C1_3 
ROOT
ATOM      1  C1  UNL d   1      -2.466   1.266   2.818  0.00  0.00     0.143 A 
ATOM      2  C2  UNL d   1      -1.922   2.425   2.253  0.00  0.00    -0.057 A 
ATOM      3  C3  UNL d   1      -0.541   2.560   2.060  0.00  0.00     0.033 A 
ATOM      4  C4  UNL d   1       0.325   1.546   2.457  0.00  0.00    -0.042 A 
ATOM      5  C5  UNL d   1      -0.192   0.396   3.043  0.00  0.00     0.033 A 
ATOM      6  C6  UNL d   1      -1.572   0.264   3.227  0.00  0.00    -0.057 A 
ENDROOT
BRANCH   1   7
ATOM      7  N   UNL d   1      -3.820   1.113   3.126  0.00  0.00    -0.732 N 
ATOM      8  C   UNL d   1      -4.514   2.110   3.911  0.00  0.00     0.284 C 
ATOM      9  H3  UNL d   1      -4.358   0.753   2.341  0.00  0.00     0.395 HD
ENDBRANCH   1   7
TORSDOF 1
ENDMDL
