MODEL 1
REMARK minimizedAffinity 8.46964741
REMARK minimizedRMSD -1
REMARK  1 active torsions:
REMARK  status: ('A' for Active; 'I' for Inactive)
REMARK    1  A    between atoms: N_2  and  C1_3 
ROOT
ATOM      1  C1  UNL d   1       3.074  -1.476   0.189  0.00  0.00     0.143 A 
ATOM      2  C2  UNL d   1       2.456  -2.731   0.220  0.00  0.00    -0.057 A 
ATOM      3  C3  UNL d   1       3.171  -3.884   0.568  0.00  0.00     0.033 A 
ATOM      4  C4  UNL d   1       4.528  -3.806   0.864  0.00  0.00    -0.042 A 
ATOM      5  C5  UNL d   1       5.168  -2.572   0.815  0.00  0.00     0.033 A 
ATOM      6  C6  UNL d   1       4.448  -1.424   0.473  0.00  0.00    -0.057 A 
ENDROOT
BRANCH   1   7
ATOM      7  N   UNL d   1       2.442  -0.309  -0.245  0.00  0.00    -0.732 N 
ATOM      8  C   UNL d   1       2.225  -0.068  -1.655  0.00  0.00     0.284 C 
ATOM      9  H3  UNL d   1       1.655  -0.050   0.346  0.00  0.00     0.395 HD
ENDBRANCH   1   7
TORSDOF 1
ENDMDL
