MODEL 1
REMARK minimizedAffinity 14.9455729
REMARK minimizedRMSD -1
REMARK  1 active torsions:
REMARK  status: ('A' for Active; 'I' for Inactive)
REMARK    1  A    between atoms: N_2  and  C1_3 
ROOT
ATOM      1  C1  UNL d   1      -2.624   1.617   2.831  0.00  0.00     0.143 A 
ATOM      2  C2  UNL d   1      -1.765   2.644   3.238  0.00  0.00    -0.057 A 
ATOM      3  C3  UNL d   1      -0.391   2.589   2.976  0.00  0.00     0.033 A 
ATOM      4  C4  UNL d   1       0.155   1.488   2.324  0.00  0.00    -0.042 A 
ATOM      5  C5  UNL d   1      -0.676   0.444   1.932  0.00  0.00     0.033 A 
ATOM      6  C6  UNL d   1      -2.048   0.508   2.192  0.00  0.00    -0.057 A 
ENDROOT
BRANCH   1   7
ATOM      7  N   UNL d   1      -3.983   1.567   3.150  0.00  0.00    -0.732 N 
ATOM      8  C   UNL d   1      -4.589   2.602   3.960  0.00  0.00     0.284 C 
ATOM      9  H3  UNL d   1      -4.555   1.267   2.364  0.00  0.00     0.395 HD
ENDBRANCH   1   7
TORSDOF 1
ENDMDL
