MODEL 1
REMARK minimizedAffinity 4.72575665
REMARK minimizedRMSD -1
REMARK  1 active torsions:
REMARK  status: ('A' for Active; 'I' for Inactive)
REMARK    1  A    between atoms: N_2  and  C1_3 
ROOT
ATOM      1  C1  UNL d   1      -3.270   4.652  -5.456  0.00  0.00     0.143 A 
ATOM      2  C2  UNL d   1      -2.596   5.085  -4.309  0.00  0.00    -0.057 A 
ATOM      3  C3  UNL d   1      -1.554   4.333  -3.753  0.00  0.00     0.033 A 
ATOM      4  C4  UNL d   1      -1.186   3.117  -4.319  0.00  0.00    -0.042 A 
ATOM      5  C5  UNL d   1      -1.858   2.656  -5.445  0.00  0.00     0.033 A 
ATOM      6  C6  UNL d   1      -2.894   3.414  -6.000  0.00  0.00    -0.057 A 
ENDROOT
BRANCH   1   7
ATOM      7  N   UNL d   1      -4.379   5.305  -6.000  0.00  0.00    -0.732 N 
ATOM      8  C   UNL d   1      -5.682   4.677  -5.990  0.00  0.00     0.284 C 
ATOM      9  H3  UNL d   1      -4.393   6.298  -5.776  0.00  0.00     0.395 HD
ENDBRANCH   1   7
TORSDOF 1
ENDMDL
