MODEL 1
REMARK minimizedAffinity 12.2022982
REMARK minimizedRMSD -1
REMARK  1 active torsions:
REMARK  status: ('A' for Active; 'I' for Inactive)
REMARK    1  A    between atoms: N_2  and  C1_3 
ROOT
ATOM      1  C1  UNL d   1       3.365  -1.072  -0.415  0.00  0.00     0.143 A 
ATOM      2  C2  UNL d   1       4.112   0.069  -0.102  0.00  0.00    -0.057 A 
ATOM      3  C3  UNL d   1       3.903   1.280  -0.773  0.00  0.00     0.033 A 
ATOM      4  C4  UNL d   1       2.961   1.364  -1.792  0.00  0.00    -0.042 A 
ATOM      5  C5  UNL d   1       2.224   0.236  -2.137  0.00  0.00     0.033 A 
ATOM      6  C6  UNL d   1       2.432  -0.968  -1.459  0.00  0.00    -0.057 A 
ENDROOT
BRANCH   1   7
ATOM      7  N   UNL d   1       3.594  -2.330   0.148  0.00  0.00    -0.732 N 
ATOM      8  C   UNL d   1       4.943  -2.819   0.337  0.00  0.00     0.284 C 
ATOM      9  H3  UNL d   1       2.968  -2.527   0.925  0.00  0.00     0.395 HD
ENDBRANCH   1   7
TORSDOF 1
ENDMDL
