MODEL 1
REMARK minimizedAffinity 6.01561165
REMARK minimizedRMSD -1
REMARK  1 active torsions:
REMARK  status: ('A' for Active; 'I' for Inactive)
REMARK    1  A    between atoms: N_2  and  C1_3 
ROOT
ATOM      1  C1  UNL d   1       3.513  -1.400   0.248  0.00  0.00     0.143 A 
ATOM      2  C2  UNL d   1       3.681  -0.125   0.798  0.00  0.00    -0.057 A 
ATOM      3  C3  UNL d   1       2.983   0.980   0.296  0.00  0.00     0.033 A 
ATOM      4  C4  UNL d   1       2.123   0.833  -0.787  0.00  0.00    -0.042 A 
ATOM      5  C5  UNL d   1       1.959  -0.420  -1.366  0.00  0.00     0.033 A 
ATOM      6  C6  UNL d   1       2.654  -1.521  -0.856  0.00  0.00    -0.057 A 
ENDROOT
BRANCH   1   7
ATOM      7  N   UNL d   1       4.252  -2.520   0.639  0.00  0.00    -0.732 N 
ATOM      8  C   UNL d   1       5.630  -2.674   0.224  0.00  0.00     0.284 C 
ATOM      9  H3  UNL d   1       4.077  -2.782   1.606  0.00  0.00     0.395 HD
ENDBRANCH   1   7
TORSDOF 1
ENDMDL
