MODEL 1
REMARK minimizedAffinity 4.6014576
REMARK minimizedRMSD -1
REMARK  1 active torsions:
REMARK  status: ('A' for Active; 'I' for Inactive)
REMARK    1  A    between atoms: N_2  and  C1_3 
ROOT
ATOM      1  C1  UNL d   1      -3.119  -3.132  -4.033  0.00  0.00     0.143 A 
ATOM      2  C2  UNL d   1      -1.948  -2.367  -4.067  0.00  0.00    -0.057 A 
ATOM      3  C3  UNL d   1      -0.810  -2.748  -3.345  0.00  0.00     0.033 A 
ATOM      4  C4  UNL d   1      -0.834  -3.890  -2.551  0.00  0.00    -0.042 A 
ATOM      5  C5  UNL d   1      -1.995  -4.652  -2.482  0.00  0.00     0.033 A 
ATOM      6  C6  UNL d   1      -3.125  -4.270  -3.211  0.00  0.00    -0.057 A 
ENDROOT
BRANCH   1   7
ATOM      7  N   UNL d   1      -4.314  -2.753  -4.650  0.00  0.00    -0.732 N 
ATOM      8  C   UNL d   1      -4.614  -3.179  -6.000  0.00  0.00     0.284 C 
ATOM      9  H3  UNL d   1      -5.108  -2.792  -4.015  0.00  0.00     0.395 HD
ENDBRANCH   1   7
TORSDOF 1
ENDMDL
