MODEL 1
REMARK minimizedAffinity 12.2095947
REMARK minimizedRMSD -1
REMARK  1 active torsions:
REMARK  status: ('A' for Active; 'I' for Inactive)
REMARK    1  A    between atoms: N_2  and  C1_3 
ROOT
ATOM      1  C1  UNL d   1       1.279  -2.488  -2.110  0.00  0.00     0.143 A 
ATOM      2  C2  UNL d   1       0.965  -1.150  -2.369  0.00  0.00    -0.057 A 
ATOM      3  C3  UNL d   1       1.310  -0.136  -1.468  0.00  0.00     0.033 A 
ATOM      4  C4  UNL d   1       1.951  -0.447  -0.273  0.00  0.00    -0.042 A 
ATOM      5  C5  UNL d   1       2.250  -1.774   0.017  0.00  0.00     0.033 A 
ATOM      6  C6  UNL d   1       1.909  -2.781  -0.891  0.00  0.00    -0.057 A 
ENDROOT
BRANCH   1   7
ATOM      7  N   UNL d   1       0.876  -3.553  -2.920  0.00  0.00    -0.732 N 
ATOM      8  C   UNL d   1      -0.519  -3.929  -3.002  0.00  0.00     0.284 C 
ATOM      9  H3  UNL d   1       1.363  -3.568  -3.813  0.00  0.00     0.395 HD
ENDBRANCH   1   7
TORSDOF 1
ENDMDL
