MODEL 1
REMARK minimizedAffinity 12.7568789
REMARK minimizedRMSD -1
REMARK  1 active torsions:
REMARK  status: ('A' for Active; 'I' for Inactive)
REMARK    1  A    between atoms: N_2  and  C1_3 
ROOT
ATOM      1  C1  UNL d   1       1.137   1.262   1.916  0.00  0.00     0.143 A 
ATOM      2  C2  UNL d   1       2.379   1.876   2.112  0.00  0.00    -0.057 A 
ATOM      3  C3  UNL d   1       3.431   1.690   1.207  0.00  0.00     0.033 A 
ATOM      4  C4  UNL d   1       3.268   0.862   0.101  0.00  0.00    -0.042 A 
ATOM      5  C5  UNL d   1       2.050   0.222  -0.100  0.00  0.00     0.033 A 
ATOM      6  C6  UNL d   1       1.001   0.417   0.804  0.00  0.00    -0.057 A 
ENDROOT
BRANCH   1   7
ATOM      7  N   UNL d   1       0.084   1.329   2.832  0.00  0.00    -0.732 N 
ATOM      8  C   UNL d   1      -1.279   1.498   2.377  0.00  0.00     0.284 C 
ATOM      9  H3  UNL d   1       0.188   0.661   3.593  0.00  0.00     0.395 HD
ENDBRANCH   1   7
TORSDOF 1
ENDMDL
