MODEL 1
REMARK minimizedAffinity 5.80062199
REMARK minimizedRMSD -1
REMARK  0 active torsions:
REMARK  status: ('A' for Active; 'I' for Inactive)
ROOT
ATOM      1  O1  BZF d   1      -2.611   1.387   2.575  0.00  0.00    -0.204 OA
ATOM      2  C2  BZF d   1      -3.280   1.404   1.366  0.00  0.00     0.174 A 
ATOM      3  C3  BZF d   1      -2.759   0.494   0.518  0.00  0.00    -0.012 A 
ATOM      4  C3A BZF d   1      -1.758  -0.195   1.274  0.00  0.00    -0.107 A 
ATOM      5  C4  BZF d   1      -0.904  -1.221   0.986  0.00  0.00     0.055 A 
ATOM      6  C5  BZF d   1      -0.000  -1.611   1.922  0.00  0.00    -0.016 A 
ATOM      7  C6  BZF d   1       0.081  -0.995   3.154  0.00  0.00     0.022 A 
ATOM      8  C7  BZF d   1      -0.749   0.023   3.488  0.00  0.00     0.029 A 
ATOM      9  C7A BZF d   1      -1.685   0.398   2.556  0.00  0.00     0.058 A 
ENDROOT
TORSDOF 0
ENDMDL
