MODEL 1
REMARK minimizedAffinity 5.37327433
REMARK minimizedRMSD -1
REMARK  0 active torsions:
REMARK  status: ('A' for Active; 'I' for Inactive)
ROOT
ATOM      1  O1  BZF d   1      -0.209   1.032  -4.598  0.00  0.00    -0.204 OA
ATOM      2  C2  BZF d   1       0.289   0.776  -5.860  0.00  0.00     0.174 A 
ATOM      3  C3  BZF d   1       0.589  -0.532  -5.999  0.00  0.00    -0.012 A 
ATOM      4  C3A BZF d   1       0.171  -1.146  -4.777  0.00  0.00    -0.107 A 
ATOM      5  C4  BZF d   1       0.191  -2.432  -4.317  0.00  0.00     0.055 A 
ATOM      6  C5  BZF d   1      -0.226  -2.687  -3.049  0.00  0.00    -0.016 A 
ATOM      7  C6  BZF d   1      -0.662  -1.680  -2.212  0.00  0.00     0.022 A 
ATOM      8  C7  BZF d   1      -0.704  -0.390  -2.625  0.00  0.00     0.029 A 
ATOM      9  C7A BZF d   1      -0.316  -0.134  -3.917  0.00  0.00     0.058 A 
ENDROOT
TORSDOF 0
ENDMDL
