MODEL 1
REMARK minimizedAffinity -3.86381769
REMARK minimizedRMSD -1
REMARK  0 active torsions:
REMARK  status: ('A' for Active; 'I' for Inactive)
ROOT
ATOM      1  O1  BZF d   1       1.240   1.839  -5.072  0.00  0.00    -0.204 OA
ATOM      2  C2  BZF d   1       2.243   1.039  -5.586  0.00  0.00     0.174 A 
ATOM      3  C3  BZF d   1       1.778  -0.198  -5.855  0.00  0.00    -0.012 A 
ATOM      4  C3A BZF d   1       0.376  -0.143  -5.572  0.00  0.00    -0.107 A 
ATOM      5  C4  BZF d   1      -0.635  -1.056  -5.658  0.00  0.00     0.055 A 
ATOM      6  C5  BZF d   1      -1.879  -0.707  -5.235  0.00  0.00    -0.016 A 
ATOM      7  C6  BZF d   1      -2.144   0.544  -4.718  0.00  0.00     0.022 A 
ATOM      8  C7  BZF d   1      -1.174   1.485  -4.617  0.00  0.00     0.029 A 
ATOM      9  C7A BZF d   1       0.076   1.146  -5.074  0.00  0.00     0.058 A 
ENDROOT
TORSDOF 0
ENDMDL
