MODEL 1
REMARK minimizedAffinity 7.18214464
REMARK minimizedRMSD -1
REMARK  0 active torsions:
REMARK  status: ('A' for Active; 'I' for Inactive)
ROOT
ATOM      1  O1  BZF d   1      -3.412  -1.409   0.192  0.00  0.00    -0.204 OA
ATOM      2  C2  BZF d   1      -2.919  -2.640  -0.196  0.00  0.00     0.174 A 
ATOM      3  C3  BZF d   1      -1.726  -2.883   0.384  0.00  0.00    -0.012 A 
ATOM      4  C3A BZF d   1      -1.500  -1.772   1.257  0.00  0.00    -0.107 A 
ATOM      5  C4  BZF d   1      -0.491  -1.445   2.118  0.00  0.00     0.055 A 
ATOM      6  C5  BZF d   1      -0.538  -0.253   2.768  0.00  0.00    -0.016 A 
ATOM      7  C6  BZF d   1      -1.574   0.638   2.577  0.00  0.00     0.022 A 
ATOM      8  C7  BZF d   1      -2.600   0.355   1.737  0.00  0.00     0.029 A 
ATOM      9  C7A BZF d   1      -2.572  -0.863   1.104  0.00  0.00     0.058 A 
ENDROOT
TORSDOF 0
ENDMDL
