MODEL 1
REMARK minimizedAffinity 6.32011223
REMARK minimizedRMSD -1
REMARK  0 active torsions:
REMARK  status: ('A' for Active; 'I' for Inactive)
ROOT
ATOM      1  O1  BZF d   1      -4.168   0.411  -5.915  0.00  0.00    -0.204 OA
ATOM      2  C2  BZF d   1      -4.972  -0.300  -5.045  0.00  0.00     0.174 A 
ATOM      3  C3  BZF d   1      -4.237  -0.853  -4.058  0.00  0.00    -0.012 A 
ATOM      4  C3A BZF d   1      -2.902  -0.386  -4.277  0.00  0.00    -0.107 A 
ATOM      5  C4  BZF d   1      -1.721  -0.578  -3.618  0.00  0.00     0.055 A 
ATOM      6  C5  BZF d   1      -0.583  -0.040  -4.133  0.00  0.00    -0.016 A 
ATOM      7  C6  BZF d   1      -0.590   0.688  -5.304  0.00  0.00     0.022 A 
ATOM      8  C7  BZF d   1      -1.738   0.909  -5.990  0.00  0.00     0.029 A 
ATOM      9  C7A BZF d   1      -2.894   0.395  -5.455  0.00  0.00     0.058 A 
ENDROOT
TORSDOF 0
ENDMDL
