MODEL 1
REMARK minimizedAffinity 6.43677759
REMARK minimizedRMSD -1
REMARK  0 active torsions:
REMARK  status: ('A' for Active; 'I' for Inactive)
ROOT
ATOM      1  O1  BZF d   1      -0.496  -0.588  -5.999  0.00  0.00    -0.204 OA
ATOM      2  C2  BZF d   1      -1.323   0.518  -5.963  0.00  0.00     0.174 A 
ATOM      3  C3  BZF d   1      -1.856   0.676  -4.734  0.00  0.00    -0.012 A 
ATOM      4  C3A BZF d   1      -1.256  -0.344  -3.929  0.00  0.00    -0.107 A 
ATOM      5  C4  BZF d   1      -1.371  -0.691  -2.613  0.00  0.00     0.055 A 
ATOM      6  C5  BZF d   1      -0.704  -1.784  -2.158  0.00  0.00    -0.016 A 
ATOM      7  C6  BZF d   1       0.081  -2.555  -2.990  0.00  0.00     0.022 A 
ATOM      8  C7  BZF d   1       0.229  -2.247  -4.302  0.00  0.00     0.029 A 
ATOM      9  C7A BZF d   1      -0.417  -1.124  -4.758  0.00  0.00     0.058 A 
ENDROOT
TORSDOF 0
ENDMDL
