MODEL 1
REMARK minimizedAffinity -1.73959243
REMARK minimizedRMSD -1
REMARK  0 active torsions:
REMARK  status: ('A' for Active; 'I' for Inactive)
ROOT
ATOM      1  O1  BZF d   1       0.197  -2.420  -3.668  0.00  0.00    -0.204 OA
ATOM      2  C2  BZF d   1      -0.687  -2.648  -2.631  0.00  0.00     0.174 A 
ATOM      3  C3  BZF d   1      -1.668  -1.723  -2.626  0.00  0.00    -0.012 A 
ATOM      4  C3A BZF d   1      -1.432  -0.918  -3.785  0.00  0.00    -0.107 A 
ATOM      5  C4  BZF d   1      -2.077   0.154  -4.331  0.00  0.00     0.055 A 
ATOM      6  C5  BZF d   1      -1.547   0.757  -5.427  0.00  0.00    -0.016 A 
ATOM      7  C6  BZF d   1      -0.371   0.317  -6.000  0.00  0.00     0.022 A 
ATOM      8  C7  BZF d   1       0.303  -0.745  -5.497  0.00  0.00     0.029 A 
ATOM      9  C7A BZF d   1      -0.248  -1.377  -4.408  0.00  0.00     0.058 A 
ENDROOT
TORSDOF 0
ENDMDL
