MODEL 1
REMARK minimizedAffinity 1.7586534
REMARK minimizedRMSD -1
REMARK  0 active torsions:
REMARK  status: ('A' for Active; 'I' for Inactive)
ROOT
ATOM      1  O1  BZF d   1       5.634   5.061   3.141  0.00  0.00    -0.204 OA
ATOM      2  C2  BZF d   1       5.463   5.089   1.770  0.00  0.00     0.174 A 
ATOM      3  C3  BZF d   1       5.029   3.895   1.318  0.00  0.00    -0.012 A 
ATOM      4  C3A BZF d   1       4.834   3.097   2.489  0.00  0.00    -0.107 A 
ATOM      5  C4  BZF d   1       4.397   1.819   2.693  0.00  0.00     0.055 A 
ATOM      6  C5  BZF d   1       4.392   1.316   3.955  0.00  0.00    -0.016 A 
ATOM      7  C6  BZF d   1       4.820   2.061   5.035  0.00  0.00     0.022 A 
ATOM      8  C7  BZF d   1       5.257   3.335   4.883  0.00  0.00     0.029 A 
ATOM      9  C7A BZF d   1       5.232   3.857   3.613  0.00  0.00     0.058 A 
ENDROOT
TORSDOF 0
ENDMDL
