MODEL 1
REMARK minimizedAffinity 6.8163991
REMARK minimizedRMSD -1
REMARK  0 active torsions:
REMARK  status: ('A' for Active; 'I' for Inactive)
ROOT
ATOM      1  O1  BZF d   1       4.128   3.312   2.977  0.00  0.00    -0.204 OA
ATOM      2  C2  BZF d   1       4.200   2.630   1.778  0.00  0.00     0.174 A 
ATOM      3  C3  BZF d   1       4.878   1.473   1.925  0.00  0.00    -0.012 A 
ATOM      4  C3A BZF d   1       5.173   1.386   3.323  0.00  0.00    -0.107 A 
ATOM      5  C4  BZF d   1       5.815   0.456   4.090  0.00  0.00     0.055 A 
ATOM      6  C5  BZF d   1       6.000   0.706   5.413  0.00  0.00    -0.016 A 
ATOM      7  C6  BZF d   1       5.561   1.875   6.000  0.00  0.00     0.022 A 
ATOM      8  C7  BZF d   1       4.915   2.824   5.280  0.00  0.00     0.029 A 
ATOM      9  C7A BZF d   1       4.697   2.560   3.950  0.00  0.00     0.058 A 
ENDROOT
TORSDOF 0
ENDMDL
