MODEL 1
REMARK minimizedAffinity -5.58098507
REMARK minimizedRMSD -1
REMARK  2 active torsions:
REMARK  status: ('A' for Active; 'I' for Inactive)
REMARK    1  A    between atoms: C2'_3  and  C1'_4 
REMARK    2  A    between atoms: C1'_4  and  C1_5 
ROOT
ATOM      1  C1  I4B d   1       0.087   0.028  -0.246  0.00  0.00    -0.075 A 
ATOM      2  C2  I4B d   1      -0.955  -0.302   0.585  0.00  0.00     0.003 A 
ATOM      3  C3  I4B d   1      -0.704  -0.682   1.925  0.00  0.00     0.002 A 
ATOM      4  C4  I4B d   1       0.597  -0.767   2.376  0.00  0.00    -0.004 A 
ATOM      5  C5  I4B d   1       1.651  -0.411   1.539  0.00  0.00     0.002 A 
ATOM      6  C6  I4B d   1       1.394   0.001   0.223  0.00  0.00     0.003 A 
ENDROOT
BRANCH   1   7
ATOM      7  C1' I4B d   1      -0.211   0.393  -1.666  0.00  0.00     0.060 C 
BRANCH   7   8
ATOM      8  C2' I4B d   1      -0.576   1.863  -1.703  0.00  0.00    -0.013 C 
ATOM      9  C4' I4B d   1       0.435   2.656  -2.488  0.00  0.00     0.013 C 
ATOM     10  C3' I4B d   1      -1.945   1.985  -2.303  0.00  0.00     0.013 C 
ENDBRANCH   7   8
ENDBRANCH   1   7
TORSDOF 2
ENDMDL
