MODEL 1
REMARK minimizedAffinity -6.40978956
REMARK minimizedRMSD -1
REMARK  2 active torsions:
REMARK  status: ('A' for Active; 'I' for Inactive)
REMARK    1  A    between atoms: C2'_3  and  C1'_4 
REMARK    2  A    between atoms: C1'_4  and  C1_5 
ROOT
ATOM      1  C1  I4B d   1       1.465  -0.239   0.565  0.00  0.00    -0.075 A 
ATOM      2  C2  I4B d   1       1.251  -0.239   1.921  0.00  0.00     0.003 A 
ATOM      3  C3  I4B d   1       1.740  -1.300   2.720  0.00  0.00     0.002 A 
ATOM      4  C4  I4B d   1       2.388  -2.360   2.120  0.00  0.00    -0.004 A 
ATOM      5  C5  I4B d   1       2.624  -2.348   0.748  0.00  0.00     0.002 A 
ATOM      6  C6  I4B d   1       2.170  -1.275  -0.033  0.00  0.00     0.003 A 
ENDROOT
BRANCH   1   7
ATOM      7  C1' I4B d   1       0.906   0.881  -0.253  0.00  0.00     0.060 C 
BRANCH   7   8
ATOM      8  C2' I4B d   1      -0.489   0.487  -0.694  0.00  0.00    -0.013 C 
ATOM      9  C4' I4B d   1      -1.371   0.189   0.490  0.00  0.00     0.013 C 
ATOM     10  C3' I4B d   1      -1.049   1.609  -1.517  0.00  0.00     0.013 C 
ENDBRANCH   7   8
ENDBRANCH   1   7
TORSDOF 2
ENDMDL
