MODEL 1
REMARK minimizedAffinity -7.046597
REMARK minimizedRMSD -1
REMARK  2 active torsions:
REMARK  status: ('A' for Active; 'I' for Inactive)
REMARK    1  A    between atoms: C2'_3  and  C1'_4 
REMARK    2  A    between atoms: C1'_4  and  C1_5 
ROOT
ATOM      1  C1  I4B d   1       0.282  -0.468   0.888  0.00  0.00    -0.075 A 
ATOM      2  C2  I4B d   1       0.029  -0.274   2.223  0.00  0.00     0.003 A 
ATOM      3  C3  I4B d   1       0.887  -0.837   3.200  0.00  0.00     0.002 A 
ATOM      4  C4  I4B d   1       1.949  -1.622   2.800  0.00  0.00    -0.004 A 
ATOM      5  C5  I4B d   1       2.216  -1.798   1.446  0.00  0.00     0.002 A 
ATOM      6  C6  I4B d   1       1.385  -1.207   0.483  0.00  0.00     0.003 A 
ENDROOT
BRANCH   1   7
ATOM      7  C1' I4B d   1      -0.663   0.113  -0.115  0.00  0.00     0.060 C 
BRANCH   7   8
ATOM      8  C2' I4B d   1       0.117   0.395  -1.383  0.00  0.00    -0.013 C 
ATOM      9  C4' I4B d   1       0.092  -0.789  -2.313  0.00  0.00     0.013 C 
ATOM     10  C3' I4B d   1      -0.478   1.608  -2.034  0.00  0.00     0.013 C 
ENDBRANCH   7   8
ENDBRANCH   1   7
TORSDOF 2
ENDMDL
