MODEL 1
REMARK minimizedAffinity -4.58913994
REMARK minimizedRMSD -1
REMARK  2 active torsions:
REMARK  status: ('A' for Active; 'I' for Inactive)
REMARK    1  A    between atoms: C2'_3  and  C1'_4 
REMARK    2  A    between atoms: C1'_4  and  C1_5 
ROOT
ATOM      1  C1  I4B d   1       1.120  -0.938   0.416  0.00  0.00    -0.075 A 
ATOM      2  C2  I4B d   1       0.770  -0.543   1.683  0.00  0.00     0.003 A 
ATOM      3  C3  I4B d   1       1.534  -0.964   2.797  0.00  0.00     0.002 A 
ATOM      4  C4  I4B d   1       2.603  -1.816   2.606  0.00  0.00    -0.004 A 
ATOM      5  C5  I4B d   1       2.971  -2.196   1.318  0.00  0.00     0.002 A 
ATOM      6  C6  I4B d   1       2.232  -1.745   0.215  0.00  0.00     0.003 A 
ENDROOT
BRANCH   1   7
ATOM      7  C1' I4B d   1       0.271  -0.501  -0.736  0.00  0.00     0.060 C 
BRANCH   7   8
ATOM      8  C2' I4B d   1      -0.187   0.918  -0.466  0.00  0.00    -0.013 C 
ATOM      9  C4' I4B d   1      -0.586   1.614  -1.741  0.00  0.00     0.013 C 
ATOM     10  C3' I4B d   1      -1.333   0.859   0.500  0.00  0.00     0.013 C 
ENDBRANCH   7   8
ENDBRANCH   1   7
TORSDOF 2
ENDMDL
