MODEL 1
REMARK minimizedAffinity -3.55337691
REMARK minimizedRMSD -1
REMARK  2 active torsions:
REMARK  status: ('A' for Active; 'I' for Inactive)
REMARK    1  A    between atoms: C2'_3  and  C1'_4 
REMARK    2  A    between atoms: C1'_4  and  C1_5 
ROOT
ATOM      1  C1  I4B d   1       0.035  -0.282  -0.224  0.00  0.00    -0.075 A 
ATOM      2  C2  I4B d   1       1.273  -0.599   0.279  0.00  0.00     0.003 A 
ATOM      3  C3  I4B d   1       1.415  -0.978   1.636  0.00  0.00     0.002 A 
ATOM      4  C4  I4B d   1       0.309  -0.976   2.462  0.00  0.00    -0.004 A 
ATOM      5  C5  I4B d   1      -0.948  -0.676   1.945  0.00  0.00     0.002 A 
ATOM      6  C6  I4B d   1      -1.088  -0.339   0.591  0.00  0.00     0.003 A 
ENDROOT
BRANCH   1   7
ATOM      7  C1' I4B d   1      -0.074   0.146  -1.653  0.00  0.00     0.060 C 
BRANCH   7   8
ATOM      8  C2' I4B d   1      -0.591   1.569  -1.676  0.00  0.00    -0.013 C 
ATOM      9  C4' I4B d   1       0.376   2.489  -2.374  0.00  0.00     0.013 C 
ATOM     10  C3' I4B d   1      -1.926   1.566  -2.361  0.00  0.00     0.013 C 
ENDBRANCH   7   8
ENDBRANCH   1   7
TORSDOF 2
ENDMDL
