MODEL 1
REMARK minimizedAffinity -4.41918993
REMARK minimizedRMSD -1
REMARK  2 active torsions:
REMARK  status: ('A' for Active; 'I' for Inactive)
REMARK    1  A    between atoms: C2'_3  and  C1'_4 
REMARK    2  A    between atoms: C1'_4  and  C1_5 
ROOT
ATOM      1  C1  I4B d   1      -0.150   0.054  -0.200  0.00  0.00    -0.075 A 
ATOM      2  C2  I4B d   1       0.904  -0.718   0.224  0.00  0.00     0.003 A 
ATOM      3  C3  I4B d   1       0.987  -1.129   1.576  0.00  0.00     0.002 A 
ATOM      4  C4  I4B d   1       0.029  -0.707   2.475  0.00  0.00    -0.004 A 
ATOM      5  C5  I4B d   1      -1.050   0.056   2.039  0.00  0.00     0.002 A 
ATOM      6  C6  I4B d   1      -1.147   0.429   0.691  0.00  0.00     0.003 A 
ENDROOT
BRANCH   1   7
ATOM      7  C1' I4B d   1      -0.189   0.498  -1.628  0.00  0.00     0.060 C 
BRANCH   7   8
ATOM      8  C2' I4B d   1      -0.706   1.922  -1.660  0.00  0.00    -0.013 C 
ATOM      9  C4' I4B d   1       0.382   2.888  -2.046  0.00  0.00     0.013 C 
ATOM     10  C3' I4B d   1      -1.849   1.978  -2.629  0.00  0.00     0.013 C 
ENDBRANCH   7   8
ENDBRANCH   1   7
TORSDOF 2
ENDMDL
