MODEL 1
REMARK minimizedAffinity -4.78246403
REMARK minimizedRMSD -1
REMARK  2 active torsions:
REMARK  status: ('A' for Active; 'I' for Inactive)
REMARK    1  A    between atoms: C2'_3  and  C1'_4 
REMARK    2  A    between atoms: C1'_4  and  C1_5 
ROOT
ATOM      1  C1  I4B d   1       0.414  -0.455  -0.395  0.00  0.00    -0.075 A 
ATOM      2  C2  I4B d   1      -0.392  -0.086   0.653  0.00  0.00     0.003 A 
ATOM      3  C3  I4B d   1      -0.059  -0.464   1.976  0.00  0.00     0.002 A 
ATOM      4  C4  I4B d   1       1.054  -1.249   2.199  0.00  0.00    -0.004 A 
ATOM      5  C5  I4B d   1       1.883  -1.603   1.138  0.00  0.00     0.002 A 
ATOM      6  C6  I4B d   1       1.568  -1.193  -0.166  0.00  0.00     0.003 A 
ENDROOT
BRANCH   1   7
ATOM      7  C1' I4B d   1       0.015  -0.066  -1.783  0.00  0.00     0.060 C 
BRANCH   7   8
ATOM      8  C2' I4B d   1      -0.441   1.379  -1.750  0.00  0.00    -0.013 C 
ATOM      9  C4' I4B d   1       0.532   2.274  -2.471  0.00  0.00     0.013 C 
ATOM     10  C3' I4B d   1      -1.804   1.449  -2.372  0.00  0.00     0.013 C 
ENDBRANCH   7   8
ENDBRANCH   1   7
TORSDOF 2
ENDMDL
