MODEL 1
REMARK minimizedAffinity 1.67759752
REMARK minimizedRMSD -1
REMARK  0 active torsions:
REMARK  status: ('A' for Active; 'I' for Inactive)
ROOT
ATOM      1  C   UNL d   1      -2.657  -3.709  -3.547  0.00  0.00     0.023 A 
ATOM      2  C1  UNL d   1      -2.427  -2.379  -3.900  0.00  0.00     0.003 A 
ATOM      3  C2  UNL d   1      -1.985  -1.466  -2.940  0.00  0.00     0.048 A 
ATOM      4  C3  UNL d   1      -1.774  -1.890  -1.629  0.00  0.00     0.023 A 
ATOM      5  C4  UNL d   1      -2.003  -3.220  -1.270  0.00  0.00     0.048 A 
ATOM      6  C5  UNL d   1      -2.445  -4.128  -2.233  0.00  0.00     0.003 A 
ATOM      7  I   UNL d   1      -1.116  -0.534  -0.198  0.00  0.00    -0.146 I 
ENDROOT
TORSDOF 0
ENDMDL
