MODEL 1
REMARK minimizedAffinity 0.537915647
REMARK minimizedRMSD -1
REMARK  0 active torsions:
REMARK  status: ('A' for Active; 'I' for Inactive)
ROOT
ATOM      1  C   UNL d   1      -3.034  -3.359  -3.783  0.00  0.00     0.023 A 
ATOM      2  C1  UNL d   1      -2.595  -3.896  -2.573  0.00  0.00     0.003 A 
ATOM      3  C2  UNL d   1      -1.983  -3.073  -1.624  0.00  0.00     0.048 A 
ATOM      4  C3  UNL d   1      -1.814  -1.715  -1.892  0.00  0.00     0.023 A 
ATOM      5  C4  UNL d   1      -2.253  -1.174  -3.102  0.00  0.00     0.048 A 
ATOM      6  C5  UNL d   1      -2.864  -2.000  -4.047  0.00  0.00     0.003 A 
ATOM      7  I   UNL d   1      -0.904  -0.490  -0.482  0.00  0.00    -0.146 I 
ENDROOT
TORSDOF 0
ENDMDL
