MODEL 1
REMARK minimizedAffinity -3.70508718
REMARK minimizedRMSD -1
REMARK  0 active torsions:
REMARK  status: ('A' for Active; 'I' for Inactive)
ROOT
ATOM      1  C   UNL d   1      -4.852   3.383   5.868  0.00  0.00     0.023 A 
ATOM      2  C1  UNL d   1      -4.688   2.759   4.632  0.00  0.00     0.003 A 
ATOM      3  C2  UNL d   1      -4.755   3.509   3.456  0.00  0.00     0.048 A 
ATOM      4  C3  UNL d   1      -4.985   4.882   3.523  0.00  0.00     0.023 A 
ATOM      5  C4  UNL d   1      -5.148   5.511   4.758  0.00  0.00     0.048 A 
ATOM      6  C5  UNL d   1      -5.082   4.758   5.932  0.00  0.00     0.003 A 
ATOM      7  I   UNL d   1      -5.084   6.000   1.774  0.00  0.00    -0.146 I 
ENDROOT
TORSDOF 0
ENDMDL
