MODEL 1
REMARK minimizedAffinity 0.316039085
REMARK minimizedRMSD -1
REMARK  0 active torsions:
REMARK  status: ('A' for Active; 'I' for Inactive)
ROOT
ATOM      1  C   UNL d   1      -5.180   4.336  -0.328  0.00  0.00     0.023 A 
ATOM      2  C1  UNL d   1      -4.503   5.508   0.012  0.00  0.00     0.003 A 
ATOM      3  C2  UNL d   1      -4.549   5.987   1.323  0.00  0.00     0.048 A 
ATOM      4  C3  UNL d   1      -5.274   5.289   2.289  0.00  0.00     0.023 A 
ATOM      5  C4  UNL d   1      -5.952   4.116   1.953  0.00  0.00     0.048 A 
ATOM      6  C5  UNL d   1      -5.903   3.641   0.641  0.00  0.00     0.003 A 
ATOM      7  I   UNL d   1      -5.344   6.000   4.240  0.00  0.00    -0.146 I 
ENDROOT
TORSDOF 0
ENDMDL
