MODEL 1
REMARK minimizedAffinity -0.545058489
REMARK minimizedRMSD -1
REMARK  0 active torsions:
REMARK  status: ('A' for Active; 'I' for Inactive)
ROOT
ATOM      1  C   UNL d   1      -4.953   5.322   1.088  0.00  0.00     0.023 A 
ATOM      2  C1  UNL d   1      -3.921   5.962   1.774  0.00  0.00     0.003 A 
ATOM      3  C2  UNL d   1      -3.925   5.996   3.170  0.00  0.00     0.048 A 
ATOM      4  C3  UNL d   1      -4.964   5.386   3.873  0.00  0.00     0.023 A 
ATOM      5  C4  UNL d   1      -5.998   4.744   3.191  0.00  0.00     0.048 A 
ATOM      6  C5  UNL d   1      -5.990   4.713   1.795  0.00  0.00     0.003 A 
ATOM      7  I   UNL d   1      -4.972   5.435   5.951  0.00  0.00    -0.146 I 
ENDROOT
TORSDOF 0
ENDMDL
