MODEL 1
REMARK minimizedAffinity 1.92908967
REMARK minimizedRMSD -1
REMARK  0 active torsions:
REMARK  status: ('A' for Active; 'I' for Inactive)
ROOT
ATOM      1  C   UNL d   1       2.427  -0.386  -4.026  0.00  0.00     0.023 A 
ATOM      2  C1  UNL d   1       2.885  -0.462  -2.711  0.00  0.00     0.003 A 
ATOM      3  C2  UNL d   1       2.023  -0.173  -1.651  0.00  0.00     0.048 A 
ATOM      4  C3  UNL d   1       0.702   0.190  -1.914  0.00  0.00     0.023 A 
ATOM      5  C4  UNL d   1       0.239   0.266  -3.228  0.00  0.00     0.048 A 
ATOM      6  C5  UNL d   1       1.105  -0.022  -4.284  0.00  0.00     0.003 A 
ATOM      7  I   UNL d   1      -0.584   0.620  -0.339  0.00  0.00    -0.146 I 
ENDROOT
TORSDOF 0
ENDMDL
