MODEL 1
REMARK minimizedAffinity 2.15608931
REMARK minimizedRMSD -1
REMARK  0 active torsions:
REMARK  status: ('A' for Active; 'I' for Inactive)
ROOT
ATOM      1  C   UNL d   1      -1.206  -0.384   0.391  0.00  0.00     0.023 A 
ATOM      2  C1  UNL d   1      -0.031  -0.637   1.100  0.00  0.00     0.003 A 
ATOM      3  C2  UNL d   1       1.204  -0.578   0.450  0.00  0.00     0.048 A 
ATOM      4  C3  UNL d   1       1.257  -0.264  -0.907  0.00  0.00     0.023 A 
ATOM      5  C4  UNL d   1       0.084  -0.010  -1.620  0.00  0.00     0.048 A 
ATOM      6  C5  UNL d   1      -1.149  -0.071  -0.967  0.00  0.00     0.003 A 
ATOM      7  I   UNL d   1       3.093  -0.175  -1.876  0.00  0.00    -0.146 I 
ENDROOT
TORSDOF 0
ENDMDL
