MODEL 1
REMARK minimizedAffinity 4.93951654
REMARK minimizedRMSD -1
REMARK  0 active torsions:
REMARK  status: ('A' for Active; 'I' for Inactive)
ROOT
ATOM      1  C   UNL d   1      -5.277   4.310  -1.712  0.00  0.00     0.023 A 
ATOM      2  C1  UNL d   1      -5.903   5.514  -1.390  0.00  0.00     0.003 A 
ATOM      3  C2  UNL d   1      -5.854   6.000  -0.082  0.00  0.00     0.048 A 
ATOM      4  C3  UNL d   1      -5.175   5.278   0.899  0.00  0.00     0.023 A 
ATOM      5  C4  UNL d   1      -4.546   4.073   0.581  0.00  0.00     0.048 A 
ATOM      6  C5  UNL d   1      -4.599   3.590  -0.728  0.00  0.00     0.003 A 
ATOM      7  I   UNL d   1      -5.100   5.999   2.847  0.00  0.00    -0.146 I 
ENDROOT
TORSDOF 0
ENDMDL
