MODEL 1
REMARK minimizedAffinity 9.21237659
REMARK minimizedRMSD -1
REMARK  0 active torsions:
REMARK  status: ('A' for Active; 'I' for Inactive)
ROOT
ATOM      1  C   UNL d   1      -3.000  -3.480  -4.317  0.00  0.00     0.023 A 
ATOM      2  C1  UNL d   1      -2.413  -2.250  -4.616  0.00  0.00     0.003 A 
ATOM      3  C2  UNL d   1      -1.875  -1.465  -3.594  0.00  0.00     0.048 A 
ATOM      4  C3  UNL d   1      -1.926  -1.916  -2.276  0.00  0.00     0.023 A 
ATOM      5  C4  UNL d   1      -2.511  -3.147  -1.972  0.00  0.00     0.048 A 
ATOM      6  C5  UNL d   1      -3.049  -3.927  -2.997  0.00  0.00     0.003 A 
ATOM      7  I   UNL d   1      -1.125  -0.750  -0.753  0.00  0.00    -0.146 I 
ENDROOT
TORSDOF 0
ENDMDL
