MODEL 1
REMARK minimizedAffinity 3.88780642
REMARK minimizedRMSD -1
REMARK  0 active torsions:
REMARK  status: ('A' for Active; 'I' for Inactive)
ROOT
ATOM      1  C   UNL d   1      -4.809   5.826   3.969  0.00  0.00     0.023 A 
ATOM      2  C1  UNL d   1      -5.979   5.608   3.241  0.00  0.00     0.003 A 
ATOM      3  C2  UNL d   1      -5.932   5.533   1.848  0.00  0.00     0.048 A 
ATOM      4  C3  UNL d   1      -4.712   5.676   1.188  0.00  0.00     0.023 A 
ATOM      5  C4  UNL d   1      -3.538   5.893   1.912  0.00  0.00     0.048 A 
ATOM      6  C5  UNL d   1      -3.590   5.968   3.305  0.00  0.00     0.003 A 
ATOM      7  I   UNL d   1      -4.640   5.564  -0.886  0.00  0.00    -0.146 I 
ENDROOT
TORSDOF 0
ENDMDL
