MODEL 1
REMARK minimizedAffinity -2.21243978
REMARK minimizedRMSD -1
REMARK  0 active torsions:
REMARK  status: ('A' for Active; 'I' for Inactive)
ROOT
ATOM      1  C   UNL d   1      -5.277   4.510  -0.590  0.00  0.00     0.023 A 
ATOM      2  C1  UNL d   1      -4.434   5.574  -0.267  0.00  0.00     0.003 A 
ATOM      3  C2  UNL d   1      -4.306   5.986   1.061  0.00  0.00     0.048 A 
ATOM      4  C3  UNL d   1      -5.022   5.329   2.061  0.00  0.00     0.023 A 
ATOM      5  C4  UNL d   1      -5.865   4.263   1.743  0.00  0.00     0.048 A 
ATOM      6  C5  UNL d   1      -5.991   3.856   0.414  0.00  0.00     0.003 A 
ATOM      7  I   UNL d   1      -4.832   5.940   4.039  0.00  0.00    -0.146 I 
ENDROOT
TORSDOF 0
ENDMDL
