MODEL 1
REMARK minimizedAffinity 1.09583497
REMARK minimizedRMSD -1
REMARK  0 active torsions:
REMARK  status: ('A' for Active; 'I' for Inactive)
ROOT
ATOM      1  C   UNL d   1      -2.771  -3.213  -3.365  0.00  0.00     0.023 A 
ATOM      2  C1  UNL d   1      -2.231  -2.018  -3.841  0.00  0.00     0.003 A 
ATOM      3  C2  UNL d   1      -1.675  -1.098  -2.950  0.00  0.00     0.048 A 
ATOM      4  C3  UNL d   1      -1.662  -1.380  -1.584  0.00  0.00     0.023 A 
ATOM      5  C4  UNL d   1      -2.200  -2.575  -1.104  0.00  0.00     0.048 A 
ATOM      6  C5  UNL d   1      -2.756  -3.491  -1.999  0.00  0.00     0.003 A 
ATOM      7  I   UNL d   1      -0.835  -0.012  -0.255  0.00  0.00    -0.146 I 
ENDROOT
TORSDOF 0
ENDMDL
