MODEL 1
REMARK minimizedAffinity -1.73028231
REMARK minimizedRMSD -1
REMARK  0 active torsions:
REMARK  status: ('A' for Active; 'I' for Inactive)
ROOT
ATOM      1  C   UNL d   1      -4.452   4.076   5.998  0.00  0.00     0.023 A 
ATOM      2  C1  UNL d   1      -4.822   3.260   4.928  0.00  0.00     0.003 A 
ATOM      3  C2  UNL d   1      -4.998   3.811   3.657  0.00  0.00     0.048 A 
ATOM      4  C3  UNL d   1      -4.803   5.178   3.462  0.00  0.00     0.023 A 
ATOM      5  C4  UNL d   1      -4.433   5.998   4.529  0.00  0.00     0.048 A 
ATOM      6  C5  UNL d   1      -4.258   5.443   5.799  0.00  0.00     0.003 A 
ATOM      7  I   UNL d   1      -5.065   5.999   1.571  0.00  0.00    -0.146 I 
ENDROOT
TORSDOF 0
ENDMDL
