MODEL 1
REMARK minimizedAffinity -5.24248075
REMARK minimizedRMSD -1
REMARK  0 active torsions:
REMARK  status: ('A' for Active; 'I' for Inactive)
ROOT
ATOM      1  C   UNL d   1      -2.383  -1.546  -0.146  0.00  0.00     0.023 A 
ATOM      2  C1  UNL d   1      -3.420  -1.317   0.759  0.00  0.00     0.003 A 
ATOM      3  C2  UNL d   1      -4.432  -2.266   0.918  0.00  0.00     0.048 A 
ATOM      4  C3  UNL d   1      -4.401  -3.442   0.169  0.00  0.00     0.023 A 
ATOM      5  C4  UNL d   1      -3.365  -3.675  -0.737  0.00  0.00     0.048 A 
ATOM      6  C5  UNL d   1      -2.356  -2.723  -0.893  0.00  0.00     0.003 A 
ATOM      7  I   UNL d   1      -5.906  -4.856   0.403  0.00  0.00    -0.146 I 
ENDROOT
TORSDOF 0
ENDMDL
