MODEL 1
REMARK minimizedAffinity 4.71816635
REMARK minimizedRMSD -1
REMARK  0 active torsions:
REMARK  status: ('A' for Active; 'I' for Inactive)
ROOT
ATOM      1  C   UNL d   1      -2.799  -2.071   4.075  0.00  0.00     0.023 A 
ATOM      2  C1  UNL d   1      -3.019  -1.918   5.444  0.00  0.00     0.003 A 
ATOM      3  C2  UNL d   1      -3.119  -0.640   5.998  0.00  0.00     0.048 A 
ATOM      4  C3  UNL d   1      -2.998   0.481   5.177  0.00  0.00     0.023 A 
ATOM      5  C4  UNL d   1      -2.779   0.333   3.807  0.00  0.00     0.048 A 
ATOM      6  C5  UNL d   1      -2.679  -0.947   3.258  0.00  0.00     0.003 A 
ATOM      7  I   UNL d   1      -3.147   2.384   6.000  0.00  0.00    -0.146 I 
ENDROOT
TORSDOF 0
ENDMDL
