MODEL 1
REMARK minimizedAffinity 9.32234478
REMARK minimizedRMSD -1
REMARK  0 active torsions:
REMARK  status: ('A' for Active; 'I' for Inactive)
ROOT
ATOM      1  C   UNL d   1      -2.660  -3.345  -4.495  0.00  0.00     0.023 A 
ATOM      2  C1  UNL d   1      -2.762  -3.852  -3.199  0.00  0.00     0.003 A 
ATOM      3  C2  UNL d   1      -2.312  -3.096  -2.115  0.00  0.00     0.048 A 
ATOM      4  C3  UNL d   1      -1.762  -1.833  -2.333  0.00  0.00     0.023 A 
ATOM      5  C4  UNL d   1      -1.659  -1.321  -3.628  0.00  0.00     0.048 A 
ATOM      6  C5  UNL d   1      -2.109  -2.081  -4.709  0.00  0.00     0.003 A 
ATOM      7  I   UNL d   1      -1.092  -0.706  -0.721  0.00  0.00    -0.146 I 
ENDROOT
TORSDOF 0
ENDMDL
