MODEL 1
REMARK minimizedAffinity 3.5529027
REMARK minimizedRMSD -1
REMARK  0 active torsions:
REMARK  status: ('A' for Active; 'I' for Inactive)
ROOT
ATOM      1  C   UNL d   1       1.755   0.647   5.336  0.00  0.00     0.023 A 
ATOM      2  C1  UNL d   1       2.244  -0.047   4.230  0.00  0.00     0.003 A 
ATOM      3  C2  UNL d   1       2.530   0.635   3.046  0.00  0.00     0.048 A 
ATOM      4  C3  UNL d   1       2.327   2.013   2.976  0.00  0.00     0.023 A 
ATOM      5  C4  UNL d   1       1.839   2.713   4.081  0.00  0.00     0.048 A 
ATOM      6  C5  UNL d   1       1.553   2.026   5.262  0.00  0.00     0.003 A 
ATOM      7  I   UNL d   1       2.753   3.032   1.215  0.00  0.00    -0.146 I 
ENDROOT
TORSDOF 0
ENDMDL
