MODEL 1
REMARK minimizedAffinity -2.72393084
REMARK minimizedRMSD -1
REMARK  1 active torsions:
REMARK  status: ('A' for Active; 'I' for Inactive)
REMARK    1  A    between atoms: C1_2  and  C2_3 
ROOT
ATOM      1  C2  UNL d   1      -0.047   0.364   0.339  0.00  0.00    -0.077 A 
ATOM      2  C3  UNL d   1      -0.595  -0.348   1.415  0.00  0.00     0.002 A 
ATOM      3  C4  UNL d   1      -0.967  -1.685   1.261  0.00  0.00     0.002 A 
ATOM      4  C5  UNL d   1      -0.790  -2.323   0.035  0.00  0.00    -0.004 A 
ATOM      5  C6  UNL d   1      -0.247  -1.623  -1.042  0.00  0.00     0.002 A 
ATOM      6  C7  UNL d   1       0.124  -0.286  -0.891  0.00  0.00     0.002 A 
ENDROOT
BRANCH   1   7
ATOM      7  C1  UNL d   1       0.400   1.792   0.516  0.00  0.00     0.055 C 
ATOM      8  C   UNL d   1       1.864   1.964   0.140  0.00  0.00     0.019 C 
ENDBRANCH   1   7
TORSDOF 1
ENDMDL
