MODEL 1
REMARK minimizedAffinity -1.5127008
REMARK minimizedRMSD -1
REMARK  1 active torsions:
REMARK  status: ('A' for Active; 'I' for Inactive)
REMARK    1  A    between atoms: C1_2  and  C2_3 
ROOT
ATOM      1  C2  UNL d   1      -0.278  -0.404  -0.803  0.00  0.00    -0.077 A 
ATOM      2  C3  UNL d   1      -0.241   0.552   0.221  0.00  0.00     0.002 A 
ATOM      3  C4  UNL d   1      -0.637   0.215   1.517  0.00  0.00     0.002 A 
ATOM      4  C5  UNL d   1      -1.067  -1.079   1.801  0.00  0.00    -0.004 A 
ATOM      5  C6  UNL d   1      -1.110  -2.037   0.789  0.00  0.00     0.002 A 
ATOM      6  C7  UNL d   1      -0.716  -1.701  -0.507  0.00  0.00     0.002 A 
ENDROOT
BRANCH   1   7
ATOM      7  C1  UNL d   1       0.194  -0.056  -2.191  0.00  0.00     0.055 C 
ATOM      8  C   UNL d   1       0.444  -1.307  -3.021  0.00  0.00     0.019 C 
ENDBRANCH   1   7
TORSDOF 1
ENDMDL
