MODEL 1
REMARK minimizedAffinity -1.9160459
REMARK minimizedRMSD -1
REMARK  1 active torsions:
REMARK  status: ('A' for Active; 'I' for Inactive)
REMARK    1  A    between atoms: C1_2  and  C2_3 
ROOT
ATOM      1  C2  UNL d   1       0.610   1.244   0.549  0.00  0.00    -0.077 A 
ATOM      2  C3  UNL d   1       0.239   2.374   1.291  0.00  0.00     0.002 A 
ATOM      3  C4  UNL d   1       1.169   3.380   1.558  0.00  0.00     0.002 A 
ATOM      4  C5  UNL d   1       2.474   3.269   1.083  0.00  0.00    -0.004 A 
ATOM      5  C6  UNL d   1       2.854   2.148   0.345  0.00  0.00     0.002 A 
ATOM      6  C7  UNL d   1       1.926   1.140   0.079  0.00  0.00     0.002 A 
ENDROOT
BRANCH   1   7
ATOM      7  C1  UNL d   1      -0.404   0.180   0.219  0.00  0.00     0.055 C 
ATOM      8  C   UNL d   1      -0.834  -0.581   1.464  0.00  0.00     0.019 C 
ENDBRANCH   1   7
TORSDOF 1
ENDMDL
