MODEL 1
REMARK minimizedAffinity 1.77500224
REMARK minimizedRMSD -1
REMARK  1 active torsions:
REMARK  status: ('A' for Active; 'I' for Inactive)
REMARK    1  A    between atoms: C1_2  and  C2_3 
ROOT
ATOM      1  C2  UNL d   1      -1.575   0.243  -0.006  0.00  0.00    -0.077 A 
ATOM      2  C3  UNL d   1      -1.610  -1.137   0.242  0.00  0.00     0.002 A 
ATOM      3  C4  UNL d   1      -0.651  -1.980  -0.322  0.00  0.00     0.002 A 
ATOM      4  C5  UNL d   1       0.351  -1.454  -1.135  0.00  0.00    -0.004 A 
ATOM      5  C6  UNL d   1       0.392  -0.084  -1.390  0.00  0.00     0.002 A 
ATOM      6  C7  UNL d   1      -0.565   0.761  -0.827  0.00  0.00     0.002 A 
ENDROOT
BRANCH   1   7
ATOM      7  C1  UNL d   1      -2.579   1.161   0.642  0.00  0.00     0.055 C 
ATOM      8  C   UNL d   1      -3.229   0.504   1.851  0.00  0.00     0.019 C 
ENDBRANCH   1   7
TORSDOF 1
ENDMDL
