MODEL 1
REMARK minimizedAffinity -4.03983736
REMARK minimizedRMSD -1
REMARK  1 active torsions:
REMARK  status: ('A' for Active; 'I' for Inactive)
REMARK    1  A    between atoms: C1_2  and  C2_3 
ROOT
ATOM      1  C2  UNL d   1       0.411   0.574   0.376  0.00  0.00    -0.077 A 
ATOM      2  C3  UNL d   1       0.331  -0.303   1.467  0.00  0.00     0.002 A 
ATOM      3  C4  UNL d   1      -0.329  -1.527   1.343  0.00  0.00     0.002 A 
ATOM      4  C5  UNL d   1      -0.911  -1.886   0.129  0.00  0.00    -0.004 A 
ATOM      5  C6  UNL d   1      -0.839  -1.020  -0.961  0.00  0.00     0.002 A 
ATOM      6  C7  UNL d   1      -0.180   0.204  -0.839  0.00  0.00     0.002 A 
ENDROOT
BRANCH   1   7
ATOM      7  C1  UNL d   1       1.165   1.872   0.494  0.00  0.00     0.055 C 
ATOM      8  C   UNL d   1       0.818   2.820  -0.644  0.00  0.00     0.019 C 
ENDBRANCH   1   7
TORSDOF 1
ENDMDL
