MODEL 1
REMARK minimizedAffinity -3.97979403
REMARK minimizedRMSD -1
REMARK  1 active torsions:
REMARK  status: ('A' for Active; 'I' for Inactive)
REMARK    1  A    between atoms: C1_2  and  C2_3 
ROOT
ATOM      1  C2  UNL d   1      -0.386  -0.065  -0.368  0.00  0.00    -0.077 A 
ATOM      2  C3  UNL d   1      -0.128  -0.756  -1.561  0.00  0.00     0.002 A 
ATOM      3  C4  UNL d   1      -0.318  -2.137  -1.632  0.00  0.00     0.002 A 
ATOM      4  C5  UNL d   1      -0.771  -2.838  -0.517  0.00  0.00    -0.004 A 
ATOM      5  C6  UNL d   1      -1.029  -2.161   0.674  0.00  0.00     0.002 A 
ATOM      6  C7  UNL d   1      -0.838  -0.780   0.748  0.00  0.00     0.002 A 
ENDROOT
BRANCH   1   7
ATOM      7  C1  UNL d   1      -0.228   1.432  -0.304  0.00  0.00     0.055 C 
ATOM      8  C   UNL d   1       1.106   1.822   0.317  0.00  0.00     0.019 C 
ENDBRANCH   1   7
TORSDOF 1
ENDMDL
