MODEL 1
REMARK minimizedAffinity 4.64873457
REMARK minimizedRMSD -1
REMARK  1 active torsions:
REMARK  status: ('A' for Active; 'I' for Inactive)
REMARK    1  A    between atoms: C3_4  and  O_7 
ROOT
ATOM      1  C   UNL d   1       0.027   4.599  -2.767  0.00  0.00    -0.033 A 
ATOM      2  C1  UNL d   1       0.375   4.116  -1.504  0.00  0.00     0.039 A 
ATOM      3  C2  UNL d   1      -0.297   4.577  -0.370  0.00  0.00    -0.080 A 
ATOM      4  C3  UNL d   1      -1.313   5.517  -0.513  0.00  0.00     0.150 A 
ATOM      5  C4  UNL d   1      -1.667   5.999  -1.768  0.00  0.00    -0.007 A 
ATOM      6  C5  UNL d   1      -0.995   5.539  -2.900  0.00  0.00     0.039 A 
ENDROOT
BRANCH   4   7
ATOM      7  O   UNL d   1      -1.994   6.000   0.565  0.00  0.00    -0.526 OA
ATOM      8  H5  UNL d   1      -1.622   5.599   1.369  0.00  0.00     0.418 HD
ENDBRANCH   4   7
TORSDOF 1
ENDMDL
