MODEL 1
REMARK minimizedAffinity 2.95735741
REMARK minimizedRMSD -1
REMARK  1 active torsions:
REMARK  status: ('A' for Active; 'I' for Inactive)
REMARK    1  A    between atoms: C3_4  and  O_7 
ROOT
ATOM      1  C   UNL d   1       1.476  -5.163  -0.759  0.00  0.00    -0.033 A 
ATOM      2  C1  UNL d   1       1.572  -6.000  -1.872  0.00  0.00     0.039 A 
ATOM      3  C2  UNL d   1       0.678  -5.855  -2.936  0.00  0.00    -0.080 A 
ATOM      4  C3  UNL d   1      -0.304  -4.870  -2.874  0.00  0.00     0.150 A 
ATOM      5  C4  UNL d   1      -0.402  -4.031  -1.770  0.00  0.00    -0.007 A 
ATOM      6  C5  UNL d   1       0.490  -4.177  -0.708  0.00  0.00     0.039 A 
ENDROOT
BRANCH   4   7
ATOM      7  O   UNL d   1      -1.201  -4.694  -3.885  0.00  0.00    -0.526 OA
ATOM      8  H5  UNL d   1      -1.030  -5.364  -4.568  0.00  0.00     0.418 HD
ENDBRANCH   4   7
TORSDOF 1
ENDMDL
