MODEL 1
REMARK minimizedAffinity 5.22010994
REMARK minimizedRMSD -1
REMARK  1 active torsions:
REMARK  status: ('A' for Active; 'I' for Inactive)
REMARK    1  A    between atoms: C3_4  and  O_7 
ROOT
ATOM      1  C   UNL d   1      -1.273   5.682  -1.854  0.00  0.00    -0.033 A 
ATOM      2  C1  UNL d   1      -1.086   5.999  -0.507  0.00  0.00     0.039 A 
ATOM      3  C2  UNL d   1      -0.430   5.102   0.339  0.00  0.00    -0.080 A 
ATOM      4  C3  UNL d   1       0.033   3.894  -0.174  0.00  0.00     0.150 A 
ATOM      5  C4  UNL d   1      -0.147   3.573  -1.516  0.00  0.00    -0.007 A 
ATOM      6  C5  UNL d   1      -0.802   4.470  -2.359  0.00  0.00     0.039 A 
ENDROOT
BRANCH   4   7
ATOM      7  O   UNL d   1       0.674   2.984   0.613  0.00  0.00    -0.526 OA
ATOM      8  H5  UNL d   1       0.701   3.328   1.522  0.00  0.00     0.418 HD
ENDBRANCH   4   7
TORSDOF 1
ENDMDL
