MODEL 1
REMARK minimizedAffinity 6.09177351
REMARK minimizedRMSD -1
REMARK  1 active torsions:
REMARK  status: ('A' for Active; 'I' for Inactive)
REMARK    1  A    between atoms: C3_4  and  O_7 
ROOT
ATOM      1  C   UNL d   1       1.822  -2.215   6.000  0.00  0.00    -0.033 A 
ATOM      2  C1  UNL d   1       0.704  -2.224   5.163  0.00  0.00     0.039 A 
ATOM      3  C2  UNL d   1       0.447  -1.135   4.327  0.00  0.00    -0.080 A 
ATOM      4  C3  UNL d   1       1.315  -0.047   4.337  0.00  0.00     0.150 A 
ATOM      5  C4  UNL d   1       2.433  -0.033   5.165  0.00  0.00    -0.007 A 
ATOM      6  C5  UNL d   1       2.687  -1.121   6.000  0.00  0.00     0.039 A 
ENDROOT
BRANCH   4   7
ATOM      7  O   UNL d   1       1.103   1.041   3.542  0.00  0.00    -0.526 OA
ATOM      8  H5  UNL d   1       0.279   0.903   3.046  0.00  0.00     0.418 HD
ENDBRANCH   4   7
TORSDOF 1
ENDMDL
