MODEL 1
REMARK minimizedAffinity 0.253381252
REMARK minimizedRMSD -1
REMARK  1 active torsions:
REMARK  status: ('A' for Active; 'I' for Inactive)
REMARK    1  A    between atoms: C3_4  and  O_7 
ROOT
ATOM      1  C   UNL d   1      -1.175   5.602  -2.623  0.00  0.00    -0.033 A 
ATOM      2  C1  UNL d   1      -0.440   4.430  -2.809  0.00  0.00     0.039 A 
ATOM      3  C2  UNL d   1      -0.072   3.653  -1.709  0.00  0.00    -0.080 A 
ATOM      4  C3  UNL d   1      -0.446   4.057  -0.431  0.00  0.00     0.150 A 
ATOM      5  C4  UNL d   1      -1.182   5.222  -0.238  0.00  0.00    -0.007 A 
ATOM      6  C5  UNL d   1      -1.547   5.998  -1.338  0.00  0.00     0.039 A 
ENDROOT
BRANCH   4   7
ATOM      7  O   UNL d   1      -0.106   3.334   0.674  0.00  0.00    -0.526 OA
ATOM      8  H5  UNL d   1       0.425   2.571   0.391  0.00  0.00     0.418 HD
ENDBRANCH   4   7
TORSDOF 1
ENDMDL
