MODEL 1
REMARK minimizedAffinity 7.43755341
REMARK minimizedRMSD -1
REMARK  1 active torsions:
REMARK  status: ('A' for Active; 'I' for Inactive)
REMARK    1  A    between atoms: C3_4  and  O_7 
ROOT
ATOM      1  C   UNL d   1      -0.034   1.188   3.568  0.00  0.00    -0.033 A 
ATOM      2  C1  UNL d   1       1.198   1.592   3.049  0.00  0.00     0.039 A 
ATOM      3  C2  UNL d   1       1.252   2.300   1.846  0.00  0.00    -0.080 A 
ATOM      4  C3  UNL d   1       0.070   2.597   1.174  0.00  0.00     0.150 A 
ATOM      5  C4  UNL d   1      -1.161   2.201   1.688  0.00  0.00    -0.007 A 
ATOM      6  C5  UNL d   1      -1.213   1.494   2.889  0.00  0.00     0.039 A 
ENDROOT
BRANCH   4   7
ATOM      7  O   UNL d   1       0.073   3.281  -0.005  0.00  0.00    -0.526 OA
ATOM      8  H5  UNL d   1       0.994   3.464  -0.252  0.00  0.00     0.418 HD
ENDBRANCH   4   7
TORSDOF 1
ENDMDL
