MODEL 1
REMARK minimizedAffinity 2.66479206
REMARK minimizedRMSD -1
REMARK  1 active torsions:
REMARK  status: ('A' for Active; 'I' for Inactive)
REMARK    1  A    between atoms: C3_4  and  O_7 
ROOT
ATOM      1  C   UNL d   1      -0.256   5.655  -2.917  0.00  0.00    -0.033 A 
ATOM      2  C1  UNL d   1       0.936   5.629  -2.190  0.00  0.00     0.039 A 
ATOM      3  C2  UNL d   1       1.055   4.802  -1.071  0.00  0.00    -0.080 A 
ATOM      4  C3  UNL d   1      -0.023   4.006  -0.692  0.00  0.00     0.150 A 
ATOM      5  C4  UNL d   1      -1.212   4.025  -1.413  0.00  0.00    -0.007 A 
ATOM      6  C5  UNL d   1      -1.329   4.852  -2.530  0.00  0.00     0.039 A 
ENDROOT
BRANCH   4   7
ATOM      7  O   UNL d   1       0.045   3.187   0.396  0.00  0.00    -0.526 OA
ATOM      8  H5  UNL d   1       0.915   3.300   0.813  0.00  0.00     0.418 HD
ENDBRANCH   4   7
TORSDOF 1
ENDMDL
