MODEL 1
REMARK minimizedAffinity 6.95807791
REMARK minimizedRMSD -1
REMARK  1 active torsions:
REMARK  status: ('A' for Active; 'I' for Inactive)
REMARK    1  A    between atoms: C3_4  and  O_7 
ROOT
ATOM      1  C   UNL d   1      -3.753  -0.745   3.737  0.00  0.00    -0.033 A 
ATOM      2  C1  UNL d   1      -3.389   0.597   3.609  0.00  0.00     0.039 A 
ATOM      3  C2  UNL d   1      -4.134   1.588   4.250  0.00  0.00    -0.080 A 
ATOM      4  C3  UNL d   1      -5.239   1.226   5.015  0.00  0.00     0.150 A 
ATOM      5  C4  UNL d   1      -5.605  -0.109   5.150  0.00  0.00    -0.007 A 
ATOM      6  C5  UNL d   1      -4.861  -1.098   4.509  0.00  0.00     0.039 A 
ENDROOT
BRANCH   4   7
ATOM      7  O   UNL d   1      -5.999   2.159   5.655  0.00  0.00    -0.526 OA
ATOM      8  H5  UNL d   1      -5.645   3.040   5.449  0.00  0.00     0.418 HD
ENDBRANCH   4   7
TORSDOF 1
ENDMDL
