MODEL 1
REMARK minimizedAffinity 6.99745274
REMARK minimizedRMSD -1
REMARK  1 active torsions:
REMARK  status: ('A' for Active; 'I' for Inactive)
REMARK    1  A    between atoms: C3_4  and  O_7 
ROOT
ATOM      1  C   UNL d   1      -1.516   5.217  -2.639  0.00  0.00    -0.033 A 
ATOM      2  C1  UNL d   1      -1.231   3.850  -2.662  0.00  0.00     0.039 A 
ATOM      3  C2  UNL d   1      -0.523   3.265  -1.611  0.00  0.00    -0.080 A 
ATOM      4  C3  UNL d   1      -0.107   4.056  -0.543  0.00  0.00     0.150 A 
ATOM      5  C4  UNL d   1      -0.390   5.417  -0.512  0.00  0.00    -0.007 A 
ATOM      6  C5  UNL d   1      -1.097   6.000  -1.563  0.00  0.00     0.039 A 
ENDROOT
BRANCH   4   7
ATOM      7  O   UNL d   1       0.591   3.530   0.503  0.00  0.00    -0.526 OA
ATOM      8  H5  UNL d   1       0.739   2.585   0.331  0.00  0.00     0.418 HD
ENDBRANCH   4   7
TORSDOF 1
ENDMDL
