MODEL 1
REMARK minimizedAffinity 0.536246359
REMARK minimizedRMSD -1
REMARK  0 active torsions:
REMARK  status: ('A' for Active; 'I' for Inactive)
ROOT
ATOM      1  C   UNL d   1       0.262  -0.058  -0.134  0.00  0.00     0.077 C 
ATOM      2  C1  UNL d   1      -1.008   0.064  -0.923  0.00  0.00    -0.074 A 
ATOM      3  C2  UNL d   1      -2.165   0.597  -0.345  0.00  0.00    -0.005 A 
ATOM      4  C3  UNL d   1      -3.336   0.712  -1.094  0.00  0.00     0.006 A 
ATOM      5  C4  UNL d   1      -3.362   0.296  -2.426  0.00  0.00    -0.005 A 
ATOM      6  C5  UNL d   1      -2.215  -0.239  -3.020  0.00  0.00    -0.074 A 
ATOM      7  C6  UNL d   1      -2.223  -0.682  -4.453  0.00  0.00     0.077 C 
ATOM      8  C7  UNL d   1      -1.040  -0.345  -2.263  0.00  0.00    -0.001 A 
ENDROOT
TORSDOF 0
ENDMDL
