MODEL 1
REMARK minimizedAffinity -6.00186396
REMARK minimizedRMSD -1
REMARK  0 active torsions:
REMARK  status: ('A' for Active; 'I' for Inactive)
ROOT
ATOM      1  C   UNL d   1      -1.207   0.662  -1.146  0.00  0.00     0.077 C 
ATOM      2  C1  UNL d   1       0.065   0.430  -0.385  0.00  0.00    -0.074 A 
ATOM      3  C2  UNL d   1       0.660  -0.835  -0.349  0.00  0.00    -0.005 A 
ATOM      4  C3  UNL d   1       1.848  -1.034   0.354  0.00  0.00     0.006 A 
ATOM      5  C4  UNL d   1       2.451   0.029   1.028  0.00  0.00    -0.005 A 
ATOM      6  C5  UNL d   1       1.871   1.301   1.003  0.00  0.00    -0.074 A 
ATOM      7  C6  UNL d   1       2.512   2.456   1.714  0.00  0.00     0.077 C 
ATOM      8  C7  UNL d   1       0.681   1.494   0.288  0.00  0.00    -0.001 A 
ENDROOT
TORSDOF 0
ENDMDL
