MODEL 1
REMARK minimizedAffinity -4.05769634
REMARK minimizedRMSD -1
REMARK  0 active torsions:
REMARK  status: ('A' for Active; 'I' for Inactive)
ROOT
ATOM      1  C   UNL d   1       2.836   2.179   1.090  0.00  0.00     0.077 C 
ATOM      2  C1  UNL d   1       2.055   0.949   0.732  0.00  0.00    -0.074 A 
ATOM      3  C2  UNL d   1       2.557  -0.327   1.008  0.00  0.00    -0.005 A 
ATOM      4  C3  UNL d   1       1.816  -1.461   0.677  0.00  0.00     0.006 A 
ATOM      5  C4  UNL d   1       0.567  -1.331   0.068  0.00  0.00    -0.005 A 
ATOM      6  C5  UNL d   1       0.049  -0.064  -0.215  0.00  0.00    -0.074 A 
ATOM      7  C6  UNL d   1      -1.296   0.094  -0.861  0.00  0.00     0.077 C 
ATOM      8  C7  UNL d   1       0.797   1.071   0.127  0.00  0.00    -0.001 A 
ENDROOT
TORSDOF 0
ENDMDL
