MODEL 1
REMARK minimizedAffinity 3.44759583
REMARK minimizedRMSD -1
REMARK  0 active torsions:
REMARK  status: ('A' for Active; 'I' for Inactive)
ROOT
ATOM      1  C   UNL d   1       3.011   2.484  -0.429  0.00  0.00     0.077 C 
ATOM      2  C1  UNL d   1       3.028   1.046  -0.002  0.00  0.00    -0.074 A 
ATOM      3  C2  UNL d   1       4.129   0.228  -0.276  0.00  0.00    -0.005 A 
ATOM      4  C3  UNL d   1       4.135  -1.104   0.136  0.00  0.00     0.006 A 
ATOM      5  C4  UNL d   1       3.042  -1.631   0.825  0.00  0.00    -0.005 A 
ATOM      6  C5  UNL d   1       1.933  -0.828   1.109  0.00  0.00    -0.074 A 
ATOM      7  C6  UNL d   1       0.754  -1.377   1.857  0.00  0.00     0.077 C 
ATOM      8  C7  UNL d   1       1.937   0.512   0.698  0.00  0.00    -0.001 A 
ENDROOT
TORSDOF 0
ENDMDL
