MODEL 1
REMARK minimizedAffinity -3.70329738
REMARK minimizedRMSD -1
REMARK  0 active torsions:
REMARK  status: ('A' for Active; 'I' for Inactive)
ROOT
ATOM      1  C   UNL d   1      -1.637  -0.131  -0.264  0.00  0.00     0.077 C 
ATOM      2  C1  UNL d   1      -0.328   0.509   0.092  0.00  0.00    -0.074 A 
ATOM      3  C2  UNL d   1      -0.106   1.870  -0.142  0.00  0.00    -0.005 A 
ATOM      4  C3  UNL d   1       1.113   2.453   0.203  0.00  0.00     0.006 A 
ATOM      5  C4  UNL d   1       2.121   1.683   0.784  0.00  0.00    -0.005 A 
ATOM      6  C5  UNL d   1       1.917   0.321   1.026  0.00  0.00    -0.074 A 
ATOM      7  C6  UNL d   1       2.986  -0.519   1.659  0.00  0.00     0.077 C 
ATOM      8  C7  UNL d   1       0.687  -0.256   0.683  0.00  0.00    -0.001 A 
ENDROOT
TORSDOF 0
ENDMDL
