MODEL 1
REMARK minimizedAffinity -1.62981677
REMARK minimizedRMSD -1
REMARK  1 active torsions:
REMARK  status: ('A' for Active; 'I' for Inactive)
REMARK    1  A    between atoms: C1_2  and  C2_3 
ROOT
ATOM      1  C2  UNL d   1      -0.353   0.785   0.898  0.00  0.00    -0.076 A 
ATOM      2  C3  UNL d   1       0.199  -0.378   1.463  0.00  0.00     0.004 A 
ATOM      3  C4  UNL d   1       0.956  -1.260   0.694  0.00  0.00    -0.003 A 
ATOM      4  C5  UNL d   1       1.175  -0.992  -0.653  0.00  0.00     0.000 A 
ATOM      5  C6  UNL d   1       0.651   0.166  -1.226  0.00  0.00     0.000 A 
ATOM      6  C7  UNL d   1      -0.102   1.074  -0.461  0.00  0.00    -0.073 A 
ATOM      7  C8  UNL d   1      -0.649   2.304  -1.131  0.00  0.00     0.078 C 
ENDROOT
BRANCH   1   8
ATOM      8  C1  UNL d   1      -1.188   1.690   1.775  0.00  0.00     0.053 C 
ATOM      9  C   UNL d   1      -0.445   2.142   3.022  0.00  0.00     0.018 C 
ENDBRANCH   1   8
TORSDOF 1
ENDMDL
