MODEL 1
REMARK minimizedAffinity -1.801018
REMARK minimizedRMSD -1
REMARK  1 active torsions:
REMARK  status: ('A' for Active; 'I' for Inactive)
REMARK    1  A    between atoms: C1_2  and  C2_3 
ROOT
ATOM      1  C2  UNL d   1      -0.045   0.045   0.167  0.00  0.00    -0.076 A 
ATOM      2  C3  UNL d   1      -0.541   1.148  -0.548  0.00  0.00     0.004 A 
ATOM      3  C4  UNL d   1      -1.500   1.993   0.010  0.00  0.00    -0.003 A 
ATOM      4  C5  UNL d   1      -1.977   1.748   1.293  0.00  0.00     0.000 A 
ATOM      5  C6  UNL d   1      -1.483   0.668   2.023  0.00  0.00     0.000 A 
ATOM      6  C7  UNL d   1      -0.504  -0.184   1.482  0.00  0.00    -0.073 A 
ATOM      7  C8  UNL d   1      -0.011  -1.337   2.312  0.00  0.00     0.078 C 
ENDROOT
BRANCH   1   8
ATOM      8  C1  UNL d   1       0.974  -0.852  -0.500  0.00  0.00     0.053 C 
ATOM      9  C   UNL d   1       0.330  -1.907  -1.385  0.00  0.00     0.018 C 
ENDBRANCH   1   8
TORSDOF 1
ENDMDL
