MODEL 1
REMARK minimizedAffinity -5.3506918
REMARK minimizedRMSD -1
REMARK  1 active torsions:
REMARK  status: ('A' for Active; 'I' for Inactive)
REMARK    1  A    between atoms: C1_2  and  C2_3 
ROOT
ATOM      1  C2  UNL d   1       0.365  -0.251   0.196  0.00  0.00    -0.076 A 
ATOM      2  C3  UNL d   1       0.154   0.912  -0.566  0.00  0.00     0.004 A 
ATOM      3  C4  UNL d   1      -0.730   1.900  -0.137  0.00  0.00    -0.003 A 
ATOM      4  C5  UNL d   1      -1.417   1.743   1.062  0.00  0.00     0.000 A 
ATOM      5  C6  UNL d   1      -1.206   0.605   1.840  0.00  0.00     0.000 A 
ATOM      6  C7  UNL d   1      -0.306  -0.394   1.429  0.00  0.00    -0.073 A 
ATOM      7  C8  UNL d   1      -0.122  -1.604   2.304  0.00  0.00     0.078 C 
ENDROOT
BRANCH   1   8
ATOM      8  C1  UNL d   1       1.315  -1.301  -0.333  0.00  0.00     0.053 C 
ATOM      9  C   UNL d   1       0.847  -1.899  -1.651  0.00  0.00     0.018 C 
ENDBRANCH   1   8
TORSDOF 1
ENDMDL
