MODEL 1
REMARK minimizedAffinity -6.20060396
REMARK minimizedRMSD -1
REMARK  1 active torsions:
REMARK  status: ('A' for Active; 'I' for Inactive)
REMARK    1  A    between atoms: C1_2  and  C2_3 
ROOT
ATOM      1  C2  UNL d   1       0.088   0.167   0.098  0.00  0.00    -0.076 A 
ATOM      2  C3  UNL d   1      -0.310  -0.617   1.194  0.00  0.00     0.004 A 
ATOM      3  C4  UNL d   1      -1.065  -0.071   2.231  0.00  0.00    -0.003 A 
ATOM      4  C5  UNL d   1      -1.435   1.269   2.187  0.00  0.00     0.000 A 
ATOM      5  C6  UNL d   1      -1.064   2.058   1.099  0.00  0.00     0.000 A 
ATOM      6  C7  UNL d   1      -0.316   1.518   0.037  0.00  0.00    -0.073 A 
ATOM      7  C8  UNL d   1       0.062   2.416  -1.109  0.00  0.00     0.078 C 
ENDROOT
BRANCH   1   8
ATOM      8  C1  UNL d   1       0.929  -0.473  -0.983  0.00  0.00     0.053 C 
ATOM      9  C   UNL d   1       1.099  -1.970  -0.779  0.00  0.00     0.018 C 
ENDBRANCH   1   8
TORSDOF 1
ENDMDL
