MODEL 1
REMARK minimizedAffinity -2.61864638
REMARK minimizedRMSD -1
REMARK  1 active torsions:
REMARK  status: ('A' for Active; 'I' for Inactive)
REMARK    1  A    between atoms: C1_2  and  C2_3 
ROOT
ATOM      1  C2  UNL d   1       0.229   0.290   0.034  0.00  0.00    -0.076 A 
ATOM      2  C3  UNL d   1      -0.211  -0.438   1.152  0.00  0.00     0.004 A 
ATOM      3  C4  UNL d   1      -1.195   0.071   1.998  0.00  0.00    -0.003 A 
ATOM      4  C5  UNL d   1      -1.756   1.317   1.737  0.00  0.00     0.000 A 
ATOM      5  C6  UNL d   1      -1.344   2.045   0.622  0.00  0.00     0.000 A 
ATOM      6  C7  UNL d   1      -0.364   1.539  -0.249  0.00  0.00    -0.073 A 
ATOM      7  C8  UNL d   1       0.048   2.370  -1.434  0.00  0.00     0.078 C 
ENDROOT
BRANCH   1   8
ATOM      8  C1  UNL d   1       1.319  -0.301  -0.832  0.00  0.00     0.053 C 
ATOM      9  C   UNL d   1       1.237  -1.817  -0.919  0.00  0.00     0.018 C 
ENDBRANCH   1   8
TORSDOF 1
ENDMDL
