MODEL 1
REMARK minimizedAffinity -2.84147668
REMARK minimizedRMSD -1
REMARK  1 active torsions:
REMARK  status: ('A' for Active; 'I' for Inactive)
REMARK    1  A    between atoms: C1_2  and  C2_3 
ROOT
ATOM      1  C2  UNL d   1      -0.339   0.181   0.529  0.00  0.00    -0.076 A 
ATOM      2  C3  UNL d   1       0.896  -0.123  -0.070  0.00  0.00     0.004 A 
ATOM      3  C4  UNL d   1       1.439   0.703  -1.053  0.00  0.00    -0.003 A 
ATOM      4  C5  UNL d   1       0.757   1.847  -1.452  0.00  0.00     0.000 A 
ATOM      5  C6  UNL d   1      -0.461   2.173  -0.855  0.00  0.00     0.000 A 
ATOM      6  C7  UNL d   1      -1.015   1.360   0.148  0.00  0.00    -0.073 A 
ATOM      7  C8  UNL d   1      -2.334   1.756   0.752  0.00  0.00     0.078 C 
ENDROOT
BRANCH   1   8
ATOM      8  C1  UNL d   1      -0.892  -0.767   1.569  0.00  0.00     0.053 C 
ATOM      9  C   UNL d   1       0.157  -1.191   2.586  0.00  0.00     0.018 C 
ENDBRANCH   1   8
TORSDOF 1
ENDMDL
