MODEL 1
REMARK minimizedAffinity -3.22040248
REMARK minimizedRMSD -1
REMARK  1 active torsions:
REMARK  status: ('A' for Active; 'I' for Inactive)
REMARK    1  A    between atoms: C1_2  and  C2_3 
ROOT
ATOM      1  C2  UNL d   1       1.474  -2.588  -1.129  0.00  0.00    -0.076 A 
ATOM      2  C3  UNL d   1       2.040  -3.618  -0.358  0.00  0.00     0.004 A 
ATOM      3  C4  UNL d   1       1.828  -4.957  -0.683  0.00  0.00    -0.003 A 
ATOM      4  C5  UNL d   1       1.047  -5.288  -1.785  0.00  0.00     0.000 A 
ATOM      5  C6  UNL d   1       0.493  -4.279  -2.572  0.00  0.00     0.000 A 
ATOM      6  C7  UNL d   1       0.710  -2.924  -2.267  0.00  0.00    -0.073 A 
ATOM      7  C8  UNL d   1       0.083  -1.877  -3.147  0.00  0.00     0.078 C 
ENDROOT
BRANCH   1   8
ATOM      8  C1  UNL d   1       1.716  -1.155  -0.713  0.00  0.00     0.053 C 
ATOM      9  C   UNL d   1       0.618  -0.617   0.191  0.00  0.00     0.018 C 
ENDBRANCH   1   8
TORSDOF 1
ENDMDL
