MODEL 1
REMARK minimizedAffinity -5.18469954
REMARK minimizedRMSD -1
REMARK  1 active torsions:
REMARK  status: ('A' for Active; 'I' for Inactive)
REMARK    1  A    between atoms: C1_2  and  C2_3 
ROOT
ATOM      1  C2  UNL d   1       0.097   0.152   0.245  0.00  0.00    -0.076 A 
ATOM      2  C3  UNL d   1      -0.349   1.301  -0.429  0.00  0.00     0.004 A 
ATOM      3  C4  UNL d   1      -1.251   2.180   0.170  0.00  0.00    -0.003 A 
ATOM      4  C5  UNL d   1      -1.719   1.924   1.453  0.00  0.00     0.000 A 
ATOM      5  C6  UNL d   1      -1.273   0.798   2.144  0.00  0.00     0.000 A 
ATOM      6  C7  UNL d   1      -0.352  -0.090   1.561  0.00  0.00    -0.073 A 
ATOM      7  C8  UNL d   1       0.090  -1.292   2.349  0.00  0.00     0.078 C 
ENDROOT
BRANCH   1   8
ATOM      8  C1  UNL d   1       1.054  -0.779  -0.465  0.00  0.00     0.053 C 
ATOM      9  C   UNL d   1       0.390  -1.539  -1.603  0.00  0.00     0.018 C 
ENDBRANCH   1   8
TORSDOF 1
ENDMDL
