MODEL 1
REMARK minimizedAffinity -4.4097743
REMARK minimizedRMSD -1
REMARK  1 active torsions:
REMARK  status: ('A' for Active; 'I' for Inactive)
REMARK    1  A    between atoms: C1_2  and  C2_3 
ROOT
ATOM      1  C2  UNL d   1       0.267   0.376   0.082  0.00  0.00    -0.076 A 
ATOM      2  C3  UNL d   1      -0.207  -0.281   1.230  0.00  0.00     0.004 A 
ATOM      3  C4  UNL d   1      -1.191   0.295   2.032  0.00  0.00    -0.003 A 
ATOM      4  C5  UNL d   1      -1.718   1.537   1.697  0.00  0.00     0.000 A 
ATOM      5  C6  UNL d   1      -1.272   2.196   0.552  0.00  0.00     0.000 A 
ATOM      6  C7  UNL d   1      -0.292   1.621  -0.276  0.00  0.00    -0.073 A 
ATOM      7  C8  UNL d   1       0.156   2.378  -1.496  0.00  0.00     0.078 C 
ENDROOT
BRANCH   1   8
ATOM      8  C1  UNL d   1       1.355  -0.285  -0.734  0.00  0.00     0.053 C 
ATOM      9  C   UNL d   1       0.991  -1.701  -1.152  0.00  0.00     0.018 C 
ENDBRANCH   1   8
TORSDOF 1
ENDMDL
