MODEL 1
REMARK minimizedAffinity -5.57208347
REMARK minimizedRMSD -1
REMARK  1 active torsions:
REMARK  status: ('A' for Active; 'I' for Inactive)
REMARK    1  A    between atoms: C1_2  and  C2_3 
ROOT
ATOM      1  C2  UNL d   1      -0.219   0.446   0.183  0.00  0.00    -0.076 A 
ATOM      2  C3  UNL d   1      -0.465   1.593  -0.591  0.00  0.00     0.004 A 
ATOM      3  C4  UNL d   1      -1.247   2.636  -0.100  0.00  0.00    -0.003 A 
ATOM      4  C5  UNL d   1      -1.797   2.549   1.175  0.00  0.00     0.000 A 
ATOM      5  C6  UNL d   1      -1.549   1.426   1.963  0.00  0.00     0.000 A 
ATOM      6  C7  UNL d   1      -0.749   0.373   1.489  0.00  0.00    -0.073 A 
ATOM      7  C8  UNL d   1      -0.520  -0.818   2.379  0.00  0.00     0.078 C 
ENDROOT
BRANCH   1   8
ATOM      8  C1  UNL d   1       0.615  -0.666  -0.414  0.00  0.00     0.053 C 
ATOM      9  C   UNL d   1       1.798  -0.141  -1.214  0.00  0.00     0.018 C 
ENDBRANCH   1   8
TORSDOF 1
ENDMDL
