MODEL 1
REMARK minimizedAffinity -4.9476018
REMARK minimizedRMSD -1
REMARK  1 active torsions:
REMARK  status: ('A' for Active; 'I' for Inactive)
REMARK    1  A    between atoms: C1_2  and  C2_3 
ROOT
ATOM      1  C2  UNL d   1      -0.700   1.598   0.071  0.00  0.00    -0.076 A 
ATOM      2  C3  UNL d   1       0.124   2.551  -0.553  0.00  0.00     0.004 A 
ATOM      3  C4  UNL d   1      -0.017   3.910  -0.278  0.00  0.00    -0.003 A 
ATOM      4  C5  UNL d   1      -0.982   4.339   0.626  0.00  0.00     0.000 A 
ATOM      5  C6  UNL d   1      -1.796   3.406   1.268  0.00  0.00     0.000 A 
ATOM      6  C7  UNL d   1      -1.657   2.030   1.014  0.00  0.00    -0.073 A 
ATOM      7  C8  UNL d   1      -2.565   1.069   1.730  0.00  0.00     0.078 C 
ENDROOT
BRANCH   1   8
ATOM      8  C1  UNL d   1      -0.520   0.140  -0.286  0.00  0.00     0.053 C 
ATOM      9  C   UNL d   1       0.577  -0.529   0.528  0.00  0.00     0.018 C 
ENDBRANCH   1   8
TORSDOF 1
ENDMDL
