MODEL 1
REMARK minimizedAffinity -3.33794928
REMARK minimizedRMSD -1
REMARK  1 active torsions:
REMARK  status: ('A' for Active; 'I' for Inactive)
REMARK    1  A    between atoms: C1_2  and  C2_3 
ROOT
ATOM      1  C2  UNL d   1      -0.280   0.973   0.257  0.00  0.00    -0.076 A 
ATOM      2  C3  UNL d   1       0.137   1.937  -0.678  0.00  0.00     0.004 A 
ATOM      3  C4  UNL d   1      -0.173   3.285  -0.505  0.00  0.00    -0.003 A 
ATOM      4  C5  UNL d   1      -0.904   3.691   0.606  0.00  0.00     0.000 A 
ATOM      5  C6  UNL d   1      -1.311   2.751   1.552  0.00  0.00     0.000 A 
ATOM      6  C7  UNL d   1      -0.993   1.390   1.401  0.00  0.00    -0.073 A 
ATOM      7  C8  UNL d   1      -1.462   0.419   2.450  0.00  0.00     0.078 C 
ENDROOT
BRANCH   1   8
ATOM      8  C1  UNL d   1       0.062  -0.478   0.003  0.00  0.00     0.053 C 
ATOM      9  C   UNL d   1       1.233  -0.642  -0.954  0.00  0.00     0.018 C 
ENDBRANCH   1   8
TORSDOF 1
ENDMDL
