MODEL 1
REMARK minimizedAffinity -2.49452448
REMARK minimizedRMSD -1
REMARK  1 active torsions:
REMARK  status: ('A' for Active; 'I' for Inactive)
REMARK    1  A    between atoms: C1_2  and  C2_3 
ROOT
ATOM      1  C2  UNL d   1      -0.051   0.264   0.100  0.00  0.00    -0.076 A 
ATOM      2  C3  UNL d   1      -0.542  -0.540   1.144  0.00  0.00     0.004 A 
ATOM      3  C4  UNL d   1      -1.499  -0.055   2.034  0.00  0.00    -0.003 A 
ATOM      4  C5  UNL d   1      -1.982   1.241   1.894  0.00  0.00     0.000 A 
ATOM      5  C6  UNL d   1      -1.520   2.047   0.854  0.00  0.00     0.000 A 
ATOM      6  C7  UNL d   1      -0.567   1.568  -0.061  0.00  0.00    -0.073 A 
ATOM      7  C8  UNL d   1      -0.099   2.483  -1.160  0.00  0.00     0.078 C 
ENDROOT
BRANCH   1   8
ATOM      8  C1  UNL d   1       1.006  -0.306  -0.818  0.00  0.00     0.053 C 
ATOM      9  C   UNL d   1       0.671  -1.712  -1.290  0.00  0.00     0.018 C 
ENDBRANCH   1   8
TORSDOF 1
ENDMDL
