MODEL 1
REMARK minimizedAffinity -2.21254444
REMARK minimizedRMSD -1
REMARK  1 active torsions:
REMARK  status: ('A' for Active; 'I' for Inactive)
REMARK    1  A    between atoms: C1_2  and  C2_3 
ROOT
ATOM      1  C2  UNL d   1      -0.587   0.637  -0.004  0.00  0.00    -0.076 A 
ATOM      2  C3  UNL d   1      -0.484  -0.721   0.345  0.00  0.00     0.004 A 
ATOM      3  C4  UNL d   1       0.546  -1.515  -0.157  0.00  0.00    -0.003 A 
ATOM      4  C5  UNL d   1       1.491  -0.963  -1.015  0.00  0.00     0.000 A 
ATOM      5  C6  UNL d   1       1.414   0.386  -1.358  0.00  0.00     0.000 A 
ATOM      6  C7  UNL d   1       0.392   1.204  -0.847  0.00  0.00    -0.073 A 
ATOM      7  C8  UNL d   1       0.354   2.652  -1.255  0.00  0.00     0.078 C 
ENDROOT
BRANCH   1   8
ATOM      8  C1  UNL d   1      -1.741   1.441   0.550  0.00  0.00     0.053 C 
ATOM      9  C   UNL d   1      -1.441   2.021   1.924  0.00  0.00     0.018 C 
ENDBRANCH   1   8
TORSDOF 1
ENDMDL
