MODEL 1
REMARK minimizedAffinity 3.00137138
REMARK minimizedRMSD -1
REMARK  0 active torsions:
REMARK  status: ('A' for Active; 'I' for Inactive)
ROOT
ATOM      1  C   UNL d   1       2.088  -1.428   4.253  0.00  0.00     0.023 A 
ATOM      2  C1  UNL d   1       2.672  -2.458   3.517  0.00  0.00     0.003 A 
ATOM      3  C2  UNL d   1       3.791  -3.128   4.016  0.00  0.00     0.048 A 
ATOM      4  C3  UNL d   1       4.320  -2.762   5.254  0.00  0.00     0.023 A 
ATOM      5  C4  UNL d   1       3.738  -1.733   5.995  0.00  0.00     0.048 A 
ATOM      6  C5  UNL d   1       2.620  -1.066   5.491  0.00  0.00     0.003 A 
ATOM      7  I   UNL d   1       5.985  -3.757   6.000  0.00  0.00    -0.146 I 
ENDROOT
TORSDOF 0
ENDMDL
