MODEL 1
REMARK minimizedAffinity 0.89759773
REMARK minimizedRMSD -1
REMARK  0 active torsions:
REMARK  status: ('A' for Active; 'I' for Inactive)
ROOT
ATOM      1  C   UNL d   1       0.937  -2.347  -2.420  0.00  0.00     0.023 A 
ATOM      2  C1  UNL d   1       0.830  -2.832  -1.117  0.00  0.00     0.003 A 
ATOM      3  C2  UNL d   1      -0.404  -2.816  -0.464  0.00  0.00     0.048 A 
ATOM      4  C3  UNL d   1      -1.527  -2.314  -1.121  0.00  0.00     0.023 A 
ATOM      5  C4  UNL d   1      -1.425  -1.829  -2.425  0.00  0.00     0.048 A 
ATOM      6  C5  UNL d   1      -0.189  -1.846  -3.074  0.00  0.00     0.003 A 
ATOM      7  I   UNL d   1      -3.365  -2.290  -0.151  0.00  0.00    -0.146 I 
ENDROOT
TORSDOF 0
ENDMDL
