MODEL 1
REMARK minimizedAffinity -0.346717387
REMARK minimizedRMSD -1
REMARK  0 active torsions:
REMARK  status: ('A' for Active; 'I' for Inactive)
ROOT
ATOM      1  C   UNL d   1       4.288  -1.437   4.877  0.00  0.00     0.023 A 
ATOM      2  C1  UNL d   1       5.445  -1.571   5.644  0.00  0.00     0.003 A 
ATOM      3  C2  UNL d   1       5.927  -2.841   5.968  0.00  0.00     0.048 A 
ATOM      4  C3  UNL d   1       5.248  -3.973   5.519  0.00  0.00     0.023 A 
ATOM      5  C4  UNL d   1       4.090  -3.844   4.751  0.00  0.00     0.048 A 
ATOM      6  C5  UNL d   1       3.611  -2.572   4.431  0.00  0.00     0.003 A 
ATOM      7  I   UNL d   1       5.964  -5.864   5.999  0.00  0.00    -0.146 I 
ENDROOT
TORSDOF 0
ENDMDL
