MODEL 1
REMARK minimizedAffinity 3.85886502
REMARK minimizedRMSD -1
REMARK  0 active torsions:
REMARK  status: ('A' for Active; 'I' for Inactive)
ROOT
ATOM      1  C   UNL d   1       5.997   5.245  -5.188  0.00  0.00     0.023 A 
ATOM      2  C1  UNL d   1       4.833   5.523  -5.905  0.00  0.00     0.003 A 
ATOM      3  C2  UNL d   1       3.630   5.738  -5.229  0.00  0.00     0.048 A 
ATOM      4  C3  UNL d   1       3.598   5.675  -3.836  0.00  0.00     0.023 A 
ATOM      5  C4  UNL d   1       4.761   5.398  -3.115  0.00  0.00     0.048 A 
ATOM      6  C5  UNL d   1       5.961   5.182  -3.795  0.00  0.00     0.003 A 
ATOM      7  I   UNL d   1       1.809   5.996  -2.828  0.00  0.00    -0.146 I 
ENDROOT
TORSDOF 0
ENDMDL
