MODEL 1
REMARK minimizedAffinity 10.165904
REMARK minimizedRMSD -1
REMARK  0 active torsions:
REMARK  status: ('A' for Active; 'I' for Inactive)
ROOT
ATOM      1  C   UNL d   1       0.851  -2.651  -3.814  0.00  0.00     0.023 A 
ATOM      2  C1  UNL d   1       0.386  -2.214  -2.574  0.00  0.00     0.003 A 
ATOM      3  C2  UNL d   1       1.256  -2.147  -1.484  0.00  0.00     0.048 A 
ATOM      4  C3  UNL d   1       2.591  -2.518  -1.642  0.00  0.00     0.023 A 
ATOM      5  C4  UNL d   1       3.062  -2.955  -2.881  0.00  0.00     0.048 A 
ATOM      6  C5  UNL d   1       2.187  -3.021  -3.968  0.00  0.00     0.003 A 
ATOM      7  I   UNL d   1       3.889  -2.419  -0.021  0.00  0.00    -0.146 I 
ENDROOT
TORSDOF 0
ENDMDL
