MODEL 1
REMARK minimizedAffinity 5.42978954
REMARK minimizedRMSD -1
REMARK  0 active torsions:
REMARK  status: ('A' for Active; 'I' for Inactive)
ROOT
ATOM      1  C   UNL d   1       4.606   4.789  -5.985  0.00  0.00     0.023 A 
ATOM      2  C1  UNL d   1       3.799   5.656  -5.248  0.00  0.00     0.003 A 
ATOM      3  C2  UNL d   1       4.089   5.911  -3.906  0.00  0.00     0.048 A 
ATOM      4  C3  UNL d   1       5.188   5.297  -3.307  0.00  0.00     0.023 A 
ATOM      5  C4  UNL d   1       6.000   4.430  -4.041  0.00  0.00     0.048 A 
ATOM      6  C5  UNL d   1       5.705   4.177  -5.382  0.00  0.00     0.003 A 
ATOM      7  I   UNL d   1       5.622   5.675  -1.310  0.00  0.00    -0.146 I 
ENDROOT
TORSDOF 0
ENDMDL
