MODEL 1
REMARK minimizedAffinity 8.1135416
REMARK minimizedRMSD -1
REMARK  0 active torsions:
REMARK  status: ('A' for Active; 'I' for Inactive)
ROOT
ATOM      1  C   UNL d   1       4.257   4.568  -4.945  0.00  0.00     0.023 A 
ATOM      2  C1  UNL d   1       5.419   3.989  -4.435  0.00  0.00     0.003 A 
ATOM      3  C2  UNL d   1       5.920   4.398  -3.198  0.00  0.00     0.048 A 
ATOM      4  C3  UNL d   1       5.253   5.387  -2.475  0.00  0.00     0.023 A 
ATOM      5  C4  UNL d   1       4.089   5.969  -2.980  0.00  0.00     0.048 A 
ATOM      6  C5  UNL d   1       3.593   5.557  -4.218  0.00  0.00     0.003 A 
ATOM      7  I   UNL d   1       5.996   5.998  -0.632  0.00  0.00    -0.146 I 
ENDROOT
TORSDOF 0
ENDMDL
