MODEL 1
REMARK minimizedAffinity 1.34097886
REMARK minimizedRMSD -1
REMARK  0 active torsions:
REMARK  status: ('A' for Active; 'I' for Inactive)
ROOT
ATOM      1  C   UNL d   1       4.760   4.565  -5.920  0.00  0.00     0.023 A 
ATOM      2  C1  UNL d   1       5.642   3.734  -5.228  0.00  0.00     0.003 A 
ATOM      3  C2  UNL d   1       5.999   4.034  -3.912  0.00  0.00     0.048 A 
ATOM      4  C3  UNL d   1       5.470   5.166  -3.293  0.00  0.00     0.023 A 
ATOM      5  C4  UNL d   1       4.587   6.000  -3.981  0.00  0.00     0.048 A 
ATOM      6  C5  UNL d   1       4.233   5.696  -5.297  0.00  0.00     0.003 A 
ATOM      7  I   UNL d   1       6.000   5.615  -1.334  0.00  0.00    -0.146 I 
ENDROOT
TORSDOF 0
ENDMDL
