MODEL 1
REMARK minimizedAffinity -0.757278562
REMARK minimizedRMSD -1
REMARK  0 active torsions:
REMARK  status: ('A' for Active; 'I' for Inactive)
ROOT
ATOM      1  C   UNL d   1       5.420   3.739  -5.659  0.00  0.00     0.023 A 
ATOM      2  C1  UNL d   1       5.174   3.055  -4.469  0.00  0.00     0.003 A 
ATOM      3  C2  UNL d   1       5.341   3.702  -3.243  0.00  0.00     0.048 A 
ATOM      4  C3  UNL d   1       5.752   5.034  -3.214  0.00  0.00     0.023 A 
ATOM      5  C4  UNL d   1       5.998   5.723  -4.403  0.00  0.00     0.048 A 
ATOM      6  C5  UNL d   1       5.832   5.072  -5.626  0.00  0.00     0.003 A 
ATOM      7  I   UNL d   1       6.000   6.000  -1.390  0.00  0.00    -0.146 I 
ENDROOT
TORSDOF 0
ENDMDL
