MODEL 1
REMARK minimizedAffinity 3.64530849
REMARK minimizedRMSD -1
REMARK  0 active torsions:
REMARK  status: ('A' for Active; 'I' for Inactive)
ROOT
ATOM      1  C   UNL d   1      -2.856  -3.032   1.270  0.00  0.00     0.023 A 
ATOM      2  C1  UNL d   1      -3.328  -2.644   0.016  0.00  0.00     0.003 A 
ATOM      3  C2  UNL d   1      -2.428  -2.285  -0.989  0.00  0.00     0.048 A 
ATOM      4  C3  UNL d   1      -1.057  -2.319  -0.735  0.00  0.00     0.023 A 
ATOM      5  C4  UNL d   1      -0.580  -2.708   0.518  0.00  0.00     0.048 A 
ATOM      6  C5  UNL d   1      -1.484  -3.065   1.520  0.00  0.00     0.003 A 
ATOM      7  I   UNL d   1       0.284  -1.786  -2.231  0.00  0.00    -0.146 I 
ENDROOT
TORSDOF 0
ENDMDL
