MODEL 1
REMARK minimizedAffinity 1.01975191
REMARK minimizedRMSD -1
REMARK  0 active torsions:
REMARK  status: ('A' for Active; 'I' for Inactive)
ROOT
ATOM      1  C   UNL d   1       3.512  -1.874   2.303  0.00  0.00     0.023 A 
ATOM      2  C1  UNL d   1       4.311  -2.997   2.089  0.00  0.00     0.003 A 
ATOM      3  C2  UNL d   1       5.026  -3.559   3.148  0.00  0.00     0.048 A 
ATOM      4  C3  UNL d   1       4.937  -2.994   4.420  0.00  0.00     0.023 A 
ATOM      5  C4  UNL d   1       4.138  -1.870   4.639  0.00  0.00     0.048 A 
ATOM      6  C5  UNL d   1       3.426  -1.311   3.577  0.00  0.00     0.003 A 
ATOM      7  I   UNL d   1       6.000  -3.829   5.999  0.00  0.00    -0.146 I 
ENDROOT
TORSDOF 0
ENDMDL
