MODEL 1
REMARK minimizedAffinity 4.62077141
REMARK minimizedRMSD -1
REMARK  0 active torsions:
REMARK  status: ('A' for Active; 'I' for Inactive)
ROOT
ATOM      1  C   UNL d   1       5.835  -3.894   4.311  0.00  0.00     0.023 A 
ATOM      2  C1  UNL d   1       4.637  -3.800   3.603  0.00  0.00     0.003 A 
ATOM      3  C2  UNL d   1       3.599  -3.000   4.086  0.00  0.00     0.048 A 
ATOM      4  C3  UNL d   1       3.767  -2.296   5.278  0.00  0.00     0.023 A 
ATOM      5  C4  UNL d   1       4.965  -2.386   5.989  0.00  0.00     0.048 A 
ATOM      6  C5  UNL d   1       5.999  -3.187   5.502  0.00  0.00     0.003 A 
ATOM      7  I   UNL d   1       2.224  -1.105   6.000  0.00  0.00    -0.146 I 
ENDROOT
TORSDOF 0
ENDMDL
