MODEL 1
REMARK minimizedAffinity 5.1295557
REMARK minimizedRMSD -1
REMARK  0 active torsions:
REMARK  status: ('A' for Active; 'I' for Inactive)
ROOT
ATOM      1  C   UNL d   1      -1.954  -1.820  -0.375  0.00  0.00     0.023 A 
ATOM      2  C1  UNL d   1      -0.763  -1.142  -0.113  0.00  0.00     0.003 A 
ATOM      3  C2  UNL d   1       0.324  -1.278  -0.978  0.00  0.00     0.048 A 
ATOM      4  C3  UNL d   1       0.214  -2.093  -2.104  0.00  0.00     0.023 A 
ATOM      5  C4  UNL d   1      -0.976  -2.773  -2.371  0.00  0.00     0.048 A 
ATOM      6  C5  UNL d   1      -2.060  -2.634  -1.502  0.00  0.00     0.003 A 
ATOM      7  I   UNL d   1       1.831  -2.297  -3.393  0.00  0.00    -0.146 I 
ENDROOT
TORSDOF 0
ENDMDL
