MODEL 1
REMARK minimizedAffinity 3.49928689
REMARK minimizedRMSD -1
REMARK  0 active torsions:
REMARK  status: ('A' for Active; 'I' for Inactive)
ROOT
ATOM      1  C   UNL d   1       0.387  -3.903  -3.942  0.00  0.00     0.023 A 
ATOM      2  C1  UNL d   1       0.398  -2.558  -3.571  0.00  0.00     0.003 A 
ATOM      3  C2  UNL d   1       0.085  -2.192  -2.260  0.00  0.00     0.048 A 
ATOM      4  C3  UNL d   1      -0.237  -3.175  -1.325  0.00  0.00     0.023 A 
ATOM      5  C4  UNL d   1      -0.248  -4.522  -1.692  0.00  0.00     0.048 A 
ATOM      6  C5  UNL d   1       0.065  -4.883  -3.004  0.00  0.00     0.003 A 
ATOM      7  I   UNL d   1      -0.702  -2.633   0.626  0.00  0.00    -0.146 I 
ENDROOT
TORSDOF 0
ENDMDL
