MODEL 1
REMARK minimizedAffinity 6.57169437
REMARK minimizedRMSD -1
REMARK  0 active torsions:
REMARK  status: ('A' for Active; 'I' for Inactive)
ROOT
ATOM      1  C   UNL d   1       5.998   4.649  -4.310  0.00  0.00     0.023 A 
ATOM      2  C1  UNL d   1       5.924   5.510  -3.215  0.00  0.00     0.003 A 
ATOM      3  C2  UNL d   1       4.680   5.899  -2.714  0.00  0.00     0.048 A 
ATOM      4  C3  UNL d   1       3.514   5.421  -3.312  0.00  0.00     0.023 A 
ATOM      5  C4  UNL d   1       3.584   4.559  -4.408  0.00  0.00     0.048 A 
ATOM      6  C5  UNL d   1       4.830   4.174  -4.906  0.00  0.00     0.003 A 
ATOM      7  I   UNL d   1       1.661   5.998  -2.568  0.00  0.00    -0.146 I 
ENDROOT
TORSDOF 0
ENDMDL
