MODEL 1
REMARK minimizedAffinity 5.80373001
REMARK minimizedRMSD -1
REMARK  0 active torsions:
REMARK  status: ('A' for Active; 'I' for Inactive)
ROOT
ATOM      1  C   UNL d   1      -2.078  -2.310   0.973  0.00  0.00     0.023 A 
ATOM      2  C1  UNL d   1      -1.003  -1.427   1.071  0.00  0.00     0.003 A 
ATOM      3  C2  UNL d   1      -0.140  -1.252  -0.013  0.00  0.00     0.048 A 
ATOM      4  C3  UNL d   1      -0.358  -1.963  -1.192  0.00  0.00     0.023 A 
ATOM      5  C4  UNL d   1      -1.433  -2.848  -1.295  0.00  0.00     0.048 A 
ATOM      6  C5  UNL d   1      -2.292  -3.020  -0.209  0.00  0.00     0.003 A 
ATOM      7  I   UNL d   1       0.925  -1.705  -2.807  0.00  0.00    -0.146 I 
ENDROOT
TORSDOF 0
ENDMDL
