MODEL 1
REMARK minimizedAffinity -1.56027436
REMARK minimizedRMSD -1
REMARK  0 active torsions:
REMARK  status: ('A' for Active; 'I' for Inactive)
ROOT
ATOM      1  C   UNL d   1       0.579  -2.980  -3.224  0.00  0.00     0.023 A 
ATOM      2  C1  UNL d   1       0.252  -4.159  -2.553  0.00  0.00     0.003 A 
ATOM      3  C2  UNL d   1      -0.428  -4.104  -1.335  0.00  0.00     0.048 A 
ATOM      4  C3  UNL d   1      -0.778  -2.868  -0.793  0.00  0.00     0.023 A 
ATOM      5  C4  UNL d   1      -0.453  -1.686  -1.461  0.00  0.00     0.048 A 
ATOM      6  C5  UNL d   1       0.227  -1.746  -2.678  0.00  0.00     0.003 A 
ATOM      7  I   UNL d   1      -1.789  -2.785   1.021  0.00  0.00    -0.146 I 
ENDROOT
TORSDOF 0
ENDMDL
