MODEL 1
REMARK minimizedAffinity 3.52758241
REMARK minimizedRMSD -1
REMARK  0 active torsions:
REMARK  status: ('A' for Active; 'I' for Inactive)
ROOT
ATOM      1  C   UNL d   1       5.186   0.498   3.999  0.00  0.00     0.023 A 
ATOM      2  C1  UNL d   1       4.835   1.323   2.931  0.00  0.00     0.003 A 
ATOM      3  C2  UNL d   1       5.065   2.699   3.004  0.00  0.00     0.048 A 
ATOM      4  C3  UNL d   1       5.646   3.242   4.149  0.00  0.00     0.023 A 
ATOM      5  C4  UNL d   1       6.000   2.420   5.221  0.00  0.00     0.048 A 
ATOM      6  C5  UNL d   1       5.767   1.046   5.143  0.00  0.00     0.003 A 
ATOM      7  I   UNL d   1       5.989   5.289   4.261  0.00  0.00    -0.146 I 
ENDROOT
TORSDOF 0
ENDMDL
