MODEL 1
REMARK minimizedAffinity 11.2837553
REMARK minimizedRMSD -1
REMARK  0 active torsions:
REMARK  status: ('A' for Active; 'I' for Inactive)
ROOT
ATOM      1  C   UNL d   1       5.358   3.379   3.912  0.00  0.00     0.023 A 
ATOM      2  C1  UNL d   1       4.494   2.992   2.888  0.00  0.00     0.003 A 
ATOM      3  C2  UNL d   1       4.269   1.637   2.638  0.00  0.00     0.048 A 
ATOM      4  C3  UNL d   1       4.910   0.674   3.416  0.00  0.00     0.023 A 
ATOM      5  C4  UNL d   1       5.776   1.057   4.443  0.00  0.00     0.048 A 
ATOM      6  C5  UNL d   1       5.998   2.413   4.688  0.00  0.00     0.003 A 
ATOM      7  I   UNL d   1       4.577  -1.344   3.046  0.00  0.00    -0.146 I 
ENDROOT
TORSDOF 0
ENDMDL
