MODEL 1
REMARK minimizedAffinity 5.56478024
REMARK minimizedRMSD -1
REMARK  0 active torsions:
REMARK  status: ('A' for Active; 'I' for Inactive)
ROOT
ATOM      1  C   UNL d   1       6.000   0.081   5.213  0.00  0.00     0.023 A 
ATOM      2  C1  UNL d   1       6.000   1.460   5.426  0.00  0.00     0.003 A 
ATOM      3  C2  UNL d   1       5.325   2.304   4.542  0.00  0.00     0.048 A 
ATOM      4  C3  UNL d   1       4.651   1.763   3.448  0.00  0.00     0.023 A 
ATOM      5  C4  UNL d   1       4.647   0.384   3.231  0.00  0.00     0.048 A 
ATOM      6  C5  UNL d   1       5.325  -0.456   4.117  0.00  0.00     0.003 A 
ATOM      7  I   UNL d   1       3.645   3.018   2.131  0.00  0.00    -0.146 I 
ENDROOT
TORSDOF 0
ENDMDL
