MODEL 1
REMARK minimizedAffinity 4.33971643
REMARK minimizedRMSD -1
REMARK  0 active torsions:
REMARK  status: ('A' for Active; 'I' for Inactive)
ROOT
ATOM      1  C   UNL d   1      -4.683  -1.256   0.048  0.00  0.00     0.023 A 
ATOM      2  C1  UNL d   1      -3.291  -1.234  -0.038  0.00  0.00     0.003 A 
ATOM      3  C2  UNL d   1      -2.522  -1.041   1.111  0.00  0.00     0.048 A 
ATOM      4  C3  UNL d   1      -3.151  -0.871   2.344  0.00  0.00     0.023 A 
ATOM      5  C4  UNL d   1      -4.543  -0.894   2.435  0.00  0.00     0.048 A 
ATOM      6  C5  UNL d   1      -5.308  -1.086   1.284  0.00  0.00     0.003 A 
ATOM      7  I   UNL d   1      -2.008  -0.584   4.056  0.00  0.00    -0.146 I 
ENDROOT
TORSDOF 0
ENDMDL
