MODEL 1
REMARK minimizedAffinity 5.40722561
REMARK minimizedRMSD -1
REMARK  0 active torsions:
REMARK  status: ('A' for Active; 'I' for Inactive)
ROOT
ATOM      1  C   UNL d   1       3.875   1.658   1.627  0.00  0.00     0.023 A 
ATOM      2  C1  UNL d   1       4.251   0.430   2.172  0.00  0.00     0.003 A 
ATOM      3  C2  UNL d   1       4.861   0.379   3.427  0.00  0.00     0.048 A 
ATOM      4  C3  UNL d   1       5.092   1.560   4.132  0.00  0.00     0.023 A 
ATOM      5  C4  UNL d   1       4.717   2.791   3.591  0.00  0.00     0.048 A 
ATOM      6  C5  UNL d   1       4.108   2.836   2.335  0.00  0.00     0.003 A 
ATOM      7  I   UNL d   1       6.000   1.487   6.000  0.00  0.00    -0.146 I 
ENDROOT
TORSDOF 0
ENDMDL
