MODEL 1
REMARK minimizedAffinity -4.77480507
REMARK minimizedRMSD -1
REMARK  0 active torsions:
REMARK  status: ('A' for Active; 'I' for Inactive)
ROOT
ATOM      1  C   UNL d   1      -4.414   5.354   4.171  0.00  0.00     0.023 A 
ATOM      2  C1  UNL d   1      -4.670   4.233   4.960  0.00  0.00     0.003 A 
ATOM      3  C2  UNL d   1      -4.183   2.981   4.575  0.00  0.00     0.048 A 
ATOM      4  C3  UNL d   1      -3.441   2.859   3.402  0.00  0.00     0.023 A 
ATOM      5  C4  UNL d   1      -3.181   3.979   2.609  0.00  0.00     0.048 A 
ATOM      6  C5  UNL d   1      -3.671   5.228   2.997  0.00  0.00     0.003 A 
ATOM      7  I   UNL d   1      -2.715   0.998   2.828  0.00  0.00    -0.146 I 
ENDROOT
TORSDOF 0
ENDMDL
