MODEL 1
REMARK minimizedAffinity 0.954007626
REMARK minimizedRMSD -1
REMARK  0 active torsions:
REMARK  status: ('A' for Active; 'I' for Inactive)
ROOT
ATOM      1  C   UNL d   1       5.298   0.806   3.713  0.00  0.00     0.023 A 
ATOM      2  C1  UNL d   1       5.797   1.255   4.936  0.00  0.00     0.003 A 
ATOM      3  C2  UNL d   1       5.999   2.620   5.149  0.00  0.00     0.048 A 
ATOM      4  C3  UNL d   1       5.699   3.530   4.136  0.00  0.00     0.023 A 
ATOM      5  C4  UNL d   1       5.199   3.085   2.912  0.00  0.00     0.048 A 
ATOM      6  C5  UNL d   1       4.999   1.720   2.702  0.00  0.00     0.003 A 
ATOM      7  I   UNL d   1       6.000   5.563   4.452  0.00  0.00    -0.146 I 
ENDROOT
TORSDOF 0
ENDMDL
