MODEL 1
REMARK minimizedAffinity 0.0566424578
REMARK minimizedRMSD -1
REMARK  0 active torsions:
REMARK  status: ('A' for Active; 'I' for Inactive)
ROOT
ATOM      1  C   UNL d   1       0.434   1.414  -2.347  0.00  0.00     0.023 A 
ATOM      2  C1  UNL d   1       1.084   2.534  -2.865  0.00  0.00     0.003 A 
ATOM      3  C2  UNL d   1       2.250   2.381  -3.618  0.00  0.00     0.048 A 
ATOM      4  C3  UNL d   1       2.761   1.104  -3.849  0.00  0.00     0.023 A 
ATOM      5  C4  UNL d   1       2.113  -0.020  -3.333  0.00  0.00     0.048 A 
ATOM      6  C5  UNL d   1       0.948   0.138  -2.581  0.00  0.00     0.003 A 
ATOM      7  I   UNL d   1       4.496   0.873  -4.969  0.00  0.00    -0.146 I 
ENDROOT
TORSDOF 0
ENDMDL
