MODEL 1
REMARK minimizedAffinity 5.42609167
REMARK minimizedRMSD -1
REMARK  0 active torsions:
REMARK  status: ('A' for Active; 'I' for Inactive)
ROOT
ATOM      1  C   UNL d   1       5.995  -0.532   5.254  0.00  0.00     0.023 A 
ATOM      2  C1  UNL d   1       6.000   0.784   5.716  0.00  0.00     0.003 A 
ATOM      3  C2  UNL d   1       5.471   1.805   4.924  0.00  0.00     0.048 A 
ATOM      4  C3  UNL d   1       4.937   1.503   3.671  0.00  0.00     0.023 A 
ATOM      5  C4  UNL d   1       4.929   0.187   3.206  0.00  0.00     0.048 A 
ATOM      6  C5  UNL d   1       5.460  -0.831   4.000  0.00  0.00     0.003 A 
ATOM      7  I   UNL d   1       4.149   3.021   2.491  0.00  0.00    -0.146 I 
ENDROOT
TORSDOF 0
ENDMDL
