MODEL 1
REMARK minimizedAffinity -5.0131917
REMARK minimizedRMSD -1
REMARK  0 active torsions:
REMARK  status: ('A' for Active; 'I' for Inactive)
ROOT
ATOM      1  C   UNL d   1      -3.081   1.751   2.116  0.00  0.00     0.023 A 
ATOM      2  C1  UNL d   1      -3.075   3.083   1.703  0.00  0.00     0.003 A 
ATOM      3  C2  UNL d   1      -3.523   4.085   2.567  0.00  0.00     0.048 A 
ATOM      4  C3  UNL d   1      -3.976   3.747   3.842  0.00  0.00     0.023 A 
ATOM      5  C4  UNL d   1      -3.984   2.415   4.259  0.00  0.00     0.048 A 
ATOM      6  C5  UNL d   1      -3.535   1.417   3.392  0.00  0.00     0.003 A 
ATOM      7  I   UNL d   1      -4.643   5.236   5.129  0.00  0.00    -0.146 I 
ENDROOT
TORSDOF 0
ENDMDL
