MODEL 1
REMARK minimizedAffinity 4.14738703
REMARK minimizedRMSD -1
REMARK  0 active torsions:
REMARK  status: ('A' for Active; 'I' for Inactive)
ROOT
ATOM      1  C   UNL d   1       4.695   0.806   3.495  0.00  0.00     0.023 A 
ATOM      2  C1  UNL d   1       4.135   1.886   2.814  0.00  0.00     0.003 A 
ATOM      3  C2  UNL d   1       4.504   3.191   3.147  0.00  0.00     0.048 A 
ATOM      4  C3  UNL d   1       5.435   3.408   4.162  0.00  0.00     0.023 A 
ATOM      5  C4  UNL d   1       6.000   2.330   4.846  0.00  0.00     0.048 A 
ATOM      6  C5  UNL d   1       5.627   1.027   4.510  0.00  0.00     0.003 A 
ATOM      7  I   UNL d   1       5.987   5.349   4.659  0.00  0.00    -0.146 I 
ENDROOT
TORSDOF 0
ENDMDL
