MODEL 1
REMARK minimizedAffinity 9.62357616
REMARK minimizedRMSD -1
REMARK  0 active torsions:
REMARK  status: ('A' for Active; 'I' for Inactive)
ROOT
ATOM      1  C   UNL d   1       2.988   5.744  -4.331  0.00  0.00     0.023 A 
ATOM      2  C1  UNL d   1       2.640   5.101  -5.519  0.00  0.00     0.003 A 
ATOM      3  C2  UNL d   1       3.422   4.049  -5.999  0.00  0.00     0.048 A 
ATOM      4  C3  UNL d   1       4.551   3.644  -5.286  0.00  0.00     0.023 A 
ATOM      5  C4  UNL d   1       4.902   4.284  -4.097  0.00  0.00     0.048 A 
ATOM      6  C5  UNL d   1       4.117   5.336  -3.620  0.00  0.00     0.003 A 
ATOM      7  I   UNL d   1       5.716   2.078  -6.000  0.00  0.00    -0.146 I 
ENDROOT
TORSDOF 0
ENDMDL
