MODEL 1
REMARK minimizedAffinity 5.49757051
REMARK minimizedRMSD -1
REMARK  0 active torsions:
REMARK  status: ('A' for Active; 'I' for Inactive)
ROOT
ATOM      1  C   UNL d   1      -2.155  -1.309   0.186  0.00  0.00     0.023 A 
ATOM      2  C1  UNL d   1      -1.148  -1.943  -0.542  0.00  0.00     0.003 A 
ATOM      3  C2  UNL d   1      -0.304  -1.197  -1.366  0.00  0.00     0.048 A 
ATOM      4  C3  UNL d   1      -0.471   0.185  -1.457  0.00  0.00     0.023 A 
ATOM      5  C4  UNL d   1      -1.477   0.824  -0.730  0.00  0.00     0.048 A 
ATOM      6  C5  UNL d   1      -2.319   0.073   0.092  0.00  0.00     0.003 A 
ATOM      7  I   UNL d   1       0.784   1.298  -2.683  0.00  0.00    -0.146 I 
ENDROOT
TORSDOF 0
ENDMDL
