MODEL 1
REMARK minimizedAffinity 4.26937723
REMARK minimizedRMSD -1
REMARK  0 active torsions:
REMARK  status: ('A' for Active; 'I' for Inactive)
ROOT
ATOM      1  C   UNL d   1       5.101   0.320   3.383  0.00  0.00     0.023 A 
ATOM      2  C1  UNL d   1       5.849   0.783   4.465  0.00  0.00     0.003 A 
ATOM      3  C2  UNL d   1       6.000   2.155   4.676  0.00  0.00     0.048 A 
ATOM      4  C3  UNL d   1       5.398   3.059   3.801  0.00  0.00     0.023 A 
ATOM      5  C4  UNL d   1       4.647   2.600   2.717  0.00  0.00     0.048 A 
ATOM      6  C5  UNL d   1       4.500   1.228   2.510  0.00  0.00     0.003 A 
ATOM      7  I   UNL d   1       5.620   5.102   4.112  0.00  0.00    -0.146 I 
ENDROOT
TORSDOF 0
ENDMDL
