MODEL 1
REMARK minimizedAffinity 6.41809893
REMARK minimizedRMSD -1
REMARK  0 active torsions:
REMARK  status: ('A' for Active; 'I' for Inactive)
ROOT
ATOM      1  C   UNL d   1       1.770   3.797  -4.900  0.00  0.00     0.023 A 
ATOM      2  C1  UNL d   1       2.950   4.472  -5.214  0.00  0.00     0.003 A 
ATOM      3  C2  UNL d   1       4.105   3.752  -5.530  0.00  0.00     0.048 A 
ATOM      4  C3  UNL d   1       4.072   2.358  -5.530  0.00  0.00     0.023 A 
ATOM      5  C4  UNL d   1       2.893   1.679  -5.217  0.00  0.00     0.048 A 
ATOM      6  C5  UNL d   1       1.742   2.403  -4.901  0.00  0.00     0.003 A 
ATOM      7  I   UNL d   1       5.789   1.285  -6.000  0.00  0.00    -0.146 I 
ENDROOT
TORSDOF 0
ENDMDL
