MODEL 1
REMARK minimizedAffinity -3.51192808
REMARK minimizedRMSD -1
REMARK  0 active torsions:
REMARK  status: ('A' for Active; 'I' for Inactive)
ROOT
ATOM      1  C   UNL d   1      -1.656  -2.422   1.505  0.00  0.00     0.020 A 
ATOM      2  C1  UNL d   1      -2.581  -1.513   0.994  0.00  0.00     0.020 A 
ATOM      3  C2  UNL d   1      -2.139  -0.336   0.386  0.00  0.00     0.034 A 
ATOM      4  C3  UNL d   1      -0.769  -0.066   0.287  0.00  0.00     0.017 A 
ATOM      5  C4  UNL d   1       0.158  -0.979   0.800  0.00  0.00     0.017 A 
ATOM      6  C5  UNL d   1      -0.289  -2.156   1.408  0.00  0.00     0.034 A 
ATOM      7 Cl   UNL d   1       1.864  -0.715   0.715  0.00  0.00    -0.070 Cl
ATOM      8 Cl1  UNL d   1      -0.295   1.409  -0.479  0.00  0.00    -0.070 Cl
ENDROOT
TORSDOF 0
ENDMDL
