MODEL 1
REMARK minimizedAffinity -3.19836473
REMARK minimizedRMSD -1
REMARK  0 active torsions:
REMARK  status: ('A' for Active; 'I' for Inactive)
ROOT
ATOM      1  C   UNL d   1       3.613   1.568  -2.299  0.00  0.00     0.020 A 
ATOM      2  C1  UNL d   1       3.053   1.200  -3.522  0.00  0.00     0.020 A 
ATOM      3  C2  UNL d   1       1.665   1.185  -3.678  0.00  0.00     0.034 A 
ATOM      4  C3  UNL d   1       0.833   1.538  -2.609  0.00  0.00     0.017 A 
ATOM      5  C4  UNL d   1       1.397   1.907  -1.382  0.00  0.00     0.017 A 
ATOM      6  C5  UNL d   1       2.787   1.920  -1.232  0.00  0.00     0.034 A 
ATOM      7 Cl   UNL d   1       0.435   2.355  -0.017  0.00  0.00    -0.070 Cl
ATOM      8 Cl1  UNL d   1      -0.874   1.497  -2.872  0.00  0.00    -0.070 Cl
ENDROOT
TORSDOF 0
ENDMDL
