MODEL 1
REMARK minimizedAffinity -3.64471531
REMARK minimizedRMSD -1
REMARK  0 active torsions:
REMARK  status: ('A' for Active; 'I' for Inactive)
ROOT
ATOM      1  C   UNL d   1      -1.111   1.058   0.509  0.00  0.00     0.020 A 
ATOM      2  C1  UNL d   1       0.238   1.222   0.196  0.00  0.00     0.020 A 
ATOM      3  C2  UNL d   1       1.088   0.114   0.168  0.00  0.00     0.034 A 
ATOM      4  C3  UNL d   1       0.589  -1.163   0.453  0.00  0.00     0.017 A 
ATOM      5  C4  UNL d   1      -0.765  -1.326   0.767  0.00  0.00     0.017 A 
ATOM      6  C5  UNL d   1      -1.611  -0.213   0.794  0.00  0.00     0.034 A 
ATOM      7 Cl   UNL d   1      -1.452  -2.870   1.130  0.00  0.00    -0.070 Cl
ATOM      8 Cl1  UNL d   1       1.697  -2.488   0.399  0.00  0.00    -0.070 Cl
ENDROOT
TORSDOF 0
ENDMDL
