MODEL 1
REMARK minimizedAffinity -2.46787214
REMARK minimizedRMSD -1
REMARK  0 active torsions:
REMARK  status: ('A' for Active; 'I' for Inactive)
ROOT
ATOM      1  C   UNL d   1      -1.475  -2.238   1.199  0.00  0.00     0.020 A 
ATOM      2  C1  UNL d   1      -2.197  -1.119   0.787  0.00  0.00     0.020 A 
ATOM      3  C2  UNL d   1      -1.538  -0.047   0.180  0.00  0.00     0.034 A 
ATOM      4  C3  UNL d   1      -0.153  -0.093  -0.016  0.00  0.00     0.017 A 
ATOM      5  C4  UNL d   1       0.571  -1.217   0.399  0.00  0.00     0.017 A 
ATOM      6  C5  UNL d   1      -0.094  -2.287   1.006  0.00  0.00     0.034 A 
ATOM      7 Cl   UNL d   1       2.282  -1.346   0.191  0.00  0.00    -0.070 Cl
ATOM      8 Cl1  UNL d   1       0.597   1.267  -0.773  0.00  0.00    -0.070 Cl
ENDROOT
TORSDOF 0
ENDMDL
