MODEL 1
REMARK minimizedAffinity -4.89192152
REMARK minimizedRMSD -1
REMARK  0 active torsions:
REMARK  status: ('A' for Active; 'I' for Inactive)
ROOT
ATOM      1  C   UNL d   1      -2.769  -1.450   2.279  0.00  0.00     0.020 A 
ATOM      2  C1  UNL d   1      -2.052  -2.281   1.419  0.00  0.00     0.020 A 
ATOM      3  C2  UNL d   1      -1.174  -1.728   0.484  0.00  0.00     0.034 A 
ATOM      4  C3  UNL d   1      -1.010  -0.340   0.407  0.00  0.00     0.017 A 
ATOM      5  C4  UNL d   1      -1.730   0.493   1.271  0.00  0.00     0.017 A 
ATOM      6  C5  UNL d   1      -2.607  -0.065   2.205  0.00  0.00     0.034 A 
ATOM      7 Cl   UNL d   1      -1.580   2.215   1.236  0.00  0.00    -0.070 Cl
ATOM      8 Cl1  UNL d   1       0.093   0.274  -0.772  0.00  0.00    -0.070 Cl
ENDROOT
TORSDOF 0
ENDMDL
