MODEL 1
REMARK minimizedAffinity -1.71528828
REMARK minimizedRMSD -1
REMARK  0 active torsions:
REMARK  status: ('A' for Active; 'I' for Inactive)
ROOT
ATOM      1  C   UNL d   1      -2.149  -1.852   0.270  0.00  0.00     0.020 A 
ATOM      2  C1  UNL d   1      -1.306  -2.579   1.109  0.00  0.00     0.020 A 
ATOM      3  C2  UNL d   1       0.006  -2.150   1.322  0.00  0.00     0.034 A 
ATOM      4  C3  UNL d   1       0.479  -0.992   0.695  0.00  0.00     0.017 A 
ATOM      5  C4  UNL d   1      -0.369  -0.263  -0.147  0.00  0.00     0.017 A 
ATOM      6  C5  UNL d   1      -1.681  -0.697  -0.357  0.00  0.00     0.034 A 
ATOM      7 Cl   UNL d   1       0.143   1.177  -0.956  0.00  0.00    -0.070 Cl
ATOM      8 Cl1  UNL d   1       2.112  -0.520   1.004  0.00  0.00    -0.070 Cl
ENDROOT
TORSDOF 0
ENDMDL
