MODEL 1
REMARK minimizedAffinity -4.23840714
REMARK minimizedRMSD -1
REMARK  0 active torsions:
REMARK  status: ('A' for Active; 'I' for Inactive)
ROOT
ATOM      1  C   UNL d   1      -1.960  -1.460   0.417  0.00  0.00     0.020 A 
ATOM      2  C1  UNL d   1      -1.175  -2.532   0.840  0.00  0.00     0.020 A 
ATOM      3  C2  UNL d   1       0.217  -2.430   0.818  0.00  0.00     0.034 A 
ATOM      4  C3  UNL d   1       0.830  -1.253   0.372  0.00  0.00     0.017 A 
ATOM      5  C4  UNL d   1       0.041  -0.177  -0.052  0.00  0.00     0.017 A 
ATOM      6  C5  UNL d   1      -1.352  -0.285  -0.028  0.00  0.00     0.034 A 
ATOM      7 Cl   UNL d   1       0.725   1.307  -0.615  0.00  0.00    -0.070 Cl
ATOM      8 Cl1  UNL d   1       2.557  -1.196   0.373  0.00  0.00    -0.070 Cl
ENDROOT
TORSDOF 0
ENDMDL
