MODEL 1
REMARK minimizedAffinity 2.94680047
REMARK minimizedRMSD -1
REMARK  0 active torsions:
REMARK  status: ('A' for Active; 'I' for Inactive)
ROOT
ATOM      1  C   UNL d   1      -0.308  -3.117   2.731  0.00  0.00     0.020 A 
ATOM      2  C1  UNL d   1      -1.418  -2.373   3.131  0.00  0.00     0.020 A 
ATOM      3  C2  UNL d   1      -1.763  -1.209   2.441  0.00  0.00     0.034 A 
ATOM      4  C3  UNL d   1      -0.999  -0.785   1.348  0.00  0.00     0.017 A 
ATOM      5  C4  UNL d   1       0.115  -1.533   0.948  0.00  0.00     0.017 A 
ATOM      6  C5  UNL d   1       0.456  -2.697   1.642  0.00  0.00     0.034 A 
ATOM      7 Cl   UNL d   1       1.107  -1.073  -0.391  0.00  0.00    -0.070 Cl
ATOM      8 Cl1  UNL d   1      -1.484   0.663   0.542  0.00  0.00    -0.070 Cl
ENDROOT
TORSDOF 0
ENDMDL
