MODEL 1
REMARK minimizedAffinity -3.4630661
REMARK minimizedRMSD -1
REMARK  0 active torsions:
REMARK  status: ('A' for Active; 'I' for Inactive)
ROOT
ATOM      1  C   UNL d   1      -2.225  -1.505   0.852  0.00  0.00     0.020 A 
ATOM      2  C1  UNL d   1      -1.479  -2.435   1.576  0.00  0.00     0.020 A 
ATOM      3  C2  UNL d   1      -0.090  -2.474   1.438  0.00  0.00     0.034 A 
ATOM      4  C3  UNL d   1       0.557  -1.583   0.574  0.00  0.00     0.017 A 
ATOM      5  C4  UNL d   1      -0.193  -0.650  -0.152  0.00  0.00     0.017 A 
ATOM      6  C5  UNL d   1      -1.583  -0.615  -0.010  0.00  0.00     0.034 A 
ATOM      7 Cl   UNL d   1       0.535   0.482  -1.236  0.00  0.00    -0.070 Cl
ATOM      8 Cl1  UNL d   1       2.278  -1.688   0.453  0.00  0.00    -0.070 Cl
ENDROOT
TORSDOF 0
ENDMDL
