MODEL 1
REMARK minimizedAffinity -2.76968861
REMARK minimizedRMSD -1
REMARK  0 active torsions:
REMARK  status: ('A' for Active; 'I' for Inactive)
ROOT
ATOM      1  C   UNL d   1      -1.594   1.484   0.638  0.00  0.00     0.020 A 
ATOM      2  C1  UNL d   1      -0.260   1.826   0.422  0.00  0.00     0.020 A 
ATOM      3  C2  UNL d   1       0.694   0.826   0.219  0.00  0.00     0.034 A 
ATOM      4  C3  UNL d   1       0.315  -0.521   0.234  0.00  0.00     0.017 A 
ATOM      5  C4  UNL d   1      -1.024  -0.864   0.451  0.00  0.00     0.017 A 
ATOM      6  C5  UNL d   1      -1.975   0.141   0.653  0.00  0.00     0.034 A 
ATOM      7 Cl   UNL d   1      -1.568  -2.504   0.482  0.00  0.00    -0.070 Cl
ATOM      8 Cl1  UNL d   1       1.547  -1.705  -0.024  0.00  0.00    -0.070 Cl
ENDROOT
TORSDOF 0
ENDMDL
