MODEL 1
REMARK minimizedAffinity -2.17229748
REMARK minimizedRMSD -1
REMARK  0 active torsions:
REMARK  status: ('A' for Active; 'I' for Inactive)
ROOT
ATOM      1  C   UNL d   1      -1.812  -2.221   1.079  0.00  0.00     0.020 A 
ATOM      2  C1  UNL d   1      -0.748  -2.505   1.934  0.00  0.00     0.020 A 
ATOM      3  C2  UNL d   1       0.457  -1.811   1.804  0.00  0.00     0.034 A 
ATOM      4  C3  UNL d   1       0.601  -0.830   0.816  0.00  0.00     0.017 A 
ATOM      5  C4  UNL d   1      -0.467  -0.546  -0.042  0.00  0.00     0.017 A 
ATOM      6  C5  UNL d   1      -1.672  -1.243   0.093  0.00  0.00     0.034 A 
ATOM      7 Cl   UNL d   1      -0.365   0.651  -1.285  0.00  0.00    -0.070 Cl
ATOM      8 Cl1  UNL d   1       2.119  -0.011   0.712  0.00  0.00    -0.070 Cl
ENDROOT
TORSDOF 0
ENDMDL
