MODEL 1
REMARK minimizedAffinity -4.54573727
REMARK minimizedRMSD -1
REMARK  0 active torsions:
REMARK  status: ('A' for Active; 'I' for Inactive)
ROOT
ATOM      1  C   UNL d   1      -1.224   1.160   1.072  0.00  0.00     0.020 A 
ATOM      2  C1  UNL d   1       0.024   1.569   0.605  0.00  0.00     0.020 A 
ATOM      3  C2  UNL d   1       1.028   0.625   0.378  0.00  0.00     0.034 A 
ATOM      4  C3  UNL d   1       0.786  -0.732   0.619  0.00  0.00     0.017 A 
ATOM      5  C4  UNL d   1      -0.468  -1.142   1.089  0.00  0.00     0.017 A 
ATOM      6  C5  UNL d   1      -1.470  -0.193   1.314  0.00  0.00     0.034 A 
ATOM      7 Cl   UNL d   1      -0.841  -2.798   1.410  0.00  0.00    -0.070 Cl
ATOM      8 Cl1  UNL d   1       2.073  -1.844   0.317  0.00  0.00    -0.070 Cl
ENDROOT
TORSDOF 0
ENDMDL
