MODEL 1
REMARK minimizedAffinity -2.51058984
REMARK minimizedRMSD -1
REMARK  0 active torsions:
REMARK  status: ('A' for Active; 'I' for Inactive)
ROOT
ATOM      1  C   UNL d   1       0.651   1.107   0.211  0.00  0.00     0.020 A 
ATOM      2  C1  UNL d   1      -0.725   1.039   0.426  0.00  0.00     0.020 A 
ATOM      3  C2  UNL d   1      -1.342  -0.200   0.613  0.00  0.00     0.034 A 
ATOM      4  C3  UNL d   1      -0.583  -1.375   0.586  0.00  0.00     0.017 A 
ATOM      5  C4  UNL d   1       0.799  -1.306   0.370  0.00  0.00     0.017 A 
ATOM      6  C5  UNL d   1       1.411  -0.063   0.183  0.00  0.00     0.034 A 
ATOM      7 Cl   UNL d   1       1.801  -2.713   0.323  0.00  0.00    -0.070 Cl
ATOM      8 Cl1  UNL d   1      -1.411  -2.873   0.825  0.00  0.00    -0.070 Cl
ENDROOT
TORSDOF 0
ENDMDL
