MODEL 1
REMARK minimizedAffinity 18.4628963
REMARK minimizedRMSD -1
REMARK  0 active torsions:
REMARK  status: ('A' for Active; 'I' for Inactive)
ROOT
ATOM      1  C4' PXY d   1       2.157   0.416   4.960  0.00  0.00     0.077 C 
ATOM      2  C1' PXY d   1      -1.420  -1.227   0.727  0.00  0.00     0.077 C 
ATOM      3  C1  PXY d   1      -0.484  -0.808   1.843  0.00  0.00    -0.082 A 
ATOM      4  C2  PXY d   1      -0.251   0.478   2.053  0.00  0.00     0.003 A 
ATOM      5  C3  PXY d   1       0.617   0.874   3.038  0.00  0.00     0.003 A 
ATOM      6  C4  PXY d   1       1.212  -0.054   3.850  0.00  0.00    -0.082 A 
ATOM      7  C5  PXY d   1       0.972  -1.367   3.649  0.00  0.00     0.003 A 
ATOM      8  C6  PXY d   1       0.119  -1.750   2.618  0.00  0.00     0.003 A 
ENDROOT
TORSDOF 0
ENDMDL
