MODEL 1
REMARK minimizedAffinity 10.3864574
REMARK minimizedRMSD -1
REMARK  0 active torsions:
REMARK  status: ('A' for Active; 'I' for Inactive)
ROOT
ATOM      1  C4' PXY d   1       6.000   4.875   4.497  0.00  0.00     0.077 C 
ATOM      2  C1' PXY d   1       2.405   2.347   0.741  0.00  0.00     0.077 C 
ATOM      3  C1  PXY d   1       3.346   3.000   1.735  0.00  0.00    -0.082 A 
ATOM      4  C2  PXY d   1       3.539   4.308   1.690  0.00  0.00     0.003 A 
ATOM      5  C3  PXY d   1       4.410   4.911   2.560  0.00  0.00     0.003 A 
ATOM      6  C4  PXY d   1       5.052   4.174   3.520  0.00  0.00    -0.082 A 
ATOM      7  C5  PXY d   1       4.852   2.840   3.579  0.00  0.00     0.003 A 
ATOM      8  C6  PXY d   1       3.995   2.242   2.660  0.00  0.00     0.003 A 
ENDROOT
TORSDOF 0
ENDMDL
