MODEL 1
REMARK minimizedAffinity 6.90402603
REMARK minimizedRMSD -1
REMARK  0 active torsions:
REMARK  status: ('A' for Active; 'I' for Inactive)
ROOT
ATOM      1  C4' PXY d   1      -0.462  -3.699  -6.000  0.00  0.00     0.077 C 
ATOM      2  C1' PXY d   1       3.686   0.288  -5.443  0.00  0.00     0.077 C 
ATOM      3  C1  PXY d   1       2.607  -0.765  -5.596  0.00  0.00    -0.082 A 
ATOM      4  C2  PXY d   1       1.335  -0.420  -5.476  0.00  0.00     0.003 A 
ATOM      5  C3  PXY d   1       0.347  -1.366  -5.580  0.00  0.00     0.003 A 
ATOM      6  C4  PXY d   1       0.662  -2.668  -5.862  0.00  0.00    -0.082 A 
ATOM      7  C5  PXY d   1       1.956  -3.026  -5.996  0.00  0.00     0.003 A 
ATOM      8  C6  PXY d   1       2.946  -2.059  -5.846  0.00  0.00     0.003 A 
ENDROOT
TORSDOF 0
ENDMDL
