MODEL 1
REMARK minimizedAffinity 12.2171268
REMARK minimizedRMSD -1
REMARK  0 active torsions:
REMARK  status: ('A' for Active; 'I' for Inactive)
ROOT
ATOM      1  C4' PXY d   1       0.752  -0.526  -4.589  0.00  0.00     0.077 C 
ATOM      2  C1' PXY d   1      -2.271  -5.405  -5.279  0.00  0.00     0.077 C 
ATOM      3  C1  PXY d   1      -1.488  -4.121  -5.091  0.00  0.00    -0.082 A 
ATOM      4  C2  PXY d   1      -0.598  -3.758  -6.000  0.00  0.00     0.003 A 
ATOM      5  C3  PXY d   1       0.143  -2.616  -5.829  0.00  0.00     0.003 A 
ATOM      6  C4  PXY d   1      -0.068  -1.810  -4.743  0.00  0.00    -0.082 A 
ATOM      7  C5  PXY d   1      -0.982  -2.168  -3.816  0.00  0.00     0.003 A 
ATOM      8  C6  PXY d   1      -1.694  -3.352  -3.987  0.00  0.00     0.003 A 
ENDROOT
TORSDOF 0
ENDMDL
