MODEL 1
REMARK minimizedAffinity 9.19986057
REMARK minimizedRMSD -1
REMARK  0 active torsions:
REMARK  status: ('A' for Active; 'I' for Inactive)
ROOT
ATOM      1  C4' PXY d   1       3.287   0.781   4.026  0.00  0.00     0.077 C 
ATOM      2  C1' PXY d   1      -2.078  -0.871   2.646  0.00  0.00     0.077 C 
ATOM      3  C1  PXY d   1      -0.669  -0.449   3.014  0.00  0.00    -0.082 A 
ATOM      4  C2  PXY d   1      -0.361   0.837   3.054  0.00  0.00     0.003 A 
ATOM      5  C3  PXY d   1       0.916   1.236   3.354  0.00  0.00     0.003 A 
ATOM      6  C4  PXY d   1       1.874   0.310   3.669  0.00  0.00    -0.082 A 
ATOM      7  C5  PXY d   1       1.565  -1.004   3.641  0.00  0.00     0.003 A 
ATOM      8  C6  PXY d   1       0.273  -1.389   3.294  0.00  0.00     0.003 A 
ENDROOT
TORSDOF 0
ENDMDL
