MODEL 1
REMARK minimizedAffinity 15.5564823
REMARK minimizedRMSD -1
REMARK  0 active torsions:
REMARK  status: ('A' for Active; 'I' for Inactive)
ROOT
ATOM      1  C4' PXY d   1      -1.482  -5.231  -5.629  0.00  0.00     0.077 C 
ATOM      2  C1' PXY d   1       0.376   0.127  -4.508  0.00  0.00     0.077 C 
ATOM      3  C1  PXY d   1      -0.116  -1.279  -4.790  0.00  0.00    -0.082 A 
ATOM      4  C2  PXY d   1       0.490  -2.012  -5.710  0.00  0.00     0.003 A 
ATOM      5  C3  PXY d   1       0.037  -3.273  -6.000  0.00  0.00     0.003 A 
ATOM      6  C4  PXY d   1      -1.013  -3.810  -5.304  0.00  0.00    -0.082 A 
ATOM      7  C5  PXY d   1      -1.630  -3.072  -4.357  0.00  0.00     0.003 A 
ATOM      8  C6  PXY d   1      -1.181  -1.779  -4.106  0.00  0.00     0.003 A 
ENDROOT
TORSDOF 0
ENDMDL
