MODEL 1
REMARK minimizedAffinity 10.512763
REMARK minimizedRMSD -1
REMARK  0 active torsions:
REMARK  status: ('A' for Active; 'I' for Inactive)
ROOT
ATOM      1  C4' PXY d   1      -0.352  -3.153  -6.000  0.00  0.00     0.077 C 
ATOM      2  C1' PXY d   1       3.939   0.687  -5.493  0.00  0.00     0.077 C 
ATOM      3  C1  PXY d   1       2.805  -0.311  -5.621  0.00  0.00    -0.082 A 
ATOM      4  C2  PXY d   1       3.071  -1.607  -5.615  0.00  0.00     0.003 A 
ATOM      5  C3  PXY d   1       2.061  -2.523  -5.762  0.00  0.00     0.003 A 
ATOM      6  C4  PXY d   1       0.760  -2.109  -5.864  0.00  0.00    -0.082 A 
ATOM      7  C5  PXY d   1       0.479  -0.789  -5.860  0.00  0.00     0.003 A 
ATOM      8  C6  PXY d   1       1.523   0.126  -5.751  0.00  0.00     0.003 A 
ENDROOT
TORSDOF 0
ENDMDL
