MODEL 1
REMARK minimizedAffinity 17.0320339
REMARK minimizedRMSD -1
REMARK  0 active torsions:
REMARK  status: ('A' for Active; 'I' for Inactive)
ROOT
ATOM      1  C4' PXY d   1       3.597   0.015  -5.999  0.00  0.00     0.077 C 
ATOM      2  C1' PXY d   1      -1.480  -1.120  -3.480  0.00  0.00     0.077 C 
ATOM      3  C1  PXY d   1      -0.150  -0.833  -4.148  0.00  0.00    -0.082 A 
ATOM      4  C2  PXY d   1       0.750  -0.092  -3.522  0.00  0.00     0.003 A 
ATOM      5  C3  PXY d   1       1.945   0.204  -4.124  0.00  0.00     0.003 A 
ATOM      6  C4  PXY d   1       2.244  -0.308  -5.359  0.00  0.00    -0.082 A 
ATOM      7  C5  PXY d   1       1.335  -1.073  -6.000  0.00  0.00     0.003 A 
ATOM      8  C6  PXY d   1       0.111  -1.328  -5.388  0.00  0.00     0.003 A 
ENDROOT
TORSDOF 0
ENDMDL
