MODEL 1
REMARK minimizedAffinity 8.38793659
REMARK minimizedRMSD -1
REMARK  0 active torsions:
REMARK  status: ('A' for Active; 'I' for Inactive)
ROOT
ATOM      1  C4' PXY d   1      -2.578  -1.116  -3.675  0.00  0.00     0.077 C 
ATOM      2  C1' PXY d   1       2.870  -1.045  -5.605  0.00  0.00     0.077 C 
ATOM      3  C1  PXY d   1       1.437  -1.058  -5.110  0.00  0.00    -0.082 A 
ATOM      4  C2  PXY d   1       1.194  -1.026  -3.810  0.00  0.00     0.003 A 
ATOM      5  C3  PXY d   1      -0.095  -1.070  -3.345  0.00  0.00     0.003 A 
ATOM      6  C4  PXY d   1      -1.148  -1.094  -4.220  0.00  0.00    -0.082 A 
ATOM      7  C5  PXY d   1      -0.908  -1.116  -5.548  0.00  0.00     0.003 A 
ATOM      8  C6  PXY d   1       0.409  -1.112  -6.000  0.00  0.00     0.003 A 
ENDROOT
TORSDOF 0
ENDMDL
