MODEL 1
REMARK minimizedAffinity 1.42524731
REMARK minimizedRMSD -1
REMARK  0 active torsions:
REMARK  status: ('A' for Active; 'I' for Inactive)
ROOT
ATOM      1  C4' PXY d   1       2.874  -2.262   4.873  0.00  0.00     0.077 C 
ATOM      2  C1' PXY d   1      -0.252   1.775   2.163  0.00  0.00     0.077 C 
ATOM      3  C1  PXY d   1       0.557   0.712   2.879  0.00  0.00    -0.082 A 
ATOM      4  C2  PXY d   1       1.842   0.918   3.119  0.00  0.00     0.003 A 
ATOM      5  C3  PXY d   1       2.596  -0.046   3.737  0.00  0.00     0.003 A 
ATOM      6  C4  PXY d   1       2.016  -1.212   4.161  0.00  0.00    -0.082 A 
ATOM      7  C5  PXY d   1       0.704  -1.426   3.930  0.00  0.00     0.003 A 
ATOM      8  C6  PXY d   1      -0.035  -0.452   3.264  0.00  0.00     0.003 A 
ENDROOT
TORSDOF 0
ENDMDL
