MODEL 1
REMARK minimizedAffinity 2.23982167
REMARK minimizedRMSD -1
REMARK  0 active torsions:
REMARK  status: ('A' for Active; 'I' for Inactive)
ROOT
ATOM      1  C   UNL d   1       5.992   5.962  -1.224  0.00  0.00     0.172 C 
ATOM      2  N   UNL d   1       5.347   5.818  -2.508  0.00  0.00    -0.070 N 
ATOM      3  C1  UNL d   1       4.002   5.669  -2.714  0.00  0.00    -0.004 A 
ATOM      4  C2  UNL d   1       3.791   5.564  -4.071  0.00  0.00    -0.047 A 
ATOM      5  C3  UNL d   1       5.054   5.652  -4.704  0.00  0.00    -0.047 A 
ATOM      6  C4  UNL d   1       6.000   5.808  -3.713  0.00  0.00    -0.004 A 
ENDROOT
TORSDOF 0
ENDMDL
