MODEL 1
REMARK minimizedAffinity -3.03418803
REMARK minimizedRMSD -1
REMARK  0 active torsions:
REMARK  status: ('A' for Active; 'I' for Inactive)
ROOT
ATOM      1  C   UNL d   1       6.000   5.251  -1.773  0.00  0.00     0.172 C 
ATOM      2  N   UNL d   1       5.563   5.107  -3.142  0.00  0.00    -0.070 N 
ATOM      3  C1  UNL d   1       6.000   4.155  -4.024  0.00  0.00    -0.004 A 
ATOM      4  C2  UNL d   1       5.345   4.354  -5.219  0.00  0.00    -0.047 A 
ATOM      5  C3  UNL d   1       4.485   5.466  -5.051  0.00  0.00    -0.047 A 
ATOM      6  C4  UNL d   1       4.640   5.912  -3.755  0.00  0.00    -0.004 A 
ENDROOT
TORSDOF 0
ENDMDL
