MODEL 1
REMARK minimizedAffinity -0.737797976
REMARK minimizedRMSD -1
REMARK  0 active torsions:
REMARK  status: ('A' for Active; 'I' for Inactive)
ROOT
ATOM      1  C   UNL d   1       6.000   5.996  -1.972  0.00  0.00     0.172 C 
ATOM      2  N   UNL d   1       5.614   5.397  -3.228  0.00  0.00    -0.070 N 
ATOM      3  C1  UNL d   1       5.988   4.156  -3.669  0.00  0.00    -0.004 A 
ATOM      4  C2  UNL d   1       5.413   3.957  -4.906  0.00  0.00    -0.047 A 
ATOM      5  C3  UNL d   1       4.669   5.119  -5.219  0.00  0.00    -0.047 A 
ATOM      6  C4  UNL d   1       4.810   5.994  -4.163  0.00  0.00    -0.004 A 
ENDROOT
TORSDOF 0
ENDMDL
