MODEL 1
REMARK minimizedAffinity 1.54001057
REMARK minimizedRMSD -1
REMARK  0 active torsions:
REMARK  status: ('A' for Active; 'I' for Inactive)
ROOT
ATOM      1  C   UNL d   1       1.281  -1.129   5.999  0.00  0.00     0.172 C 
ATOM      2  N   UNL d   1      -0.159  -1.155   5.890  0.00  0.00    -0.070 N 
ATOM      3  C1  UNL d   1      -0.948  -2.269   5.996  0.00  0.00    -0.004 A 
ATOM      4  C2  UNL d   1      -2.259  -1.875   5.834  0.00  0.00    -0.047 A 
ATOM      5  C3  UNL d   1      -2.257  -0.476   5.622  0.00  0.00    -0.047 A 
ATOM      6  C4  UNL d   1      -0.945  -0.056   5.661  0.00  0.00    -0.004 A 
ENDROOT
TORSDOF 0
ENDMDL
