MODEL 1
REMARK minimizedAffinity -2.79982662
REMARK minimizedRMSD -1
REMARK  0 active torsions:
REMARK  status: ('A' for Active; 'I' for Inactive)
ROOT
ATOM      1  C   UNL d   1       5.999   5.981  -2.147  0.00  0.00     0.172 C 
ATOM      2  N   UNL d   1       5.393   5.098  -3.116  0.00  0.00    -0.070 N 
ATOM      3  C1  UNL d   1       5.999   4.616  -4.245  0.00  0.00    -0.004 A 
ATOM      4  C2  UNL d   1       5.092   3.812  -4.900  0.00  0.00    -0.047 A 
ATOM      5  C3  UNL d   1       3.899   3.811  -4.139  0.00  0.00    -0.047 A 
ATOM      6  C4  UNL d   1       4.113   4.616  -3.040  0.00  0.00    -0.004 A 
ENDROOT
TORSDOF 0
ENDMDL
