MODEL 1
REMARK minimizedAffinity 3.24795818
REMARK minimizedRMSD -1
REMARK  0 active torsions:
REMARK  status: ('A' for Active; 'I' for Inactive)
ROOT
ATOM      1  C   UNL d   1       5.945   5.992  -1.449  0.00  0.00     0.172 C 
ATOM      2  N   UNL d   1       5.094   5.444  -2.478  0.00  0.00    -0.070 N 
ATOM      3  C1  UNL d   1       3.893   5.963  -2.881  0.00  0.00    -0.004 A 
ATOM      4  C2  UNL d   1       3.397   5.154  -3.880  0.00  0.00    -0.047 A 
ATOM      5  C3  UNL d   1       4.332   4.112  -4.084  0.00  0.00    -0.047 A 
ATOM      6  C4  UNL d   1       5.373   4.316  -3.203  0.00  0.00    -0.004 A 
ENDROOT
TORSDOF 0
ENDMDL
