MODEL 1
REMARK minimizedAffinity -1.97081041
REMARK minimizedRMSD -1
REMARK  0 active torsions:
REMARK  status: ('A' for Active; 'I' for Inactive)
ROOT
ATOM      1  C   UNL d   1       5.998   5.657  -2.282  0.00  0.00     0.172 C 
ATOM      2  N   UNL d   1       5.752   5.224  -3.637  0.00  0.00    -0.070 N 
ATOM      3  C1  UNL d   1       5.239   6.000  -4.643  0.00  0.00    -0.004 A 
ATOM      4  C2  UNL d   1       5.159   5.222  -5.777  0.00  0.00    -0.047 A 
ATOM      5  C3  UNL d   1       5.640   3.933  -5.442  0.00  0.00    -0.047 A 
ATOM      6  C4  UNL d   1       6.000   3.963  -4.111  0.00  0.00    -0.004 A 
ENDROOT
TORSDOF 0
ENDMDL
