MODEL 1
REMARK minimizedAffinity 0.893984675
REMARK minimizedRMSD -1
REMARK  0 active torsions:
REMARK  status: ('A' for Active; 'I' for Inactive)
ROOT
ATOM      1  C   UNL d   1      -0.811  -2.687   0.164  0.00  0.00     0.172 C 
ATOM      2  N   UNL d   1      -0.559  -2.820  -1.252  0.00  0.00    -0.070 N 
ATOM      3  C1  UNL d   1      -0.091  -1.831  -2.075  0.00  0.00    -0.004 A 
ATOM      4  C2  UNL d   1       0.013  -2.354  -3.346  0.00  0.00    -0.047 A 
ATOM      5  C3  UNL d   1      -0.409  -3.704  -3.284  0.00  0.00    -0.047 A 
ATOM      6  C4  UNL d   1      -0.757  -3.966  -1.976  0.00  0.00    -0.004 A 
ENDROOT
TORSDOF 0
ENDMDL
