MODEL 1
REMARK minimizedAffinity -2.22814083
REMARK minimizedRMSD -1
REMARK  0 active torsions:
REMARK  status: ('A' for Active; 'I' for Inactive)
ROOT
ATOM      1  C   UNL d   1       5.999   6.000  -1.962  0.00  0.00     0.172 C 
ATOM      2  N   UNL d   1       5.354   5.180  -2.961  0.00  0.00    -0.070 N 
ATOM      3  C1  UNL d   1       4.016   4.892  -3.014  0.00  0.00    -0.004 A 
ATOM      4  C2  UNL d   1       3.802   4.086  -4.111  0.00  0.00    -0.047 A 
ATOM      5  C3  UNL d   1       5.054   3.881  -4.738  0.00  0.00    -0.047 A 
ATOM      6  C4  UNL d   1       5.997   4.570  -4.005  0.00  0.00    -0.004 A 
ENDROOT
TORSDOF 0
ENDMDL
