MODEL 1
REMARK minimizedAffinity -2.17135644
REMARK minimizedRMSD -1
REMARK  0 active torsions:
REMARK  status: ('A' for Active; 'I' for Inactive)
ROOT
ATOM      1  C   UNL d   1       5.998   4.229  -5.088  0.00  0.00     0.172 C 
ATOM      2  N   UNL d   1       5.888   4.646  -3.710  0.00  0.00    -0.070 N 
ATOM      3  C1  UNL d   1       5.658   5.925  -3.279  0.00  0.00    -0.004 A 
ATOM      4  C2  UNL d   1       5.621   5.907  -1.902  0.00  0.00    -0.047 A 
ATOM      5  C3  UNL d   1       5.837   4.570  -1.490  0.00  0.00    -0.047 A 
ATOM      6  C4  UNL d   1       6.000   3.811  -2.630  0.00  0.00    -0.004 A 
ENDROOT
TORSDOF 0
ENDMDL
