MODEL 1
REMARK minimizedAffinity 3.61078238
REMARK minimizedRMSD -1
REMARK  0 active torsions:
REMARK  status: ('A' for Active; 'I' for Inactive)
ROOT
ATOM      1  C   UNL d   1       2.514  -2.191  -3.562  0.00  0.00     0.172 C 
ATOM      2  N   UNL d   1       1.110  -2.198  -3.224  0.00  0.00    -0.070 N 
ATOM      3  C1  UNL d   1       0.073  -2.208  -4.118  0.00  0.00    -0.004 A 
ATOM      4  C2  UNL d   1      -1.104  -2.213  -3.401  0.00  0.00    -0.047 A 
ATOM      5  C3  UNL d   1      -0.762  -2.205  -2.027  0.00  0.00    -0.047 A 
ATOM      6  C4  UNL d   1       0.614  -2.196  -1.947  0.00  0.00    -0.004 A 
ENDROOT
TORSDOF 0
ENDMDL
