MODEL 1
REMARK minimizedAffinity -2.2273922
REMARK minimizedRMSD -1
REMARK  0 active torsions:
REMARK  status: ('A' for Active; 'I' for Inactive)
ROOT
ATOM      1  C   UNL d   1       5.951   5.941  -2.455  0.00  0.00     0.172 C 
ATOM      2  N   UNL d   1       5.256   5.373  -3.586  0.00  0.00    -0.070 N 
ATOM      3  C1  UNL d   1       5.844   4.736  -4.646  0.00  0.00    -0.004 A 
ATOM      4  C2  UNL d   1       4.844   4.342  -5.509  0.00  0.00    -0.047 A 
ATOM      5  C3  UNL d   1       3.613   4.758  -4.948  0.00  0.00    -0.047 A 
ATOM      6  C4  UNL d   1       3.897   5.393  -3.758  0.00  0.00    -0.004 A 
ENDROOT
TORSDOF 0
ENDMDL
