MODEL 1
REMARK minimizedAffinity -1.22034252
REMARK minimizedRMSD -1
REMARK  0 active torsions:
REMARK  status: ('A' for Active; 'I' for Inactive)
ROOT
ATOM      1  C   UNL d   1       5.625   4.675  -2.436  0.00  0.00     0.172 C 
ATOM      2  N   UNL d   1       5.372   4.565  -3.854  0.00  0.00    -0.070 N 
ATOM      3  C1  UNL d   1       6.000   3.702  -4.712  0.00  0.00    -0.004 A 
ATOM      4  C2  UNL d   1       5.479   3.906  -5.971  0.00  0.00    -0.047 A 
ATOM      5  C3  UNL d   1       4.505   4.927  -5.867  0.00  0.00    -0.047 A 
ATOM      6  C4  UNL d   1       4.460   5.317  -4.545  0.00  0.00    -0.004 A 
ENDROOT
TORSDOF 0
ENDMDL
