MODEL 1
REMARK minimizedAffinity -2.84495258
REMARK minimizedRMSD -1
REMARK  0 active torsions:
REMARK  status: ('A' for Active; 'I' for Inactive)
ROOT
ATOM      1  C   UNL d   1       6.000   3.614  -5.503  0.00  0.00     0.172 C 
ATOM      2  N   UNL d   1       5.192   4.166  -4.441  0.00  0.00    -0.070 N 
ATOM      3  C1  UNL d   1       5.665   4.827  -3.339  0.00  0.00    -0.004 A 
ATOM      4  C2  UNL d   1       4.582   5.194  -2.570  0.00  0.00    -0.047 A 
ATOM      5  C3  UNL d   1       3.418   4.738  -3.232  0.00  0.00    -0.047 A 
ATOM      6  C4  UNL d   1       3.824   4.105  -4.388  0.00  0.00    -0.004 A 
ENDROOT
TORSDOF 0
ENDMDL
