MODEL 1
REMARK minimizedAffinity -5.58993435
REMARK minimizedRMSD -1
REMARK  1 active torsions:
REMARK  status: ('A' for Active; 'I' for Inactive)
REMARK    1  A    between atoms: C1_2  and  C2_3 
ROOT
ATOM      1  C2  UNL d   1      -3.517   0.022  -5.689  0.00  0.00    -0.073 A 
ATOM      2  C3  UNL d   1      -4.876  -0.290  -5.808  0.00  0.00    -0.002 A 
ATOM      3  C4  UNL d   1      -5.292  -1.621  -5.853  0.00  0.00     0.004 A 
ATOM      4  C5  UNL d   1      -4.357  -2.652  -5.772  0.00  0.00    -0.004 A 
ATOM      5  C6  UNL d   1      -2.995  -2.361  -5.641  0.00  0.00    -0.075 A 
ATOM      6  C7  UNL d   1      -1.976  -3.458  -5.555  0.00  0.00     0.076 C 
ATOM      7  C8  UNL d   1      -2.585  -1.021  -5.600  0.00  0.00     0.001 A 
ENDROOT
BRANCH   1   8
ATOM      8  C1  UNL d   1      -3.063   1.458  -5.634  0.00  0.00     0.053 C 
ATOM      9  C   UNL d   1      -4.219   2.428  -5.823  0.00  0.00     0.018 C 
ENDBRANCH   1   8
TORSDOF 1
ENDMDL
