MODEL 1
REMARK minimizedAffinity 1.51998377
REMARK minimizedRMSD -1
REMARK  1 active torsions:
REMARK  status: ('A' for Active; 'I' for Inactive)
REMARK    1  A    between atoms: C1_2  and  C2_3 
ROOT
ATOM      1  C2  UNL d   1       2.539  -0.165  -1.490  0.00  0.00    -0.073 A 
ATOM      2  C3  UNL d   1       1.735  -1.161  -0.925  0.00  0.00    -0.002 A 
ATOM      3  C4  UNL d   1       0.627  -0.816  -0.150  0.00  0.00     0.004 A 
ATOM      4  C5  UNL d   1       0.308   0.525   0.062  0.00  0.00    -0.004 A 
ATOM      5  C6  UNL d   1       1.093   1.535  -0.503  0.00  0.00    -0.075 A 
ATOM      6  C7  UNL d   1       0.765   2.982  -0.283  0.00  0.00     0.076 C 
ATOM      7  C8  UNL d   1       2.206   1.181  -1.278  0.00  0.00     0.001 A 
ENDROOT
BRANCH   1   8
ATOM      8  C1  UNL d   1       3.733  -0.532  -2.333  0.00  0.00     0.053 C 
ATOM      9  C   UNL d   1       4.108  -1.998  -2.182  0.00  0.00     0.018 C 
ENDBRANCH   1   8
TORSDOF 1
ENDMDL
