MODEL 1
REMARK minimizedAffinity 7.78361654
REMARK minimizedRMSD -1
REMARK  1 active torsions:
REMARK  status: ('A' for Active; 'I' for Inactive)
REMARK    1  A    between atoms: C1_2  and  C2_3 
ROOT
ATOM      1  C2  UNL d   1      -3.284  -3.350  -4.648  0.00  0.00    -0.073 A 
ATOM      2  C3  UNL d   1      -3.966  -2.128  -4.680  0.00  0.00    -0.002 A 
ATOM      3  C4  UNL d   1      -5.281  -2.067  -5.144  0.00  0.00     0.004 A 
ATOM      4  C5  UNL d   1      -5.929  -3.225  -5.573  0.00  0.00    -0.004 A 
ATOM      5  C6  UNL d   1      -5.268  -4.457  -5.538  0.00  0.00    -0.075 A 
ATOM      6  C7  UNL d   1      -5.951  -5.712  -5.998  0.00  0.00     0.076 C 
ATOM      7  C8  UNL d   1      -3.947  -4.510  -5.073  0.00  0.00     0.001 A 
ENDROOT
BRANCH   1   8
ATOM      8  C1  UNL d   1      -1.867  -3.423  -4.142  0.00  0.00     0.053 C 
ATOM      9  C   UNL d   1      -1.300  -4.830  -4.235  0.00  0.00     0.018 C 
ENDBRANCH   1   8
TORSDOF 1
ENDMDL
