MODEL 1
REMARK minimizedAffinity -0.552349746
REMARK minimizedRMSD -1
REMARK  1 active torsions:
REMARK  status: ('A' for Active; 'I' for Inactive)
REMARK    1  A    between atoms: C1_2  and  C2_3 
ROOT
ATOM      1  C2  UNL d   1       2.049   2.063   2.064  0.00  0.00    -0.073 A 
ATOM      2  C3  UNL d   1       3.103   1.882   2.966  0.00  0.00    -0.002 A 
ATOM      3  C4  UNL d   1       3.809   2.982   3.456  0.00  0.00     0.004 A 
ATOM      4  C5  UNL d   1       3.464   4.272   3.054  0.00  0.00    -0.004 A 
ATOM      5  C6  UNL d   1       2.406   4.475   2.163  0.00  0.00    -0.075 A 
ATOM      6  C7  UNL d   1       2.024   5.857   1.720  0.00  0.00     0.076 C 
ATOM      7  C8  UNL d   1       1.704   3.365   1.673  0.00  0.00     0.001 A 
ENDROOT
BRANCH   1   8
ATOM      8  C1  UNL d   1       1.280   0.879   1.538  0.00  0.00     0.053 C 
ATOM      9  C   UNL d   1       1.037   0.977   0.040  0.00  0.00     0.018 C 
ENDBRANCH   1   8
TORSDOF 1
ENDMDL
