MODEL 1
REMARK minimizedAffinity 1.41472483
REMARK minimizedRMSD -1
REMARK  1 active torsions:
REMARK  status: ('A' for Active; 'I' for Inactive)
REMARK    1  A    between atoms: C1_2  and  C2_3 
ROOT
ATOM      1  C2  UNL d   1       2.897   0.893  -0.820  0.00  0.00    -0.073 A 
ATOM      2  C3  UNL d   1       2.712   2.041  -0.041  0.00  0.00    -0.002 A 
ATOM      3  C4  UNL d   1       1.566   2.183   0.743  0.00  0.00     0.004 A 
ATOM      4  C5  UNL d   1       0.599   1.179   0.762  0.00  0.00    -0.004 A 
ATOM      5  C6  UNL d   1       0.771   0.019  -0.001  0.00  0.00    -0.075 A 
ATOM      6  C7  UNL d   1      -0.261  -1.069   0.006  0.00  0.00     0.076 C 
ATOM      7  C8  UNL d   1       1.923  -0.115  -0.788  0.00  0.00     0.001 A 
ENDROOT
BRANCH   1   8
ATOM      8  C1  UNL d   1       4.136   0.732  -1.663  0.00  0.00     0.053 C 
ATOM      9  C   UNL d   1       5.253   1.661  -1.217  0.00  0.00     0.018 C 
ENDBRANCH   1   8
TORSDOF 1
ENDMDL
