MODEL 1
REMARK minimizedAffinity -2.77849007
REMARK minimizedRMSD -1
REMARK  1 active torsions:
REMARK  status: ('A' for Active; 'I' for Inactive)
REMARK    1  A    between atoms: C1_2  and  C2_3 
ROOT
ATOM      1  C2  UNL d   1      -2.428  -3.107  -4.099  0.00  0.00    -0.073 A 
ATOM      2  C3  UNL d   1      -2.133  -4.456  -4.330  0.00  0.00    -0.002 A 
ATOM      3  C4  UNL d   1      -2.995  -5.246  -5.091  0.00  0.00     0.004 A 
ATOM      4  C5  UNL d   1      -4.157  -4.696  -5.633  0.00  0.00    -0.004 A 
ATOM      5  C6  UNL d   1      -4.463  -3.347  -5.423  0.00  0.00    -0.075 A 
ATOM      6  C7  UNL d   1      -5.709  -2.741  -5.998  0.00  0.00     0.076 C 
ATOM      7  C8  UNL d   1      -3.593  -2.561  -4.656  0.00  0.00     0.001 A 
ENDROOT
BRANCH   1   8
ATOM      8  C1  UNL d   1      -1.497  -2.249  -3.283  0.00  0.00     0.053 C 
ATOM      9  C   UNL d   1      -2.097  -1.877  -1.936  0.00  0.00     0.018 C 
ENDBRANCH   1   8
TORSDOF 1
ENDMDL
