MODEL 1
REMARK minimizedAffinity 10.3266392
REMARK minimizedRMSD -1
REMARK  0 active torsions:
REMARK  status: ('A' for Active; 'I' for Inactive)
ROOT
ATOM      1  C   UNL d   1      -1.711  -3.106  -3.468  0.00  0.00     0.077 C 
ATOM      2  C1  UNL d   1      -0.702  -3.375  -2.392  0.00  0.00    -0.074 A 
ATOM      3  C2  UNL d   1      -0.146  -4.648  -2.229  0.00  0.00    -0.005 A 
ATOM      4  C3  UNL d   1       0.798  -4.880  -1.229  0.00  0.00     0.006 A 
ATOM      5  C4  UNL d   1       1.196  -3.843  -0.383  0.00  0.00    -0.005 A 
ATOM      6  C5  UNL d   1       0.651  -2.564  -0.532  0.00  0.00    -0.074 A 
ATOM      7  C6  UNL d   1       1.074  -1.436   0.362  0.00  0.00     0.077 C 
ATOM      8  C7  UNL d   1      -0.292  -2.337  -1.543  0.00  0.00    -0.001 A 
ENDROOT
TORSDOF 0
ENDMDL
