MODEL 1
REMARK minimizedAffinity 6.44851446
REMARK minimizedRMSD -1
REMARK  0 active torsions:
REMARK  status: ('A' for Active; 'I' for Inactive)
ROOT
ATOM      1  C   UNL d   1      -6.000  -0.347  -5.308  0.00  0.00     0.077 C 
ATOM      2  C1  UNL d   1      -5.992   0.955  -4.564  0.00  0.00    -0.074 A 
ATOM      3  C2  UNL d   1      -5.997   2.174  -5.249  0.00  0.00    -0.005 A 
ATOM      4  C3  UNL d   1      -6.000   3.378  -4.544  0.00  0.00     0.006 A 
ATOM      5  C4  UNL d   1      -5.997   3.374  -3.148  0.00  0.00    -0.005 A 
ATOM      6  C5  UNL d   1      -5.993   2.164  -2.446  0.00  0.00    -0.074 A 
ATOM      7  C6  UNL d   1      -6.000   2.143  -0.947  0.00  0.00     0.077 C 
ATOM      8  C7  UNL d   1      -5.997   0.960  -3.162  0.00  0.00    -0.001 A 
ENDROOT
TORSDOF 0
ENDMDL
