MODEL 1
REMARK minimizedAffinity 9.7854147
REMARK minimizedRMSD -1
REMARK  0 active torsions:
REMARK  status: ('A' for Active; 'I' for Inactive)
ROOT
ATOM      1  C   UNL d   1      -2.346   4.494  -2.652  0.00  0.00     0.077 C 
ATOM      2  C1  UNL d   1      -3.623   3.776  -2.970  0.00  0.00    -0.074 A 
ATOM      3  C2  UNL d   1      -4.818   4.113  -2.326  0.00  0.00    -0.005 A 
ATOM      4  C3  UNL d   1      -6.000   3.442  -2.639  0.00  0.00     0.006 A 
ATOM      5  C4  UNL d   1      -6.000   2.429  -3.598  0.00  0.00    -0.005 A 
ATOM      6  C5  UNL d   1      -4.815   2.078  -4.254  0.00  0.00    -0.074 A 
ATOM      7  C6  UNL d   1      -4.800   0.998  -5.294  0.00  0.00     0.077 C 
ATOM      8  C7  UNL d   1      -3.633   2.762  -3.938  0.00  0.00    -0.001 A 
ENDROOT
TORSDOF 0
ENDMDL
