MODEL 1
REMARK minimizedAffinity 5.96993256
REMARK minimizedRMSD -1
REMARK  0 active torsions:
REMARK  status: ('A' for Active; 'I' for Inactive)
ROOT
ATOM      1  C   UNL d   1      -3.261   4.105  -3.032  0.00  0.00     0.077 C 
ATOM      2  C1  UNL d   1      -1.946   4.282  -2.334  0.00  0.00    -0.074 A 
ATOM      3  C2  UNL d   1      -1.268   5.505  -2.376  0.00  0.00    -0.005 A 
ATOM      4  C3  UNL d   1      -0.050   5.657  -1.713  0.00  0.00     0.006 A 
ATOM      5  C4  UNL d   1       0.501   4.589  -1.003  0.00  0.00    -0.005 A 
ATOM      6  C5  UNL d   1      -0.162   3.360  -0.950  0.00  0.00    -0.074 A 
ATOM      7  C6  UNL d   1       0.412   2.205  -0.183  0.00  0.00     0.077 C 
ATOM      8  C7  UNL d   1      -1.389   3.217  -1.612  0.00  0.00    -0.001 A 
ENDROOT
TORSDOF 0
ENDMDL
