MODEL 1
REMARK minimizedAffinity 9.96001911
REMARK minimizedRMSD -1
REMARK  0 active torsions:
REMARK  status: ('A' for Active; 'I' for Inactive)
ROOT
ATOM      1  C   UNL d   1       0.389   2.373   0.452  0.00  0.00     0.077 C 
ATOM      2  C1  UNL d   1      -0.271   3.619  -0.057  0.00  0.00    -0.074 A 
ATOM      3  C2  UNL d   1      -0.083   4.847   0.586  0.00  0.00    -0.005 A 
ATOM      4  C3  UNL d   1      -0.695   6.000   0.095  0.00  0.00     0.006 A 
ATOM      5  C4  UNL d   1      -1.501   5.937  -1.043  0.00  0.00    -0.005 A 
ATOM      6  C5  UNL d   1      -1.701   4.719  -1.700  0.00  0.00    -0.074 A 
ATOM      7  C6  UNL d   1      -2.556   4.635  -2.929  0.00  0.00     0.077 C 
ATOM      8  C7  UNL d   1      -1.076   3.566  -1.204  0.00  0.00    -0.001 A 
ENDROOT
TORSDOF 0
ENDMDL
