MODEL 1
REMARK minimizedAffinity -2.88960099
REMARK minimizedRMSD -1
REMARK  0 active torsions:
REMARK  status: ('A' for Active; 'I' for Inactive)
ROOT
ATOM      1  C   UNL d   1      -5.957   1.525  -1.702  0.00  0.00     0.077 C 
ATOM      2  C1  UNL d   1      -5.973   2.845  -2.413  0.00  0.00    -0.074 A 
ATOM      3  C2  UNL d   1      -5.994   4.047  -1.698  0.00  0.00    -0.005 A 
ATOM      4  C3  UNL d   1      -5.999   5.267  -2.373  0.00  0.00     0.006 A 
ATOM      5  C4  UNL d   1      -5.984   5.299  -3.768  0.00  0.00    -0.005 A 
ATOM      6  C5  UNL d   1      -5.963   4.108  -4.500  0.00  0.00    -0.074 A 
ATOM      7  C6  UNL d   1      -5.936   4.124  -6.000  0.00  0.00     0.077 C 
ATOM      8  C7  UNL d   1      -5.950   2.885  -3.815  0.00  0.00    -0.001 A 
ENDROOT
TORSDOF 0
ENDMDL
