MODEL 1
REMARK minimizedAffinity 3.86611629
REMARK minimizedRMSD -1
REMARK  2 active torsions:
REMARK  status: ('A' for Active; 'I' for Inactive)
REMARK    1  A    between atoms: C1_2  and  C2_3 
REMARK    2  A    between atoms: C2_3  and  C3_4 
ROOT
ATOM      1  C3  UNL d   1      -1.421   1.296  -2.687  0.00  0.00    -0.075 A 
ATOM      2  C4  UNL d   1      -0.410   0.380  -2.360  0.00  0.00     0.002 A 
ATOM      3  C5  UNL d   1      -0.676  -0.695  -1.511  0.00  0.00     0.002 A 
ATOM      4  C6  UNL d   1      -1.950  -0.863  -0.972  0.00  0.00    -0.004 A 
ATOM      5  C7  UNL d   1      -2.957   0.051  -1.277  0.00  0.00     0.002 A 
ATOM      6  C8  UNL d   1      -2.695   1.125  -2.129  0.00  0.00     0.002 A 
ENDROOT
BRANCH   1   7
ATOM      7  C2  UNL d   1      -1.147   2.444  -3.628  0.00  0.00     0.056 C 
BRANCH   7   8
ATOM      8  C1  UNL d   1      -0.552   2.020  -4.974  0.00  0.00     0.007 C 
ATOM      9  C   UNL d   1      -1.608   1.626  -5.999  0.00  0.00     0.009 C 
ENDBRANCH   7   8
ENDBRANCH   1   7
TORSDOF 2
ENDMDL
