MODEL 1
REMARK minimizedAffinity 12.5514402
REMARK minimizedRMSD -1
REMARK  2 active torsions:
REMARK  status: ('A' for Active; 'I' for Inactive)
REMARK    1  A    between atoms: C1_2  and  C2_3 
REMARK    2  A    between atoms: C2_3  and  C3_4 
ROOT
ATOM      1  C3  UNL d   1       0.990  -1.472   0.451  0.00  0.00    -0.075 A 
ATOM      2  C4  UNL d   1       2.153  -2.207   0.176  0.00  0.00     0.002 A 
ATOM      3  C5  UNL d   1       2.660  -3.107   1.114  0.00  0.00     0.002 A 
ATOM      4  C6  UNL d   1       2.018  -3.277   2.339  0.00  0.00    -0.004 A 
ATOM      5  C7  UNL d   1       0.872  -2.540   2.629  0.00  0.00     0.002 A 
ATOM      6  C8  UNL d   1       0.360  -1.641   1.691  0.00  0.00     0.002 A 
ENDROOT
BRANCH   1   7
ATOM      7  C2  UNL d   1       0.420  -0.517  -0.571  0.00  0.00     0.056 C 
BRANCH   7   8
ATOM      8  C1  UNL d   1      -0.931  -0.954  -1.147  0.00  0.00     0.007 C 
ATOM      9  C   UNL d   1      -1.720   0.194  -1.763  0.00  0.00     0.009 C 
ENDBRANCH   7   8
ENDBRANCH   1   7
TORSDOF 2
ENDMDL
