MODEL 1
REMARK minimizedAffinity 9.35893822
REMARK minimizedRMSD -1
REMARK  2 active torsions:
REMARK  status: ('A' for Active; 'I' for Inactive)
REMARK    1  A    between atoms: C1_2  and  C2_3 
REMARK    2  A    between atoms: C2_3  and  C3_4 
ROOT
ATOM      1  C3  UNL d   1       3.103  -3.589   3.302  0.00  0.00    -0.075 A 
ATOM      2  C4  UNL d   1       2.888  -4.423   2.195  0.00  0.00     0.002 A 
ATOM      3  C5  UNL d   1       1.952  -4.078   1.220  0.00  0.00     0.002 A 
ATOM      4  C6  UNL d   1       1.214  -2.903   1.343  0.00  0.00    -0.004 A 
ATOM      5  C7  UNL d   1       1.407  -2.076   2.447  0.00  0.00     0.002 A 
ATOM      6  C8  UNL d   1       2.346  -2.416   3.423  0.00  0.00     0.002 A 
ENDROOT
BRANCH   1   7
ATOM      7  C2  UNL d   1       4.135  -3.943   4.346  0.00  0.00     0.056 C 
BRANCH   7   8
ATOM      8  C1  UNL d   1       4.173  -2.979   5.537  0.00  0.00     0.007 C 
ATOM      9  C   UNL d   1       5.587  -2.651   5.999  0.00  0.00     0.009 C 
ENDBRANCH   7   8
ENDBRANCH   1   7
TORSDOF 2
ENDMDL
