MODEL 1
REMARK minimizedAffinity 11.7899685
REMARK minimizedRMSD -1
REMARK  2 active torsions:
REMARK  status: ('A' for Active; 'I' for Inactive)
REMARK    1  A    between atoms: C1_2  and  C2_3 
REMARK    2  A    between atoms: C2_3  and  C3_4 
ROOT
ATOM      1  C3  UNL d   1      -3.673   4.098  -4.431  0.00  0.00    -0.075 A 
ATOM      2  C4  UNL d   1      -4.473   5.249  -4.470  0.00  0.00     0.002 A 
ATOM      3  C5  UNL d   1      -5.632   5.280  -5.246  0.00  0.00     0.002 A 
ATOM      4  C6  UNL d   1      -6.000   4.167  -5.999  0.00  0.00    -0.004 A 
ATOM      5  C7  UNL d   1      -5.204   3.024  -5.981  0.00  0.00     0.002 A 
ATOM      6  C8  UNL d   1      -4.046   2.989  -5.202  0.00  0.00     0.002 A 
ENDROOT
BRANCH   1   7
ATOM      7  C2  UNL d   1      -2.433   4.048  -3.571  0.00  0.00     0.056 C 
BRANCH   7   8
ATOM      8  C1  UNL d   1      -1.798   2.657  -3.473  0.00  0.00     0.007 C 
ATOM      9  C   UNL d   1      -2.246   1.877  -2.244  0.00  0.00     0.009 C 
ENDBRANCH   7   8
ENDBRANCH   1   7
TORSDOF 2
ENDMDL
