MODEL 1
REMARK minimizedAffinity 4.13976955
REMARK minimizedRMSD -1
REMARK  2 active torsions:
REMARK  status: ('A' for Active; 'I' for Inactive)
REMARK    1  A    between atoms: C1_2  and  C2_3 
REMARK    2  A    between atoms: C2_3  and  C3_4 
ROOT
ATOM      1  C3  UNL d   1       3.571   0.314   1.132  0.00  0.00    -0.075 A 
ATOM      2  C4  UNL d   1       4.794  -0.260   0.753  0.00  0.00     0.002 A 
ATOM      3  C5  UNL d   1       6.000   0.333   1.127  0.00  0.00     0.002 A 
ATOM      4  C6  UNL d   1       6.000   1.509   1.873  0.00  0.00    -0.004 A 
ATOM      5  C7  UNL d   1       4.791   2.096   2.241  0.00  0.00     0.002 A 
ATOM      6  C8  UNL d   1       3.583   1.503   1.873  0.00  0.00     0.002 A 
ENDROOT
BRANCH   1   7
ATOM      7  C2  UNL d   1       2.262  -0.339   0.756  0.00  0.00     0.056 C 
BRANCH   7   8
ATOM      8  C1  UNL d   1       2.304  -1.871   0.764  0.00  0.00     0.007 C 
ATOM      9  C   UNL d   1       1.413  -2.491   1.832  0.00  0.00     0.009 C 
ENDBRANCH   7   8
ENDBRANCH   1   7
TORSDOF 2
ENDMDL
