MODEL 1
REMARK minimizedAffinity 4.64441967
REMARK minimizedRMSD -1
REMARK  2 active torsions:
REMARK  status: ('A' for Active; 'I' for Inactive)
REMARK    1  A    between atoms: C1_2  and  C2_3 
REMARK    2  A    between atoms: C2_3  and  C3_4 
ROOT
ATOM      1  C3  UNL d   1       3.142  -4.256   3.603  0.00  0.00    -0.075 A 
ATOM      2  C4  UNL d   1       3.317  -3.357   4.665  0.00  0.00     0.002 A 
ATOM      3  C5  UNL d   1       3.917  -3.774   5.854  0.00  0.00     0.002 A 
ATOM      4  C6  UNL d   1       4.339  -5.094   5.999  0.00  0.00    -0.004 A 
ATOM      5  C7  UNL d   1       4.155  -5.999   4.957  0.00  0.00     0.002 A 
ATOM      6  C8  UNL d   1       3.559  -5.584   3.765  0.00  0.00     0.002 A 
ENDROOT
BRANCH   1   7
ATOM      7  C2  UNL d   1       2.519  -3.804   2.303  0.00  0.00     0.056 C 
BRANCH   7   8
ATOM      8  C1  UNL d   1       1.872  -2.417   2.371  0.00  0.00     0.007 C 
ATOM      9  C   UNL d   1       0.525  -2.417   3.081  0.00  0.00     0.009 C 
ENDBRANCH   7   8
ENDBRANCH   1   7
TORSDOF 2
ENDMDL
