MODEL 1
REMARK minimizedAffinity 1.11262226
REMARK minimizedRMSD -1
REMARK  2 active torsions:
REMARK  status: ('A' for Active; 'I' for Inactive)
REMARK    1  A    between atoms: C1_2  and  C2_3 
REMARK    2  A    between atoms: C2_3  and  C3_4 
ROOT
ATOM      1  C3  UNL d   1       5.984   1.852  -1.396  0.00  0.00    -0.075 A 
ATOM      2  C4  UNL d   1       5.997   0.862  -0.403  0.00  0.00     0.002 A 
ATOM      3  C5  UNL d   1       5.998   1.212   0.947  0.00  0.00     0.002 A 
ATOM      4  C6  UNL d   1       5.996   2.554   1.322  0.00  0.00    -0.004 A 
ATOM      5  C7  UNL d   1       5.999   3.546   0.344  0.00  0.00     0.002 A 
ATOM      6  C8  UNL d   1       5.994   3.199  -1.008  0.00  0.00     0.002 A 
ENDROOT
BRANCH   1   7
ATOM      7  C2  UNL d   1       5.953   1.480  -2.859  0.00  0.00     0.056 C 
BRANCH   7   8
ATOM      8  C1  UNL d   1       5.163   0.202  -3.161  0.00  0.00     0.007 C 
ATOM      9  C   UNL d   1       5.999  -1.064  -3.037  0.00  0.00     0.009 C 
ENDBRANCH   7   8
ENDBRANCH   1   7
TORSDOF 2
ENDMDL
