MODEL 1
REMARK minimizedAffinity -2.43948889
REMARK minimizedRMSD -1
REMARK  0 active torsions:
REMARK  status: ('A' for Active; 'I' for Inactive)
ROOT
ATOM      1  C1  BNZ d   1      -1.065  -2.690   0.518  0.00  0.00     0.000 A 
ATOM      2  C2  BNZ d   1      -0.405  -1.532   0.201  0.00  0.00     0.000 A 
ATOM      3  C3  BNZ d   1      -0.550  -0.411   0.969  0.00  0.00     0.000 A 
ATOM      4  C4  BNZ d   1      -1.384  -0.437   2.028  0.00  0.00     0.000 A 
ATOM      5  C5  BNZ d   1      -2.064  -1.593   2.356  0.00  0.00     0.000 A 
ATOM      6  C6  BNZ d   1      -1.885  -2.731   1.603  0.00  0.00     0.000 A 
ENDROOT
TORSDOF 0
ENDMDL
