MODEL 1
REMARK minimizedAffinity -3.77165222
REMARK minimizedRMSD -1
REMARK  0 active torsions:
REMARK  status: ('A' for Active; 'I' for Inactive)
ROOT
ATOM      1  C1  BNZ d   1       0.369  -0.195   0.789  0.00  0.00     0.000 A 
ATOM      2  C2  BNZ d   1       0.712  -1.459   0.388  0.00  0.00     0.000 A 
ATOM      3  C3  BNZ d   1       0.903  -1.745  -0.935  0.00  0.00     0.000 A 
ATOM      4  C4  BNZ d   1       0.712  -0.780  -1.857  0.00  0.00     0.000 A 
ATOM      5  C5  BNZ d   1       0.357   0.497  -1.469  0.00  0.00     0.000 A 
ATOM      6  C6  BNZ d   1       0.204   0.792  -0.133  0.00  0.00     0.000 A 
ENDROOT
TORSDOF 0
ENDMDL
