MODEL 1
REMARK minimizedAffinity -3.84964037
REMARK minimizedRMSD -1
REMARK  0 active torsions:
REMARK  status: ('A' for Active; 'I' for Inactive)
ROOT
ATOM      1  C1  BNZ d   1      -0.052  -0.428  -1.250  0.00  0.00     0.000 A 
ATOM      2  C2  BNZ d   1       0.190  -1.657  -1.802  0.00  0.00     0.000 A 
ATOM      3  C3  BNZ d   1       0.903  -2.603  -1.119  0.00  0.00     0.000 A 
ATOM      4  C4  BNZ d   1       1.407  -2.304   0.096  0.00  0.00     0.000 A 
ATOM      5  C5  BNZ d   1       1.179  -1.066   0.662  0.00  0.00     0.000 A 
ATOM      6  C6  BNZ d   1       0.428  -0.130  -0.012  0.00  0.00     0.000 A 
ENDROOT
TORSDOF 0
ENDMDL
