MODEL 1
REMARK minimizedAffinity -3.42511201
REMARK minimizedRMSD -1
REMARK  0 active torsions:
REMARK  status: ('A' for Active; 'I' for Inactive)
ROOT
ATOM      1  C1  BNZ d   1       0.268   0.136  -0.363  0.00  0.00     0.000 A 
ATOM      2  C2  BNZ d   1      -0.754   0.491   0.476  0.00  0.00     0.000 A 
ATOM      3  C3  BNZ d   1      -1.587  -0.456   1.003  0.00  0.00     0.000 A 
ATOM      4  C4  BNZ d   1      -1.423  -1.749   0.658  0.00  0.00     0.000 A 
ATOM      5  C5  BNZ d   1      -0.403  -2.121  -0.195  0.00  0.00     0.000 A 
ATOM      6  C6  BNZ d   1       0.458  -1.170  -0.692  0.00  0.00     0.000 A 
ENDROOT
TORSDOF 0
ENDMDL
