MODEL 1
REMARK minimizedAffinity -4.48838568
REMARK minimizedRMSD -1
REMARK  0 active torsions:
REMARK  status: ('A' for Active; 'I' for Inactive)
ROOT
ATOM      1  C1  BNZ d   1       0.324  -0.540  -0.104  0.00  0.00     0.000 A 
ATOM      2  C2  BNZ d   1      -0.556   0.176   0.663  0.00  0.00     0.000 A 
ATOM      3  C3  BNZ d   1      -1.498  -0.459   1.423  0.00  0.00     0.000 A 
ATOM      4  C4  BNZ d   1      -1.585  -1.804   1.385  0.00  0.00     0.000 A 
ATOM      5  C5  BNZ d   1      -0.710  -2.539   0.610  0.00  0.00     0.000 A 
ATOM      6  C6  BNZ d   1       0.262  -1.899  -0.124  0.00  0.00     0.000 A 
ENDROOT
TORSDOF 0
ENDMDL
