MODEL 1
REMARK minimizedAffinity -3.91140509
REMARK minimizedRMSD -1
REMARK  0 active torsions:
REMARK  status: ('A' for Active; 'I' for Inactive)
ROOT
ATOM      1  C1  BNZ d   1      -0.682  -0.395   0.644  0.00  0.00     0.000 A 
ATOM      2  C2  BNZ d   1      -1.809  -0.913   1.226  0.00  0.00     0.000 A 
ATOM      3  C3  BNZ d   1      -2.112  -2.240   1.103  0.00  0.00     0.000 A 
ATOM      4  C4  BNZ d   1      -1.312  -3.038   0.367  0.00  0.00     0.000 A 
ATOM      5  C5  BNZ d   1      -0.178  -2.529  -0.233  0.00  0.00     0.000 A 
ATOM      6  C6  BNZ d   1       0.145  -1.200  -0.076  0.00  0.00     0.000 A 
ENDROOT
TORSDOF 0
ENDMDL
