MODEL 1
REMARK minimizedAffinity -4.65163803
REMARK minimizedRMSD -1
REMARK  0 active torsions:
REMARK  status: ('A' for Active; 'I' for Inactive)
ROOT
ATOM      1  C1  BNZ d   1      -0.838  -1.004   1.477  0.00  0.00     0.000 A 
ATOM      2  C2  BNZ d   1      -0.836  -2.358   1.270  0.00  0.00     0.000 A 
ATOM      3  C3  BNZ d   1      -0.075  -2.913   0.280  0.00  0.00     0.000 A 
ATOM      4  C4  BNZ d   1       0.652  -2.112  -0.526  0.00  0.00     0.000 A 
ATOM      5  C5  BNZ d   1       0.653  -0.745  -0.336  0.00  0.00     0.000 A 
ATOM      6  C6  BNZ d   1      -0.084  -0.193   0.687  0.00  0.00     0.000 A 
ENDROOT
TORSDOF 0
ENDMDL
