MODEL 1
REMARK minimizedAffinity -4.71193361
REMARK minimizedRMSD -1
REMARK  0 active torsions:
REMARK  status: ('A' for Active; 'I' for Inactive)
ROOT
ATOM      1  C1  BNZ d   1      -1.291  -1.321   1.327  0.00  0.00     0.000 A 
ATOM      2  C2  BNZ d   1      -1.469  -2.674   1.211  0.00  0.00     0.000 A 
ATOM      3  C3  BNZ d   1      -0.651  -3.421   0.410  0.00  0.00     0.000 A 
ATOM      4  C4  BNZ d   1       0.315  -2.810  -0.305  0.00  0.00     0.000 A 
ATOM      5  C5  BNZ d   1       0.501  -1.446  -0.206  0.00  0.00     0.000 A 
ATOM      6  C6  BNZ d   1      -0.298  -0.702   0.631  0.00  0.00     0.000 A 
ENDROOT
TORSDOF 0
ENDMDL
