MODEL 1
REMARK minimizedAffinity -4.37803411
REMARK minimizedRMSD -1
REMARK  0 active torsions:
REMARK  status: ('A' for Active; 'I' for Inactive)
ROOT
ATOM      1  C1  BNZ d   1       0.579  -1.122   0.001  0.00  0.00     0.000 A 
ATOM      2  C2  BNZ d   1       0.378  -2.473  -0.105  0.00  0.00     0.000 A 
ATOM      3  C3  BNZ d   1      -0.710  -3.066   0.472  0.00  0.00     0.000 A 
ATOM      4  C4  BNZ d   1      -1.572  -2.316   1.187  0.00  0.00     0.000 A 
ATOM      5  C5  BNZ d   1      -1.379  -0.955   1.311  0.00  0.00     0.000 A 
ATOM      6  C6  BNZ d   1      -0.304  -0.355   0.696  0.00  0.00     0.000 A 
ENDROOT
TORSDOF 0
ENDMDL
