MODEL 1
REMARK minimizedAffinity -3.88555908
REMARK minimizedRMSD -1
REMARK  0 active torsions:
REMARK  status: ('A' for Active; 'I' for Inactive)
ROOT
ATOM      1  C1  BNZ d   1      -1.572  -1.849   1.173  0.00  0.00     0.000 A 
ATOM      2  C2  BNZ d   1      -1.295  -3.033   0.541  0.00  0.00     0.000 A 
ATOM      3  C3  BNZ d   1      -0.304  -3.110  -0.397  0.00  0.00     0.000 A 
ATOM      4  C4  BNZ d   1       0.381  -1.997  -0.731  0.00  0.00     0.000 A 
ATOM      5  C5  BNZ d   1       0.106  -0.794  -0.111  0.00  0.00     0.000 A 
ATOM      6  C6  BNZ d   1      -0.865  -0.729   0.861  0.00  0.00     0.000 A 
ENDROOT
TORSDOF 0
ENDMDL
