MODEL 1
REMARK minimizedAffinity -3.98795843
REMARK minimizedRMSD -1
REMARK  0 active torsions:
REMARK  status: ('A' for Active; 'I' for Inactive)
ROOT
ATOM      1  C1  BNZ d   1       0.844  -2.496  -0.065  0.00  0.00     0.000 A 
ATOM      2  C2  BNZ d   1       0.900  -1.127  -0.055  0.00  0.00     0.000 A 
ATOM      3  C3  BNZ d   1      -0.161  -0.386   0.385  0.00  0.00     0.000 A 
ATOM      4  C4  BNZ d   1      -1.290  -1.012   0.776  0.00  0.00     0.000 A 
ATOM      5  C5  BNZ d   1      -1.365  -2.391   0.763  0.00  0.00     0.000 A 
ATOM      6  C6  BNZ d   1      -0.281  -3.134   0.356  0.00  0.00     0.000 A 
ENDROOT
TORSDOF 0
ENDMDL
