MODEL 1
REMARK minimizedAffinity -4.81513882
REMARK minimizedRMSD -1
REMARK  0 active torsions:
REMARK  status: ('A' for Active; 'I' for Inactive)
ROOT
ATOM      1  C1  BNZ d   1      -0.003  -2.145  -0.583  0.00  0.00     0.000 A 
ATOM      2  C2  BNZ d   1       0.142  -0.794  -0.408  0.00  0.00     0.000 A 
ATOM      3  C3  BNZ d   1      -0.476  -0.153   0.629  0.00  0.00     0.000 A 
ATOM      4  C4  BNZ d   1      -1.268  -0.854   1.465  0.00  0.00     0.000 A 
ATOM      5  C5  BNZ d   1      -1.432  -2.214   1.296  0.00  0.00     0.000 A 
ATOM      6  C6  BNZ d   1      -0.777  -2.864   0.274  0.00  0.00     0.000 A 
ENDROOT
TORSDOF 0
ENDMDL
