MODEL 1
REMARK minimizedAffinity -2.52929521
REMARK minimizedRMSD -1
REMARK  0 active torsions:
REMARK  status: ('A' for Active; 'I' for Inactive)
ROOT
ATOM      1  C1  BNZ d   1      -0.834  -2.588  -0.188  0.00  0.00     0.000 A 
ATOM      2  C2  BNZ d   1      -1.791  -1.743   0.308  0.00  0.00     0.000 A 
ATOM      3  C3  BNZ d   1      -1.545  -0.404   0.433  0.00  0.00     0.000 A 
ATOM      4  C4  BNZ d   1      -0.331   0.081   0.101  0.00  0.00     0.000 A 
ATOM      5  C5  BNZ d   1       0.647  -0.760  -0.391  0.00  0.00     0.000 A 
ATOM      6  C6  BNZ d   1       0.383  -2.101  -0.552  0.00  0.00     0.000 A 
ENDROOT
TORSDOF 0
ENDMDL
