MODEL 1
REMARK minimizedAffinity -4.77106237
REMARK minimizedRMSD -1
REMARK  0 active torsions:
REMARK  status: ('A' for Active; 'I' for Inactive)
ROOT
ATOM      1  C1  BNZ d   1       0.002  -0.595  -0.309  0.00  0.00     0.000 A 
ATOM      2  C2  BNZ d   1      -0.467  -1.223   0.814  0.00  0.00     0.000 A 
ATOM      3  C3  BNZ d   1      -0.538  -2.586   0.877  0.00  0.00     0.000 A 
ATOM      4  C4  BNZ d   1      -0.178  -3.319  -0.197  0.00  0.00     0.000 A 
ATOM      5  C5  BNZ d   1       0.289  -2.701  -1.340  0.00  0.00     0.000 A 
ATOM      6  C6  BNZ d   1       0.395  -1.330  -1.385  0.00  0.00     0.000 A 
ENDROOT
TORSDOF 0
ENDMDL
