MODEL 1
REMARK minimizedAffinity -4.62036514
REMARK minimizedRMSD -1
REMARK  0 active torsions:
REMARK  status: ('A' for Active; 'I' for Inactive)
ROOT
ATOM      1  C1  BNZ d   1      -1.367  -2.309   1.451  0.00  0.00     0.000 A 
ATOM      2  C2  BNZ d   1      -1.348  -0.966   1.182  0.00  0.00     0.000 A 
ATOM      3  C3  BNZ d   1      -0.436  -0.440   0.310  0.00  0.00     0.000 A 
ATOM      4  C4  BNZ d   1       0.479  -1.249  -0.260  0.00  0.00     0.000 A 
ATOM      5  C5  BNZ d   1       0.479  -2.604   0.008  0.00  0.00     0.000 A 
ATOM      6  C6  BNZ d   1      -0.465  -3.136   0.857  0.00  0.00     0.000 A 
ENDROOT
TORSDOF 0
ENDMDL
