MODEL 1
REMARK minimizedAffinity -6.64152002
REMARK minimizedRMSD -1
REMARK  3 active torsions:
REMARK  status: ('A' for Active; 'I' for Inactive)
REMARK    1  A    between atoms: C3'_2  and  C2'_3 
REMARK    2  A    between atoms: C2'_3  and  C1'_4 
REMARK    3  A    between atoms: C1'_4  and  C1_5 
ROOT
ATOM      1  C1  N4B d   1      -0.584  -0.694  -0.367  0.00  0.00    -0.075 A 
ATOM      2  C2  N4B d   1      -0.701  -1.431   0.832  0.00  0.00     0.002 A 
ATOM      3  C3  N4B d   1      -1.927  -1.909   1.227  0.00  0.00     0.002 A 
ATOM      4  C4  N4B d   1      -3.047  -1.647   0.453  0.00  0.00    -0.004 A 
ATOM      5  C5  N4B d   1      -2.921  -0.956  -0.717  0.00  0.00     0.002 A 
ATOM      6  C6  N4B d   1      -1.695  -0.473  -1.128  0.00  0.00     0.002 A 
ENDROOT
BRANCH   1   7
ATOM      7  C1' N4B d   1       0.720  -0.078  -0.797  0.00  0.00     0.057 C 
BRANCH   7   8
ATOM      8  C2' N4B d   1       1.626   0.076   0.421  0.00  0.00     0.009 C 
BRANCH   8   9
ATOM      9  C3' N4B d   1       2.610   1.221   0.256  0.00  0.00     0.004 C 
ATOM     10  C4' N4B d   1       2.507   2.238   1.353  0.00  0.00     0.003 C 
ENDBRANCH   8   9
ENDBRANCH   7   8
ENDBRANCH   1   7
TORSDOF 3
ENDMDL
