MODEL 1
REMARK minimizedAffinity -4.41327477
REMARK minimizedRMSD -1
REMARK  3 active torsions:
REMARK  status: ('A' for Active; 'I' for Inactive)
REMARK    1  A    between atoms: C3'_2  and  C2'_3 
REMARK    2  A    between atoms: C2'_3  and  C1'_4 
REMARK    3  A    between atoms: C1'_4  and  C1_5 
ROOT
ATOM      1  C1  N4B d   1      -0.758  -0.382   0.108  0.00  0.00    -0.075 A 
ATOM      2  C2  N4B d   1      -1.986  -0.383  -0.591  0.00  0.00     0.002 A 
ATOM      3  C3  N4B d   1      -3.015  -1.189  -0.169  0.00  0.00     0.002 A 
ATOM      4  C4  N4B d   1      -2.835  -2.012   0.933  0.00  0.00    -0.004 A 
ATOM      5  C5  N4B d   1      -1.655  -1.986   1.617  0.00  0.00     0.002 A 
ATOM      6  C6  N4B d   1      -0.613  -1.178   1.207  0.00  0.00     0.002 A 
ENDROOT
BRANCH   1   7
ATOM      7  C1' N4B d   1       0.425   0.417  -0.366  0.00  0.00     0.057 C 
BRANCH   7   8
ATOM      8  C2' N4B d   1       1.527   0.352   0.687  0.00  0.00     0.009 C 
BRANCH   8   9
ATOM      9  C3' N4B d   1       2.595   1.407   0.457  0.00  0.00     0.004 C 
ATOM     10  C4' N4B d   1       2.748   2.342   1.619  0.00  0.00     0.003 C 
ENDBRANCH   8   9
ENDBRANCH   7   8
ENDBRANCH   1   7
TORSDOF 3
ENDMDL
