MODEL 1
REMARK minimizedAffinity -5.09187794
REMARK minimizedRMSD -1
REMARK  3 active torsions:
REMARK  status: ('A' for Active; 'I' for Inactive)
REMARK    1  A    between atoms: C3'_2  and  C2'_3 
REMARK    2  A    between atoms: C2'_3  and  C1'_4 
REMARK    3  A    between atoms: C1'_4  and  C1_5 
ROOT
ATOM      1  C1  N4B d   1      -0.288  -0.449   0.243  0.00  0.00    -0.075 A 
ATOM      2  C2  N4B d   1      -1.588  -0.423  -0.308  0.00  0.00     0.002 A 
ATOM      3  C3  N4B d   1      -2.588  -1.175   0.258  0.00  0.00     0.002 A 
ATOM      4  C4  N4B d   1      -2.309  -1.971   1.359  0.00  0.00    -0.004 A 
ATOM      5  C5  N4B d   1      -1.057  -1.970   1.900  0.00  0.00     0.002 A 
ATOM      6  C6  N4B d   1      -0.043  -1.217   1.344  0.00  0.00     0.002 A 
ENDROOT
BRANCH   1   7
ATOM      7  C1' N4B d   1       0.859   0.289  -0.392  0.00  0.00     0.057 C 
BRANCH   7   8
ATOM      8  C2' N4B d   1       1.918   0.577   0.668  0.00  0.00     0.009 C 
BRANCH   8   9
ATOM      9  C3' N4B d   1       2.675   1.862   0.380  0.00  0.00     0.004 C 
ATOM     10  C4' N4B d   1       2.658   2.817   1.537  0.00  0.00     0.003 C 
ENDBRANCH   8   9
ENDBRANCH   7   8
ENDBRANCH   1   7
TORSDOF 3
ENDMDL
