MODEL 1
REMARK minimizedAffinity -4.88859749
REMARK minimizedRMSD -1
REMARK  3 active torsions:
REMARK  status: ('A' for Active; 'I' for Inactive)
REMARK    1  A    between atoms: C3'_2  and  C2'_3 
REMARK    2  A    between atoms: C2'_3  and  C1'_4 
REMARK    3  A    between atoms: C1'_4  and  C1_5 
ROOT
ATOM      1  C1  N4B d   1      -1.513  -0.311  -0.188  0.00  0.00    -0.075 A 
ATOM      2  C2  N4B d   1      -0.554  -0.452   0.839  0.00  0.00     0.002 A 
ATOM      3  C3  N4B d   1       0.745  -0.064   0.623  0.00  0.00     0.002 A 
ATOM      4  C4  N4B d   1       1.111   0.448  -0.612  0.00  0.00    -0.004 A 
ATOM      5  C5  N4B d   1       0.173   0.605  -1.591  0.00  0.00     0.002 A 
ATOM      6  C6  N4B d   1      -1.137   0.222  -1.386  0.00  0.00     0.002 A 
ENDROOT
BRANCH   1   7
ATOM      7  C1' N4B d   1      -2.927  -0.801  -0.027  0.00  0.00     0.057 C 
BRANCH   7   8
ATOM      8  C2' N4B d   1      -2.932  -2.327  -0.041  0.00  0.00     0.009 C 
BRANCH   8   9
ATOM      9  C3' N4B d   1      -2.918  -2.908   1.362  0.00  0.00     0.004 C 
ATOM     10  C4' N4B d   1      -1.563  -3.400   1.773  0.00  0.00     0.003 C 
ENDBRANCH   8   9
ENDBRANCH   7   8
ENDBRANCH   1   7
TORSDOF 3
ENDMDL
