MODEL 1
REMARK minimizedAffinity -4.82628965
REMARK minimizedRMSD -1
REMARK  3 active torsions:
REMARK  status: ('A' for Active; 'I' for Inactive)
REMARK    1  A    between atoms: C3'_2  and  C2'_3 
REMARK    2  A    between atoms: C2'_3  and  C1'_4 
REMARK    3  A    between atoms: C1'_4  and  C1_5 
ROOT
ATOM      1  C1  N4B d   1      -0.174  -0.060  -0.233  0.00  0.00    -0.075 A 
ATOM      2  C2  N4B d   1      -0.923   0.247  -1.390  0.00  0.00     0.002 A 
ATOM      3  C3  N4B d   1      -2.205  -0.226  -1.524  0.00  0.00     0.002 A 
ATOM      4  C4  N4B d   1      -2.751  -1.020  -0.526  0.00  0.00    -0.004 A 
ATOM      5  C5  N4B d   1      -2.030  -1.291   0.600  0.00  0.00     0.002 A 
ATOM      6  C6  N4B d   1      -0.742  -0.819   0.750  0.00  0.00     0.002 A 
ENDROOT
BRANCH   1   7
ATOM      7  C1' N4B d   1       1.261   0.363  -0.080  0.00  0.00     0.057 C 
BRANCH   7   8
ATOM      8  C2' N4B d   1       1.680   0.197   1.378  0.00  0.00     0.009 C 
BRANCH   8   9
ATOM      9  C3' N4B d   1       2.233   1.487   1.960  0.00  0.00     0.004 C 
ATOM     10  C4' N4B d   1       2.780   2.410   0.912  0.00  0.00     0.003 C 
ENDBRANCH   8   9
ENDBRANCH   7   8
ENDBRANCH   1   7
TORSDOF 3
ENDMDL
