MODEL 1
REMARK minimizedAffinity -5.78105593
REMARK minimizedRMSD -1
REMARK  3 active torsions:
REMARK  status: ('A' for Active; 'I' for Inactive)
REMARK    1  A    between atoms: C3'_2  and  C2'_3 
REMARK    2  A    between atoms: C2'_3  and  C1'_4 
REMARK    3  A    between atoms: C1'_4  and  C1_5 
ROOT
ATOM      1  C1  N4B d   1      -0.507  -0.670   0.477  0.00  0.00    -0.075 A 
ATOM      2  C2  N4B d   1      -1.319  -0.082  -0.518  0.00  0.00     0.002 A 
ATOM      3  C3  N4B d   1      -2.573  -0.584  -0.766  0.00  0.00     0.002 A 
ATOM      4  C4  N4B d   1      -3.028  -1.679  -0.048  0.00  0.00    -0.004 A 
ATOM      5  C5  N4B d   1      -2.248  -2.226   0.929  0.00  0.00     0.002 A 
ATOM      6  C6  N4B d   1      -0.987  -1.730   1.191  0.00  0.00     0.002 A 
ENDROOT
BRANCH   1   7
ATOM      7  C1' N4B d   1       0.904  -0.212   0.724  0.00  0.00     0.057 C 
BRANCH   7   8
ATOM      8  C2' N4B d   1       1.184   1.025  -0.125  0.00  0.00     0.009 C 
BRANCH   8   9
ATOM      9  C3' N4B d   1       2.492   1.694   0.261  0.00  0.00     0.004 C 
ATOM     10  C4' N4B d   1       2.320   3.137   0.631  0.00  0.00     0.003 C 
ENDBRANCH   8   9
ENDBRANCH   7   8
ENDBRANCH   1   7
TORSDOF 3
ENDMDL
