MODEL 1
REMARK minimizedAffinity -5.96029854
REMARK minimizedRMSD -1
REMARK  3 active torsions:
REMARK  status: ('A' for Active; 'I' for Inactive)
REMARK    1  A    between atoms: C3'_2  and  C2'_3 
REMARK    2  A    between atoms: C2'_3  and  C1'_4 
REMARK    3  A    between atoms: C1'_4  and  C1_5 
ROOT
ATOM      1  C1  N4B d   1      -0.488  -0.375  -0.142  0.00  0.00    -0.075 A 
ATOM      2  C2  N4B d   1      -1.224  -0.335  -1.346  0.00  0.00     0.002 A 
ATOM      3  C3  N4B d   1      -2.513  -0.808  -1.378  0.00  0.00     0.002 A 
ATOM      4  C4  N4B d   1      -3.077  -1.342  -0.229  0.00  0.00    -0.004 A 
ATOM      5  C5  N4B d   1      -2.367  -1.354   0.936  0.00  0.00     0.002 A 
ATOM      6  C6  N4B d   1      -1.073  -0.878   0.984  0.00  0.00     0.002 A 
ENDROOT
BRANCH   1   7
ATOM      7  C1' N4B d   1       0.953   0.051  -0.077  0.00  0.00     0.057 C 
BRANCH   7   8
ATOM      8  C2' N4B d   1       1.106   1.143   0.978  0.00  0.00     0.009 C 
BRANCH   8   9
ATOM      9  C3' N4B d   1       2.081   2.223   0.542  0.00  0.00     0.004 C 
ATOM     10  C4' N4B d   1       2.184   3.346   1.530  0.00  0.00     0.003 C 
ENDBRANCH   8   9
ENDBRANCH   7   8
ENDBRANCH   1   7
TORSDOF 3
ENDMDL
