MODEL 1
REMARK minimizedAffinity -4.56720972
REMARK minimizedRMSD -1
REMARK  1 active torsions:
REMARK  status: ('A' for Active; 'I' for Inactive)
REMARK    1  A    between atoms: N_2  and  C1_3 
ROOT
ATOM      1  C1  UNL d   1       0.049  -0.994   0.293  0.00  0.00     0.143 A 
ATOM      2  C2  UNL d   1      -0.534  -1.511   1.455  0.00  0.00    -0.057 A 
ATOM      3  C3  UNL d   1       0.181  -2.360   2.309  0.00  0.00     0.033 A 
ATOM      4  C4  UNL d   1       1.485  -2.731   2.000  0.00  0.00    -0.042 A 
ATOM      5  C5  UNL d   1       2.075  -2.249   0.837  0.00  0.00     0.033 A 
ATOM      6  C6  UNL d   1       1.359  -1.397  -0.009  0.00  0.00    -0.057 A 
ENDROOT
BRANCH   1   7
ATOM      7  N   UNL d   1      -0.642  -0.225  -0.647  0.00  0.00    -0.732 N 
ATOM      8  C   UNL d   1      -0.782   1.204  -0.470  0.00  0.00     0.284 C 
ATOM      9  H3  UNL d   1      -0.440  -0.508  -1.603  0.00  0.00     0.395 HD
ENDBRANCH   1   7
TORSDOF 1
ENDMDL
