MODEL 1
REMARK minimizedAffinity -4.3276329
REMARK minimizedRMSD -1
REMARK  1 active torsions:
REMARK  status: ('A' for Active; 'I' for Inactive)
REMARK    1  A    between atoms: N_2  and  C1_3 
ROOT
ATOM      1  C1  UNL d   1       0.303   0.235  -0.062  0.00  0.00     0.143 A 
ATOM      2  C2  UNL d   1       1.686   0.213   0.149  0.00  0.00    -0.057 A 
ATOM      3  C3  UNL d   1       2.353  -0.976   0.468  0.00  0.00     0.033 A 
ATOM      4  C4  UNL d   1       1.643  -2.163   0.611  0.00  0.00    -0.042 A 
ATOM      5  C5  UNL d   1       0.264  -2.160   0.430  0.00  0.00     0.033 A 
ATOM      6  C6  UNL d   1      -0.396  -0.971   0.105  0.00  0.00    -0.057 A 
ENDROOT
BRANCH   1   7
ATOM      7  N   UNL d   1      -0.432   1.402  -0.285  0.00  0.00    -0.732 N 
ATOM      8  C   UNL d   1      -1.565   1.399  -1.185  0.00  0.00     0.284 C 
ATOM      9  H3  UNL d   1      -0.579   1.937   0.568  0.00  0.00     0.395 HD
ENDBRANCH   1   7
TORSDOF 1
ENDMDL
