MODEL 1
REMARK minimizedAffinity -1.87898207
REMARK minimizedRMSD -1
REMARK  1 active torsions:
REMARK  status: ('A' for Active; 'I' for Inactive)
REMARK    1  A    between atoms: N_2  and  C1_3 
ROOT
ATOM      1  C1  UNL d   1       1.654  -1.642   0.941  0.00  0.00     0.143 A 
ATOM      2  C2  UNL d   1       0.388  -2.114   1.305  0.00  0.00    -0.057 A 
ATOM      3  C3  UNL d   1      -0.778  -1.528   0.799  0.00  0.00     0.033 A 
ATOM      4  C4  UNL d   1      -0.699  -0.436  -0.061  0.00  0.00    -0.042 A 
ATOM      5  C5  UNL d   1       0.548   0.065  -0.416  0.00  0.00     0.033 A 
ATOM      6  C6  UNL d   1       1.709  -0.529   0.087  0.00  0.00    -0.057 A 
ENDROOT
BRANCH   1   7
ATOM      7  N   UNL d   1       2.848  -2.120   1.487  0.00  0.00    -0.732 N 
ATOM      8  C   UNL d   1       3.357  -1.582   2.730  0.00  0.00     0.284 C 
ATOM      9  H3  UNL d   1       2.937  -3.130   1.403  0.00  0.00     0.395 HD
ENDBRANCH   1   7
TORSDOF 1
ENDMDL
