MODEL 1
REMARK minimizedAffinity -3.996171
REMARK minimizedRMSD -1
REMARK  1 active torsions:
REMARK  status: ('A' for Active; 'I' for Inactive)
REMARK    1  A    between atoms: N_2  and  C1_3 
ROOT
ATOM      1  C1  UNL d   1       1.910  -0.249  -0.054  0.00  0.00     0.143 A 
ATOM      2  C2  UNL d   1       0.522  -0.243  -0.229  0.00  0.00    -0.057 A 
ATOM      3  C3  UNL d   1      -0.280  -1.262   0.299  0.00  0.00     0.033 A 
ATOM      4  C4  UNL d   1       0.296  -2.322   0.990  0.00  0.00    -0.042 A 
ATOM      5  C5  UNL d   1       1.676  -2.361   1.155  0.00  0.00     0.033 A 
ATOM      6  C6  UNL d   1       2.472  -1.338   0.630  0.00  0.00    -0.057 A 
ENDROOT
BRANCH   1   7
ATOM      7  N   UNL d   1       2.772   0.683  -0.639  0.00  0.00    -0.732 N 
ATOM      8  C   UNL d   1       3.959   0.248  -1.342  0.00  0.00     0.284 C 
ATOM      9  H3  UNL d   1       2.271   1.440  -1.098  0.00  0.00     0.395 HD
ENDBRANCH   1   7
TORSDOF 1
ENDMDL
