MODEL 1
REMARK minimizedAffinity -3.48915815
REMARK minimizedRMSD -1
REMARK  1 active torsions:
REMARK  status: ('A' for Active; 'I' for Inactive)
REMARK    1  A    between atoms: N_2  and  C1_3 
ROOT
ATOM      1  C1  UNL d   1       0.166   0.105  -0.154  0.00  0.00     0.143 A 
ATOM      2  C2  UNL d   1       1.545   0.225  -0.360  0.00  0.00    -0.057 A 
ATOM      3  C3  UNL d   1       2.430  -0.780   0.051  0.00  0.00     0.033 A 
ATOM      4  C4  UNL d   1       1.952  -1.912   0.702  0.00  0.00    -0.042 A 
ATOM      5  C5  UNL d   1       0.588  -2.040   0.939  0.00  0.00     0.033 A 
ATOM      6  C6  UNL d   1      -0.291  -1.037   0.521  0.00  0.00    -0.057 A 
ENDROOT
BRANCH   1   7
ATOM      7  N   UNL d   1      -0.754   1.113  -0.451  0.00  0.00    -0.732 N 
ATOM      8  C   UNL d   1      -1.559   1.047  -1.652  0.00  0.00     0.284 C 
ATOM      9  H3  UNL d   1      -1.261   1.431   0.372  0.00  0.00     0.395 HD
ENDBRANCH   1   7
TORSDOF 1
ENDMDL
