MODEL 1
REMARK minimizedAffinity -4.17453671
REMARK minimizedRMSD -1
REMARK  1 active torsions:
REMARK  status: ('A' for Active; 'I' for Inactive)
REMARK    1  A    between atoms: N_2  and  C1_3 
ROOT
ATOM      1  C1  UNL d   1       0.111   0.348  -0.203  0.00  0.00     0.143 A 
ATOM      2  C2  UNL d   1       1.469   0.455  -0.522  0.00  0.00    -0.057 A 
ATOM      3  C3  UNL d   1       2.394  -0.502  -0.088  0.00  0.00     0.033 A 
ATOM      4  C4  UNL d   1       1.980  -1.572   0.698  0.00  0.00    -0.042 A 
ATOM      5  C5  UNL d   1       0.639  -1.685   1.048  0.00  0.00     0.033 A 
ATOM      6  C6  UNL d   1      -0.281  -0.729   0.607  0.00  0.00    -0.057 A 
ENDROOT
BRANCH   1   7
ATOM      7  N   UNL d   1      -0.841   1.320  -0.521  0.00  0.00    -0.732 N 
ATOM      8  C   UNL d   1      -1.588   1.243  -1.758  0.00  0.00     0.284 C 
ATOM      9  H3  UNL d   1      -1.398   1.596   0.285  0.00  0.00     0.395 HD
ENDBRANCH   1   7
TORSDOF 1
ENDMDL
