MODEL 1
REMARK minimizedAffinity -1.43482375
REMARK minimizedRMSD -1
REMARK  1 active torsions:
REMARK  status: ('A' for Active; 'I' for Inactive)
REMARK    1  A    between atoms: N_2  and  C1_3 
ROOT
ATOM      1  C1  UNL d   1       2.442  -0.779   0.739  0.00  0.00     0.143 A 
ATOM      2  C2  UNL d   1       1.200  -1.303   1.114  0.00  0.00    -0.057 A 
ATOM      3  C3  UNL d   1       0.009  -0.815   0.562  0.00  0.00     0.033 A 
ATOM      4  C4  UNL d   1       0.038   0.230  -0.355  0.00  0.00    -0.042 A 
ATOM      5  C5  UNL d   1       1.259   0.784  -0.724  0.00  0.00     0.033 A 
ATOM      6  C6  UNL d   1       2.445   0.287  -0.174  0.00  0.00    -0.057 A 
ENDROOT
BRANCH   1   7
ATOM      7  N   UNL d   1       3.653  -1.155   1.324  0.00  0.00    -0.732 N 
ATOM      8  C   UNL d   1       4.186  -0.421   2.452  0.00  0.00     0.284 C 
ATOM      9  H3  UNL d   1       3.750  -2.165   1.403  0.00  0.00     0.395 HD
ENDBRANCH   1   7
TORSDOF 1
ENDMDL
