MODEL 1
REMARK minimizedAffinity -3.56714606
REMARK minimizedRMSD -1
REMARK  1 active torsions:
REMARK  status: ('A' for Active; 'I' for Inactive)
REMARK    1  A    between atoms: N_2  and  C1_3 
ROOT
ATOM      1  C1  UNL d   1      -0.178  -0.571  -0.122  0.00  0.00     0.143 A 
ATOM      2  C2  UNL d   1      -0.745  -1.488   0.770  0.00  0.00    -0.057 A 
ATOM      3  C3  UNL d   1       0.053  -2.364   1.516  0.00  0.00     0.033 A 
ATOM      4  C4  UNL d   1       1.436  -2.358   1.361  0.00  0.00    -0.042 A 
ATOM      5  C5  UNL d   1       2.019  -1.472   0.461  0.00  0.00     0.033 A 
ATOM      6  C6  UNL d   1       1.217  -0.596  -0.276  0.00  0.00    -0.057 A 
ENDROOT
BRANCH   1   7
ATOM      7  N   UNL d   1      -0.924   0.257  -0.965  0.00  0.00    -0.732 N 
ATOM      8  C   UNL d   1      -1.333   1.575  -0.529  0.00  0.00     0.284 C 
ATOM      9  H3  UNL d   1      -0.604   0.218  -1.930  0.00  0.00     0.395 HD
ENDBRANCH   1   7
TORSDOF 1
ENDMDL
