MODEL 1
REMARK minimizedAffinity -2.67395973
REMARK minimizedRMSD -1
REMARK  1 active torsions:
REMARK  status: ('A' for Active; 'I' for Inactive)
REMARK    1  A    between atoms: N_2  and  C1_3 
ROOT
ATOM      1  C1  UNL d   1      -0.415   0.445  -0.336  0.00  0.00     0.143 A 
ATOM      2  C2  UNL d   1      -0.887  -0.693   0.328  0.00  0.00    -0.057 A 
ATOM      3  C3  UNL d   1      -0.013  -1.702   0.750  0.00  0.00     0.033 A 
ATOM      4  C4  UNL d   1       1.350  -1.605   0.490  0.00  0.00    -0.042 A 
ATOM      5  C5  UNL d   1       1.838  -0.495  -0.190  0.00  0.00     0.033 A 
ATOM      6  C6  UNL d   1       0.962   0.513  -0.603  0.00  0.00    -0.057 A 
ENDROOT
BRANCH   1   7
ATOM      7  N   UNL d   1      -1.244   1.435  -0.868  0.00  0.00    -0.732 N 
ATOM      8  C   UNL d   1      -1.866   1.259  -2.162  0.00  0.00     0.284 C 
ATOM      9  H3  UNL d   1      -1.853   1.849  -0.166  0.00  0.00     0.395 HD
ENDBRANCH   1   7
TORSDOF 1
ENDMDL
