MODEL 1
REMARK minimizedAffinity -3.44053936
REMARK minimizedRMSD -1
REMARK  1 active torsions:
REMARK  status: ('A' for Active; 'I' for Inactive)
REMARK    1  A    between atoms: N_2  and  C1_3 
ROOT
ATOM      1  C1  UNL d   1       0.028  -0.039   0.167  0.00  0.00     0.143 A 
ATOM      2  C2  UNL d   1      -0.534  -1.262   0.551  0.00  0.00    -0.057 A 
ATOM      3  C3  UNL d   1       0.269  -2.376   0.823  0.00  0.00     0.033 A 
ATOM      4  C4  UNL d   1       1.651  -2.294   0.688  0.00  0.00    -0.042 A 
ATOM      5  C5  UNL d   1       2.229  -1.096   0.283  0.00  0.00     0.033 A 
ATOM      6  C6  UNL d   1       1.422   0.015   0.019  0.00  0.00    -0.057 A 
ENDROOT
BRANCH   1   7
ATOM      7  N   UNL d   1      -0.723   1.076  -0.213  0.00  0.00    -0.732 N 
ATOM      8  C   UNL d   1      -1.505   1.059  -1.431  0.00  0.00     0.284 C 
ATOM      9  H3  UNL d   1      -1.192   1.516   0.576  0.00  0.00     0.395 HD
ENDBRANCH   1   7
TORSDOF 1
ENDMDL
