MODEL 1
REMARK minimizedAffinity -1.58679473
REMARK minimizedRMSD -1
REMARK  1 active torsions:
REMARK  status: ('A' for Active; 'I' for Inactive)
REMARK    1  A    between atoms: N_2  and  C1_3 
ROOT
ATOM      1  C1  UNL d   1      -0.222  -1.143   0.715  0.00  0.00     0.143 A 
ATOM      2  C2  UNL d   1       0.921  -1.936   0.855  0.00  0.00    -0.057 A 
ATOM      3  C3  UNL d   1       1.112  -2.742   1.984  0.00  0.00     0.033 A 
ATOM      4  C4  UNL d   1       0.172  -2.747   3.009  0.00  0.00    -0.042 A 
ATOM      5  C5  UNL d   1      -0.960  -1.948   2.902  0.00  0.00     0.033 A 
ATOM      6  C6  UNL d   1      -1.148  -1.150   1.770  0.00  0.00    -0.057 A 
ENDROOT
BRANCH   1   7
ATOM      7  N   UNL d   1      -0.422  -0.245  -0.337  0.00  0.00    -0.732 N 
ATOM      8  C   UNL d   1      -1.203   0.957  -0.142  0.00  0.00     0.284 C 
ATOM      9  H3  UNL d   1       0.416  -0.110  -0.897  0.00  0.00     0.395 HD
ENDBRANCH   1   7
TORSDOF 1
ENDMDL
