MODEL 1
REMARK minimizedAffinity 14.1443005
REMARK minimizedRMSD -1
REMARK  1 active torsions:
REMARK  status: ('A' for Active; 'I' for Inactive)
REMARK    1  A    between atoms: C1_2  and  C2_3 
ROOT
ATOM      1  C2  UNL d   1      -2.800  -3.593   2.677  0.00  0.00    -0.081 A 
ATOM      2  C3  UNL d   1      -2.252  -4.851   2.399  0.00  0.00     0.006 A 
ATOM      3  C4  UNL d   1      -2.678  -5.578   1.285  0.00  0.00     0.002 A 
ATOM      4  C5  UNL d   1      -3.652  -5.057   0.427  0.00  0.00    -0.080 A 
ATOM      5  C6  UNL d   1      -4.096  -5.815  -0.789  0.00  0.00     0.076 C 
ATOM      6  C7  UNL d   1      -4.212  -3.808   0.714  0.00  0.00     0.002 A 
ATOM      7  C8  UNL d   1      -3.787  -3.080   1.828  0.00  0.00     0.006 A 
ENDROOT
BRANCH   1   8
ATOM      8  C1  UNL d   1      -2.296  -2.777   3.841  0.00  0.00     0.054 C 
ATOM      9  C   UNL d   1      -1.053  -1.984   3.464  0.00  0.00     0.018 C 
ENDBRANCH   1   8
TORSDOF 1
ENDMDL
