MODEL 1
REMARK minimizedAffinity 15.7390757
REMARK minimizedRMSD -1
REMARK  1 active torsions:
REMARK  status: ('A' for Active; 'I' for Inactive)
REMARK    1  A    between atoms: C1_2  and  C2_3 
ROOT
ATOM      1  C2  UNL d   1      -0.656  -1.900   3.352  0.00  0.00    -0.081 A 
ATOM      2  C3  UNL d   1      -0.248  -0.804   4.122  0.00  0.00     0.006 A 
ATOM      3  C4  UNL d   1       0.769   0.040   3.670  0.00  0.00     0.002 A 
ATOM      4  C5  UNL d   1       1.389  -0.192   2.437  0.00  0.00    -0.080 A 
ATOM      5  C6  UNL d   1       2.461   0.724   1.926  0.00  0.00     0.076 C 
ATOM      6  C7  UNL d   1       0.993  -1.297   1.675  0.00  0.00     0.002 A 
ATOM      7  C8  UNL d   1      -0.023  -2.142   2.127  0.00  0.00     0.006 A 
ENDROOT
BRANCH   1   8
ATOM      8  C1  UNL d   1      -1.796  -2.774   3.807  0.00  0.00     0.054 C 
ATOM      9  C   UNL d   1      -2.616  -3.274   2.625  0.00  0.00     0.018 C 
ENDBRANCH   1   8
TORSDOF 1
ENDMDL
