MODEL 1
REMARK minimizedAffinity 5.29240894
REMARK minimizedRMSD -1
REMARK  1 active torsions:
REMARK  status: ('A' for Active; 'I' for Inactive)
REMARK    1  A    between atoms: C1_2  and  C2_3 
ROOT
ATOM      1  C2  UNL d   1       2.505  -5.497  -5.162  0.00  0.00    -0.081 A 
ATOM      2  C3  UNL d   1       2.572  -5.537  -3.764  0.00  0.00     0.006 A 
ATOM      3  C4  UNL d   1       1.484  -5.127  -2.991  0.00  0.00     0.002 A 
ATOM      4  C5  UNL d   1       0.308  -4.679  -3.602  0.00  0.00    -0.080 A 
ATOM      5  C6  UNL d   1      -0.879  -4.265  -2.783  0.00  0.00     0.076 C 
ATOM      6  C7  UNL d   1       0.246  -4.622  -4.998  0.00  0.00     0.002 A 
ATOM      7  C8  UNL d   1       1.335  -5.031  -5.772  0.00  0.00     0.006 A 
ENDROOT
BRANCH   1   8
ATOM      8  C1  UNL d   1       3.653  -5.999  -6.000  0.00  0.00     0.054 C 
ATOM      9  C   UNL d   1       4.827  -5.031  -5.966  0.00  0.00     0.018 C 
ENDBRANCH   1   8
TORSDOF 1
ENDMDL
