MODEL 1
REMARK minimizedAffinity 13.238493
REMARK minimizedRMSD -1
REMARK  1 active torsions:
REMARK  status: ('A' for Active; 'I' for Inactive)
REMARK    1  A    between atoms: C1_2  and  C2_3 
ROOT
ATOM      1  C2  UNL d   1      -2.928   2.733  -1.560  0.00  0.00    -0.081 A 
ATOM      2  C3  UNL d   1      -2.190   2.734  -0.370  0.00  0.00     0.006 A 
ATOM      3  C4  UNL d   1      -0.794   2.746  -0.402  0.00  0.00     0.002 A 
ATOM      4  C5  UNL d   1      -0.112   2.765  -1.623  0.00  0.00    -0.080 A 
ATOM      5  C6  UNL d   1       1.387   2.808  -1.671  0.00  0.00     0.076 C 
ATOM      6  C7  UNL d   1      -0.848   2.746  -2.813  0.00  0.00     0.002 A 
ATOM      7  C8  UNL d   1      -2.244   2.734  -2.781  0.00  0.00     0.006 A 
ENDROOT
BRANCH   1   8
ATOM      8  C1  UNL d   1      -4.434   2.786  -1.529  0.00  0.00     0.054 C 
ATOM      9  C   UNL d   1      -4.932   4.183  -1.187  0.00  0.00     0.018 C 
ENDBRANCH   1   8
TORSDOF 1
ENDMDL
