MODEL 1
REMARK minimizedAffinity 3.66627049
REMARK minimizedRMSD -1
REMARK  1 active torsions:
REMARK  status: ('A' for Active; 'I' for Inactive)
REMARK    1  A    between atoms: C1_2  and  C2_3 
ROOT
ATOM      1  C2  UNL d   1       0.751  -1.514   2.645  0.00  0.00    -0.081 A 
ATOM      2  C3  UNL d   1       0.868  -0.749   3.812  0.00  0.00     0.006 A 
ATOM      3  C4  UNL d   1       0.015  -0.973   4.895  0.00  0.00     0.002 A 
ATOM      4  C5  UNL d   1      -0.964  -1.971   4.833  0.00  0.00    -0.080 A 
ATOM      5  C6  UNL d   1      -1.866  -2.242   5.999  0.00  0.00     0.076 C 
ATOM      6  C7  UNL d   1      -1.092  -2.724   3.661  0.00  0.00     0.002 A 
ATOM      7  C8  UNL d   1      -0.240  -2.500   2.578  0.00  0.00     0.006 A 
ENDROOT
BRANCH   1   8
ATOM      8  C1  UNL d   1       1.712  -1.319   1.500  0.00  0.00     0.054 C 
ATOM      9  C   UNL d   1       1.877   0.156   1.163  0.00  0.00     0.018 C 
ENDBRANCH   1   8
TORSDOF 1
ENDMDL
