MODEL 1
REMARK minimizedAffinity 14.6592722
REMARK minimizedRMSD -1
REMARK  1 active torsions:
REMARK  status: ('A' for Active; 'I' for Inactive)
REMARK    1  A    between atoms: C1_2  and  C2_3 
ROOT
ATOM      1  C2  UNL d   1       1.175  -0.339   1.856  0.00  0.00    -0.081 A 
ATOM      2  C3  UNL d   1       0.848  -1.583   1.302  0.00  0.00     0.006 A 
ATOM      3  C4  UNL d   1      -0.073  -2.420   1.937  0.00  0.00     0.002 A 
ATOM      4  C5  UNL d   1      -0.687  -2.025   3.131  0.00  0.00    -0.080 A 
ATOM      5  C6  UNL d   1      -1.699  -2.901   3.806  0.00  0.00     0.076 C 
ATOM      6  C7  UNL d   1      -0.346  -0.790   3.693  0.00  0.00     0.002 A 
ATOM      7  C8  UNL d   1       0.574   0.047   3.059  0.00  0.00     0.006 A 
ENDROOT
BRANCH   1   8
ATOM      8  C1  UNL d   1       2.119   0.594   1.140  0.00  0.00     0.054 C 
ATOM      9  C   UNL d   1       1.362   1.569   0.250  0.00  0.00     0.018 C 
ENDBRANCH   1   8
TORSDOF 1
ENDMDL
