MODEL 1
REMARK minimizedAffinity 12.7459335
REMARK minimizedRMSD -1
REMARK  1 active torsions:
REMARK  status: ('A' for Active; 'I' for Inactive)
REMARK    1  A    between atoms: C1_2  and  C2_3 
ROOT
ATOM      1  C2  UNL d   1       3.828  -1.388   0.244  0.00  0.00    -0.081 A 
ATOM      2  C3  UNL d   1       2.922  -2.416   0.535  0.00  0.00     0.006 A 
ATOM      3  C4  UNL d   1       1.782  -2.159   1.301  0.00  0.00     0.002 A 
ATOM      4  C5  UNL d   1       1.525  -0.870   1.780  0.00  0.00    -0.080 A 
ATOM      5  C6  UNL d   1       0.290  -0.574   2.578  0.00  0.00     0.076 C 
ATOM      6  C7  UNL d   1       2.439   0.153   1.504  0.00  0.00     0.002 A 
ATOM      7  C8  UNL d   1       3.579  -0.104   0.739  0.00  0.00     0.006 A 
ENDROOT
BRANCH   1   8
ATOM      8  C1  UNL d   1       5.024  -1.648  -0.636  0.00  0.00     0.054 C 
ATOM      9  C   UNL d   1       5.021  -0.740  -1.857  0.00  0.00     0.018 C 
ENDBRANCH   1   8
TORSDOF 1
ENDMDL
