MODEL 1
REMARK minimizedAffinity 9.12870693
REMARK minimizedRMSD -1
REMARK  1 active torsions:
REMARK  status: ('A' for Active; 'I' for Inactive)
REMARK    1  A    between atoms: C1_2  and  C2_3 
ROOT
ATOM      1  C2  UNL d   1       1.415  -5.341  -3.951  0.00  0.00    -0.081 A 
ATOM      2  C3  UNL d   1       0.433  -4.467  -3.469  0.00  0.00     0.006 A 
ATOM      3  C4  UNL d   1       0.554  -3.896  -2.200  0.00  0.00     0.002 A 
ATOM      4  C5  UNL d   1       1.662  -4.183  -1.396  0.00  0.00    -0.080 A 
ATOM      5  C6  UNL d   1       1.820  -3.553  -0.044  0.00  0.00     0.076 C 
ATOM      6  C7  UNL d   1       2.635  -5.070  -1.870  0.00  0.00     0.002 A 
ATOM      7  C8  UNL d   1       2.514  -5.641  -3.139  0.00  0.00     0.006 A 
ENDROOT
BRANCH   1   8
ATOM      8  C1  UNL d   1       1.319  -5.908  -5.345  0.00  0.00     0.054 C 
ATOM      9  C   UNL d   1       2.690  -6.000  -6.000  0.00  0.00     0.018 C 
ENDBRANCH   1   8
TORSDOF 1
ENDMDL
