MODEL 1
REMARK minimizedAffinity 3.39896822
REMARK minimizedRMSD -1
REMARK  1 active torsions:
REMARK  status: ('A' for Active; 'I' for Inactive)
REMARK    1  A    between atoms: C1_2  and  C2_3 
ROOT
ATOM      1  C2  UNL d   1      -4.864  -4.437   3.429  0.00  0.00    -0.081 A 
ATOM      2  C3  UNL d   1      -5.242  -5.709   2.982  0.00  0.00     0.006 A 
ATOM      3  C4  UNL d   1      -5.274  -5.999   1.616  0.00  0.00     0.002 A 
ATOM      4  C5  UNL d   1      -4.920  -5.026   0.675  0.00  0.00    -0.080 A 
ATOM      5  C6  UNL d   1      -4.921  -5.333  -0.793  0.00  0.00     0.076 C 
ATOM      6  C7  UNL d   1      -4.559  -3.750   1.121  0.00  0.00     0.002 A 
ATOM      7  C8  UNL d   1      -4.528  -3.459   2.487  0.00  0.00     0.006 A 
ENDROOT
BRANCH   1   8
ATOM      8  C1  UNL d   1      -4.766  -4.141   4.904  0.00  0.00     0.054 C 
ATOM      9  C   UNL d   1      -5.999  -4.632   5.650  0.00  0.00     0.018 C 
ENDBRANCH   1   8
TORSDOF 1
ENDMDL
