MODEL 1
REMARK minimizedAffinity 11.0848532
REMARK minimizedRMSD -1
REMARK  1 active torsions:
REMARK  status: ('A' for Active; 'I' for Inactive)
REMARK    1  A    between atoms: C1_2  and  C2_3 
ROOT
ATOM      1  C2  UNL d   1       5.219  -3.001  -4.887  0.00  0.00    -0.081 A 
ATOM      2  C3  UNL d   1       4.275  -1.974  -5.020  0.00  0.00     0.006 A 
ATOM      3  C4  UNL d   1       4.124  -1.016  -4.015  0.00  0.00     0.002 A 
ATOM      4  C5  UNL d   1       4.918  -1.063  -2.864  0.00  0.00    -0.080 A 
ATOM      5  C6  UNL d   1       4.787  -0.024  -1.791  0.00  0.00     0.076 C 
ATOM      6  C7  UNL d   1       5.849  -2.099  -2.723  0.00  0.00     0.002 A 
ATOM      7  C8  UNL d   1       6.000  -3.057  -3.727  0.00  0.00     0.006 A 
ENDROOT
BRANCH   1   8
ATOM      8  C1  UNL d   1       5.429  -3.997  -5.998  0.00  0.00     0.054 C 
ATOM      9  C   UNL d   1       6.000  -5.305  -5.467  0.00  0.00     0.018 C 
ENDBRANCH   1   8
TORSDOF 1
ENDMDL
