MODEL 1
REMARK minimizedAffinity 13.5665627
REMARK minimizedRMSD -1
REMARK  1 active torsions:
REMARK  status: ('A' for Active; 'I' for Inactive)
REMARK    1  A    between atoms: C1_2  and  C2_3 
ROOT
ATOM      1  C2  UNL d   1       3.958  -1.024  -2.281  0.00  0.00    -0.081 A 
ATOM      2  C3  UNL d   1       3.224  -1.085  -3.472  0.00  0.00     0.006 A 
ATOM      3  C4  UNL d   1       3.851  -1.417  -4.675  0.00  0.00     0.002 A 
ATOM      4  C5  UNL d   1       5.221  -1.702  -4.706  0.00  0.00    -0.080 A 
ATOM      5  C6  UNL d   1       5.900  -2.090  -5.986  0.00  0.00     0.076 C 
ATOM      6  C7  UNL d   1       5.958  -1.624  -3.520  0.00  0.00     0.002 A 
ATOM      7  C8  UNL d   1       5.331  -1.291  -2.317  0.00  0.00     0.006 A 
ENDROOT
BRANCH   1   8
ATOM      8  C1  UNL d   1       3.272  -0.729  -0.972  0.00  0.00     0.054 C 
ATOM      9  C   UNL d   1       3.014  -2.005  -0.183  0.00  0.00     0.018 C 
ENDBRANCH   1   8
TORSDOF 1
ENDMDL
