MODEL 1
REMARK minimizedAffinity 12.1055851
REMARK minimizedRMSD -1
REMARK  1 active torsions:
REMARK  status: ('A' for Active; 'I' for Inactive)
REMARK    1  A    between atoms: C1_2  and  C2_3 
ROOT
ATOM      1  C2  UNL d   1       1.965   2.364   0.677  0.00  0.00    -0.081 A 
ATOM      2  C3  UNL d   1       0.980   2.315  -0.318  0.00  0.00     0.006 A 
ATOM      3  C4  UNL d   1       0.375   3.488  -0.774  0.00  0.00     0.002 A 
ATOM      4  C5  UNL d   1       0.750   4.730  -0.251  0.00  0.00    -0.080 A 
ATOM      5  C6  UNL d   1       0.129   6.000  -0.753  0.00  0.00     0.076 C 
ATOM      6  C7  UNL d   1       1.721   4.778   0.755  0.00  0.00     0.002 A 
ATOM      7  C8  UNL d   1       2.325   3.606   1.213  0.00  0.00     0.006 A 
ENDROOT
BRANCH   1   8
ATOM      8  C1  UNL d   1       2.665   1.107   1.125  0.00  0.00     0.054 C 
ATOM      9  C   UNL d   1       4.115   1.384   1.498  0.00  0.00     0.018 C 
ENDBRANCH   1   8
TORSDOF 1
ENDMDL
