MODEL 1
REMARK minimizedAffinity 0.9032287
REMARK minimizedRMSD -1
REMARK  0 active torsions:
REMARK  status: ('A' for Active; 'I' for Inactive)
ROOT
ATOM      1  C2' OXE d   1      -0.765   1.650   1.806  0.00  0.00     0.078 C 
ATOM      2  C1' OXE d   1      -0.654   0.339  -0.674  0.00  0.00     0.078 C 
ATOM      3  C1  OXE d   1      -1.989   0.408   0.026  0.00  0.00    -0.078 A 
ATOM      4  C2  OXE d   1      -2.024   1.010   1.261  0.00  0.00    -0.078 A 
ATOM      5  C3  OXE d   1      -3.239   1.150   1.925  0.00  0.00     0.003 A 
ATOM      6  C4  OXE d   1      -4.397   0.547   1.418  0.00  0.00    -0.002 A 
ATOM      7  C5  OXE d   1      -4.375  -0.106   0.181  0.00  0.00    -0.002 A 
ATOM      8  C6  OXE d   1      -3.190  -0.147  -0.546  0.00  0.00     0.003 A 
ENDROOT
TORSDOF 0
ENDMDL
