MODEL 1
REMARK minimizedAffinity -0.335305601
REMARK minimizedRMSD -1
REMARK  0 active torsions:
REMARK  status: ('A' for Active; 'I' for Inactive)
ROOT
ATOM      1  C2' OXE d   1       0.783   1.555   0.351  0.00  0.00     0.078 C 
ATOM      2  C1' OXE d   1      -0.701  -0.044  -1.416  0.00  0.00     0.078 C 
ATOM      3  C1  OXE d   1       0.528  -0.648  -0.783  0.00  0.00    -0.078 A 
ATOM      4  C2  OXE d   1       1.274   0.157   0.044  0.00  0.00    -0.078 A 
ATOM      5  C3  OXE d   1       2.386  -0.367   0.696  0.00  0.00     0.003 A 
ATOM      6  C4  OXE d   1       2.839  -1.658   0.399  0.00  0.00    -0.002 A 
ATOM      7  C5  OXE d   1       2.117  -2.481  -0.472  0.00  0.00    -0.002 A 
ATOM      8  C6  OXE d   1       0.938  -2.007  -1.037  0.00  0.00     0.003 A 
ENDROOT
TORSDOF 0
ENDMDL
