MODEL 1
REMARK minimizedAffinity 3.21904659
REMARK minimizedRMSD -1
REMARK  0 active torsions:
REMARK  status: ('A' for Active; 'I' for Inactive)
ROOT
ATOM      1  C2' OXE d   1       2.869  -1.852  -1.744  0.00  0.00     0.078 C 
ATOM      2  C1' OXE d   1       0.473  -3.014  -0.857  0.00  0.00     0.078 C 
ATOM      3  C1  OXE d   1       1.415  -2.463   0.184  0.00  0.00    -0.078 A 
ATOM      4  C2  OXE d   1       2.606  -1.938  -0.256  0.00  0.00    -0.078 A 
ATOM      5  C3  OXE d   1       3.487  -1.366   0.658  0.00  0.00     0.003 A 
ATOM      6  C4  OXE d   1       3.240  -1.459   2.033  0.00  0.00    -0.002 A 
ATOM      7  C5  OXE d   1       2.051  -2.025   2.505  0.00  0.00    -0.002 A 
ATOM      8  C6  OXE d   1       1.111  -2.492   1.593  0.00  0.00     0.003 A 
ENDROOT
TORSDOF 0
ENDMDL
