MODEL 1
REMARK minimizedAffinity 0.563563764
REMARK minimizedRMSD -1
REMARK  0 active torsions:
REMARK  status: ('A' for Active; 'I' for Inactive)
ROOT
ATOM      1  C2' OXE d   1       5.593   5.247   4.707  0.00  0.00     0.078 C 
ATOM      2  C1' OXE d   1       3.101   5.253   6.000  0.00  0.00     0.078 C 
ATOM      3  C1  OXE d   1       3.347   4.198   4.951  0.00  0.00    -0.078 A 
ATOM      4  C2  OXE d   1       4.552   4.231   4.290  0.00  0.00    -0.078 A 
ATOM      5  C3  OXE d   1       4.851   3.247   3.353  0.00  0.00     0.003 A 
ATOM      6  C4  OXE d   1       3.879   2.317   2.966  0.00  0.00    -0.002 A 
ATOM      7  C5  OXE d   1       2.631   2.290   3.598  0.00  0.00    -0.002 A 
ATOM      8  C6  OXE d   1       2.365   3.195   4.620  0.00  0.00     0.003 A 
ENDROOT
TORSDOF 0
ENDMDL
