MODEL 1
REMARK minimizedAffinity 4.16736698
REMARK minimizedRMSD -1
REMARK  0 active torsions:
REMARK  status: ('A' for Active; 'I' for Inactive)
ROOT
ATOM      1  C2' OXE d   1      -1.290   3.529   2.571  0.00  0.00     0.078 C 
ATOM      2  C1' OXE d   1      -1.403   0.730   2.387  0.00  0.00     0.078 C 
ATOM      3  C1  OXE d   1      -0.355   1.447   1.573  0.00  0.00    -0.078 A 
ATOM      4  C2  OXE d   1      -0.337   2.819   1.633  0.00  0.00    -0.078 A 
ATOM      5  C3  OXE d   1       0.644   3.527   0.944  0.00  0.00     0.003 A 
ATOM      6  C4  OXE d   1       1.514   2.863   0.070  0.00  0.00    -0.002 A 
ATOM      7  C5  OXE d   1       1.487   1.469  -0.036  0.00  0.00    -0.002 A 
ATOM      8  C6  OXE d   1       0.589   0.744   0.739  0.00  0.00     0.003 A 
ENDROOT
TORSDOF 0
ENDMDL
