MODEL 1
REMARK minimizedAffinity 3.61440349
REMARK minimizedRMSD -1
REMARK  0 active torsions:
REMARK  status: ('A' for Active; 'I' for Inactive)
ROOT
ATOM      1  C2' OXE d   1       4.018  -1.082   0.860  0.00  0.00     0.078 C 
ATOM      2  C1' OXE d   1       2.193   0.910   0.097  0.00  0.00     0.078 C 
ATOM      3  C1  OXE d   1       1.838  -0.524  -0.209  0.00  0.00    -0.078 A 
ATOM      4  C2  OXE d   1       2.758  -1.488   0.126  0.00  0.00    -0.078 A 
ATOM      5  C3  OXE d   1       2.457  -2.831  -0.085  0.00  0.00     0.003 A 
ATOM      6  C4  OXE d   1       1.294  -3.197  -0.774  0.00  0.00    -0.002 A 
ATOM      7  C5  OXE d   1       0.362  -2.227  -1.159  0.00  0.00    -0.002 A 
ATOM      8  C6  OXE d   1       0.599  -0.893  -0.847  0.00  0.00     0.003 A 
ENDROOT
TORSDOF 0
ENDMDL
