MODEL 1
REMARK minimizedAffinity 5.17135811
REMARK minimizedRMSD -1
REMARK  0 active torsions:
REMARK  status: ('A' for Active; 'I' for Inactive)
ROOT
ATOM      1  C2' OXE d   1       2.621  -1.768   0.131  0.00  0.00     0.078 C 
ATOM      2  C1' OXE d   1       0.113  -1.715  -1.128  0.00  0.00     0.078 C 
ATOM      3  C1  OXE d   1       0.664  -0.413  -0.604  0.00  0.00    -0.078 A 
ATOM      4  C2  OXE d   1       1.871  -0.456   0.052  0.00  0.00    -0.078 A 
ATOM      5  C3  OXE d   1       2.451   0.725   0.507  0.00  0.00     0.003 A 
ATOM      6  C4  OXE d   1       1.746   1.933   0.439  0.00  0.00    -0.002 A 
ATOM      7  C5  OXE d   1       0.498   1.992  -0.190  0.00  0.00    -0.002 A 
ATOM      8  C6  OXE d   1      -0.037   0.839  -0.753  0.00  0.00     0.003 A 
ENDROOT
TORSDOF 0
ENDMDL
