MODEL 1
REMARK minimizedAffinity 3.96609807
REMARK minimizedRMSD -1
REMARK  0 active torsions:
REMARK  status: ('A' for Active; 'I' for Inactive)
ROOT
ATOM      1  C2' OXE d   1      -2.687   1.829   1.969  0.00  0.00     0.078 C 
ATOM      2  C1' OXE d   1      -0.678   0.950   3.720  0.00  0.00     0.078 C 
ATOM      3  C1  OXE d   1      -0.255   1.469   2.369  0.00  0.00    -0.078 A 
ATOM      4  C2  OXE d   1      -1.248   1.853   1.501  0.00  0.00    -0.078 A 
ATOM      5  C3  OXE d   1      -0.911   2.391   0.262  0.00  0.00     0.003 A 
ATOM      6  C4  OXE d   1       0.422   2.401  -0.167  0.00  0.00    -0.002 A 
ATOM      7  C5  OXE d   1       1.446   1.977   0.686  0.00  0.00    -0.002 A 
ATOM      8  C6  OXE d   1       1.128   1.549   1.970  0.00  0.00     0.003 A 
ENDROOT
TORSDOF 0
ENDMDL
