MODEL 1
REMARK minimizedAffinity 5.9057107
REMARK minimizedRMSD -1
REMARK  0 active torsions:
REMARK  status: ('A' for Active; 'I' for Inactive)
ROOT
ATOM      1  C2' OXE d   1       0.916   1.372  -0.404  0.00  0.00     0.078 C 
ATOM      2  C1' OXE d   1       2.581   1.651   1.839  0.00  0.00     0.078 C 
ATOM      3  C1  OXE d   1       2.604   0.334   1.105  0.00  0.00    -0.078 A 
ATOM      4  C2  OXE d   1       1.752   0.190   0.037  0.00  0.00    -0.078 A 
ATOM      5  C3  OXE d   1       1.773  -0.986  -0.708  0.00  0.00     0.003 A 
ATOM      6  C4  OXE d   1       2.541  -2.078  -0.288  0.00  0.00    -0.002 A 
ATOM      7  C5  OXE d   1       3.387  -1.966   0.821  0.00  0.00    -0.002 A 
ATOM      8  C6  OXE d   1       3.462  -0.756   1.502  0.00  0.00     0.003 A 
ENDROOT
TORSDOF 0
ENDMDL
