MODEL 1
REMARK minimizedAffinity -0.349097252
REMARK minimizedRMSD -1
REMARK  0 active torsions:
REMARK  status: ('A' for Active; 'I' for Inactive)
ROOT
ATOM      1  C2' OXE d   1       3.376   0.205  -0.572  0.00  0.00     0.078 C 
ATOM      2  C1' OXE d   1       0.867   1.456  -0.428  0.00  0.00     0.078 C 
ATOM      3  C1  OXE d   1       0.898  -0.034  -0.660  0.00  0.00    -0.078 A 
ATOM      4  C2  OXE d   1       2.130  -0.630  -0.776  0.00  0.00    -0.078 A 
ATOM      5  C3  OXE d   1       2.216  -2.011  -0.936  0.00  0.00     0.003 A 
ATOM      6  C4  OXE d   1       1.059  -2.774  -1.134  0.00  0.00    -0.002 A 
ATOM      7  C5  OXE d   1      -0.205  -2.180  -1.059  0.00  0.00    -0.002 A 
ATOM      8  C6  OXE d   1      -0.304  -0.821  -0.781  0.00  0.00     0.003 A 
ENDROOT
TORSDOF 0
ENDMDL
