MODEL 1
REMARK minimizedAffinity 3.89482594
REMARK minimizedRMSD -1
REMARK  2 active torsions:
REMARK  status: ('A' for Active; 'I' for Inactive)
REMARK    1  A    between atoms: C1_2  and  C2_3 
REMARK    2  A    between atoms: C2_3  and  C3_4 
ROOT
ATOM      1  C3  UNL d   1       2.793  -2.839   3.197  0.00  0.00    -0.075 A 
ATOM      2  C4  UNL d   1       3.258  -1.767   2.421  0.00  0.00     0.002 A 
ATOM      3  C5  UNL d   1       2.360  -0.898   1.802  0.00  0.00     0.002 A 
ATOM      4  C6  UNL d   1       0.988  -1.094   1.942  0.00  0.00    -0.004 A 
ATOM      5  C7  UNL d   1       0.514  -2.165   2.696  0.00  0.00     0.002 A 
ATOM      6  C8  UNL d   1       1.411  -3.034   3.320  0.00  0.00     0.002 A 
ENDROOT
BRANCH   1   7
ATOM      7  C2  UNL d   1       3.760  -3.766   3.893  0.00  0.00     0.056 C 
BRANCH   7   8
ATOM      8  C1  UNL d   1       5.060  -3.089   4.341  0.00  0.00     0.007 C 
ATOM      9  C   UNL d   1       5.998  -2.769   3.185  0.00  0.00     0.009 C 
ENDBRANCH   7   8
ENDBRANCH   1   7
TORSDOF 2
ENDMDL
