MODEL 1
REMARK minimizedAffinity 4.8586297
REMARK minimizedRMSD -1
REMARK  2 active torsions:
REMARK  status: ('A' for Active; 'I' for Inactive)
REMARK    1  A    between atoms: C1_2  and  C2_3 
REMARK    2  A    between atoms: C2_3  and  C3_4 
ROOT
ATOM      1  C3  UNL d   1      -3.367   2.481  -1.387  0.00  0.00    -0.075 A 
ATOM      2  C4  UNL d   1      -3.488   1.835  -2.625  0.00  0.00     0.002 A 
ATOM      3  C5  UNL d   1      -2.801   0.646  -2.874  0.00  0.00     0.002 A 
ATOM      4  C6  UNL d   1      -1.978   0.096  -1.894  0.00  0.00    -0.004 A 
ATOM      5  C7  UNL d   1      -1.837   0.738  -0.666  0.00  0.00     0.002 A 
ATOM      6  C8  UNL d   1      -2.527   1.925  -0.413  0.00  0.00     0.002 A 
ENDROOT
BRANCH   1   7
ATOM      7  C2  UNL d   1      -4.131   3.752  -1.101  0.00  0.00     0.056 C 
BRANCH   7   8
ATOM      8  C1  UNL d   1      -5.628   3.538  -0.854  0.00  0.00     0.007 C 
ATOM      9  C   UNL d   1      -5.994   3.503   0.624  0.00  0.00     0.009 C 
ENDBRANCH   7   8
ENDBRANCH   1   7
TORSDOF 2
ENDMDL
