MODEL 1
REMARK minimizedAffinity 10.3544645
REMARK minimizedRMSD -1
REMARK  2 active torsions:
REMARK  status: ('A' for Active; 'I' for Inactive)
REMARK    1  A    between atoms: C1_2  and  C2_3 
REMARK    2  A    between atoms: C2_3  and  C3_4 
ROOT
ATOM      1  C3  UNL d   1      -3.891   2.775  -0.862  0.00  0.00    -0.075 A 
ATOM      2  C4  UNL d   1      -5.107   3.342  -1.272  0.00  0.00     0.002 A 
ATOM      3  C5  UNL d   1      -5.999   3.859  -0.332  0.00  0.00     0.002 A 
ATOM      4  C6  UNL d   1      -5.694   3.805   1.026  0.00  0.00    -0.004 A 
ATOM      5  C7  UNL d   1      -4.497   3.229   1.445  0.00  0.00     0.002 A 
ATOM      6  C8  UNL d   1      -3.600   2.715   0.507  0.00  0.00     0.002 A 
ENDROOT
BRANCH   1   7
ATOM      7  C2  UNL d   1      -2.907   2.241  -1.875  0.00  0.00     0.056 C 
BRANCH   7   8
ATOM      8  C1  UNL d   1      -3.481   1.152  -2.788  0.00  0.00     0.007 C 
ATOM      9  C   UNL d   1      -2.865  -0.220  -2.547  0.00  0.00     0.009 C 
ENDBRANCH   7   8
ENDBRANCH   1   7
TORSDOF 2
ENDMDL
