MODEL 1
REMARK minimizedAffinity 7.80286455
REMARK minimizedRMSD -1
REMARK  2 active torsions:
REMARK  status: ('A' for Active; 'I' for Inactive)
REMARK    1  A    between atoms: C1_2  and  C2_3 
REMARK    2  A    between atoms: C2_3  and  C3_4 
ROOT
ATOM      1  C3  UNL d   1       2.374   0.140   2.524  0.00  0.00    -0.075 A 
ATOM      2  C4  UNL d   1       2.890   0.180   1.221  0.00  0.00     0.002 A 
ATOM      3  C5  UNL d   1       3.347   1.380   0.676  0.00  0.00     0.002 A 
ATOM      4  C6  UNL d   1       3.286   2.555   1.422  0.00  0.00    -0.004 A 
ATOM      5  C7  UNL d   1       2.761   2.531   2.712  0.00  0.00     0.002 A 
ATOM      6  C8  UNL d   1       2.306   1.330   3.261  0.00  0.00     0.002 A 
ENDROOT
BRANCH   1   7
ATOM      7  C2  UNL d   1       1.905  -1.161   3.130  0.00  0.00     0.056 C 
BRANCH   7   8
ATOM      8  C1  UNL d   1       1.473  -2.209   2.099  0.00  0.00     0.007 C 
ATOM      9  C   UNL d   1       1.142  -3.560   2.718  0.00  0.00     0.009 C 
ENDBRANCH   7   8
ENDBRANCH   1   7
TORSDOF 2
ENDMDL
