MODEL 1
REMARK minimizedAffinity -1.38914728
REMARK minimizedRMSD -1
REMARK  0 active torsions:
REMARK  status: ('A' for Active; 'I' for Inactive)
ROOT
ATOM      1  C1  BNZ d   1       4.869  -6.000  -4.721  0.00  0.00     0.000 A 
ATOM      2  C2  BNZ d   1       4.122  -5.995  -3.574  0.00  0.00     0.000 A 
ATOM      3  C3  BNZ d   1       2.756  -5.999  -3.628  0.00  0.00     0.000 A 
ATOM      4  C4  BNZ d   1       2.140  -5.967  -4.828  0.00  0.00     0.000 A 
ATOM      5  C5  BNZ d   1       2.880  -5.962  -5.993  0.00  0.00     0.000 A 
ATOM      6  C6  BNZ d   1       4.255  -5.997  -5.935  0.00  0.00     0.000 A 
ENDROOT
TORSDOF 0
ENDMDL
