MODEL 1
REMARK minimizedAffinity -0.789344966
REMARK minimizedRMSD -1
REMARK  0 active torsions:
REMARK  status: ('A' for Active; 'I' for Inactive)
ROOT
ATOM      1  C1  BNZ d   1       2.453  -5.996  -3.593  0.00  0.00     0.000 A 
ATOM      2  C2  BNZ d   1       1.763  -5.990  -4.776  0.00  0.00     0.000 A 
ATOM      3  C3  BNZ d   1       2.426  -5.999  -5.972  0.00  0.00     0.000 A 
ATOM      4  C4  BNZ d   1       3.774  -5.973  -5.983  0.00  0.00     0.000 A 
ATOM      5  C5  BNZ d   1       4.483  -5.969  -4.798  0.00  0.00     0.000 A 
ATOM      6  C6  BNZ d   1       3.813  -6.000  -3.597  0.00  0.00     0.000 A 
ENDROOT
TORSDOF 0
ENDMDL
