MODEL 1
REMARK minimizedAffinity -0.844702899
REMARK minimizedRMSD -1
REMARK  0 active torsions:
REMARK  status: ('A' for Active; 'I' for Inactive)
ROOT
ATOM      1  C1  BNZ d   1       2.980  -5.999  -1.980  0.00  0.00     0.000 A 
ATOM      2  C2  BNZ d   1       2.981  -6.000  -3.349  0.00  0.00     0.000 A 
ATOM      3  C3  BNZ d   1       3.392  -4.900  -4.049  0.00  0.00     0.000 A 
ATOM      4  C4  BNZ d   1       3.762  -3.789  -3.381  0.00  0.00     0.000 A 
ATOM      5  C5  BNZ d   1       3.756  -3.769  -2.000  0.00  0.00     0.000 A 
ATOM      6  C6  BNZ d   1       3.380  -4.891  -1.299  0.00  0.00     0.000 A 
ENDROOT
TORSDOF 0
ENDMDL
