MODEL 1
REMARK minimizedAffinity -1.49520147
REMARK minimizedRMSD -1
REMARK  0 active torsions:
REMARK  status: ('A' for Active; 'I' for Inactive)
ROOT
ATOM      1  C1  BNZ d   1       1.754  -5.970  -4.900  0.00  0.00     0.000 A 
ATOM      2  C2  BNZ d   1       2.625  -5.965  -5.957  0.00  0.00     0.000 A 
ATOM      3  C3  BNZ d   1       3.976  -6.000  -5.751  0.00  0.00     0.000 A 
ATOM      4  C4  BNZ d   1       4.454  -5.999  -4.490  0.00  0.00     0.000 A 
ATOM      5  C5  BNZ d   1       3.589  -5.995  -3.414  0.00  0.00     0.000 A 
ATOM      6  C6  BNZ d   1       2.230  -6.000  -3.625  0.00  0.00     0.000 A 
ENDROOT
TORSDOF 0
ENDMDL
