MODEL 1
REMARK minimizedAffinity 2.80467558
REMARK minimizedRMSD -1
REMARK  0 active torsions:
REMARK  status: ('A' for Active; 'I' for Inactive)
ROOT
ATOM      1  C1  BNZ d   1       3.879  -2.990   4.088  0.00  0.00     0.000 A 
ATOM      2  C2  BNZ d   1       3.245  -1.938   3.482  0.00  0.00     0.000 A 
ATOM      3  C3  BNZ d   1       1.953  -2.054   3.051  0.00  0.00     0.000 A 
ATOM      4  C4  BNZ d   1       1.310  -3.231   3.191  0.00  0.00     0.000 A 
ATOM      5  C5  BNZ d   1       1.939  -4.304   3.792  0.00  0.00     0.000 A 
ATOM      6  C6  BNZ d   1       3.226  -4.172   4.260  0.00  0.00     0.000 A 
ENDROOT
TORSDOF 0
ENDMDL
