MODEL 1
REMARK minimizedAffinity -1.02223372
REMARK minimizedRMSD -1
REMARK  0 active torsions:
REMARK  status: ('A' for Active; 'I' for Inactive)
ROOT
ATOM      1  C1  BNZ d   1       4.877   0.725  -5.138  0.00  0.00     0.000 A 
ATOM      2  C2  BNZ d   1       4.127   0.846  -3.999  0.00  0.00     0.000 A 
ATOM      3  C3  BNZ d   1       4.324   0.007  -2.938  0.00  0.00     0.000 A 
ATOM      4  C4  BNZ d   1       5.242  -0.977  -3.033  0.00  0.00     0.000 A 
ATOM      5  C5  BNZ d   1       6.000  -1.118  -4.178  0.00  0.00     0.000 A 
ATOM      6  C6  BNZ d   1       5.826  -0.247  -5.229  0.00  0.00     0.000 A 
ENDROOT
TORSDOF 0
ENDMDL
