MODEL 1
REMARK minimizedAffinity -2.83952618
REMARK minimizedRMSD -1
REMARK  0 active torsions:
REMARK  status: ('A' for Active; 'I' for Inactive)
ROOT
ATOM      1  C   UNL d   1       1.238  -0.373   1.279  0.00  0.00     0.078 C 
ATOM      2  C1  UNL d   1       0.346  -0.236   0.081  0.00  0.00    -0.077 A 
ATOM      3  C2  UNL d   1       0.523   0.808  -0.835  0.00  0.00    -0.001 A 
ATOM      4  C3  UNL d   1      -0.321   0.928  -1.940  0.00  0.00     0.003 A 
ATOM      5  C4  UNL d   1      -1.349   0.008  -2.139  0.00  0.00    -0.005 A 
ATOM      6  C5  UNL d   1      -1.534  -1.032  -1.231  0.00  0.00     0.003 A 
ATOM      7  C6  UNL d   1      -0.691  -1.154  -0.126  0.00  0.00    -0.001 A 
ENDROOT
TORSDOF 0
ENDMDL
