MODEL 1
REMARK minimizedAffinity 0.279880136
REMARK minimizedRMSD -1
REMARK  0 active torsions:
REMARK  status: ('A' for Active; 'I' for Inactive)
ROOT
ATOM      1  C   UNL d   1      -0.399   1.822  -1.198  0.00  0.00     0.078 C 
ATOM      2  C1  UNL d   1       0.111   1.256   0.094  0.00  0.00    -0.077 A 
ATOM      3  C2  UNL d   1       0.827   0.053   0.121  0.00  0.00    -0.001 A 
ATOM      4  C3  UNL d   1       1.288  -0.467   1.331  0.00  0.00     0.003 A 
ATOM      5  C4  UNL d   1       1.037   0.208   2.524  0.00  0.00    -0.005 A 
ATOM      6  C5  UNL d   1       0.323   1.405   2.507  0.00  0.00     0.003 A 
ATOM      7  C6  UNL d   1      -0.138   1.927   1.298  0.00  0.00    -0.001 A 
ENDROOT
TORSDOF 0
ENDMDL
