MODEL 1
REMARK minimizedAffinity 2.72456861
REMARK minimizedRMSD -1
REMARK  0 active torsions:
REMARK  status: ('A' for Active; 'I' for Inactive)
ROOT
ATOM      1  C   UNL d   1       0.923   4.866   0.007  0.00  0.00     0.078 C 
ATOM      2  C1  UNL d   1       1.118   3.838   1.081  0.00  0.00    -0.077 A 
ATOM      3  C2  UNL d   1       2.109   3.994   2.057  0.00  0.00    -0.001 A 
ATOM      4  C3  UNL d   1       2.286   3.024   3.046  0.00  0.00     0.003 A 
ATOM      5  C4  UNL d   1       1.475   1.891   3.067  0.00  0.00    -0.005 A 
ATOM      6  C5  UNL d   1       0.487   1.726   2.098  0.00  0.00     0.003 A 
ATOM      7  C6  UNL d   1       0.309   2.695   1.109  0.00  0.00    -0.001 A 
ENDROOT
TORSDOF 0
ENDMDL
