MODEL 1
REMARK minimizedAffinity 2.67178464
REMARK minimizedRMSD -1
REMARK  0 active torsions:
REMARK  status: ('A' for Active; 'I' for Inactive)
ROOT
ATOM      1  C   UNL d   1      -0.450   5.992  -3.083  0.00  0.00     0.078 C 
ATOM      2  C1  UNL d   1       0.017   5.291  -1.843  0.00  0.00    -0.077 A 
ATOM      3  C2  UNL d   1       0.246   5.999  -0.657  0.00  0.00    -0.001 A 
ATOM      4  C3  UNL d   1       0.690   5.334   0.487  0.00  0.00     0.003 A 
ATOM      5  C4  UNL d   1       0.910   3.959   0.457  0.00  0.00    -0.005 A 
ATOM      6  C5  UNL d   1       0.687   3.246  -0.719  0.00  0.00     0.003 A 
ATOM      7  C6  UNL d   1       0.243   3.909  -1.865  0.00  0.00    -0.001 A 
ENDROOT
TORSDOF 0
ENDMDL
