MODEL 1
REMARK minimizedAffinity 0.282136053
REMARK minimizedRMSD -1
REMARK  0 active torsions:
REMARK  status: ('A' for Active; 'I' for Inactive)
ROOT
ATOM      1  C   UNL d   1       0.070   0.621  -1.540  0.00  0.00     0.078 C 
ATOM      2  C1  UNL d   1       0.324   0.697  -0.064  0.00  0.00    -0.077 A 
ATOM      3  C2  UNL d   1       0.100   1.883   0.646  0.00  0.00    -0.001 A 
ATOM      4  C3  UNL d   1       0.351   1.943   2.018  0.00  0.00     0.003 A 
ATOM      5  C4  UNL d   1       0.827   0.820   2.692  0.00  0.00    -0.005 A 
ATOM      6  C5  UNL d   1       1.055  -0.364   1.993  0.00  0.00     0.003 A 
ATOM      7  C6  UNL d   1       0.805  -0.425   0.621  0.00  0.00    -0.001 A 
ENDROOT
TORSDOF 0
ENDMDL
