MODEL 1
REMARK minimizedAffinity -2.10301089
REMARK minimizedRMSD -1
REMARK  0 active torsions:
REMARK  status: ('A' for Active; 'I' for Inactive)
ROOT
ATOM      1  C   UNL d   1      -0.380   1.528  -1.288  0.00  0.00     0.078 C 
ATOM      2  C1  UNL d   1      -0.276   2.991  -1.599  0.00  0.00    -0.077 A 
ATOM      3  C2  UNL d   1       0.487   3.847  -0.794  0.00  0.00    -0.001 A 
ATOM      4  C3  UNL d   1       0.567   5.208  -1.089  0.00  0.00     0.003 A 
ATOM      5  C4  UNL d   1      -0.115   5.727  -2.188  0.00  0.00    -0.005 A 
ATOM      6  C5  UNL d   1      -0.878   4.885  -2.993  0.00  0.00     0.003 A 
ATOM      7  C6  UNL d   1      -0.960   3.522  -2.700  0.00  0.00    -0.001 A 
ENDROOT
TORSDOF 0
ENDMDL
