MODEL 1
REMARK minimizedAffinity 2.24477124
REMARK minimizedRMSD -1
REMARK  0 active torsions:
REMARK  status: ('A' for Active; 'I' for Inactive)
ROOT
ATOM      1  C   UNL d   1       0.760   4.465   3.335  0.00  0.00     0.023 A 
ATOM      2  C1  UNL d   1       1.994   3.825   3.230  0.00  0.00     0.003 A 
ATOM      3  C2  UNL d   1       3.078   4.264   3.994  0.00  0.00     0.048 A 
ATOM      4  C3  UNL d   1       2.919   5.344   4.862  0.00  0.00     0.023 A 
ATOM      5  C4  UNL d   1       1.685   5.987   4.971  0.00  0.00     0.048 A 
ATOM      6  C5  UNL d   1       0.605   5.545   4.204  0.00  0.00     0.003 A 
ATOM      7  I   UNL d   1       4.529   6.000   6.000  0.00  0.00    -0.146 I 
ENDROOT
TORSDOF 0
ENDMDL
