MODEL 1
REMARK minimizedAffinity 2.3284657
REMARK minimizedRMSD -1
REMARK  0 active torsions:
REMARK  status: ('A' for Active; 'I' for Inactive)
ROOT
ATOM      1  C   UNL d   1      -5.172   4.888  -5.999  0.00  0.00     0.023 A 
ATOM      2  C1  UNL d   1      -4.184   5.632  -5.354  0.00  0.00     0.003 A 
ATOM      3  C2  UNL d   1      -3.131   4.983  -4.706  0.00  0.00     0.048 A 
ATOM      4  C3  UNL d   1      -3.071   3.589  -4.708  0.00  0.00     0.023 A 
ATOM      5  C4  UNL d   1      -4.057   2.841  -5.354  0.00  0.00     0.048 A 
ATOM      6  C5  UNL d   1      -5.109   3.494  -5.999  0.00  0.00     0.003 A 
ATOM      7  I   UNL d   1      -1.505   2.621  -3.745  0.00  0.00    -0.146 I 
ENDROOT
TORSDOF 0
ENDMDL
