MODEL 1
REMARK minimizedAffinity 6.9443059
REMARK minimizedRMSD -1
REMARK  0 active torsions:
REMARK  status: ('A' for Active; 'I' for Inactive)
ROOT
ATOM      1  C   UNL d   1      -1.638  -1.431   1.890  0.00  0.00     0.023 A 
ATOM      2  C1  UNL d   1      -0.410  -0.952   2.347  0.00  0.00     0.003 A 
ATOM      3  C2  UNL d   1       0.658  -0.804   1.459  0.00  0.00     0.048 A 
ATOM      4  C3  UNL d   1       0.490  -1.136   0.115  0.00  0.00     0.023 A 
ATOM      5  C4  UNL d   1      -0.737  -1.615  -0.347  0.00  0.00     0.048 A 
ATOM      6  C5  UNL d   1      -1.801  -1.762   0.545  0.00  0.00     0.003 A 
ATOM      7  I   UNL d   1       2.077  -0.917  -1.208  0.00  0.00    -0.146 I 
ENDROOT
TORSDOF 0
ENDMDL
