MODEL 1
REMARK minimizedAffinity 3.94171762
REMARK minimizedRMSD -1
REMARK  0 active torsions:
REMARK  status: ('A' for Active; 'I' for Inactive)
ROOT
ATOM      1  C   UNL d   1       2.419   0.367  -2.507  0.00  0.00     0.023 A 
ATOM      2  C1  UNL d   1       3.127  -0.740  -2.038  0.00  0.00     0.003 A 
ATOM      3  C2  UNL d   1       2.731  -1.377  -0.861  0.00  0.00     0.048 A 
ATOM      4  C3  UNL d   1       1.625  -0.904  -0.157  0.00  0.00     0.023 A 
ATOM      5  C4  UNL d   1       0.912   0.203  -0.622  0.00  0.00     0.048 A 
ATOM      6  C5  UNL d   1       1.312   0.837  -1.799  0.00  0.00     0.003 A 
ATOM      7  I   UNL d   1       1.033  -1.851   1.596  0.00  0.00    -0.146 I 
ENDROOT
TORSDOF 0
ENDMDL
