MODEL 1
REMARK minimizedAffinity 4.80316401
REMARK minimizedRMSD -1
REMARK  0 active torsions:
REMARK  status: ('A' for Active; 'I' for Inactive)
ROOT
ATOM      1  C   UNL d   1       0.115  -1.498   1.772  0.00  0.00     0.023 A 
ATOM      2  C1  UNL d   1       1.465  -1.155   1.701  0.00  0.00     0.003 A 
ATOM      3  C2  UNL d   1       2.064  -0.928   0.460  0.00  0.00     0.048 A 
ATOM      4  C3  UNL d   1       1.307  -1.045  -0.705  0.00  0.00     0.023 A 
ATOM      5  C4  UNL d   1      -0.044  -1.388  -0.638  0.00  0.00     0.048 A 
ATOM      6  C5  UNL d   1      -0.639  -1.614   0.604  0.00  0.00     0.003 A 
ATOM      7  I   UNL d   1       2.197  -0.707  -2.553  0.00  0.00    -0.146 I 
ENDROOT
TORSDOF 0
ENDMDL
