MODEL 1
REMARK minimizedAffinity 4.72669554
REMARK minimizedRMSD -1
REMARK  0 active torsions:
REMARK  status: ('A' for Active; 'I' for Inactive)
ROOT
ATOM      1  C   UNL d   1       1.007  -1.687   3.565  0.00  0.00     0.023 A 
ATOM      2  C1  UNL d   1       1.133  -0.614   2.683  0.00  0.00     0.003 A 
ATOM      3  C2  UNL d   1       0.306  -0.531   1.560  0.00  0.00     0.048 A 
ATOM      4  C3  UNL d   1      -0.644  -1.525   1.327  0.00  0.00     0.023 A 
ATOM      5  C4  UNL d   1      -0.774  -2.600   2.208  0.00  0.00     0.048 A 
ATOM      6  C5  UNL d   1       0.056  -2.678   3.328  0.00  0.00     0.003 A 
ATOM      7  I   UNL d   1      -1.876  -1.404  -0.343  0.00  0.00    -0.146 I 
ENDROOT
TORSDOF 0
ENDMDL
