MODEL 1
REMARK minimizedAffinity -0.29758358
REMARK minimizedRMSD -1
REMARK  0 active torsions:
REMARK  status: ('A' for Active; 'I' for Inactive)
ROOT
ATOM      1  C   UNL d   1       2.229  -5.992  -5.328  0.00  0.00     0.172 C 
ATOM      2  N   UNL d   1       2.397  -5.995  -3.893  0.00  0.00    -0.070 N 
ATOM      3  C1  UNL d   1       3.596  -5.996  -3.231  0.00  0.00    -0.004 A 
ATOM      4  C2  UNL d   1       3.330  -5.999  -1.878  0.00  0.00    -0.047 A 
ATOM      5  C3  UNL d   1       1.923  -6.000  -1.723  0.00  0.00    -0.047 A 
ATOM      6  C4  UNL d   1       1.371  -5.998  -2.986  0.00  0.00    -0.004 A 
ENDROOT
TORSDOF 0
ENDMDL
