MODEL 1
REMARK minimizedAffinity -0.545133114
REMARK minimizedRMSD -1
REMARK  0 active torsions:
REMARK  status: ('A' for Active; 'I' for Inactive)
ROOT
ATOM      1  C   UNL d   1      -3.274   2.494   0.517  0.00  0.00     0.172 C 
ATOM      2  N   UNL d   1      -3.040   1.620  -0.608  0.00  0.00    -0.070 N 
ATOM      3  C1  UNL d   1      -2.305   0.465  -0.583  0.00  0.00    -0.004 A 
ATOM      4  C2  UNL d   1      -2.323  -0.075  -1.851  0.00  0.00    -0.047 A 
ATOM      5  C3  UNL d   1      -3.096   0.785  -2.666  0.00  0.00    -0.047 A 
ATOM      6  C4  UNL d   1      -3.528   1.826  -1.872  0.00  0.00    -0.004 A 
ENDROOT
TORSDOF 0
ENDMDL
