MODEL 1
REMARK minimizedAffinity 1.01710033
REMARK minimizedRMSD -1
REMARK  0 active torsions:
REMARK  status: ('A' for Active; 'I' for Inactive)
ROOT
ATOM      1  C   UNL d   1       2.579  -5.999  -4.810  0.00  0.00     0.172 C 
ATOM      2  N   UNL d   1       3.337  -5.999  -3.581  0.00  0.00    -0.070 N 
ATOM      3  C1  UNL d   1       2.810  -5.999  -2.317  0.00  0.00    -0.004 A 
ATOM      4  C2  UNL d   1       3.858  -6.000  -1.422  0.00  0.00    -0.047 A 
ATOM      5  C3  UNL d   1       5.057  -5.999  -2.174  0.00  0.00    -0.047 A 
ATOM      6  C4  UNL d   1       4.705  -5.999  -3.508  0.00  0.00    -0.004 A 
ENDROOT
TORSDOF 0
ENDMDL
