MODEL 1
REMARK minimizedAffinity 4.49530554
REMARK minimizedRMSD -1
REMARK  0 active torsions:
REMARK  status: ('A' for Active; 'I' for Inactive)
ROOT
ATOM      1  C   UNL d   1       0.375  -5.248   5.999  0.00  0.00     0.172 C 
ATOM      2  N   UNL d   1       0.981  -4.388   5.011  0.00  0.00    -0.070 N 
ATOM      3  C1  UNL d   1       0.744  -3.047   4.866  0.00  0.00    -0.004 A 
ATOM      4  C2  UNL d   1       1.513  -2.593   3.816  0.00  0.00    -0.047 A 
ATOM      5  C3  UNL d   1       2.237  -3.700   3.312  0.00  0.00    -0.047 A 
ATOM      6  C4  UNL d   1       1.888  -4.798   4.070  0.00  0.00    -0.004 A 
ENDROOT
TORSDOF 0
ENDMDL
