MODEL 1
REMARK minimizedAffinity -0.923751533
REMARK minimizedRMSD -1
REMARK  0 active torsions:
REMARK  status: ('A' for Active; 'I' for Inactive)
ROOT
ATOM      1  C   UNL d   1       3.033  -6.000  -4.236  0.00  0.00     0.172 C 
ATOM      2  N   UNL d   1       3.700  -5.996  -2.955  0.00  0.00    -0.070 N 
ATOM      3  C1  UNL d   1       5.055  -5.988  -2.760  0.00  0.00    -0.004 A 
ATOM      4  C2  UNL d   1       5.287  -5.985  -1.402  0.00  0.00    -0.047 A 
ATOM      5  C3  UNL d   1       4.027  -5.993  -0.758  0.00  0.00    -0.047 A 
ATOM      6  C4  UNL d   1       3.062  -5.999  -1.743  0.00  0.00    -0.004 A 
ENDROOT
TORSDOF 0
ENDMDL
