MODEL 1
REMARK minimizedAffinity 2.83212471
REMARK minimizedRMSD -1
REMARK  0 active torsions:
REMARK  status: ('A' for Active; 'I' for Inactive)
ROOT
ATOM      1  C   UNL d   1      -0.674  -1.832   0.267  0.00  0.00     0.172 C 
ATOM      2  N   UNL d   1       0.346  -2.102   1.253  0.00  0.00    -0.070 N 
ATOM      3  C1  UNL d   1       0.779  -3.344   1.635  0.00  0.00    -0.004 A 
ATOM      4  C2  UNL d   1       1.755  -3.175   2.592  0.00  0.00    -0.047 A 
ATOM      5  C3  UNL d   1       1.914  -1.783   2.794  0.00  0.00    -0.047 A 
ATOM      6  C4  UNL d   1       1.030  -1.142   1.952  0.00  0.00    -0.004 A 
ENDROOT
TORSDOF 0
ENDMDL
