MODEL 1
REMARK minimizedAffinity 1.91059959
REMARK minimizedRMSD -1
REMARK  0 active torsions:
REMARK  status: ('A' for Active; 'I' for Inactive)
ROOT
ATOM      1  C   UNL d   1       3.524  -2.823  -1.205  0.00  0.00     0.172 C 
ATOM      2  N   UNL d   1       4.226  -4.045  -0.892  0.00  0.00    -0.070 N 
ATOM      3  C1  UNL d   1       3.818  -4.992   0.010  0.00  0.00    -0.004 A 
ATOM      4  C2  UNL d   1       4.759  -6.000   0.018  0.00  0.00    -0.047 A 
ATOM      5  C3  UNL d   1       5.767  -5.646  -0.910  0.00  0.00    -0.047 A 
ATOM      6  C4  UNL d   1       5.412  -4.431  -1.458  0.00  0.00    -0.004 A 
ENDROOT
TORSDOF 0
ENDMDL
