MODEL 1
REMARK minimizedAffinity 4.21677828
REMARK minimizedRMSD -1
REMARK  0 active torsions:
REMARK  status: ('A' for Active; 'I' for Inactive)
ROOT
ATOM      1  C   UNL d   1       1.429  -0.677   2.910  0.00  0.00     0.172 C 
ATOM      2  N   UNL d   1       1.655  -2.044   3.315  0.00  0.00    -0.070 N 
ATOM      3  C1  UNL d   1       0.773  -2.826   4.013  0.00  0.00    -0.004 A 
ATOM      4  C2  UNL d   1       1.359  -4.059   4.200  0.00  0.00    -0.047 A 
ATOM      5  C3  UNL d   1       2.637  -4.017   3.595  0.00  0.00    -0.047 A 
ATOM      6  C4  UNL d   1       2.795  -2.758   3.055  0.00  0.00    -0.004 A 
ENDROOT
TORSDOF 0
ENDMDL
