MODEL 1
REMARK minimizedAffinity 3.88565493
REMARK minimizedRMSD -1
REMARK  0 active torsions:
REMARK  status: ('A' for Active; 'I' for Inactive)
ROOT
ATOM      1  C   UNL d   1      -5.179   0.895   1.505  0.00  0.00     0.172 C 
ATOM      2  N   UNL d   1      -5.374   2.274   1.126  0.00  0.00    -0.070 N 
ATOM      3  C1  UNL d   1      -6.000   2.709  -0.012  0.00  0.00    -0.004 A 
ATOM      4  C2  UNL d   1      -5.981   4.087  -0.004  0.00  0.00    -0.047 A 
ATOM      5  C3  UNL d   1      -5.319   4.494   1.179  0.00  0.00    -0.047 A 
ATOM      6  C4  UNL d   1      -4.954   3.352   1.860  0.00  0.00    -0.004 A 
ENDROOT
TORSDOF 0
ENDMDL
