MODEL 1
REMARK minimizedAffinity 3.73515272
REMARK minimizedRMSD -1
REMARK  0 active torsions:
REMARK  status: ('A' for Active; 'I' for Inactive)
ROOT
ATOM      1  C   UNL d   1       5.998  -0.023  -5.432  0.00  0.00     0.172 C 
ATOM      2  N   UNL d   1       4.928  -0.263  -4.493  0.00  0.00    -0.070 N 
ATOM      3  C1  UNL d   1       3.766   0.457  -4.407  0.00  0.00    -0.004 A 
ATOM      4  C2  UNL d   1       3.009  -0.084  -3.390  0.00  0.00    -0.047 A 
ATOM      5  C3  UNL d   1       3.741  -1.165  -2.846  0.00  0.00    -0.047 A 
ATOM      6  C4  UNL d   1       4.925  -1.254  -3.548  0.00  0.00    -0.004 A 
ENDROOT
TORSDOF 0
ENDMDL
