MODEL 1
REMARK minimizedAffinity -4.44051218
REMARK minimizedRMSD -1
REMARK  0 active torsions:
REMARK  status: ('A' for Active; 'I' for Inactive)
ROOT
ATOM      1  C   UNL d   1      -2.312   2.023   1.225  0.00  0.00     0.077 C 
ATOM      2  C1  UNL d   1      -1.252   1.007   0.920  0.00  0.00    -0.074 A 
ATOM      3  C2  UNL d   1      -1.029  -0.079   1.772  0.00  0.00    -0.005 A 
ATOM      4  C3  UNL d   1      -0.046  -1.020   1.470  0.00  0.00     0.006 A 
ATOM      5  C4  UNL d   1       0.724  -0.886   0.314  0.00  0.00    -0.005 A 
ATOM      6  C5  UNL d   1       0.516   0.194  -0.551  0.00  0.00    -0.074 A 
ATOM      7  C6  UNL d   1       1.328   0.348  -1.802  0.00  0.00     0.077 C 
ATOM      8  C7  UNL d   1      -0.479   1.132  -0.244  0.00  0.00    -0.001 A 
ENDROOT
TORSDOF 0
ENDMDL
