MODEL 1
REMARK minimizedAffinity -3.0873549
REMARK minimizedRMSD -1
REMARK  0 active torsions:
REMARK  status: ('A' for Active; 'I' for Inactive)
ROOT
ATOM      1  C   UNL d   1      -2.199   2.084   1.183  0.00  0.00     0.077 C 
ATOM      2  C1  UNL d   1      -1.100   1.584   0.293  0.00  0.00    -0.074 A 
ATOM      3  C2  UNL d   1      -0.520   2.417  -0.669  0.00  0.00    -0.005 A 
ATOM      4  C3  UNL d   1       0.508   1.941  -1.483  0.00  0.00     0.006 A 
ATOM      5  C4  UNL d   1       0.964   0.630  -1.344  0.00  0.00    -0.005 A 
ATOM      6  C5  UNL d   1       0.397  -0.217  -0.387  0.00  0.00    -0.074 A 
ATOM      7  C6  UNL d   1       0.882  -1.626  -0.218  0.00  0.00     0.077 C 
ATOM      8  C7  UNL d   1      -0.631   0.270   0.432  0.00  0.00    -0.001 A 
ENDROOT
TORSDOF 0
ENDMDL
