MODEL 1
REMARK minimizedAffinity -3.17338061
REMARK minimizedRMSD -1
REMARK  0 active torsions:
REMARK  status: ('A' for Active; 'I' for Inactive)
ROOT
ATOM      1  C   UNL d   1      -2.218   1.645   1.108  0.00  0.00     0.077 C 
ATOM      2  C1  UNL d   1      -1.094   1.247   0.197  0.00  0.00    -0.074 A 
ATOM      3  C2  UNL d   1      -0.561   2.154  -0.725  0.00  0.00    -0.005 A 
ATOM      4  C3  UNL d   1       0.490   1.774  -1.559  0.00  0.00     0.006 A 
ATOM      5  C4  UNL d   1       1.018   0.484  -1.480  0.00  0.00    -0.005 A 
ATOM      6  C5  UNL d   1       0.498  -0.436  -0.564  0.00  0.00    -0.074 A 
ATOM      7  C6  UNL d   1       1.061  -1.822  -0.460  0.00  0.00     0.077 C 
ATOM      8  C7  UNL d   1      -0.553  -0.044   0.275  0.00  0.00    -0.001 A 
ENDROOT
TORSDOF 0
ENDMDL
