MODEL 1
REMARK minimizedAffinity -3.43046832
REMARK minimizedRMSD -1
REMARK  0 active torsions:
REMARK  status: ('A' for Active; 'I' for Inactive)
ROOT
ATOM      1  C   UNL d   1      -2.270   2.246   1.071  0.00  0.00     0.077 C 
ATOM      2  C1  UNL d   1      -1.244   1.151   1.092  0.00  0.00    -0.074 A 
ATOM      3  C2  UNL d   1      -0.736   0.666   2.302  0.00  0.00    -0.005 A 
ATOM      4  C3  UNL d   1       0.210  -0.359   2.307  0.00  0.00     0.006 A 
ATOM      5  C4  UNL d   1       0.657  -0.908   1.104  0.00  0.00    -0.005 A 
ATOM      6  C5  UNL d   1       0.159  -0.437  -0.115  0.00  0.00    -0.074 A 
ATOM      7  C6  UNL d   1       0.622  -1.023  -1.416  0.00  0.00     0.077 C 
ATOM      8  C7  UNL d   1      -0.796   0.589  -0.111  0.00  0.00    -0.001 A 
ENDROOT
TORSDOF 0
ENDMDL
