MODEL 1
REMARK minimizedAffinity -0.604402304
REMARK minimizedRMSD -1
REMARK  0 active torsions:
REMARK  status: ('A' for Active; 'I' for Inactive)
ROOT
ATOM      1  C   UNL d   1      -0.775   0.641   1.259  0.00  0.00     0.077 C 
ATOM      2  C1  UNL d   1       0.045  -0.100   0.245  0.00  0.00    -0.074 A 
ATOM      3  C2  UNL d   1       1.190   0.477  -0.314  0.00  0.00    -0.005 A 
ATOM      4  C3  UNL d   1       1.947  -0.227  -1.249  0.00  0.00     0.006 A 
ATOM      5  C4  UNL d   1       1.569  -1.514  -1.635  0.00  0.00    -0.005 A 
ATOM      6  C5  UNL d   1       0.428  -2.107  -1.086  0.00  0.00    -0.074 A 
ATOM      7  C6  UNL d   1       0.012  -3.493  -1.482  0.00  0.00     0.077 C 
ATOM      8  C7  UNL d   1      -0.325  -1.396  -0.142  0.00  0.00    -0.001 A 
ENDROOT
TORSDOF 0
ENDMDL
