MODEL 1
REMARK minimizedAffinity -5.08177233
REMARK minimizedRMSD -1
REMARK  0 active torsions:
REMARK  status: ('A' for Active; 'I' for Inactive)
ROOT
ATOM      1  C   UNL d   1      -2.293   2.826   1.516  0.00  0.00     0.077 C 
ATOM      2  C1  UNL d   1      -1.312   1.797   1.038  0.00  0.00    -0.074 A 
ATOM      3  C2  UNL d   1      -0.821   1.826  -0.272  0.00  0.00    -0.005 A 
ATOM      4  C3  UNL d   1       0.098   0.868  -0.700  0.00  0.00     0.006 A 
ATOM      5  C4  UNL d   1       0.534  -0.128   0.175  0.00  0.00    -0.005 A 
ATOM      6  C5  UNL d   1       0.054  -0.173   1.488  0.00  0.00    -0.074 A 
ATOM      7  C6  UNL d   1       0.520  -1.230   2.444  0.00  0.00     0.077 C 
ATOM      8  C7  UNL d   1      -0.864   0.798   1.913  0.00  0.00    -0.001 A 
ENDROOT
TORSDOF 0
ENDMDL
