MODEL 1
REMARK minimizedAffinity -4.41733217
REMARK minimizedRMSD -1
REMARK  0 active torsions:
REMARK  status: ('A' for Active; 'I' for Inactive)
ROOT
ATOM      1  C   UNL d   1      -2.523   2.276   1.144  0.00  0.00     0.077 C 
ATOM      2  C1  UNL d   1      -1.480   1.246   0.826  0.00  0.00    -0.074 A 
ATOM      3  C2  UNL d   1      -1.113   0.279   1.767  0.00  0.00    -0.005 A 
ATOM      4  C3  UNL d   1      -0.149  -0.679   1.453  0.00  0.00     0.006 A 
ATOM      5  C4  UNL d   1       0.457  -0.679   0.196  0.00  0.00    -0.005 A 
ATOM      6  C5  UNL d   1       0.102   0.279  -0.759  0.00  0.00    -0.074 A 
ATOM      7  C6  UNL d   1       0.736   0.286  -2.118  0.00  0.00     0.077 C 
ATOM      8  C7  UNL d   1      -0.873   1.233  -0.438  0.00  0.00    -0.001 A 
ENDROOT
TORSDOF 0
ENDMDL
