MODEL 1
REMARK minimizedAffinity -1.77622068
REMARK minimizedRMSD -1
REMARK  0 active torsions:
REMARK  status: ('A' for Active; 'I' for Inactive)
ROOT
ATOM      1  C   UNL d   1      -2.405   1.772   1.562  0.00  0.00     0.077 C 
ATOM      2  C1  UNL d   1      -1.469   1.485   0.425  0.00  0.00    -0.074 A 
ATOM      3  C2  UNL d   1      -1.208   2.451  -0.553  0.00  0.00    -0.005 A 
ATOM      4  C3  UNL d   1      -0.329   2.173  -1.599  0.00  0.00     0.006 A 
ATOM      5  C4  UNL d   1       0.298   0.928  -1.678  0.00  0.00    -0.005 A 
ATOM      6  C5  UNL d   1       0.050  -0.049  -0.709  0.00  0.00    -0.074 A 
ATOM      7  C6  UNL d   1       0.722  -1.388  -0.774  0.00  0.00     0.077 C 
ATOM      8  C7  UNL d   1      -0.830   0.240   0.343  0.00  0.00    -0.001 A 
ENDROOT
TORSDOF 0
ENDMDL
