MODEL 1
REMARK minimizedAffinity -1.87819946
REMARK minimizedRMSD -1
REMARK  0 active torsions:
REMARK  status: ('A' for Active; 'I' for Inactive)
ROOT
ATOM      1  C   UNL d   1      -0.128  -2.760  -2.094  0.00  0.00     0.077 C 
ATOM      2  C1  UNL d   1      -0.009  -1.546  -1.222  0.00  0.00    -0.074 A 
ATOM      3  C2  UNL d   1       0.643  -1.609   0.014  0.00  0.00    -0.005 A 
ATOM      4  C3  UNL d   1       0.754  -0.470   0.810  0.00  0.00     0.006 A 
ATOM      5  C4  UNL d   1       0.216   0.744   0.379  0.00  0.00    -0.005 A 
ATOM      6  C5  UNL d   1      -0.439   0.827  -0.854  0.00  0.00    -0.074 A 
ATOM      7  C6  UNL d   1      -1.014   2.125  -1.336  0.00  0.00     0.077 C 
ATOM      8  C7  UNL d   1      -0.540  -0.321  -1.651  0.00  0.00    -0.001 A 
ENDROOT
TORSDOF 0
ENDMDL
