MODEL 1
REMARK minimizedAffinity -5.04566336
REMARK minimizedRMSD -1
REMARK  0 active torsions:
REMARK  status: ('A' for Active; 'I' for Inactive)
ROOT
ATOM      1  C   UNL d   1      -2.328   2.389   1.332  0.00  0.00     0.077 C 
ATOM      2  C1  UNL d   1      -1.418   1.198   1.277  0.00  0.00    -0.074 A 
ATOM      3  C2  UNL d   1      -1.389   0.267   2.321  0.00  0.00    -0.005 A 
ATOM      4  C3  UNL d   1      -0.545  -0.841   2.252  0.00  0.00     0.006 A 
ATOM      5  C4  UNL d   1       0.277  -1.030   1.140  0.00  0.00    -0.005 A 
ATOM      6  C5  UNL d   1       0.260  -0.110   0.086  0.00  0.00    -0.074 A 
ATOM      7  C6  UNL d   1       1.129  -0.304  -1.121  0.00  0.00     0.077 C 
ATOM      8  C7  UNL d   1      -0.596   0.997   0.160  0.00  0.00    -0.001 A 
ENDROOT
TORSDOF 0
ENDMDL
