MODEL 1
REMARK minimizedAffinity -2.90558648
REMARK minimizedRMSD -1
REMARK  0 active torsions:
REMARK  status: ('A' for Active; 'I' for Inactive)
ROOT
ATOM      1  C   UNL d   1       1.354  -1.403  -0.940  0.00  0.00     0.077 C 
ATOM      2  C1  UNL d   1       0.428  -0.309  -0.497  0.00  0.00    -0.074 A 
ATOM      3  C2  UNL d   1      -0.270  -0.404   0.711  0.00  0.00    -0.005 A 
ATOM      4  C3  UNL d   1      -1.121   0.625   1.115  0.00  0.00     0.006 A 
ATOM      5  C4  UNL d   1      -1.282   1.757   0.315  0.00  0.00    -0.005 A 
ATOM      6  C5  UNL d   1      -0.592   1.870  -0.896  0.00  0.00    -0.074 A 
ATOM      7  C6  UNL d   1      -0.746   3.085  -1.762  0.00  0.00     0.077 C 
ATOM      8  C7  UNL d   1       0.266   0.835  -1.291  0.00  0.00    -0.001 A 
ENDROOT
TORSDOF 0
ENDMDL
