MODEL 1
REMARK minimizedAffinity -2.59094286
REMARK minimizedRMSD -1
REMARK  0 active torsions:
REMARK  status: ('A' for Active; 'I' for Inactive)
ROOT
ATOM      1  C   UNL d   1      -0.032   3.227  -1.127  0.00  0.00     0.077 C 
ATOM      2  C1  UNL d   1      -0.205   1.928  -0.396  0.00  0.00    -0.074 A 
ATOM      3  C2  UNL d   1      -1.127   1.809   0.649  0.00  0.00    -0.005 A 
ATOM      4  C3  UNL d   1      -1.284   0.593   1.313  0.00  0.00     0.006 A 
ATOM      5  C4  UNL d   1      -0.523  -0.515   0.939  0.00  0.00    -0.005 A 
ATOM      6  C5  UNL d   1       0.403  -0.416  -0.105  0.00  0.00    -0.074 A 
ATOM      7  C6  UNL d   1       1.222  -1.600  -0.526  0.00  0.00     0.077 C 
ATOM      8  C7  UNL d   1       0.550   0.808  -0.772  0.00  0.00    -0.001 A 
ENDROOT
TORSDOF 0
ENDMDL
