MODEL 1
REMARK minimizedAffinity -5.44975328
REMARK minimizedRMSD -1
REMARK  0 active torsions:
REMARK  status: ('A' for Active; 'I' for Inactive)
ROOT
ATOM      1  C   UNL d   1      -1.558   3.084   0.837  0.00  0.00     0.077 C 
ATOM      2  C1  UNL d   1      -0.636   1.951   0.496  0.00  0.00    -0.074 A 
ATOM      3  C2  UNL d   1      -0.523   0.838   1.335  0.00  0.00    -0.005 A 
ATOM      4  C3  UNL d   1       0.331  -0.213   1.000  0.00  0.00     0.006 A 
ATOM      5  C4  UNL d   1       1.080  -0.161  -0.176  0.00  0.00    -0.005 A 
ATOM      6  C5  UNL d   1       0.979   0.943  -1.029  0.00  0.00    -0.074 A 
ATOM      7  C6  UNL d   1       1.770   1.010  -2.302  0.00  0.00     0.077 C 
ATOM      8  C7  UNL d   1       0.114   1.991  -0.688  0.00  0.00    -0.001 A 
ENDROOT
TORSDOF 0
ENDMDL
