MODEL 1
REMARK minimizedAffinity -3.20321441
REMARK minimizedRMSD -1
REMARK  0 active torsions:
REMARK  status: ('A' for Active; 'I' for Inactive)
ROOT
ATOM      1  C   UNL d   1       1.275   2.137  -2.144  0.00  0.00     0.077 C 
ATOM      2  C1  UNL d   1       0.608   1.416  -1.011  0.00  0.00    -0.074 A 
ATOM      3  C2  UNL d   1       1.004   0.124  -0.649  0.00  0.00    -0.005 A 
ATOM      4  C3  UNL d   1       0.380  -0.530   0.413  0.00  0.00     0.006 A 
ATOM      5  C4  UNL d   1      -0.643   0.099   1.124  0.00  0.00    -0.005 A 
ATOM      6  C5  UNL d   1      -1.051   1.391   0.777  0.00  0.00    -0.074 A 
ATOM      7  C6  UNL d   1      -2.142   2.086   1.536  0.00  0.00     0.077 C 
ATOM      8  C7  UNL d   1      -0.415   2.045  -0.288  0.00  0.00    -0.001 A 
ENDROOT
TORSDOF 0
ENDMDL
