MODEL 1
REMARK minimizedAffinity -3.21935678
REMARK minimizedRMSD -1
REMARK  0 active torsions:
REMARK  status: ('A' for Active; 'I' for Inactive)
ROOT
ATOM      1  C   UNL d   1       1.280  -1.676  -0.404  0.00  0.00     0.077 C 
ATOM      2  C1  UNL d   1       0.330  -0.585  -0.011  0.00  0.00    -0.074 A 
ATOM      3  C2  UNL d   1      -0.419  -0.674   1.167  0.00  0.00    -0.005 A 
ATOM      4  C3  UNL d   1      -1.292   0.354   1.524  0.00  0.00     0.006 A 
ATOM      5  C4  UNL d   1      -1.425   1.479   0.709  0.00  0.00    -0.005 A 
ATOM      6  C5  UNL d   1      -0.683   1.585  -0.472  0.00  0.00    -0.074 A 
ATOM      7  C6  UNL d   1      -0.807   2.792  -1.355  0.00  0.00     0.077 C 
ATOM      8  C7  UNL d   1       0.197   0.552  -0.821  0.00  0.00    -0.001 A 
ENDROOT
TORSDOF 0
ENDMDL
