MODEL 1
REMARK minimizedAffinity -5.2974124
REMARK minimizedRMSD -1
REMARK  1 active torsions:
REMARK  status: ('A' for Active; 'I' for Inactive)
REMARK    1  A    between atoms: C1_2  and  C2_3 
ROOT
ATOM      1  C2  UNL d   1       0.038  -0.237   0.832  0.00  0.00    -0.076 A 
ATOM      2  C3  UNL d   1       0.418   1.109   0.691  0.00  0.00     0.004 A 
ATOM      3  C4  UNL d   1       1.754   1.492   0.796  0.00  0.00    -0.003 A 
ATOM      4  C5  UNL d   1       2.732   0.535   1.043  0.00  0.00     0.000 A 
ATOM      5  C6  UNL d   1       2.375  -0.807   1.168  0.00  0.00     0.000 A 
ATOM      6  C7  UNL d   1       1.034  -1.212   1.049  0.00  0.00    -0.073 A 
ATOM      7  C8  UNL d   1       0.705  -2.672   1.199  0.00  0.00     0.078 C 
ENDROOT
BRANCH   1   8
ATOM      8  C1  UNL d   1      -1.430  -0.589   0.736  0.00  0.00     0.053 C 
ATOM      9  C   UNL d   1      -1.980  -0.412  -0.671  0.00  0.00     0.018 C 
ENDBRANCH   1   8
TORSDOF 1
ENDMDL
