MODEL 1
REMARK minimizedAffinity -1.1102674
REMARK minimizedRMSD -1
REMARK  1 active torsions:
REMARK  status: ('A' for Active; 'I' for Inactive)
REMARK    1  A    between atoms: C1_2  and  C2_3 
ROOT
ATOM      1  C2  UNL d   1      -1.051   0.264  -0.299  0.00  0.00    -0.076 A 
ATOM      2  C3  UNL d   1      -0.220   1.305  -0.750  0.00  0.00     0.004 A 
ATOM      3  C4  UNL d   1       1.099   1.412  -0.310  0.00  0.00    -0.003 A 
ATOM      4  C5  UNL d   1       1.608   0.479   0.586  0.00  0.00     0.000 A 
ATOM      5  C6  UNL d   1       0.804  -0.570   1.030  0.00  0.00     0.000 A 
ATOM      6  C7  UNL d   1      -0.523  -0.702   0.584  0.00  0.00    -0.073 A 
ATOM      7  C8  UNL d   1      -1.347  -1.849   1.100  0.00  0.00     0.078 C 
ENDROOT
BRANCH   1   8
ATOM      8  C1  UNL d   1      -2.480   0.215  -0.789  0.00  0.00     0.053 C 
ATOM      9  C   UNL d   1      -2.579  -0.147  -2.263  0.00  0.00     0.018 C 
ENDBRANCH   1   8
TORSDOF 1
ENDMDL
