MODEL 1
REMARK minimizedAffinity -2.01472521
REMARK minimizedRMSD -1
REMARK  1 active torsions:
REMARK  status: ('A' for Active; 'I' for Inactive)
REMARK    1  A    between atoms: C1_2  and  C2_3 
ROOT
ATOM      1  C2  UNL d   1       0.821  -0.528   1.416  0.00  0.00    -0.076 A 
ATOM      2  C3  UNL d   1       2.106   0.042   1.441  0.00  0.00     0.004 A 
ATOM      3  C4  UNL d   1       2.397   1.189   0.705  0.00  0.00    -0.003 A 
ATOM      4  C5  UNL d   1       1.408   1.786  -0.068  0.00  0.00     0.000 A 
ATOM      5  C6  UNL d   1       0.123   1.245  -0.091  0.00  0.00     0.000 A 
ATOM      6  C7  UNL d   1      -0.192   0.098   0.658  0.00  0.00    -0.073 A 
ATOM      7  C8  UNL d   1      -1.592  -0.447   0.591  0.00  0.00     0.078 C 
ENDROOT
BRANCH   1   8
ATOM      8  C1  UNL d   1       0.572  -1.788   2.213  0.00  0.00     0.053 C 
ATOM      9  C   UNL d   1       1.747  -2.155   3.106  0.00  0.00     0.018 C 
ENDBRANCH   1   8
TORSDOF 1
ENDMDL
