MODEL 1
REMARK minimizedAffinity -5.67733335
REMARK minimizedRMSD -1
REMARK  1 active torsions:
REMARK  status: ('A' for Active; 'I' for Inactive)
REMARK    1  A    between atoms: C1_2  and  C2_3 
ROOT
ATOM      1  C2  UNL d   1       0.677  -0.886   0.393  0.00  0.00    -0.076 A 
ATOM      2  C3  UNL d   1       1.539   0.172   0.056  0.00  0.00     0.004 A 
ATOM      3  C4  UNL d   1       2.813   0.264   0.613  0.00  0.00    -0.003 A 
ATOM      4  C5  UNL d   1       3.246  -0.700   1.516  0.00  0.00     0.000 A 
ATOM      5  C6  UNL d   1       2.411  -1.766   1.848  0.00  0.00     0.000 A 
ATOM      6  C7  UNL d   1       1.129  -1.883   1.283  0.00  0.00    -0.073 A 
ATOM      7  C8  UNL d   1       0.268  -3.051   1.682  0.00  0.00     0.078 C 
ENDROOT
BRANCH   1   8
ATOM      8  C1  UNL d   1      -0.704  -0.920  -0.223  0.00  0.00     0.053 C 
ATOM      9  C   UNL d   1      -1.228   0.469  -0.554  0.00  0.00     0.018 C 
ENDBRANCH   1   8
TORSDOF 1
ENDMDL
