MODEL 1
REMARK minimizedAffinity 2.58449984
REMARK minimizedRMSD -1
REMARK  0 active torsions:
REMARK  status: ('A' for Active; 'I' for Inactive)
ROOT
ATOM      1  C   UNL d   1       2.099  -1.465  -0.815  0.00  0.00     0.172 C 
ATOM      2  N   UNL d   1       3.250  -2.283  -1.118  0.00  0.00    -0.070 N 
ATOM      3  C1  UNL d   1       3.332  -3.639  -0.949  0.00  0.00    -0.004 A 
ATOM      4  C2  UNL d   1       4.587  -4.040  -1.353  0.00  0.00    -0.047 A 
ATOM      5  C3  UNL d   1       5.284  -2.884  -1.779  0.00  0.00    -0.047 A 
ATOM      6  C4  UNL d   1       4.432  -1.810  -1.623  0.00  0.00    -0.004 A 
ENDROOT
TORSDOF 0
ENDMDL
