MODEL 1
REMARK minimizedAffinity -0.301180124
REMARK minimizedRMSD -1
REMARK  0 active torsions:
REMARK  status: ('A' for Active; 'I' for Inactive)
ROOT
ATOM      1  C   UNL d   1      -0.355   0.897  -1.433  0.00  0.00     0.172 C 
ATOM      2  N   UNL d   1      -0.362   1.996  -0.497  0.00  0.00    -0.070 N 
ATOM      3  C1  UNL d   1      -0.377   3.325  -0.827  0.00  0.00    -0.004 A 
ATOM      4  C2  UNL d   1      -0.381   4.051   0.345  0.00  0.00    -0.047 A 
ATOM      5  C3  UNL d   1      -0.367   3.126   1.416  0.00  0.00    -0.047 A 
ATOM      6  C4  UNL d   1      -0.356   1.861   0.866  0.00  0.00    -0.004 A 
ENDROOT
TORSDOF 0
ENDMDL
