MODEL 1
REMARK minimizedAffinity 1.21993864
REMARK minimizedRMSD -1
REMARK  0 active torsions:
REMARK  status: ('A' for Active; 'I' for Inactive)
ROOT
ATOM      1  C   UNL d   1      -6.000   5.990  -4.526  0.00  0.00     0.172 C 
ATOM      2  N   UNL d   1      -4.767   5.298  -4.231  0.00  0.00    -0.070 N 
ATOM      3  C1  UNL d   1      -3.700   5.171  -5.079  0.00  0.00    -0.004 A 
ATOM      4  C2  UNL d   1      -2.726   4.446  -4.427  0.00  0.00    -0.047 A 
ATOM      5  C3  UNL d   1      -3.226   4.125  -3.143  0.00  0.00    -0.047 A 
ATOM      6  C4  UNL d   1      -4.492   4.664  -3.048  0.00  0.00    -0.004 A 
ENDROOT
TORSDOF 0
ENDMDL
