MODEL 1
REMARK minimizedAffinity 0.280115694
REMARK minimizedRMSD -1
REMARK  0 active torsions:
REMARK  status: ('A' for Active; 'I' for Inactive)
ROOT
ATOM      1  C   UNL d   1      -2.550   5.160   1.254  0.00  0.00     0.172 C 
ATOM      2  N   UNL d   1      -1.928   3.886   1.528  0.00  0.00    -0.070 N 
ATOM      3  C1  UNL d   1      -1.125   3.188   0.666  0.00  0.00    -0.004 A 
ATOM      4  C2  UNL d   1      -0.733   2.028   1.299  0.00  0.00    -0.047 A 
ATOM      5  C3  UNL d   1      -1.322   2.029   2.586  0.00  0.00    -0.047 A 
ATOM      6  C4  UNL d   1      -2.056   3.190   2.701  0.00  0.00    -0.004 A 
ENDROOT
TORSDOF 0
ENDMDL
