MODEL 1
REMARK minimizedAffinity 3.46526265
REMARK minimizedRMSD -1
REMARK  0 active torsions:
REMARK  status: ('A' for Active; 'I' for Inactive)
ROOT
ATOM      1  C   UNL d   1       0.064   0.408   3.850  0.00  0.00     0.172 C 
ATOM      2  N   UNL d   1      -0.501   1.395   2.960  0.00  0.00    -0.070 N 
ATOM      3  C1  UNL d   1       0.205   2.185   2.093  0.00  0.00    -0.004 A 
ATOM      4  C2  UNL d   1      -0.695   2.988   1.426  0.00  0.00    -0.047 A 
ATOM      5  C3  UNL d   1      -1.986   2.670   1.909  0.00  0.00    -0.047 A 
ATOM      6  C4  UNL d   1      -1.837   1.681   2.858  0.00  0.00    -0.004 A 
ENDROOT
TORSDOF 0
ENDMDL
