MODEL 1
REMARK minimizedAffinity 1.64750636
REMARK minimizedRMSD -1
REMARK  0 active torsions:
REMARK  status: ('A' for Active; 'I' for Inactive)
ROOT
ATOM      1  C   UNL d   1      -0.611   2.038   2.267  0.00  0.00     0.172 C 
ATOM      2  N   UNL d   1      -0.106   1.192   1.211  0.00  0.00    -0.070 N 
ATOM      3  C1  UNL d   1       1.085   0.517   1.231  0.00  0.00    -0.004 A 
ATOM      4  C2  UNL d   1       1.199  -0.173   0.043  0.00  0.00    -0.047 A 
ATOM      5  C3  UNL d   1       0.036   0.098  -0.717  0.00  0.00    -0.047 A 
ATOM      6  C4  UNL d   1      -0.754   0.946   0.030  0.00  0.00    -0.004 A 
ENDROOT
TORSDOF 0
ENDMDL
