MODEL 1
REMARK minimizedAffinity 1.80416822
REMARK minimizedRMSD -1
REMARK  0 active torsions:
REMARK  status: ('A' for Active; 'I' for Inactive)
ROOT
ATOM      1  C   UNL d   1      -3.659  -0.421  -0.624  0.00  0.00     0.172 C 
ATOM      2  N   UNL d   1      -2.442  -0.339  -1.397  0.00  0.00    -0.070 N 
ATOM      3  C1  UNL d   1      -1.509   0.660  -1.314  0.00  0.00    -0.004 A 
ATOM      4  C2  UNL d   1      -0.502   0.373  -2.210  0.00  0.00    -0.047 A 
ATOM      5  C3  UNL d   1      -0.842  -0.839  -2.855  0.00  0.00    -0.047 A 
ATOM      6  C4  UNL d   1      -2.048  -1.258  -2.333  0.00  0.00    -0.004 A 
ENDROOT
TORSDOF 0
ENDMDL
