MODEL 1
REMARK minimizedAffinity 0.455237478
REMARK minimizedRMSD -1
REMARK  1 active torsions:
REMARK  status: ('A' for Active; 'I' for Inactive)
REMARK    1  A    between atoms: C1_2  and  C2_3 
ROOT
ATOM      1  C2  UNL d   1       1.684   1.482  -1.834  0.00  0.00    -0.081 A 
ATOM      2  C3  UNL d   1       2.256   2.733  -1.572  0.00  0.00     0.006 A 
ATOM      3  C4  UNL d   1       3.065   2.921  -0.449  0.00  0.00     0.002 A 
ATOM      4  C5  UNL d   1       3.323   1.859   0.425  0.00  0.00    -0.080 A 
ATOM      5  C6  UNL d   1       4.215   2.039   1.618  0.00  0.00     0.076 C 
ATOM      6  C7  UNL d   1       2.738   0.614   0.173  0.00  0.00     0.002 A 
ATOM      7  C8  UNL d   1       1.928   0.426  -0.949  0.00  0.00     0.006 A 
ENDROOT
BRANCH   1   8
ATOM      8  C1  UNL d   1       0.864   1.261  -3.079  0.00  0.00     0.054 C 
ATOM      9  C   UNL d   1       1.266  -0.026  -3.785  0.00  0.00     0.018 C 
ENDBRANCH   1   8
TORSDOF 1
ENDMDL
