MODEL 1
REMARK minimizedAffinity 3.77817702
REMARK minimizedRMSD -1
REMARK  1 active torsions:
REMARK  status: ('A' for Active; 'I' for Inactive)
REMARK    1  A    between atoms: C1_2  and  C2_3 
ROOT
ATOM      1  C2  UNL d   1       1.330   3.658  -0.343  0.00  0.00    -0.081 A 
ATOM      2  C3  UNL d   1       1.559   2.645   0.597  0.00  0.00     0.006 A 
ATOM      3  C4  UNL d   1       1.544   1.303   0.210  0.00  0.00     0.002 A 
ATOM      4  C5  UNL d   1       1.307   0.951  -1.123  0.00  0.00    -0.080 A 
ATOM      5  C6  UNL d   1       1.317  -0.484  -1.557  0.00  0.00     0.076 C 
ATOM      6  C7  UNL d   1       1.060   1.962  -2.059  0.00  0.00     0.002 A 
ATOM      7  C8  UNL d   1       1.075   3.304  -1.672  0.00  0.00     0.006 A 
ENDROOT
BRANCH   1   8
ATOM      8  C1  UNL d   1       1.410   5.108   0.059  0.00  0.00     0.054 C 
ATOM      9  C   UNL d   1       1.694   6.000  -1.142  0.00  0.00     0.018 C 
ENDBRANCH   1   8
TORSDOF 1
ENDMDL
