MODEL 1
REMARK minimizedAffinity 3.5450747
REMARK minimizedRMSD -1
REMARK  1 active torsions:
REMARK  status: ('A' for Active; 'I' for Inactive)
REMARK    1  A    between atoms: C1_2  and  C2_3 
ROOT
ATOM      1  C2  UNL d   1      -2.447   2.178   4.099  0.00  0.00    -0.081 A 
ATOM      2  C3  UNL d   1      -1.412   2.205   3.157  0.00  0.00     0.006 A 
ATOM      3  C4  UNL d   1      -1.699   2.183   1.790  0.00  0.00     0.002 A 
ATOM      4  C5  UNL d   1      -3.024   2.142   1.343  0.00  0.00    -0.080 A 
ATOM      5  C6  UNL d   1      -3.346   2.149  -0.122  0.00  0.00     0.076 C 
ATOM      6  C7  UNL d   1      -4.057   2.098   2.285  0.00  0.00     0.002 A 
ATOM      7  C8  UNL d   1      -3.771   2.119   3.652  0.00  0.00     0.006 A 
ENDROOT
BRANCH   1   8
ATOM      8  C1  UNL d   1      -2.143   2.267   5.573  0.00  0.00     0.054 C 
ATOM      9  C   UNL d   1      -1.887   3.706   6.000  0.00  0.00     0.018 C 
ENDBRANCH   1   8
TORSDOF 1
ENDMDL
