MODEL 1
REMARK minimizedAffinity 0.41021356
REMARK minimizedRMSD -1
REMARK  1 active torsions:
REMARK  status: ('A' for Active; 'I' for Inactive)
REMARK    1  A    between atoms: C1_2  and  C2_3 
ROOT
ATOM      1  C2  UNL d   1       1.172   3.246   0.086  0.00  0.00    -0.081 A 
ATOM      2  C3  UNL d   1       1.309   2.722  -1.205  0.00  0.00     0.006 A 
ATOM      3  C4  UNL d   1       1.195   1.347  -1.428  0.00  0.00     0.002 A 
ATOM      4  C5  UNL d   1       0.935   0.476  -0.365  0.00  0.00    -0.080 A 
ATOM      5  C6  UNL d   1       0.780  -0.998  -0.595  0.00  0.00     0.076 C 
ATOM      6  C7  UNL d   1       0.815   0.997   0.928  0.00  0.00     0.002 A 
ATOM      7  C8  UNL d   1       0.929   2.371   1.151  0.00  0.00     0.006 A 
ENDROOT
BRANCH   1   8
ATOM      8  C1  UNL d   1       1.230   4.734   0.320  0.00  0.00     0.054 C 
ATOM      9  C   UNL d   1       1.904   5.450  -0.842  0.00  0.00     0.018 C 
ENDBRANCH   1   8
TORSDOF 1
ENDMDL
