MODEL 1
REMARK minimizedAffinity 6.82068729
REMARK minimizedRMSD -1
REMARK  1 active torsions:
REMARK  status: ('A' for Active; 'I' for Inactive)
REMARK    1  A    between atoms: C1_2  and  C2_3 
ROOT
ATOM      1  C2  UNL d   1       1.404   0.263  -0.189  0.00  0.00    -0.081 A 
ATOM      2  C3  UNL d   1       1.421   0.240  -1.589  0.00  0.00     0.006 A 
ATOM      3  C4  UNL d   1       1.027   1.362  -2.321  0.00  0.00     0.002 A 
ATOM      4  C5  UNL d   1       0.616   2.528  -1.666  0.00  0.00    -0.080 A 
ATOM      5  C6  UNL d   1       0.219   3.750  -2.440  0.00  0.00     0.076 C 
ATOM      6  C7  UNL d   1       0.582   2.546  -0.268  0.00  0.00     0.002 A 
ATOM      7  C8  UNL d   1       0.975   1.424   0.465  0.00  0.00     0.006 A 
ENDROOT
BRANCH   1   8
ATOM      8  C1  UNL d   1       1.890  -0.923   0.604  0.00  0.00     0.054 C 
ATOM      9  C   UNL d   1       3.339  -0.746   1.032  0.00  0.00     0.018 C 
ENDBRANCH   1   8
TORSDOF 1
ENDMDL
