MODEL 1
REMARK minimizedAffinity 7.80608845
REMARK minimizedRMSD -1
REMARK  1 active torsions:
REMARK  status: ('A' for Active; 'I' for Inactive)
REMARK    1  A    between atoms: C1_2  and  C2_3 
ROOT
ATOM      1  C2  UNL d   1       1.185  -0.883  -0.626  0.00  0.00    -0.081 A 
ATOM      2  C3  UNL d   1       0.894   0.469  -0.407  0.00  0.00     0.006 A 
ATOM      3  C4  UNL d   1       1.817   1.297   0.237  0.00  0.00     0.002 A 
ATOM      4  C5  UNL d   1       3.048   0.789   0.665  0.00  0.00    -0.080 A 
ATOM      5  C6  UNL d   1       4.060   1.673   1.330  0.00  0.00     0.076 C 
ATOM      6  C7  UNL d   1       3.332  -0.566   0.462  0.00  0.00     0.002 A 
ATOM      7  C8  UNL d   1       2.409  -1.394  -0.181  0.00  0.00     0.006 A 
ENDROOT
BRANCH   1   8
ATOM      8  C1  UNL d   1       0.219  -1.763  -1.378  0.00  0.00     0.054 C 
ATOM      9  C   UNL d   1       0.018  -3.095  -0.669  0.00  0.00     0.018 C 
ENDBRANCH   1   8
TORSDOF 1
ENDMDL
