MODEL 1
REMARK minimizedAffinity -2.64562011
REMARK minimizedRMSD -1
REMARK  1 active torsions:
REMARK  status: ('A' for Active; 'I' for Inactive)
REMARK    1  A    between atoms: C1_2  and  C2_3 
ROOT
ATOM      1  C2  UNL d   1       1.477   0.398  -0.324  0.00  0.00    -0.081 A 
ATOM      2  C3  UNL d   1       1.469   0.742  -1.681  0.00  0.00     0.006 A 
ATOM      3  C4  UNL d   1       1.137   2.038  -2.081  0.00  0.00     0.002 A 
ATOM      4  C5  UNL d   1       0.817   3.014  -1.131  0.00  0.00    -0.080 A 
ATOM      5  C6  UNL d   1       0.489   4.418  -1.545  0.00  0.00     0.076 C 
ATOM      6  C7  UNL d   1       0.808   2.666   0.224  0.00  0.00     0.002 A 
ATOM      7  C8  UNL d   1       1.139   1.369   0.624  0.00  0.00     0.006 A 
ENDROOT
BRANCH   1   8
ATOM      8  C1  UNL d   1       1.897  -0.982   0.115  0.00  0.00     0.054 C 
ATOM      9  C   UNL d   1       3.373  -1.020   0.484  0.00  0.00     0.018 C 
ENDBRANCH   1   8
TORSDOF 1
ENDMDL
