MODEL 1
REMARK minimizedAffinity 4.2854495
REMARK minimizedRMSD -1
REMARK  1 active torsions:
REMARK  status: ('A' for Active; 'I' for Inactive)
REMARK    1  A    between atoms: C1_2  and  C2_3 
ROOT
ATOM      1  C2  UNL d   1       0.808   2.329  -1.413  0.00  0.00    -0.081 A 
ATOM      2  C3  UNL d   1       1.123   2.220  -0.053  0.00  0.00     0.006 A 
ATOM      3  C4  UNL d   1       1.342   0.967   0.524  0.00  0.00     0.002 A 
ATOM      4  C5  UNL d   1       1.258  -0.196  -0.250  0.00  0.00    -0.080 A 
ATOM      5  C6  UNL d   1       1.520  -1.545   0.351  0.00  0.00     0.076 C 
ATOM      6  C7  UNL d   1       0.925  -0.088  -1.605  0.00  0.00     0.002 A 
ATOM      7  C8  UNL d   1       0.705   1.165  -2.182  0.00  0.00     0.006 A 
ENDROOT
BRANCH   1   8
ATOM      8  C1  UNL d   1       0.635   3.683  -2.053  0.00  0.00     0.054 C 
ATOM      9  C   UNL d   1      -0.577   3.709  -2.974  0.00  0.00     0.018 C 
ENDBRANCH   1   8
TORSDOF 1
ENDMDL
