MODEL 1
REMARK minimizedAffinity 2.78232455
REMARK minimizedRMSD -1
REMARK  1 active torsions:
REMARK  status: ('A' for Active; 'I' for Inactive)
REMARK    1  A    between atoms: C1_2  and  C2_3 
ROOT
ATOM      1  C2  UNL d   1       0.883   1.072  -1.219  0.00  0.00    -0.081 A 
ATOM      2  C3  UNL d   1       1.095   1.775  -2.411  0.00  0.00     0.006 A 
ATOM      3  C4  UNL d   1       1.191   3.168  -2.404  0.00  0.00     0.002 A 
ATOM      4  C5  UNL d   1       1.085   3.881  -1.205  0.00  0.00    -0.080 A 
ATOM      5  C6  UNL d   1       1.217   5.375  -1.179  0.00  0.00     0.076 C 
ATOM      6  C7  UNL d   1       0.856   3.180  -0.016  0.00  0.00     0.002 A 
ATOM      7  C8  UNL d   1       0.759   1.787  -0.022  0.00  0.00     0.006 A 
ENDROOT
BRANCH   1   8
ATOM      8  C1  UNL d   1       0.843  -0.435  -1.214  0.00  0.00     0.054 C 
ATOM      9  C   UNL d   1       1.682  -1.007  -0.080  0.00  0.00     0.018 C 
ENDBRANCH   1   8
TORSDOF 1
ENDMDL
