MODEL 1
REMARK minimizedAffinity 3.27483106
REMARK minimizedRMSD -1
REMARK  1 active torsions:
REMARK  status: ('A' for Active; 'I' for Inactive)
REMARK    1  A    between atoms: C1_2  and  C2_3 
ROOT
ATOM      1  C2  UNL d   1       3.222  -0.419  -0.267  0.00  0.00    -0.081 A 
ATOM      2  C3  UNL d   1       3.058   0.077  -1.566  0.00  0.00     0.006 A 
ATOM      3  C4  UNL d   1       1.926   0.822  -1.902  0.00  0.00     0.002 A 
ATOM      4  C5  UNL d   1       0.942   1.090  -0.944  0.00  0.00    -0.080 A 
ATOM      5  C6  UNL d   1      -0.264   1.914  -1.283  0.00  0.00     0.076 C 
ATOM      6  C7  UNL d   1       1.097   0.579   0.350  0.00  0.00     0.002 A 
ATOM      7  C8  UNL d   1       2.229  -0.166   0.686  0.00  0.00     0.006 A 
ENDROOT
BRANCH   1   8
ATOM      8  C1  UNL d   1       4.473  -1.168   0.116  0.00  0.00     0.054 C 
ATOM      9  C   UNL d   1       4.246  -2.672   0.095  0.00  0.00     0.018 C 
ENDBRANCH   1   8
TORSDOF 1
ENDMDL
