MODEL 1
REMARK minimizedAffinity 8.50170898
REMARK minimizedRMSD -1
REMARK  1 active torsions:
REMARK  status: ('A' for Active; 'I' for Inactive)
REMARK    1  A    between atoms: C1_2  and  C2_3 
ROOT
ATOM      1  C2  UNL d   1       1.010   2.262  -1.555  0.00  0.00    -0.081 A 
ATOM      2  C3  UNL d   1       1.637   2.130  -0.310  0.00  0.00     0.006 A 
ATOM      3  C4  UNL d   1       1.950   0.865   0.195  0.00  0.00     0.002 A 
ATOM      4  C5  UNL d   1       1.648  -0.287  -0.540  0.00  0.00    -0.080 A 
ATOM      5  C6  UNL d   1       2.005  -1.649  -0.023  0.00  0.00     0.076 C 
ATOM      6  C7  UNL d   1       1.005  -0.155  -1.776  0.00  0.00     0.002 A 
ATOM      7  C8  UNL d   1       0.692   1.109  -2.280  0.00  0.00     0.006 A 
ENDROOT
BRANCH   1   8
ATOM      8  C1  UNL d   1       0.730   3.627  -2.131  0.00  0.00     0.054 C 
ATOM      9  C   UNL d   1       1.469   4.713  -1.363  0.00  0.00     0.018 C 
ENDBRANCH   1   8
TORSDOF 1
ENDMDL
