MODEL 1
REMARK minimizedAffinity -3.89413643
REMARK minimizedRMSD -1
REMARK  0 active torsions:
REMARK  status: ('A' for Active; 'I' for Inactive)
ROOT
ATOM      1  C   UNL d   1       0.424  -0.664  -0.716  0.00  0.00     0.172 C 
ATOM      2  N   UNL d   1      -0.350   0.249   0.092  0.00  0.00    -0.070 N 
ATOM      3  C1  UNL d   1      -0.935   1.406  -0.349  0.00  0.00    -0.004 A 
ATOM      4  C2  UNL d   1      -1.579   1.987   0.721  0.00  0.00    -0.047 A 
ATOM      5  C3  UNL d   1      -1.374   1.152   1.844  0.00  0.00    -0.047 A 
ATOM      6  C4  UNL d   1      -0.610   0.083   1.427  0.00  0.00    -0.004 A 
ENDROOT
TORSDOF 0
ENDMDL
