MODEL 1
REMARK minimizedAffinity -2.65137267
REMARK minimizedRMSD -1
REMARK  0 active torsions:
REMARK  status: ('A' for Active; 'I' for Inactive)
ROOT
ATOM      1  C   UNL d   1       0.692  -0.837  -0.059  0.00  0.00     0.172 C 
ATOM      2  N   UNL d   1       0.635  -1.910  -1.024  0.00  0.00    -0.070 N 
ATOM      3  C1  UNL d   1       1.040  -3.200  -0.809  0.00  0.00    -0.004 A 
ATOM      4  C2  UNL d   1       0.821  -3.910  -1.969  0.00  0.00    -0.047 A 
ATOM      5  C3  UNL d   1       0.266  -3.016  -2.915  0.00  0.00    -0.047 A 
ATOM      6  C4  UNL d   1       0.161  -1.785  -2.303  0.00  0.00    -0.004 A 
ENDROOT
TORSDOF 0
ENDMDL
