MODEL 1
REMARK minimizedAffinity -3.04612255
REMARK minimizedRMSD -1
REMARK  0 active torsions:
REMARK  status: ('A' for Active; 'I' for Inactive)
ROOT
ATOM      1  C   UNL d   1       0.792  -0.764  -1.029  0.00  0.00     0.172 C 
ATOM      2  N   UNL d   1      -0.078   0.107  -0.274  0.00  0.00    -0.070 N 
ATOM      3  C1  UNL d   1      -0.559  -0.140   0.984  0.00  0.00    -0.004 A 
ATOM      4  C2  UNL d   1      -1.349   0.928   1.351  0.00  0.00    -0.047 A 
ATOM      5  C3  UNL d   1      -1.342   1.849   0.276  0.00  0.00    -0.047 A 
ATOM      6  C4  UNL d   1      -0.548   1.315  -0.716  0.00  0.00    -0.004 A 
ENDROOT
TORSDOF 0
ENDMDL
