MODEL 1
REMARK minimizedAffinity -0.799304783
REMARK minimizedRMSD -1
REMARK  0 active torsions:
REMARK  status: ('A' for Active; 'I' for Inactive)
ROOT
ATOM      1  C   UNL d   1       1.114  -2.467  -1.496  0.00  0.00     0.172 C 
ATOM      2  N   UNL d   1       0.548  -1.332  -0.805  0.00  0.00    -0.070 N 
ATOM      3  C1  UNL d   1      -0.054  -1.365   0.424  0.00  0.00    -0.004 A 
ATOM      4  C2  UNL d   1      -0.458  -0.083   0.731  0.00  0.00    -0.047 A 
ATOM      5  C3  UNL d   1      -0.087   0.748  -0.353  0.00  0.00    -0.047 A 
ATOM      6  C4  UNL d   1       0.534  -0.051  -1.290  0.00  0.00    -0.004 A 
ENDROOT
TORSDOF 0
ENDMDL
