MODEL 1
REMARK minimizedAffinity -3.4959352
REMARK minimizedRMSD -1
REMARK  0 active torsions:
REMARK  status: ('A' for Active; 'I' for Inactive)
ROOT
ATOM      1  C   UNL d   1       0.686  -0.752  -0.695  0.00  0.00     0.172 C 
ATOM      2  N   UNL d   1      -0.122   0.013   0.226  0.00  0.00    -0.070 N 
ATOM      3  C1  UNL d   1      -0.245  -0.225   1.569  0.00  0.00    -0.004 A 
ATOM      4  C2  UNL d   1      -1.102   0.721   2.088  0.00  0.00    -0.047 A 
ATOM      5  C3  UNL d   1      -1.509   1.555   1.021  0.00  0.00    -0.047 A 
ATOM      6  C4  UNL d   1      -0.888   1.095  -0.121  0.00  0.00    -0.004 A 
ENDROOT
TORSDOF 0
ENDMDL
