MODEL 1
REMARK minimizedAffinity -3.94096851
REMARK minimizedRMSD -1
REMARK  0 active torsions:
REMARK  status: ('A' for Active; 'I' for Inactive)
ROOT
ATOM      1  C   UNL d   1       0.500  -0.779  -0.468  0.00  0.00     0.172 C 
ATOM      2  N   UNL d   1      -0.420   0.035   0.292  0.00  0.00    -0.070 N 
ATOM      3  C1  UNL d   1      -0.963   1.223  -0.120  0.00  0.00    -0.004 A 
ATOM      4  C2  UNL d   1      -1.786   1.682   0.885  0.00  0.00    -0.047 A 
ATOM      5  C3  UNL d   1      -1.736   0.738   1.938  0.00  0.00    -0.047 A 
ATOM      6  C4  UNL d   1      -0.883  -0.271   1.544  0.00  0.00    -0.004 A 
ENDROOT
TORSDOF 0
ENDMDL
