MODEL 1
REMARK minimizedAffinity -2.81666446
REMARK minimizedRMSD -1
REMARK  0 active torsions:
REMARK  status: ('A' for Active; 'I' for Inactive)
ROOT
ATOM      1  C   UNL d   1      -2.002   1.827   1.111  0.00  0.00     0.172 C 
ATOM      2  N   UNL d   1      -0.937   1.102   0.458  0.00  0.00    -0.070 N 
ATOM      3  C1  UNL d   1      -0.259   0.034   0.983  0.00  0.00    -0.004 A 
ATOM      4  C2  UNL d   1       0.673  -0.372   0.053  0.00  0.00    -0.047 A 
ATOM      5  C3  UNL d   1       0.552   0.482  -1.069  0.00  0.00    -0.047 A 
ATOM      6  C4  UNL d   1      -0.452   1.385  -0.792  0.00  0.00    -0.004 A 
ENDROOT
TORSDOF 0
ENDMDL
