MODEL 1
REMARK minimizedAffinity -3.93849421
REMARK minimizedRMSD -1
REMARK  0 active torsions:
REMARK  status: ('A' for Active; 'I' for Inactive)
ROOT
ATOM      1  C   UNL d   1       0.514  -0.534  -0.431  0.00  0.00     0.172 C 
ATOM      2  N   UNL d   1      -0.432  -0.008   0.525  0.00  0.00    -0.070 N 
ATOM      3  C1  UNL d   1      -0.610  -0.462   1.805  0.00  0.00    -0.004 A 
ATOM      4  C2  UNL d   1      -1.599   0.300   2.389  0.00  0.00    -0.047 A 
ATOM      5  C3  UNL d   1      -2.031   1.244   1.427  0.00  0.00    -0.047 A 
ATOM      6  C4  UNL d   1      -1.291   1.031   0.283  0.00  0.00    -0.004 A 
ENDROOT
TORSDOF 0
ENDMDL
