MODEL 1
REMARK minimizedAffinity -2.43297195
REMARK minimizedRMSD -1
REMARK  0 active torsions:
REMARK  status: ('A' for Active; 'I' for Inactive)
ROOT
ATOM      1  C   UNL d   1      -1.492   1.495   0.686  0.00  0.00     0.172 C 
ATOM      2  N   UNL d   1      -0.542   0.554   0.140  0.00  0.00    -0.070 N 
ATOM      3  C1  UNL d   1      -0.060  -0.556   0.780  0.00  0.00    -0.004 A 
ATOM      4  C2  UNL d   1       0.819  -1.187  -0.074  0.00  0.00    -0.047 A 
ATOM      5  C3  UNL d   1       0.867  -0.429  -1.268  0.00  0.00    -0.047 A 
ATOM      6  C4  UNL d   1       0.015   0.643  -1.108  0.00  0.00    -0.004 A 
ENDROOT
TORSDOF 0
ENDMDL
