MODEL 1
REMARK minimizedAffinity -2.66470242
REMARK minimizedRMSD -1
REMARK  0 active torsions:
REMARK  status: ('A' for Active; 'I' for Inactive)
ROOT
ATOM      1  C   UNL d   1      -2.231   1.877   1.555  0.00  0.00     0.172 C 
ATOM      2  N   UNL d   1      -1.255   1.005   0.945  0.00  0.00    -0.070 N 
ATOM      3  C1  UNL d   1      -0.599   1.241  -0.233  0.00  0.00    -0.004 A 
ATOM      4  C2  UNL d   1       0.243   0.176  -0.468  0.00  0.00    -0.047 A 
ATOM      5  C3  UNL d   1       0.087  -0.732   0.606  0.00  0.00    -0.047 A 
ATOM      6  C4  UNL d   1      -0.846  -0.194   1.466  0.00  0.00    -0.004 A 
ENDROOT
TORSDOF 0
ENDMDL
