MODEL 1
REMARK minimizedAffinity -1.84741354
REMARK minimizedRMSD -1
REMARK  0 active torsions:
REMARK  status: ('A' for Active; 'I' for Inactive)
ROOT
ATOM      1  C   UNL d   1       0.908  -0.793  -0.402  0.00  0.00     0.172 C 
ATOM      2  N   UNL d   1       0.102   0.036   0.463  0.00  0.00    -0.070 N 
ATOM      3  C1  UNL d   1      -0.524  -0.378   1.608  0.00  0.00    -0.004 A 
ATOM      4  C2  UNL d   1      -1.187   0.706   2.142  0.00  0.00    -0.047 A 
ATOM      5  C3  UNL d   1      -0.952   1.809   1.288  0.00  0.00    -0.047 A 
ATOM      6  C4  UNL d   1      -0.150   1.366   0.257  0.00  0.00    -0.004 A 
ENDROOT
TORSDOF 0
ENDMDL
