MODEL 1
REMARK minimizedAffinity -2.99393964
REMARK minimizedRMSD -1
REMARK  0 active torsions:
REMARK  status: ('A' for Active; 'I' for Inactive)
ROOT
ATOM      1  C   UNL d   1       0.599  -0.514  -0.538  0.00  0.00     0.172 C 
ATOM      2  N   UNL d   1      -0.089   0.487   0.244  0.00  0.00    -0.070 N 
ATOM      3  C1  UNL d   1      -0.310   1.784  -0.135  0.00  0.00    -0.004 A 
ATOM      4  C2  UNL d   1      -0.996   2.410   0.883  0.00  0.00    -0.047 A 
ATOM      5  C3  UNL d   1      -1.193   1.457   1.910  0.00  0.00    -0.047 A 
ATOM      6  C4  UNL d   1      -0.622   0.275   1.488  0.00  0.00    -0.004 A 
ENDROOT
TORSDOF 0
ENDMDL
