MODEL 1
REMARK minimizedAffinity -3.77271104
REMARK minimizedRMSD -1
REMARK  0 active torsions:
REMARK  status: ('A' for Active; 'I' for Inactive)
ROOT
ATOM      1  C   UNL d   1      -1.548   2.709   0.859  0.00  0.00     0.172 C 
ATOM      2  N   UNL d   1      -0.827   1.458   0.854  0.00  0.00    -0.070 N 
ATOM      3  C1  UNL d   1      -0.234   0.883  -0.238  0.00  0.00    -0.004 A 
ATOM      4  C2  UNL d   1       0.347  -0.298   0.170  0.00  0.00    -0.047 A 
ATOM      5  C3  UNL d   1       0.094  -0.438   1.555  0.00  0.00    -0.047 A 
ATOM      6  C4  UNL d   1      -0.635   0.663   1.953  0.00  0.00    -0.004 A 
ENDROOT
TORSDOF 0
ENDMDL
