MODEL 1
REMARK minimizedAffinity -3.44274354
REMARK minimizedRMSD -1
REMARK  0 active torsions:
REMARK  status: ('A' for Active; 'I' for Inactive)
ROOT
ATOM      1  C   UNL d   1       0.771  -0.042  -0.791  0.00  0.00     0.172 C 
ATOM      2  N   UNL d   1      -0.309   0.528  -0.020  0.00  0.00    -0.070 N 
ATOM      3  C1  UNL d   1      -1.380   1.212  -0.531  0.00  0.00    -0.004 A 
ATOM      4  C2  UNL d   1      -2.182   1.588   0.524  0.00  0.00    -0.047 A 
ATOM      5  C3  UNL d   1      -1.572   1.115   1.710  0.00  0.00    -0.047 A 
ATOM      6  C4  UNL d   1      -0.414   0.462   1.344  0.00  0.00    -0.004 A 
ENDROOT
TORSDOF 0
ENDMDL
