MODEL 1
REMARK minimizedAffinity -3.85420036
REMARK minimizedRMSD -1
REMARK  0 active torsions:
REMARK  status: ('A' for Active; 'I' for Inactive)
ROOT
ATOM      1  C   UNL d   1       0.405  -0.896  -0.317  0.00  0.00     0.172 C 
ATOM      2  N   UNL d   1      -0.426   0.025   0.422  0.00  0.00    -0.070 N 
ATOM      3  C1  UNL d   1      -1.007  -0.222   1.637  0.00  0.00    -0.004 A 
ATOM      4  C2  UNL d   1      -1.715   0.902   2.002  0.00  0.00    -0.047 A 
ATOM      5  C3  UNL d   1      -1.556   1.858   0.971  0.00  0.00    -0.047 A 
ATOM      6  C4  UNL d   1      -0.753   1.289   0.005  0.00  0.00    -0.004 A 
ENDROOT
TORSDOF 0
ENDMDL
