MODEL 1
REMARK minimizedAffinity -3.02275705
REMARK minimizedRMSD -1
REMARK  0 active torsions:
REMARK  status: ('A' for Active; 'I' for Inactive)
ROOT
ATOM      1  C   UNL d   1      -1.952   1.600   1.465  0.00  0.00     0.172 C 
ATOM      2  N   UNL d   1      -0.976   0.738   0.841  0.00  0.00    -0.070 N 
ATOM      3  C1  UNL d   1       0.168   1.153   0.212  0.00  0.00    -0.004 A 
ATOM      4  C2  UNL d   1       0.826   0.033  -0.248  0.00  0.00    -0.047 A 
ATOM      5  C3  UNL d   1       0.050  -1.094   0.116  0.00  0.00    -0.047 A 
ATOM      6  C4  UNL d   1      -1.059  -0.628   0.789  0.00  0.00    -0.004 A 
ENDROOT
TORSDOF 0
ENDMDL
