MODEL 1
REMARK minimizedAffinity -1.54193354
REMARK minimizedRMSD -1
REMARK  0 active torsions:
REMARK  status: ('A' for Active; 'I' for Inactive)
ROOT
ATOM      1  C   UNL d   1       1.056  -1.704  -1.444  0.00  0.00     0.172 C 
ATOM      2  N   UNL d   1       0.263  -0.763  -0.689  0.00  0.00    -0.070 N 
ATOM      3  C1  UNL d   1      -0.066  -0.877   0.635  0.00  0.00    -0.004 A 
ATOM      4  C2  UNL d   1      -0.828   0.220   0.977  0.00  0.00    -0.047 A 
ATOM      5  C3  UNL d   1      -0.962   1.020  -0.182  0.00  0.00    -0.047 A 
ATOM      6  C4  UNL d   1      -0.278   0.389  -1.199  0.00  0.00    -0.004 A 
ENDROOT
TORSDOF 0
ENDMDL
