MODEL 1
REMARK minimizedAffinity 22.2443523
REMARK minimizedRMSD -1
REMARK  0 active torsions:
REMARK  status: ('A' for Active; 'I' for Inactive)
ROOT
ATOM      1  C   UNL d   1       1.476  -3.210  -2.238  0.00  0.00     0.077 C 
ATOM      2  C1  UNL d   1       1.678  -4.171  -3.372  0.00  0.00    -0.074 A 
ATOM      3  C2  UNL d   1       0.698  -5.114  -3.698  0.00  0.00    -0.005 A 
ATOM      4  C3  UNL d   1       0.896  -5.994  -4.762  0.00  0.00     0.006 A 
ATOM      5  C4  UNL d   1       2.074  -5.941  -5.508  0.00  0.00    -0.005 A 
ATOM      6  C5  UNL d   1       3.065  -5.004  -5.197  0.00  0.00    -0.074 A 
ATOM      7  C6  UNL d   1       4.332  -4.926  -5.995  0.00  0.00     0.077 C 
ATOM      8  C7  UNL d   1       2.855  -4.118  -4.131  0.00  0.00    -0.001 A 
ENDROOT
TORSDOF 0
ENDMDL
