MODEL 1
REMARK minimizedAffinity 20.1327152
REMARK minimizedRMSD -1
REMARK  0 active torsions:
REMARK  status: ('A' for Active; 'I' for Inactive)
ROOT
ATOM      1  C   UNL d   1       2.235  -4.120  -0.315  0.00  0.00     0.077 C 
ATOM      2  C1  UNL d   1       1.412  -4.148  -1.568  0.00  0.00    -0.074 A 
ATOM      3  C2  UNL d   1       0.308  -3.304  -1.722  0.00  0.00    -0.005 A 
ATOM      4  C3  UNL d   1      -0.442  -3.335  -2.898  0.00  0.00     0.006 A 
ATOM      5  C4  UNL d   1      -0.097  -4.208  -3.929  0.00  0.00    -0.005 A 
ATOM      6  C5  UNL d   1       1.005  -5.059  -3.794  0.00  0.00    -0.074 A 
ATOM      7  C6  UNL d   1       1.396  -5.997  -4.896  0.00  0.00     0.077 C 
ATOM      8  C7  UNL d   1       1.758  -5.017  -2.612  0.00  0.00    -0.001 A 
ENDROOT
TORSDOF 0
ENDMDL
