MODEL 1
REMARK minimizedAffinity 17.193161
REMARK minimizedRMSD -1
REMARK  0 active torsions:
REMARK  status: ('A' for Active; 'I' for Inactive)
ROOT
ATOM      1  C   UNL d   1       2.080  -5.915   2.133  0.00  0.00     0.077 C 
ATOM      2  C1  UNL d   1       1.234  -4.723   1.796  0.00  0.00    -0.074 A 
ATOM      3  C2  UNL d   1      -0.117  -4.871   1.469  0.00  0.00    -0.005 A 
ATOM      4  C3  UNL d   1      -0.894  -3.752   1.166  0.00  0.00     0.006 A 
ATOM      5  C4  UNL d   1      -0.328  -2.477   1.188  0.00  0.00    -0.005 A 
ATOM      6  C5  UNL d   1       1.022  -2.310   1.513  0.00  0.00    -0.074 A 
ATOM      7  C6  UNL d   1       1.644  -0.946   1.551  0.00  0.00     0.077 C 
ATOM      8  C7  UNL d   1       1.794  -3.438   1.823  0.00  0.00    -0.001 A 
ENDROOT
TORSDOF 0
ENDMDL
