MODEL 1
REMARK minimizedAffinity 13.8500471
REMARK minimizedRMSD -1
REMARK  0 active torsions:
REMARK  status: ('A' for Active; 'I' for Inactive)
ROOT
ATOM      1  C   UNL d   1       3.533   1.343  -2.977  0.00  0.00     0.077 C 
ATOM      2  C1  UNL d   1       2.403   1.883  -2.152  0.00  0.00    -0.074 A 
ATOM      3  C2  UNL d   1       2.569   2.143  -0.788  0.00  0.00    -0.005 A 
ATOM      4  C3  UNL d   1       1.512   2.653  -0.035  0.00  0.00     0.006 A 
ATOM      5  C4  UNL d   1       0.280   2.909  -0.637  0.00  0.00    -0.005 A 
ATOM      6  C5  UNL d   1       0.094   2.656  -2.000  0.00  0.00    -0.074 A 
ATOM      7  C6  UNL d   1      -1.221   2.934  -2.665  0.00  0.00     0.077 C 
ATOM      8  C7  UNL d   1       1.164   2.149  -2.751  0.00  0.00    -0.001 A 
ENDROOT
TORSDOF 0
ENDMDL
