MODEL 1
REMARK minimizedAffinity 20.3161793
REMARK minimizedRMSD -1
REMARK  0 active torsions:
REMARK  status: ('A' for Active; 'I' for Inactive)
ROOT
ATOM      1  C   UNL d   1       3.324   0.606   1.489  0.00  0.00     0.077 C 
ATOM      2  C1  UNL d   1       3.880   0.071   0.203  0.00  0.00    -0.074 A 
ATOM      3  C2  UNL d   1       3.963  -1.307  -0.027  0.00  0.00    -0.005 A 
ATOM      4  C3  UNL d   1       4.473  -1.789  -1.232  0.00  0.00     0.006 A 
ATOM      5  C4  UNL d   1       4.906  -0.901  -2.217  0.00  0.00    -0.005 A 
ATOM      6  C5  UNL d   1       4.830   0.479  -2.006  0.00  0.00    -0.074 A 
ATOM      7  C6  UNL d   1       5.281   1.447  -3.059  0.00  0.00     0.077 C 
ATOM      8  C7  UNL d   1       4.309   0.956  -0.795  0.00  0.00    -0.001 A 
ENDROOT
TORSDOF 0
ENDMDL
