MODEL 1
REMARK minimizedAffinity 18.3050938
REMARK minimizedRMSD -1
REMARK  0 active torsions:
REMARK  status: ('A' for Active; 'I' for Inactive)
ROOT
ATOM      1  C   UNL d   1       0.722  -1.780   1.535  0.00  0.00     0.077 C 
ATOM      2  C1  UNL d   1       1.506  -0.549   1.191  0.00  0.00    -0.074 A 
ATOM      3  C2  UNL d   1       2.828  -0.394   1.620  0.00  0.00    -0.005 A 
ATOM      4  C3  UNL d   1       3.547   0.752   1.283  0.00  0.00     0.006 A 
ATOM      5  C4  UNL d   1       2.953   1.755   0.516  0.00  0.00    -0.005 A 
ATOM      6  C5  UNL d   1       1.632   1.618   0.077  0.00  0.00    -0.074 A 
ATOM      7  C6  UNL d   1       0.981   2.681  -0.757  0.00  0.00     0.077 C 
ATOM      8  C7  UNL d   1       0.918   0.459   0.413  0.00  0.00    -0.001 A 
ENDROOT
TORSDOF 0
ENDMDL
