MODEL 1
REMARK minimizedAffinity 3.0585618
REMARK minimizedRMSD -1
REMARK  0 active torsions:
REMARK  status: ('A' for Active; 'I' for Inactive)
ROOT
ATOM      1  C   UNL d   1      -0.154  -3.763  -2.650  0.00  0.00     0.077 C 
ATOM      2  C1  UNL d   1       0.568  -4.373  -3.815  0.00  0.00    -0.074 A 
ATOM      3  C2  UNL d   1       0.018  -5.450  -4.518  0.00  0.00    -0.005 A 
ATOM      4  C3  UNL d   1       0.697  -6.000  -5.605  0.00  0.00     0.006 A 
ATOM      5  C4  UNL d   1       1.930  -5.480  -6.000  0.00  0.00    -0.005 A 
ATOM      6  C5  UNL d   1       2.495  -4.403  -5.309  0.00  0.00    -0.074 A 
ATOM      7  C6  UNL d   1       3.815  -3.825  -5.727  0.00  0.00     0.077 C 
ATOM      8  C7  UNL d   1       1.804  -3.851  -4.222  0.00  0.00    -0.001 A 
ENDROOT
TORSDOF 0
ENDMDL
