MODEL 1
REMARK minimizedAffinity 14.6615067
REMARK minimizedRMSD -1
REMARK  0 active torsions:
REMARK  status: ('A' for Active; 'I' for Inactive)
ROOT
ATOM      1  C   UNL d   1       2.227  -5.953   1.441  0.00  0.00     0.077 C 
ATOM      2  C1  UNL d   1       1.305  -4.770   1.395  0.00  0.00    -0.074 A 
ATOM      3  C2  UNL d   1       1.726  -3.513   1.841  0.00  0.00    -0.005 A 
ATOM      4  C3  UNL d   1       0.860  -2.421   1.784  0.00  0.00     0.006 A 
ATOM      5  C4  UNL d   1      -0.432  -2.574   1.280  0.00  0.00    -0.005 A 
ATOM      6  C5  UNL d   1      -0.870  -3.823   0.829  0.00  0.00    -0.074 A 
ATOM      7  C6  UNL d   1      -2.252  -4.003   0.275  0.00  0.00     0.077 C 
ATOM      8  C7  UNL d   1       0.008  -4.915   0.883  0.00  0.00    -0.001 A 
ENDROOT
TORSDOF 0
ENDMDL
