MODEL 1
REMARK minimizedAffinity 11.6793499
REMARK minimizedRMSD -1
REMARK  0 active torsions:
REMARK  status: ('A' for Active; 'I' for Inactive)
ROOT
ATOM      1  C   UNL d   1      -5.647  -2.882   5.674  0.00  0.00     0.077 C 
ATOM      2  C1  UNL d   1      -4.713  -2.782   4.505  0.00  0.00    -0.074 A 
ATOM      3  C2  UNL d   1      -3.365  -2.461   4.688  0.00  0.00    -0.005 A 
ATOM      4  C3  UNL d   1      -2.506  -2.381   3.592  0.00  0.00     0.006 A 
ATOM      5  C4  UNL d   1      -2.987  -2.620   2.304  0.00  0.00    -0.005 A 
ATOM      6  C5  UNL d   1      -4.332  -2.944   2.102  0.00  0.00    -0.074 A 
ATOM      7  C6  UNL d   1      -4.863  -3.214   0.725  0.00  0.00     0.077 C 
ATOM      8  C7  UNL d   1      -5.187  -3.029   3.209  0.00  0.00    -0.001 A 
ENDROOT
TORSDOF 0
ENDMDL
