MODEL 1
REMARK minimizedAffinity 10.8594055
REMARK minimizedRMSD -1
REMARK  0 active torsions:
REMARK  status: ('A' for Active; 'I' for Inactive)
ROOT
ATOM      1  C   UNL d   1       5.730  -4.477  -5.970  0.00  0.00     0.077 C 
ATOM      2  C1  UNL d   1       4.346  -4.215  -5.455  0.00  0.00    -0.074 A 
ATOM      3  C2  UNL d   1       4.046  -3.034  -4.768  0.00  0.00    -0.005 A 
ATOM      4  C3  UNL d   1       2.752  -2.800  -4.303  0.00  0.00     0.006 A 
ATOM      5  C4  UNL d   1       1.746  -3.743  -4.521  0.00  0.00    -0.005 A 
ATOM      6  C5  UNL d   1       2.027  -4.929  -5.206  0.00  0.00    -0.074 A 
ATOM      7  C6  UNL d   1       0.956  -5.948  -5.457  0.00  0.00     0.077 C 
ATOM      8  C7  UNL d   1       3.328  -5.154  -5.676  0.00  0.00    -0.001 A 
ENDROOT
TORSDOF 0
ENDMDL
