MODEL 1
REMARK minimizedAffinity 14.3498554
REMARK minimizedRMSD -1
REMARK  0 active torsions:
REMARK  status: ('A' for Active; 'I' for Inactive)
ROOT
ATOM      1  C   UNL d   1       5.325  -0.010   2.640  0.00  0.00     0.077 C 
ATOM      2  C1  UNL d   1       3.991   0.136   1.970  0.00  0.00    -0.074 A 
ATOM      3  C2  UNL d   1       3.656   1.307   1.283  0.00  0.00    -0.005 A 
ATOM      4  C3  UNL d   1       2.416   1.424   0.656  0.00  0.00     0.006 A 
ATOM      5  C4  UNL d   1       1.499   0.374   0.711  0.00  0.00    -0.005 A 
ATOM      6  C5  UNL d   1       1.816  -0.805   1.393  0.00  0.00    -0.074 A 
ATOM      7  C6  UNL d   1       0.846  -1.947   1.453  0.00  0.00     0.077 C 
ATOM      8  C7  UNL d   1       3.067  -0.918   2.014  0.00  0.00    -0.001 A 
ENDROOT
TORSDOF 0
ENDMDL
