MODEL 1
REMARK minimizedAffinity 12.1855412
REMARK minimizedRMSD -1
REMARK  0 active torsions:
REMARK  status: ('A' for Active; 'I' for Inactive)
ROOT
ATOM      1  C   UNL d   1      -2.441   2.680  -2.693  0.00  0.00     0.077 C 
ATOM      2  C1  UNL d   1      -1.098   2.569  -2.033  0.00  0.00    -0.074 A 
ATOM      3  C2  UNL d   1      -0.974   2.622  -0.641  0.00  0.00    -0.005 A 
ATOM      4  C3  UNL d   1       0.280   2.508  -0.042  0.00  0.00     0.006 A 
ATOM      5  C4  UNL d   1       1.421   2.340  -0.827  0.00  0.00    -0.005 A 
ATOM      6  C5  UNL d   1       1.317   2.283  -2.221  0.00  0.00    -0.074 A 
ATOM      7  C6  UNL d   1       2.532   2.093  -3.079  0.00  0.00     0.077 C 
ATOM      8  C7  UNL d   1       0.052   2.392  -2.815  0.00  0.00    -0.001 A 
ENDROOT
TORSDOF 0
ENDMDL
