MODEL 1
REMARK minimizedAffinity 8.5159626
REMARK minimizedRMSD -1
REMARK  0 active torsions:
REMARK  status: ('A' for Active; 'I' for Inactive)
ROOT
ATOM      1  C   UNL d   1       1.594  -2.040   1.638  0.00  0.00     0.077 C 
ATOM      2  C1  UNL d   1       2.188  -0.691   1.364  0.00  0.00    -0.074 A 
ATOM      3  C2  UNL d   1       3.512  -0.405   1.711  0.00  0.00    -0.005 A 
ATOM      4  C3  UNL d   1       4.054   0.852   1.441  0.00  0.00     0.006 A 
ATOM      5  C4  UNL d   1       3.279   1.833   0.823  0.00  0.00    -0.005 A 
ATOM      6  C5  UNL d   1       1.953   1.565   0.467  0.00  0.00    -0.074 A 
ATOM      7  C6  UNL d   1       1.109   2.605  -0.207  0.00  0.00     0.077 C 
ATOM      8  C7  UNL d   1       1.418   0.298   0.736  0.00  0.00    -0.001 A 
ENDROOT
TORSDOF 0
ENDMDL
