MODEL 1
REMARK minimizedAffinity 5.21567678
REMARK minimizedRMSD -1
REMARK  0 active torsions:
REMARK  status: ('A' for Active; 'I' for Inactive)
ROOT
ATOM      1  C   UNL d   1      -1.040  -0.696   5.334  0.00  0.00     0.077 C 
ATOM      2  C1  UNL d   1       0.215  -0.668   4.513  0.00  0.00    -0.074 A 
ATOM      3  C2  UNL d   1       1.453  -0.390   5.101  0.00  0.00    -0.005 A 
ATOM      4  C3  UNL d   1       2.612  -0.377   4.327  0.00  0.00     0.006 A 
ATOM      5  C4  UNL d   1       2.546  -0.641   2.958  0.00  0.00    -0.005 A 
ATOM      6  C5  UNL d   1       1.317  -0.921   2.352  0.00  0.00    -0.074 A 
ATOM      7  C6  UNL d   1       1.230  -1.216   0.884  0.00  0.00     0.077 C 
ATOM      8  C7  UNL d   1       0.157  -0.939   3.139  0.00  0.00    -0.001 A 
ENDROOT
TORSDOF 0
ENDMDL
