MODEL 1
REMARK minimizedAffinity 9.01648426
REMARK minimizedRMSD -1
REMARK  0 active torsions:
REMARK  status: ('A' for Active; 'I' for Inactive)
ROOT
ATOM      1  C   UNL d   1      -3.176  -2.660   1.821  0.00  0.00     0.077 C 
ATOM      2  C1  UNL d   1      -4.030  -3.828   1.426  0.00  0.00    -0.074 A 
ATOM      3  C2  UNL d   1      -4.891  -4.433   2.348  0.00  0.00    -0.005 A 
ATOM      4  C3  UNL d   1      -5.686  -5.512   1.964  0.00  0.00     0.006 A 
ATOM      5  C4  UNL d   1      -5.629  -5.997   0.656  0.00  0.00    -0.005 A 
ATOM      6  C5  UNL d   1      -4.775  -5.405  -0.279  0.00  0.00    -0.074 A 
ATOM      7  C6  UNL d   1      -4.708  -5.907  -1.691  0.00  0.00     0.077 C 
ATOM      8  C7  UNL d   1      -3.984  -4.316   0.113  0.00  0.00    -0.001 A 
ENDROOT
TORSDOF 0
ENDMDL
