MODEL 1
REMARK minimizedAffinity 17.6274033
REMARK minimizedRMSD -1
REMARK  0 active torsions:
REMARK  status: ('A' for Active; 'I' for Inactive)
ROOT
ATOM      1  C   UNL d   1      -4.424  -5.905  -1.241  0.00  0.00     0.077 C 
ATOM      2  C1  UNL d   1      -4.650  -5.326   0.124  0.00  0.00    -0.074 A 
ATOM      3  C2  UNL d   1      -5.433  -5.997   1.068  0.00  0.00    -0.005 A 
ATOM      4  C3  UNL d   1      -5.626  -5.451   2.337  0.00  0.00     0.006 A 
ATOM      5  C4  UNL d   1      -5.040  -4.231   2.674  0.00  0.00    -0.005 A 
ATOM      6  C5  UNL d   1      -4.252  -3.546   1.743  0.00  0.00    -0.074 A 
ATOM      7  C6  UNL d   1      -3.607  -2.238   2.092  0.00  0.00     0.077 C 
ATOM      8  C7  UNL d   1      -4.057  -4.104   0.472  0.00  0.00    -0.001 A 
ENDROOT
TORSDOF 0
ENDMDL
