MODEL 1
REMARK minimizedAffinity -0.624812186
REMARK minimizedRMSD -1
REMARK  0 active torsions:
REMARK  status: ('A' for Active; 'I' for Inactive)
ROOT
ATOM      1  C   UNL d   1      -4.138  -2.611   5.997  0.00  0.00     0.077 C 
ATOM      2  C1  UNL d   1      -4.703  -3.800   5.279  0.00  0.00    -0.074 A 
ATOM      3  C2  UNL d   1      -5.214  -4.892   5.988  0.00  0.00    -0.005 A 
ATOM      4  C3  UNL d   1      -5.745  -5.986   5.306  0.00  0.00     0.006 A 
ATOM      5  C4  UNL d   1      -5.771  -6.000   3.911  0.00  0.00    -0.005 A 
ATOM      6  C5  UNL d   1      -5.266  -4.917   3.185  0.00  0.00    -0.074 A 
ATOM      7  C6  UNL d   1      -5.295  -4.911   1.685  0.00  0.00     0.077 C 
ATOM      8  C7  UNL d   1      -4.740  -3.817   3.877  0.00  0.00    -0.001 A 
ENDROOT
TORSDOF 0
ENDMDL
