MODEL 1
REMARK minimizedAffinity -2.45945263
REMARK minimizedRMSD -1
REMARK  0 active torsions:
REMARK  status: ('A' for Active; 'I' for Inactive)
ROOT
ATOM      1  N1  IND d   1       0.273  -0.509  -0.704  0.00  0.00    -0.196 N 
ATOM      2  C2  IND d   1       0.036   0.572  -1.507  0.00  0.00     0.054 A 
ATOM      3  C3  IND d   1      -0.727   0.215  -2.564  0.00  0.00    -0.031 A 
ATOM      4  C4  IND d   1      -1.784  -2.066  -3.122  0.00  0.00     0.051 A 
ATOM      5  C5  IND d   1      -1.821  -3.366  -2.705  0.00  0.00    -0.031 A 
ATOM      6  C6  IND d   1      -1.151  -3.790  -1.575  0.00  0.00     0.015 A 
ATOM      7  C7  IND d   1      -0.425  -2.921  -0.811  0.00  0.00    -0.016 A 
ATOM      8  C8  IND d   1      -0.379  -1.600  -1.235  0.00  0.00    -0.047 A 
ATOM      9  C9  IND d   1      -1.022  -1.174  -2.404  0.00  0.00    -0.096 A 
ATOM     10  HN1 IND d   1       0.749  -0.508   0.012  0.00  0.00     0.298 HD
ENDROOT
TORSDOF 0
ENDMDL
