MODEL 1
REMARK minimizedAffinity 7.57894659
REMARK minimizedRMSD -1
REMARK  0 active torsions:
REMARK  status: ('A' for Active; 'I' for Inactive)
ROOT
ATOM      1  N1  IND d   1       5.282  -0.491  -0.682  0.00  0.00    -0.196 N 
ATOM      2  C2  IND d   1       4.191  -0.736  -1.469  0.00  0.00     0.054 A 
ATOM      3  C3  IND d   1       3.086  -0.893  -0.705  0.00  0.00    -0.031 A 
ATOM      4  C4  IND d   1       2.819  -0.687   1.847  0.00  0.00     0.051 A 
ATOM      5  C5  IND d   1       3.539  -0.510   2.995  0.00  0.00    -0.031 A 
ATOM      6  C6  IND d   1       4.905  -0.312   2.975  0.00  0.00     0.015 A 
ATOM      7  C7  IND d   1       5.602  -0.270   1.801  0.00  0.00    -0.016 A 
ATOM      8  C8  IND d   1       4.874  -0.456   0.634  0.00  0.00    -0.047 A 
ATOM      9  C9  IND d   1       3.495  -0.701   0.650  0.00  0.00    -0.096 A 
ATOM     10  HN1 IND d   1       6.087  -0.377  -0.962  0.00  0.00     0.298 HD
ENDROOT
TORSDOF 0
ENDMDL
