MODEL 1
REMARK minimizedAffinity -2.35979152
REMARK minimizedRMSD -1
REMARK  0 active torsions:
REMARK  status: ('A' for Active; 'I' for Inactive)
ROOT
ATOM      1  N1  IND d   1       0.098  -2.689  -0.736  0.00  0.00    -0.196 N 
ATOM      2  C2  IND d   1      -0.143  -3.028  -2.038  0.00  0.00     0.054 A 
ATOM      3  C3  IND d   1      -0.397  -1.922  -2.773  0.00  0.00    -0.031 A 
ATOM      4  C4  IND d   1      -0.368   0.553  -2.065  0.00  0.00     0.051 A 
ATOM      5  C5  IND d   1      -0.235   1.359  -0.969  0.00  0.00    -0.031 A 
ATOM      6  C6  IND d   1       0.024   0.846   0.286  0.00  0.00     0.015 A 
ATOM      7  C7  IND d   1       0.172  -0.497   0.490  0.00  0.00    -0.016 A 
ATOM      8  C8  IND d   1       0.030  -1.318  -0.620  0.00  0.00    -0.047 A 
ATOM      9  C9  IND d   1      -0.275  -0.807  -1.888  0.00  0.00    -0.096 A 
ATOM     10  HN1 IND d   1       0.265  -3.240  -0.097  0.00  0.00     0.298 HD
ENDROOT
TORSDOF 0
ENDMDL
