MODEL 1
REMARK minimizedAffinity -1.14859939
REMARK minimizedRMSD -1
REMARK  0 active torsions:
REMARK  status: ('A' for Active; 'I' for Inactive)
ROOT
ATOM      1  N1  IND d   1       1.017  -0.244   1.200  0.00  0.00    -0.196 N 
ATOM      2  C2  IND d   1       1.017  -0.885  -0.008  0.00  0.00     0.054 A 
ATOM      3  C3  IND d   1       0.141  -0.297  -0.853  0.00  0.00    -0.031 A 
ATOM      4  C4  IND d   1      -1.323   1.791  -0.498  0.00  0.00     0.051 A 
ATOM      5  C5  IND d   1      -1.693   2.698   0.455  0.00  0.00    -0.031 A 
ATOM      6  C6  IND d   1      -1.165   2.672   1.730  0.00  0.00     0.015 A 
ATOM      7  C7  IND d   1      -0.236   1.740   2.098  0.00  0.00    -0.016 A 
ATOM      8  C8  IND d   1       0.136   0.813   1.135  0.00  0.00    -0.047 A 
ATOM      9  C9  IND d   1      -0.427   0.809  -0.148  0.00  0.00    -0.096 A 
ATOM     10  HN1 IND d   1       1.487  -0.465   1.885  0.00  0.00     0.298 HD
ENDROOT
TORSDOF 0
ENDMDL
