MODEL 1
REMARK minimizedAffinity -4.17721987
REMARK minimizedRMSD -1
REMARK  0 active torsions:
REMARK  status: ('A' for Active; 'I' for Inactive)
ROOT
ATOM      1  N1  IND d   1       0.950   1.282   2.692  0.00  0.00    -0.196 N 
ATOM      2  C2  IND d   1       1.711   0.182   2.409  0.00  0.00     0.054 A 
ATOM      3  C3  IND d   1       1.359  -0.339   1.213  0.00  0.00    -0.031 A 
ATOM      4  C4  IND d   1      -0.369   0.510  -0.496  0.00  0.00     0.051 A 
ATOM      5  C5  IND d   1      -1.338   1.459  -0.668  0.00  0.00    -0.031 A 
ATOM      6  C6  IND d   1      -1.597   2.418   0.289  0.00  0.00     0.015 A 
ATOM      7  C7  IND d   1      -0.886   2.471   1.455  0.00  0.00    -0.016 A 
ATOM      8  C8  IND d   1       0.094   1.505   1.636  0.00  0.00    -0.047 A 
ATOM      9  C9  IND d   1       0.332   0.503   0.686  0.00  0.00    -0.096 A 
ATOM     10  HN1 IND d   1       0.997   1.755   3.409  0.00  0.00     0.298 HD
ENDROOT
TORSDOF 0
ENDMDL
