MODEL 1
REMARK minimizedAffinity -1.92414546
REMARK minimizedRMSD -1
REMARK  0 active torsions:
REMARK  status: ('A' for Active; 'I' for Inactive)
ROOT
ATOM      1  N1  IND d   1       0.701  -1.630  -0.430  0.00  0.00    -0.196 N 
ATOM      2  C2  IND d   1       1.995  -1.501  -0.009  0.00  0.00     0.054 A 
ATOM      3  C3  IND d   1       2.574  -2.716   0.112  0.00  0.00    -0.031 A 
ATOM      4  C4  IND d   1       1.617  -5.045  -0.427  0.00  0.00     0.051 A 
ATOM      5  C5  IND d   1       0.465  -5.674  -0.806  0.00  0.00    -0.031 A 
ATOM      6  C6  IND d   1      -0.690  -4.974  -1.088  0.00  0.00     0.015 A 
ATOM      7  C7  IND d   1      -0.733  -3.610  -1.012  0.00  0.00    -0.016 A 
ATOM      8  C8  IND d   1       0.433  -2.968  -0.620  0.00  0.00    -0.047 A 
ATOM      9  C9  IND d   1       1.596  -3.677  -0.291  0.00  0.00    -0.096 A 
ATOM     10  HN1 IND d   1       0.147  -0.984  -0.556  0.00  0.00     0.298 HD
ENDROOT
TORSDOF 0
ENDMDL
