MODEL 1
REMARK minimizedAffinity -1.49627388
REMARK minimizedRMSD -1
REMARK  0 active torsions:
REMARK  status: ('A' for Active; 'I' for Inactive)
ROOT
ATOM      1  N1  IND d   1       0.724   0.795  -2.107  0.00  0.00    -0.196 N 
ATOM      2  C2  IND d   1      -0.168   1.556  -2.809  0.00  0.00     0.054 A 
ATOM      3  C3  IND d   1      -1.039   2.157  -1.968  0.00  0.00    -0.031 A 
ATOM      4  C4  IND d   1      -1.122   2.113   0.605  0.00  0.00     0.051 A 
ATOM      5  C5  IND d   1      -0.536   1.526   1.692  0.00  0.00    -0.031 A 
ATOM      6  C6  IND d   1       0.523   0.651   1.565  0.00  0.00     0.015 A 
ATOM      7  C7  IND d   1       1.045   0.337   0.343  0.00  0.00    -0.016 A 
ATOM      8  C8  IND d   1       0.448   0.924  -0.763  0.00  0.00    -0.047 A 
ATOM      9  C9  IND d   1      -0.654   1.780  -0.644  0.00  0.00    -0.096 A 
ATOM     10  HN1 IND d   1       1.352   0.316  -2.447  0.00  0.00     0.298 HD
ENDROOT
TORSDOF 0
ENDMDL
