MODEL 1
REMARK minimizedAffinity 18.3513622
REMARK minimizedRMSD -1
REMARK  1 active torsions:
REMARK  status: ('A' for Active; 'I' for Inactive)
REMARK    1  A    between atoms: C1_2  and  C2_3 
ROOT
ATOM      1  C2  UNL d   1       0.396   3.484  -1.554  0.00  0.00    -0.073 A 
ATOM      2  C3  UNL d   1      -0.799   3.326  -2.266  0.00  0.00    -0.002 A 
ATOM      3  C4  UNL d   1      -1.009   4.027  -3.454  0.00  0.00     0.004 A 
ATOM      4  C5  UNL d   1      -0.027   4.885  -3.946  0.00  0.00    -0.004 A 
ATOM      5  C6  UNL d   1       1.179   5.047  -3.256  0.00  0.00    -0.075 A 
ATOM      6  C7  UNL d   1       2.245   5.969  -3.771  0.00  0.00     0.076 C 
ATOM      7  C8  UNL d   1       1.382   4.342  -2.062  0.00  0.00     0.001 A 
ENDROOT
BRANCH   1   8
ATOM      8  C1  UNL d   1       0.631   2.724  -0.274  0.00  0.00     0.053 C 
ATOM      9  C   UNL d   1      -0.621   2.001   0.197  0.00  0.00     0.018 C 
ENDBRANCH   1   8
TORSDOF 1
ENDMDL
