MODEL 1
REMARK minimizedAffinity 15.6388474
REMARK minimizedRMSD -1
REMARK  1 active torsions:
REMARK  status: ('A' for Active; 'I' for Inactive)
REMARK    1  A    between atoms: C1_2  and  C2_3 
ROOT
ATOM      1  C2  UNL d   1      -3.762  -2.984   3.848  0.00  0.00    -0.073 A 
ATOM      2  C3  UNL d   1      -4.587  -4.015   4.312  0.00  0.00    -0.002 A 
ATOM      3  C4  UNL d   1      -5.700  -4.415   3.571  0.00  0.00     0.004 A 
ATOM      4  C5  UNL d   1      -5.994  -3.796   2.357  0.00  0.00    -0.004 A 
ATOM      5  C6  UNL d   1      -5.175  -2.772   1.870  0.00  0.00    -0.075 A 
ATOM      6  C7  UNL d   1      -5.479  -2.094   0.566  0.00  0.00     0.076 C 
ATOM      7  C8  UNL d   1      -4.061  -2.374   2.621  0.00  0.00     0.001 A 
ENDROOT
BRANCH   1   8
ATOM      8  C1  UNL d   1      -2.556  -2.553   4.642  0.00  0.00     0.053 C 
ATOM      9  C   UNL d   1      -1.387  -3.508   4.466  0.00  0.00     0.018 C 
ENDBRANCH   1   8
TORSDOF 1
ENDMDL
