MODEL 1
REMARK minimizedAffinity 18.3361759
REMARK minimizedRMSD -1
REMARK  1 active torsions:
REMARK  status: ('A' for Active; 'I' for Inactive)
REMARK    1  A    between atoms: C1_2  and  C2_3 
ROOT
ATOM      1  C2  UNL d   1      -4.099   4.150  -2.845  0.00  0.00    -0.073 A 
ATOM      2  C3  UNL d   1      -4.821   3.075  -3.376  0.00  0.00    -0.002 A 
ATOM      3  C4  UNL d   1      -4.153   1.986  -3.937  0.00  0.00     0.004 A 
ATOM      4  C5  UNL d   1      -2.759   1.957  -3.968  0.00  0.00    -0.004 A 
ATOM      5  C6  UNL d   1      -2.019   3.017  -3.432  0.00  0.00    -0.075 A 
ATOM      6  C7  UNL d   1      -0.519   3.002  -3.459  0.00  0.00     0.076 C 
ATOM      7  C8  UNL d   1      -2.697   4.108  -2.872  0.00  0.00     0.001 A 
ENDROOT
BRANCH   1   8
ATOM      8  C1  UNL d   1      -4.815   5.325  -2.232  0.00  0.00     0.053 C 
ATOM      9  C   UNL d   1      -4.793   5.277  -0.713  0.00  0.00     0.018 C 
ENDBRANCH   1   8
TORSDOF 1
ENDMDL
