MODEL 1
REMARK minimizedAffinity 17.1104355
REMARK minimizedRMSD -1
REMARK  1 active torsions:
REMARK  status: ('A' for Active; 'I' for Inactive)
REMARK    1  A    between atoms: C1_2  and  C2_3 
ROOT
ATOM      1  C2  UNL d   1       0.858   4.844  -2.924  0.00  0.00    -0.073 A 
ATOM      2  C3  UNL d   1      -0.217   4.480  -3.743  0.00  0.00    -0.002 A 
ATOM      3  C4  UNL d   1      -1.086   3.460  -3.353  0.00  0.00     0.004 A 
ATOM      4  C5  UNL d   1      -0.894   2.799  -2.140  0.00  0.00    -0.004 A 
ATOM      5  C6  UNL d   1       0.168   3.156  -1.303  0.00  0.00    -0.075 A 
ATOM      6  C7  UNL d   1       0.389   2.454   0.004  0.00  0.00     0.076 C 
ATOM      7  C8  UNL d   1       1.038   4.180  -1.702  0.00  0.00     0.001 A 
ENDROOT
BRANCH   1   8
ATOM      8  C1  UNL d   1       1.796   5.949  -3.338  0.00  0.00     0.053 C 
ATOM      9  C   UNL d   1       1.988   5.999  -4.845  0.00  0.00     0.018 C 
ENDBRANCH   1   8
TORSDOF 1
ENDMDL
