MODEL 1
REMARK minimizedAffinity 7.77961969
REMARK minimizedRMSD -1
REMARK  1 active torsions:
REMARK  status: ('A' for Active; 'I' for Inactive)
REMARK    1  A    between atoms: C1_2  and  C2_3 
ROOT
ATOM      1  C2  UNL d   1      -0.572   2.786   0.382  0.00  0.00    -0.073 A 
ATOM      2  C3  UNL d   1       0.320   3.797   0.758  0.00  0.00    -0.002 A 
ATOM      3  C4  UNL d   1       0.710   4.771  -0.163  0.00  0.00     0.004 A 
ATOM      4  C5  UNL d   1       0.207   4.748  -1.464  0.00  0.00    -0.004 A 
ATOM      5  C6  UNL d   1      -0.694   3.752  -1.855  0.00  0.00    -0.075 A 
ATOM      6  C7  UNL d   1      -1.242   3.712  -3.251  0.00  0.00     0.076 C 
ATOM      7  C8  UNL d   1      -1.078   2.777  -0.925  0.00  0.00     0.001 A 
ENDROOT
BRANCH   1   8
ATOM      8  C1  UNL d   1      -1.001   1.736   1.375  0.00  0.00     0.053 C 
ATOM      9  C   UNL d   1      -2.495   1.464   1.306  0.00  0.00     0.018 C 
ENDBRANCH   1   8
TORSDOF 1
ENDMDL
