MODEL 1
REMARK minimizedAffinity 4.21160316
REMARK minimizedRMSD -1
REMARK  1 active torsions:
REMARK  status: ('A' for Active; 'I' for Inactive)
REMARK    1  A    between atoms: C1_2  and  C2_3 
ROOT
ATOM      1  C2  UNL d   1      -0.947   3.615  -2.105  0.00  0.00    -0.073 A 
ATOM      2  C3  UNL d   1      -0.310   4.826  -1.811  0.00  0.00    -0.002 A 
ATOM      3  C4  UNL d   1       0.238   5.044  -0.546  0.00  0.00     0.004 A 
ATOM      4  C5  UNL d   1       0.161   4.054   0.433  0.00  0.00    -0.004 A 
ATOM      5  C6  UNL d   1      -0.461   2.833   0.154  0.00  0.00    -0.075 A 
ATOM      6  C7  UNL d   1      -0.554   1.758   1.197  0.00  0.00     0.076 C 
ATOM      7  C8  UNL d   1      -1.011   2.622  -1.117  0.00  0.00     0.001 A 
ENDROOT
BRANCH   1   8
ATOM      8  C1  UNL d   1      -1.535   3.372  -3.471  0.00  0.00     0.053 C 
ATOM      9  C   UNL d   1      -2.749   2.458  -3.415  0.00  0.00     0.018 C 
ENDBRANCH   1   8
TORSDOF 1
ENDMDL
