MODEL 1
REMARK minimizedAffinity 3.20984697
REMARK minimizedRMSD -1
REMARK  1 active torsions:
REMARK  status: ('A' for Active; 'I' for Inactive)
REMARK    1  A    between atoms: C1_2  and  C2_3 
ROOT
ATOM      1  C2  UNL d   1      -2.726   3.623   1.472  0.00  0.00    -0.073 A 
ATOM      2  C3  UNL d   1      -2.448   2.297   1.823  0.00  0.00    -0.002 A 
ATOM      3  C4  UNL d   1      -1.308   1.662   1.329  0.00  0.00     0.004 A 
ATOM      4  C5  UNL d   1      -0.432   2.346   0.487  0.00  0.00    -0.004 A 
ATOM      5  C6  UNL d   1      -0.686   3.675   0.134  0.00  0.00    -0.075 A 
ATOM      6  C7  UNL d   1       0.245   4.424  -0.773  0.00  0.00     0.076 C 
ATOM      7  C8  UNL d   1      -1.834   4.306   0.632  0.00  0.00     0.001 A 
ENDROOT
BRANCH   1   8
ATOM      8  C1  UNL d   1      -3.952   4.316   2.008  0.00  0.00     0.053 C 
ATOM      9  C   UNL d   1      -4.042   5.760   1.539  0.00  0.00     0.018 C 
ENDBRANCH   1   8
TORSDOF 1
ENDMDL
