MODEL 1
REMARK minimizedAffinity 4.31599951
REMARK minimizedRMSD -1
REMARK  1 active torsions:
REMARK  status: ('A' for Active; 'I' for Inactive)
REMARK    1  A    between atoms: C1_2  and  C2_3 
ROOT
ATOM      1  C2  UNL d   1      -0.910   2.232  -1.777  0.00  0.00    -0.073 A 
ATOM      2  C3  UNL d   1      -0.325   1.574  -0.689  0.00  0.00    -0.002 A 
ATOM      3  C4  UNL d   1       0.286   2.304   0.332  0.00  0.00     0.004 A 
ATOM      4  C5  UNL d   1       0.311   3.697   0.279  0.00  0.00    -0.004 A 
ATOM      5  C6  UNL d   1      -0.279   4.374  -0.793  0.00  0.00    -0.075 A 
ATOM      6  C7  UNL d   1      -0.258   5.873  -0.865  0.00  0.00     0.076 C 
ATOM      7  C8  UNL d   1      -0.887   3.634  -1.816  0.00  0.00     0.001 A 
ENDROOT
BRANCH   1   8
ATOM      8  C1  UNL d   1      -1.576   1.448  -2.878  0.00  0.00     0.053 C 
ATOM      9  C   UNL d   1      -2.663   0.529  -2.346  0.00  0.00     0.018 C 
ENDBRANCH   1   8
TORSDOF 1
ENDMDL
