MODEL 1
REMARK minimizedAffinity 13.1642923
REMARK minimizedRMSD -1
REMARK  1 active torsions:
REMARK  status: ('A' for Active; 'I' for Inactive)
REMARK    1  A    between atoms: C1_2  and  C2_3 
ROOT
ATOM      1  C2  UNL d   1      -0.691   5.104   0.012  0.00  0.00    -0.073 A 
ATOM      2  C3  UNL d   1       0.586   4.584   0.251  0.00  0.00    -0.002 A 
ATOM      3  C4  UNL d   1       1.200   3.761  -0.694  0.00  0.00     0.004 A 
ATOM      4  C5  UNL d   1       0.548   3.455  -1.888  0.00  0.00    -0.004 A 
ATOM      5  C6  UNL d   1      -0.724   3.975  -2.150  0.00  0.00    -0.075 A 
ATOM      6  C7  UNL d   1      -1.440   3.653  -3.429  0.00  0.00     0.076 C 
ATOM      7  C8  UNL d   1      -1.335   4.799  -1.195  0.00  0.00     0.001 A 
ENDROOT
BRANCH   1   8
ATOM      8  C1  UNL d   1      -1.355   5.999   1.026  0.00  0.00     0.053 C 
ATOM      9  C   UNL d   1      -2.869   5.997   0.884  0.00  0.00     0.018 C 
ENDBRANCH   1   8
TORSDOF 1
ENDMDL
