MODEL 1
REMARK minimizedAffinity 4.96097374
REMARK minimizedRMSD -1
REMARK  1 active torsions:
REMARK  status: ('A' for Active; 'I' for Inactive)
REMARK    1  A    between atoms: C1_2  and  C2_3 
ROOT
ATOM      1  C2  UNL d   1      -0.871   2.237   0.654  0.00  0.00    -0.073 A 
ATOM      2  C3  UNL d   1      -0.061   3.101  -0.092  0.00  0.00    -0.002 A 
ATOM      3  C4  UNL d   1      -0.261   3.244  -1.466  0.00  0.00     0.004 A 
ATOM      4  C5  UNL d   1      -1.274   2.531  -2.106  0.00  0.00    -0.004 A 
ATOM      5  C6  UNL d   1      -2.101   1.671  -1.376  0.00  0.00    -0.075 A 
ATOM      6  C7  UNL d   1      -3.194   0.895  -2.050  0.00  0.00     0.076 C 
ATOM      7  C8  UNL d   1      -1.893   1.531   0.003  0.00  0.00     0.001 A 
ENDROOT
BRANCH   1   8
ATOM      8  C1  UNL d   1      -0.664   2.085   2.139  0.00  0.00     0.053 C 
ATOM      9  C   UNL d   1      -1.813   1.342   2.801  0.00  0.00     0.018 C 
ENDBRANCH   1   8
TORSDOF 1
ENDMDL
