MODEL 1
REMARK minimizedAffinity 5.99977636
REMARK minimizedRMSD -1
REMARK  1 active torsions:
REMARK  status: ('A' for Active; 'I' for Inactive)
REMARK    1  A    between atoms: C1_2  and  C2_3 
ROOT
ATOM      1  C2  UNL d   1      -0.656   3.362   1.501  0.00  0.00    -0.073 A 
ATOM      2  C3  UNL d   1      -1.369   4.559   1.625  0.00  0.00    -0.002 A 
ATOM      3  C4  UNL d   1      -1.471   5.435   0.543  0.00  0.00     0.004 A 
ATOM      4  C5  UNL d   1      -0.866   5.120  -0.674  0.00  0.00    -0.004 A 
ATOM      5  C6  UNL d   1      -0.159   3.923  -0.821  0.00  0.00    -0.075 A 
ATOM      6  C7  UNL d   1       0.499   3.571  -2.123  0.00  0.00     0.076 C 
ATOM      7  C8  UNL d   1      -0.059   3.050   0.270  0.00  0.00     0.001 A 
ENDROOT
BRANCH   1   8
ATOM      8  C1  UNL d   1      -0.549   2.410   2.664  0.00  0.00     0.053 C 
ATOM      9  C   UNL d   1      -1.646   1.357   2.641  0.00  0.00     0.018 C 
ENDBRANCH   1   8
TORSDOF 1
ENDMDL
