MODEL 1
REMARK minimizedAffinity 17.1529236
REMARK minimizedRMSD -1
REMARK  1 active torsions:
REMARK  status: ('A' for Active; 'I' for Inactive)
REMARK    1  A    between atoms: C1_2  and  C2_3 
ROOT
ATOM      1  C2  UNL d   1       0.449  -3.142   2.400  0.00  0.00    -0.073 A 
ATOM      2  C3  UNL d   1       1.126  -1.946   2.664  0.00  0.00    -0.002 A 
ATOM      3  C4  UNL d   1       1.908  -1.345   1.676  0.00  0.00     0.004 A 
ATOM      4  C5  UNL d   1       2.015  -1.930   0.414  0.00  0.00    -0.004 A 
ATOM      5  C6  UNL d   1       1.337  -3.119   0.127  0.00  0.00    -0.075 A 
ATOM      6  C7  UNL d   1       1.445  -3.761  -1.224  0.00  0.00     0.076 C 
ATOM      7  C8  UNL d   1       0.556  -3.717   1.125  0.00  0.00     0.001 A 
ENDROOT
BRANCH   1   8
ATOM      8  C1  UNL d   1      -0.402  -3.791   3.461  0.00  0.00     0.053 C 
ATOM      9  C   UNL d   1      -1.316  -2.789   4.150  0.00  0.00     0.018 C 
ENDBRANCH   1   8
TORSDOF 1
ENDMDL
