MODEL 1
REMARK minimizedAffinity -5.38618279
REMARK minimizedRMSD -1
REMARK  2 active torsions:
REMARK  status: ('A' for Active; 'I' for Inactive)
REMARK    1  A    between atoms: C2'_3  and  C1'_4 
REMARK    2  A    between atoms: C1'_4  and  C1_5 
ROOT
ATOM      1  C1  I4B d   1       0.684   0.981  -0.530  0.00  0.00    -0.075 A 
ATOM      2  C2  I4B d   1      -0.449   1.333   0.161  0.00  0.00     0.003 A 
ATOM      3  C3  I4B d   1      -1.229   0.341   0.804  0.00  0.00     0.002 A 
ATOM      4  C4  I4B d   1      -0.870  -0.986   0.688  0.00  0.00    -0.004 A 
ATOM      5  C5  I4B d   1       0.291  -1.339   0.006  0.00  0.00     0.002 A 
ATOM      6  C6  I4B d   1       1.080  -0.348  -0.596  0.00  0.00     0.003 A 
ENDROOT
BRANCH   1   7
ATOM      7  C1' I4B d   1       1.466   2.051  -1.224  0.00  0.00     0.060 C 
BRANCH   7   8
ATOM      8  C2' I4B d   1       2.360   2.716  -0.198  0.00  0.00    -0.013 C 
ATOM      9  C4' I4B d   1       1.549   3.389   0.878  0.00  0.00     0.013 C 
ATOM     10  C3' I4B d   1       3.261   1.666   0.381  0.00  0.00     0.013 C 
ENDBRANCH   7   8
ENDBRANCH   1   7
TORSDOF 2
ENDMDL
