MODEL 1
REMARK minimizedAffinity -4.49238682
REMARK minimizedRMSD -1
REMARK  2 active torsions:
REMARK  status: ('A' for Active; 'I' for Inactive)
REMARK    1  A    between atoms: C2'_3  and  C1'_4 
REMARK    2  A    between atoms: C1'_4  and  C1_5 
ROOT
ATOM      1  C1  I4B d   1       0.070  -0.462   0.301  0.00  0.00    -0.075 A 
ATOM      2  C2  I4B d   1      -1.128   0.147   0.578  0.00  0.00     0.003 A 
ATOM      3  C3  I4B d   1      -1.223   1.559   0.591  0.00  0.00     0.002 A 
ATOM      4  C4  I4B d   1      -0.092   2.319   0.373  0.00  0.00    -0.004 A 
ATOM      5  C5  I4B d   1       1.117   1.700   0.070  0.00  0.00     0.002 A 
ATOM      6  C6  I4B d   1       1.197   0.300   0.021  0.00  0.00     0.003 A 
ENDROOT
BRANCH   1   7
ATOM      7  C1' I4B d   1       0.142  -1.956   0.327  0.00  0.00     0.060 C 
BRANCH   7   8
ATOM      8  C2' I4B d   1      -0.637  -2.482  -0.861  0.00  0.00    -0.013 C 
ATOM      9  C4' I4B d   1       0.286  -2.916  -1.969  0.00  0.00     0.013 C 
ATOM     10  C3' I4B d   1      -1.488  -3.623  -0.388  0.00  0.00     0.013 C 
ENDBRANCH   7   8
ENDBRANCH   1   7
TORSDOF 2
ENDMDL
