MODEL 1
REMARK minimizedAffinity -5.92327499
REMARK minimizedRMSD -1
REMARK  2 active torsions:
REMARK  status: ('A' for Active; 'I' for Inactive)
REMARK    1  A    between atoms: C2'_3  and  C1'_4 
REMARK    2  A    between atoms: C1'_4  and  C1_5 
ROOT
ATOM      1  C1  I4B d   1       1.060   1.036  -0.395  0.00  0.00    -0.075 A 
ATOM      2  C2  I4B d   1       2.335   1.008   0.113  0.00  0.00     0.003 A 
ATOM      3  C3  I4B d   1       2.916   2.184   0.647  0.00  0.00     0.002 A 
ATOM      4  C4  I4B d   1       2.211   3.369   0.607  0.00  0.00    -0.004 A 
ATOM      5  C5  I4B d   1       0.910   3.391   0.113  0.00  0.00     0.002 A 
ATOM      6  C6  I4B d   1       0.326   2.215  -0.380  0.00  0.00     0.003 A 
ENDROOT
BRANCH   1   7
ATOM      7  C1' I4B d   1       0.490  -0.216  -0.981  0.00  0.00     0.060 C 
BRANCH   7   8
ATOM      8  C2' I4B d   1      -0.175  -0.994   0.137  0.00  0.00    -0.013 C 
ATOM      9  C4' I4B d   1      -1.440  -0.317   0.595  0.00  0.00     0.013 C 
ATOM     10  C3' I4B d   1      -0.453  -2.379  -0.365  0.00  0.00     0.013 C 
ENDBRANCH   7   8
ENDBRANCH   1   7
TORSDOF 2
ENDMDL
