MODEL 1
REMARK minimizedAffinity -4.92209482
REMARK minimizedRMSD -1
REMARK  2 active torsions:
REMARK  status: ('A' for Active; 'I' for Inactive)
REMARK    1  A    between atoms: C2'_3  and  C1'_4 
REMARK    2  A    between atoms: C1'_4  and  C1_5 
ROOT
ATOM      1  C1  I4B d   1       0.411  -0.435   0.261  0.00  0.00    -0.075 A 
ATOM      2  C2  I4B d   1       1.520   0.339   0.023  0.00  0.00     0.003 A 
ATOM      3  C3  I4B d   1       1.454   1.745   0.176  0.00  0.00     0.002 A 
ATOM      4  C4  I4B d   1       0.255   2.336   0.517  0.00  0.00    -0.004 A 
ATOM      5  C5  I4B d   1      -0.862   1.548   0.780  0.00  0.00     0.002 A 
ATOM      6  C6  I4B d   1      -0.781   0.153   0.663  0.00  0.00     0.003 A 
ENDROOT
BRANCH   1   7
ATOM      7  C1' I4B d   1       0.507  -1.914   0.057  0.00  0.00     0.060 C 
BRANCH   7   8
ATOM      8  C2' I4B d   1      -0.397  -2.285  -1.100  0.00  0.00    -0.013 C 
ATOM      9  C4' I4B d   1       0.387  -2.899  -2.230  0.00  0.00     0.013 C 
ATOM     10  C3' I4B d   1      -1.440  -3.233  -0.587  0.00  0.00     0.013 C 
ENDBRANCH   7   8
ENDBRANCH   1   7
TORSDOF 2
ENDMDL
