MODEL 1
REMARK minimizedAffinity -4.16882372
REMARK minimizedRMSD -1
REMARK  2 active torsions:
REMARK  status: ('A' for Active; 'I' for Inactive)
REMARK    1  A    between atoms: C2'_3  and  C1'_4 
REMARK    2  A    between atoms: C1'_4  and  C1_5 
ROOT
ATOM      1  C1  I4B d   1      -0.175   1.017   0.356  0.00  0.00    -0.075 A 
ATOM      2  C2  I4B d   1      -1.005   2.081   0.103  0.00  0.00     0.003 A 
ATOM      3  C3  I4B d   1      -0.478   3.392   0.024  0.00  0.00     0.002 A 
ATOM      4  C4  I4B d   1       0.867   3.600   0.253  0.00  0.00    -0.004 A 
ATOM      5  C5  I4B d   1       1.710   2.517   0.486  0.00  0.00     0.002 A 
ATOM      6  C6  I4B d   1       1.189   1.216   0.526  0.00  0.00     0.003 A 
ENDROOT
BRANCH   1   7
ATOM      7  C1' I4B d   1      -0.770  -0.351   0.466  0.00  0.00     0.060 C 
BRANCH   7   8
ATOM      8  C2' I4B d   1       0.243  -1.345  -0.065  0.00  0.00    -0.013 C 
ATOM      9  C4' I4B d   1       0.900  -2.106   1.056  0.00  0.00     0.013 C 
ATOM     10  C3' I4B d   1      -0.467  -2.272  -1.006  0.00  0.00     0.013 C 
ENDBRANCH   7   8
ENDBRANCH   1   7
TORSDOF 2
ENDMDL
