MODEL 1
REMARK minimizedAffinity -4.90860128
REMARK minimizedRMSD -1
REMARK  2 active torsions:
REMARK  status: ('A' for Active; 'I' for Inactive)
REMARK    1  A    between atoms: C2'_3  and  C1'_4 
REMARK    2  A    between atoms: C1'_4  and  C1_5 
ROOT
ATOM      1  C1  I4B d   1      -0.110   1.148   0.155  0.00  0.00    -0.075 A 
ATOM      2  C2  I4B d   1      -0.903   2.224  -0.153  0.00  0.00     0.003 A 
ATOM      3  C3  I4B d   1      -0.366   3.534  -0.134  0.00  0.00     0.002 A 
ATOM      4  C4  I4B d   1       0.947   3.725   0.246  0.00  0.00    -0.004 A 
ATOM      5  C5  I4B d   1       1.756   2.630   0.536  0.00  0.00     0.002 A 
ATOM      6  C6  I4B d   1       1.228   1.332   0.479  0.00  0.00     0.003 A 
ENDROOT
BRANCH   1   7
ATOM      7  C1' I4B d   1      -0.718  -0.219   0.157  0.00  0.00     0.060 C 
BRANCH   7   8
ATOM      8  C2' I4B d   1       0.348  -1.205  -0.274  0.00  0.00    -0.013 C 
ATOM      9  C4' I4B d   1       0.846  -2.015   0.894  0.00  0.00     0.013 C 
ATOM     10  C3' I4B d   1      -0.239  -2.088  -1.335  0.00  0.00     0.013 C 
ENDBRANCH   7   8
ENDBRANCH   1   7
TORSDOF 2
ENDMDL
