MODEL 1
REMARK minimizedAffinity -4.88542843
REMARK minimizedRMSD -1
REMARK  2 active torsions:
REMARK  status: ('A' for Active; 'I' for Inactive)
REMARK    1  A    between atoms: C2'_3  and  C1'_4 
REMARK    2  A    between atoms: C1'_4  and  C1_5 
ROOT
ATOM      1  C1  I4B d   1      -0.457   0.552   0.133  0.00  0.00    -0.075 A 
ATOM      2  C2  I4B d   1       0.429   1.070  -0.779  0.00  0.00     0.003 A 
ATOM      3  C3  I4B d   1       0.742   2.451  -0.763  0.00  0.00     0.002 A 
ATOM      4  C4  I4B d   1       0.112   3.280   0.143  0.00  0.00    -0.004 A 
ATOM      5  C5  I4B d   1      -0.768   2.749   1.081  0.00  0.00     0.002 A 
ATOM      6  C6  I4B d   1      -1.046   1.374   1.085  0.00  0.00     0.003 A 
ENDROOT
BRANCH   1   7
ATOM      7  C1' I4B d   1      -0.790  -0.905   0.067  0.00  0.00     0.060 C 
BRANCH   7   8
ATOM      8  C2' I4B d   1       0.464  -1.652  -0.341  0.00  0.00    -0.013 C 
ATOM      9  C4' I4B d   1       1.271  -2.061   0.864  0.00  0.00     0.013 C 
ATOM     10  C3' I4B d   1       0.050  -2.848  -1.146  0.00  0.00     0.013 C 
ENDBRANCH   7   8
ENDBRANCH   1   7
TORSDOF 2
ENDMDL
