MODEL 1
REMARK minimizedAffinity -5.48024988
REMARK minimizedRMSD -1
REMARK  2 active torsions:
REMARK  status: ('A' for Active; 'I' for Inactive)
REMARK    1  A    between atoms: C2'_3  and  C1'_4 
REMARK    2  A    between atoms: C1'_4  and  C1_5 
ROOT
ATOM      1  C1  I4B d   1      -0.122   0.988   0.102  0.00  0.00    -0.075 A 
ATOM      2  C2  I4B d   1      -0.887   2.118  -0.044  0.00  0.00     0.003 A 
ATOM      3  C3  I4B d   1      -0.317   3.397   0.169  0.00  0.00     0.002 A 
ATOM      4  C4  I4B d   1       0.999   3.495   0.572  0.00  0.00    -0.004 A 
ATOM      5  C5  I4B d   1       1.779   2.349   0.697  0.00  0.00     0.002 A 
ATOM      6  C6  I4B d   1       1.219   1.088   0.448  0.00  0.00     0.003 A 
ENDROOT
BRANCH   1   7
ATOM      7  C1' I4B d   1      -0.765  -0.348  -0.098  0.00  0.00     0.060 C 
BRANCH   7   8
ATOM      8  C2' I4B d   1       0.270  -1.280  -0.695  0.00  0.00    -0.013 C 
ATOM      9  C4' I4B d   1       1.065  -1.972   0.380  0.00  0.00     0.013 C 
ATOM     10  C3' I4B d   1      -0.446  -2.272  -1.563  0.00  0.00     0.013 C 
ENDBRANCH   7   8
ENDBRANCH   1   7
TORSDOF 2
ENDMDL
