MODEL 1
REMARK minimizedAffinity -2.25049782
REMARK minimizedRMSD -1
REMARK  2 active torsions:
REMARK  status: ('A' for Active; 'I' for Inactive)
REMARK    1  A    between atoms: C2'_3  and  C1'_4 
REMARK    2  A    between atoms: C1'_4  and  C1_5 
ROOT
ATOM      1  C1  I4B d   1      -0.591  -0.776  -0.085  0.00  0.00    -0.075 A 
ATOM      2  C2  I4B d   1      -1.674  -0.290   0.603  0.00  0.00     0.003 A 
ATOM      3  C3  I4B d   1      -1.737   1.080   0.958  0.00  0.00     0.002 A 
ATOM      4  C4  I4B d   1      -0.679   1.911   0.651  0.00  0.00    -0.004 A 
ATOM      5  C5  I4B d   1       0.408   1.421  -0.066  0.00  0.00     0.002 A 
ATOM      6  C6  I4B d   1       0.448   0.072  -0.448  0.00  0.00     0.003 A 
ENDROOT
BRANCH   1   7
ATOM      7  C1' I4B d   1      -0.541  -2.234  -0.414  0.00  0.00     0.060 C 
BRANCH   7   8
ATOM      8  C2' I4B d   1      -0.541  -2.372  -1.923  0.00  0.00    -0.013 C 
ATOM      9  C4' I4B d   1       0.841  -2.668  -2.443  0.00  0.00     0.013 C 
ATOM     10  C3' I4B d   1      -1.503  -3.462  -2.289  0.00  0.00     0.013 C 
ENDBRANCH   7   8
ENDBRANCH   1   7
TORSDOF 2
ENDMDL
