MODEL 1
REMARK minimizedAffinity -5.10932875
REMARK minimizedRMSD -1
REMARK  2 active torsions:
REMARK  status: ('A' for Active; 'I' for Inactive)
REMARK    1  A    between atoms: C2'_3  and  C1'_4 
REMARK    2  A    between atoms: C1'_4  and  C1_5 
ROOT
ATOM      1  C1  I4B d   1       0.239  -0.817  -0.092  0.00  0.00    -0.075 A 
ATOM      2  C2  I4B d   1       1.346  -0.022  -0.249  0.00  0.00     0.003 A 
ATOM      3  C3  I4B d   1       1.221   1.388  -0.220  0.00  0.00     0.002 A 
ATOM      4  C4  I4B d   1      -0.029   1.957  -0.084  0.00  0.00    -0.004 A 
ATOM      5  C5  I4B d   1      -1.148   1.149   0.098  0.00  0.00     0.002 A 
ATOM      6  C6  I4B d   1      -1.012  -0.247   0.106  0.00  0.00     0.003 A 
ENDROOT
BRANCH   1   7
ATOM      7  C1' I4B d   1       0.402  -2.303  -0.160  0.00  0.00     0.060 C 
BRANCH   7   8
ATOM      8  C2' I4B d   1      -0.261  -2.787  -1.434  0.00  0.00    -0.013 C 
ATOM      9  C4' I4B d   1       0.762  -3.117  -2.489  0.00  0.00     0.013 C 
ATOM     10  C3' I4B d   1      -1.095  -3.986  -1.094  0.00  0.00     0.013 C 
ENDBRANCH   7   8
ENDBRANCH   1   7
TORSDOF 2
ENDMDL
