MODEL 1
REMARK minimizedAffinity -6.46030569
REMARK minimizedRMSD -1
REMARK  2 active torsions:
REMARK  status: ('A' for Active; 'I' for Inactive)
REMARK    1  A    between atoms: C2'_3  and  C1'_4 
REMARK    2  A    between atoms: C1'_4  and  C1_5 
ROOT
ATOM      1  C1  I4B d   1       0.200   0.307   0.121  0.00  0.00    -0.075 A 
ATOM      2  C2  I4B d   1      -1.087   0.709  -0.138  0.00  0.00     0.003 A 
ATOM      3  C3  I4B d   1      -1.414   2.086  -0.157  0.00  0.00     0.002 A 
ATOM      4  C4  I4B d   1      -0.441   3.019   0.137  0.00  0.00    -0.004 A 
ATOM      5  C5  I4B d   1       0.868   2.612   0.377  0.00  0.00     0.002 A 
ATOM      6  C6  I4B d   1       1.194   1.248   0.357  0.00  0.00     0.003 A 
ENDROOT
BRANCH   1   7
ATOM      7  C1' I4B d   1       0.503  -1.157   0.166  0.00  0.00     0.060 C 
BRANCH   7   8
ATOM      8  C2' I4B d   1      -0.344  -1.841  -0.888  0.00  0.00    -0.013 C 
ATOM      9  C4' I4B d   1       0.498  -2.308  -2.046  0.00  0.00     0.013 C 
ATOM     10  C3' I4B d   1      -1.054  -2.991  -0.237  0.00  0.00     0.013 C 
ENDBRANCH   7   8
ENDBRANCH   1   7
TORSDOF 2
ENDMDL
