MODEL 1
REMARK minimizedAffinity -6.13300705
REMARK minimizedRMSD -1
REMARK  2 active torsions:
REMARK  status: ('A' for Active; 'I' for Inactive)
REMARK    1  A    between atoms: C2'_3  and  C1'_4 
REMARK    2  A    between atoms: C1'_4  and  C1_5 
ROOT
ATOM      1  C1  I4B d   1       0.326   0.122   0.283  0.00  0.00    -0.075 A 
ATOM      2  C2  I4B d   1       1.437   0.929   0.289  0.00  0.00     0.003 A 
ATOM      3  C3  I4B d   1       1.296   2.336   0.230  0.00  0.00     0.002 A 
ATOM      4  C4  I4B d   1       0.037   2.889   0.114  0.00  0.00    -0.004 A 
ATOM      5  C5  I4B d   1      -1.089   2.071   0.131  0.00  0.00     0.002 A 
ATOM      6  C6  I4B d   1      -0.945   0.680   0.228  0.00  0.00     0.003 A 
ENDROOT
BRANCH   1   7
ATOM      7  C1' I4B d   1       0.513  -1.362   0.314  0.00  0.00     0.060 C 
BRANCH   7   8
ATOM      8  C2' I4B d   1      -0.390  -1.967  -0.742  0.00  0.00    -0.013 C 
ATOM      9  C4' I4B d   1       0.399  -2.404  -1.948  0.00  0.00     0.013 C 
ATOM     10  C3' I4B d   1      -1.116  -3.124  -0.122  0.00  0.00     0.013 C 
ENDBRANCH   7   8
ENDBRANCH   1   7
TORSDOF 2
ENDMDL
