MODEL 1
REMARK minimizedAffinity -0.199129626
REMARK minimizedRMSD -1
REMARK  0 active torsions:
REMARK  status: ('A' for Active; 'I' for Inactive)
ROOT
ATOM      1  C1  DEN d   1       0.035   1.104  -0.456  0.00  0.00     0.130 A 
ATOM      2  C2  DEN d   1       0.780   2.033   0.389  0.00  0.00    -0.031 A 
ATOM      3  C3  DEN d   1       1.958   1.320   0.923  0.00  0.00     0.027 A 
ATOM      4  C4  DEN d   1       2.700  -1.116   0.519  0.00  0.00     0.027 A 
ATOM      5  C5  DEN d   1       2.382  -2.296  -0.117  0.00  0.00    -0.003 A 
ATOM      6  C6  DEN d   1       1.251  -2.434  -0.877  0.00  0.00     0.001 A 
ATOM      7  C7  DEN d   1       0.419  -1.360  -1.057  0.00  0.00     0.017 A 
ATOM      8  C8  DEN d   1       0.729  -0.170  -0.413  0.00  0.00    -0.094 A 
ATOM      9  C9  DEN d   1       1.884  -0.047   0.341  0.00  0.00    -0.072 A 
ENDROOT
TORSDOF 0
ENDMDL
