MODEL 1
REMARK minimizedAffinity 12.7087231
REMARK minimizedRMSD -1
REMARK  0 active torsions:
REMARK  status: ('A' for Active; 'I' for Inactive)
ROOT
ATOM      1  C1  DEN d   1      -3.272   3.493   2.182  0.00  0.00     0.130 A 
ATOM      2  C2  DEN d   1      -4.139   2.436   2.696  0.00  0.00    -0.031 A 
ATOM      3  C3  DEN d   1      -3.279   1.342   3.192  0.00  0.00     0.027 A 
ATOM      4  C4  DEN d   1      -0.705   1.186   3.216  0.00  0.00     0.027 A 
ATOM      5  C5  DEN d   1       0.463   1.833   2.876  0.00  0.00    -0.003 A 
ATOM      6  C6  DEN d   1       0.466   3.054   2.255  0.00  0.00     0.001 A 
ATOM      7  C7  DEN d   1      -0.721   3.687   1.995  0.00  0.00     0.017 A 
ATOM      8  C8  DEN d   1      -1.902   3.037   2.329  0.00  0.00    -0.094 A 
ATOM      9  C9  DEN d   1      -1.884   1.809   2.967  0.00  0.00    -0.072 A 
ENDROOT
TORSDOF 0
ENDMDL
