MODEL 1
REMARK minimizedAffinity -1.20933902
REMARK minimizedRMSD -1
REMARK  0 active torsions:
REMARK  status: ('A' for Active; 'I' for Inactive)
ROOT
ATOM      1  C1  DEN d   1      -1.309  -3.064  -1.581  0.00  0.00     0.130 A 
ATOM      2  C2  DEN d   1      -1.469  -4.434  -1.104  0.00  0.00    -0.031 A 
ATOM      3  C3  DEN d   1      -0.393  -4.706  -0.129  0.00  0.00     0.027 A 
ATOM      4  C4  DEN d   1       1.490  -3.144   0.688  0.00  0.00     0.027 A 
ATOM      5  C5  DEN d   1       2.042  -1.889   0.559  0.00  0.00    -0.003 A 
ATOM      6  C6  DEN d   1       1.541  -0.957  -0.311  0.00  0.00     0.001 A 
ATOM      7  C7  DEN d   1       0.427  -1.250  -1.052  0.00  0.00     0.017 A 
ATOM      8  C8  DEN d   1      -0.131  -2.516  -0.933  0.00  0.00    -0.094 A 
ATOM      9  C9  DEN d   1       0.383  -3.440  -0.040  0.00  0.00    -0.072 A 
ENDROOT
TORSDOF 0
ENDMDL
