MODEL 1
REMARK minimizedAffinity -4.4981451
REMARK minimizedRMSD -1
REMARK  0 active torsions:
REMARK  status: ('A' for Active; 'I' for Inactive)
ROOT
ATOM      1  C2' OXE d   1      -1.481   0.488   2.733  0.00  0.00     0.078 C 
ATOM      2  C1' OXE d   1      -2.319   0.292   0.061  0.00  0.00     0.078 C 
ATOM      3  C1  OXE d   1      -0.866   0.025   0.364  0.00  0.00    -0.078 A 
ATOM      4  C2  OXE d   1      -0.455   0.169   1.667  0.00  0.00    -0.078 A 
ATOM      5  C3  OXE d   1       0.863  -0.119   2.010  0.00  0.00     0.003 A 
ATOM      6  C4  OXE d   1       1.808  -0.404   1.017  0.00  0.00    -0.002 A 
ATOM      7  C5  OXE d   1       1.418  -0.517  -0.322  0.00  0.00    -0.002 A 
ATOM      8  C6  OXE d   1       0.080  -0.348  -0.659  0.00  0.00     0.003 A 
ENDROOT
TORSDOF 0
ENDMDL
