MODEL 1
REMARK minimizedAffinity -3.68135238
REMARK minimizedRMSD -1
REMARK  0 active torsions:
REMARK  status: ('A' for Active; 'I' for Inactive)
ROOT
ATOM      1  C2' OXE d   1       1.579  -0.629   0.350  0.00  0.00     0.078 C 
ATOM      2  C1' OXE d   1      -1.016   0.316  -0.152  0.00  0.00     0.078 C 
ATOM      3  C1  OXE d   1      -0.592   0.158   1.286  0.00  0.00    -0.078 A 
ATOM      4  C2  OXE d   1       0.663  -0.349   1.523  0.00  0.00    -0.078 A 
ATOM      5  C3  OXE d   1       1.125  -0.464   2.831  0.00  0.00     0.003 A 
ATOM      6  C4  OXE d   1       0.269  -0.213   3.910  0.00  0.00    -0.002 A 
ATOM      7  C5  OXE d   1      -1.027   0.267   3.690  0.00  0.00    -0.002 A 
ATOM      8  C6  OXE d   1      -1.457   0.498   2.388  0.00  0.00     0.003 A 
ENDROOT
TORSDOF 0
ENDMDL
