MODEL 1
REMARK minimizedAffinity -0.496681213
REMARK minimizedRMSD -1
REMARK  0 active torsions:
REMARK  status: ('A' for Active; 'I' for Inactive)
ROOT
ATOM      1  C2' OXE d   1       3.375   1.212  -0.406  0.00  0.00     0.078 C 
ATOM      2  C1' OXE d   1       1.940   2.880   1.336  0.00  0.00     0.078 C 
ATOM      3  C1  OXE d   1       1.271   1.614   0.864  0.00  0.00    -0.078 A 
ATOM      4  C2  OXE d   1       1.962   0.827  -0.025  0.00  0.00    -0.078 A 
ATOM      5  C3  OXE d   1       1.413  -0.380  -0.449  0.00  0.00     0.003 A 
ATOM      6  C4  OXE d   1       0.101  -0.723  -0.100  0.00  0.00    -0.002 A 
ATOM      7  C5  OXE d   1      -0.636   0.084   0.773  0.00  0.00    -0.002 A 
ATOM      8  C6  OXE d   1      -0.051   1.232   1.297  0.00  0.00     0.003 A 
ENDROOT
TORSDOF 0
ENDMDL
