MODEL 1
REMARK minimizedAffinity 5.47801065
REMARK minimizedRMSD -1
REMARK  0 active torsions:
REMARK  status: ('A' for Active; 'I' for Inactive)
ROOT
ATOM      1  C2' OXE d   1      -3.214  -1.085   3.346  0.00  0.00     0.078 C 
ATOM      2  C1' OXE d   1      -2.857   0.303   0.932  0.00  0.00     0.078 C 
ATOM      3  C1  OXE d   1      -1.623  -0.117   1.691  0.00  0.00    -0.078 A 
ATOM      4  C2  OXE d   1      -1.808  -0.754   2.895  0.00  0.00    -0.078 A 
ATOM      5  C3  OXE d   1      -0.704  -1.211   3.609  0.00  0.00     0.003 A 
ATOM      6  C4  OXE d   1       0.593  -0.892   3.190  0.00  0.00    -0.002 A 
ATOM      7  C5  OXE d   1       0.803  -0.209   1.987  0.00  0.00    -0.002 A 
ATOM      8  C6  OXE d   1      -0.291   0.148   1.206  0.00  0.00     0.003 A 
ENDROOT
TORSDOF 0
ENDMDL
