MODEL 1
REMARK minimizedAffinity -3.53726268
REMARK minimizedRMSD -1
REMARK  0 active torsions:
REMARK  status: ('A' for Active; 'I' for Inactive)
ROOT
ATOM      1  C2' OXE d   1      -1.439  -1.119   2.958  0.00  0.00     0.078 C 
ATOM      2  C1' OXE d   1      -0.931  -0.631   0.241  0.00  0.00     0.078 C 
ATOM      3  C1  OXE d   1      -0.403   0.362   1.245  0.00  0.00    -0.078 A 
ATOM      4  C2  OXE d   1      -0.696   0.140   2.569  0.00  0.00    -0.078 A 
ATOM      5  C3  OXE d   1      -0.186   0.996   3.541  0.00  0.00     0.003 A 
ATOM      6  C4  OXE d   1       0.492   2.164   3.172  0.00  0.00    -0.002 A 
ATOM      7  C5  OXE d   1       0.767   2.430   1.826  0.00  0.00    -0.002 A 
ATOM      8  C6  OXE d   1       0.365   1.519   0.856  0.00  0.00     0.003 A 
ENDROOT
TORSDOF 0
ENDMDL
