MODEL 1
REMARK minimizedAffinity 4.25666189
REMARK minimizedRMSD -1
REMARK  0 active torsions:
REMARK  status: ('A' for Active; 'I' for Inactive)
ROOT
ATOM      1  C2' OXE d   1       0.414  -0.732   3.452  0.00  0.00     0.078 C 
ATOM      2  C1' OXE d   1       1.139  -0.984   0.751  0.00  0.00     0.078 C 
ATOM      3  C1  OXE d   1      -0.271  -0.548   1.063  0.00  0.00    -0.078 A 
ATOM      4  C2  OXE d   1      -0.631  -0.472   2.388  0.00  0.00    -0.078 A 
ATOM      5  C3  OXE d   1      -1.902  -0.023   2.732  0.00  0.00     0.003 A 
ATOM      6  C4  OXE d   1      -2.865   0.205   1.742  0.00  0.00    -0.002 A 
ATOM      7  C5  OXE d   1      -2.532   0.096   0.388  0.00  0.00    -0.002 A 
ATOM      8  C6  OXE d   1      -1.229  -0.238   0.032  0.00  0.00     0.003 A 
ENDROOT
TORSDOF 0
ENDMDL
