MODEL 1
REMARK minimizedAffinity -1.06014919
REMARK minimizedRMSD -1
REMARK  0 active torsions:
REMARK  status: ('A' for Active; 'I' for Inactive)
ROOT
ATOM      1  C2' OXE d   1       0.164  -1.647  -1.546  0.00  0.00     0.078 C 
ATOM      2  C1' OXE d   1       1.536  -0.756   0.736  0.00  0.00     0.078 C 
ATOM      3  C1  OXE d   1       0.062  -0.451   0.638  0.00  0.00    -0.078 A 
ATOM      4  C2  OXE d   1      -0.592  -0.850  -0.504  0.00  0.00    -0.078 A 
ATOM      5  C3  OXE d   1      -1.963  -0.643  -0.621  0.00  0.00     0.003 A 
ATOM      6  C4  OXE d   1      -2.652   0.103   0.342  0.00  0.00    -0.002 A 
ATOM      7  C5  OXE d   1      -1.997   0.553   1.494  0.00  0.00    -0.002 A 
ATOM      8  C6  OXE d   1      -0.653   0.248   1.676  0.00  0.00     0.003 A 
ENDROOT
TORSDOF 0
ENDMDL
