MODEL 1
REMARK minimizedAffinity -0.365070075
REMARK minimizedRMSD -1
REMARK  0 active torsions:
REMARK  status: ('A' for Active; 'I' for Inactive)
ROOT
ATOM      1  C2' OXE d   1      -2.512  -0.004   0.121  0.00  0.00     0.078 C 
ATOM      2  C1' OXE d   1       0.041  -1.088  -0.312  0.00  0.00     0.078 C 
ATOM      3  C1  OXE d   1      -0.282  -0.578   1.071  0.00  0.00    -0.078 A 
ATOM      4  C2  OXE d   1      -1.517  -0.007   1.262  0.00  0.00    -0.078 A 
ATOM      5  C3  OXE d   1      -1.886   0.429   2.531  0.00  0.00     0.003 A 
ATOM      6  C4  OXE d   1      -0.957   0.431   3.578  0.00  0.00    -0.002 A 
ATOM      7  C5  OXE d   1       0.320  -0.110   3.394  0.00  0.00    -0.002 A 
ATOM      8  C6  OXE d   1       0.658  -0.656   2.161  0.00  0.00     0.003 A 
ENDROOT
TORSDOF 0
ENDMDL
