MODEL 1
REMARK minimizedAffinity -0.443378121
REMARK minimizedRMSD -1
REMARK  0 active torsions:
REMARK  status: ('A' for Active; 'I' for Inactive)
ROOT
ATOM      1  C2' OXE d   1       0.292  -0.391  -0.098  0.00  0.00     0.078 C 
ATOM      2  C1' OXE d   1      -2.209   0.883  -0.091  0.00  0.00     0.078 C 
ATOM      3  C1  OXE d   1      -1.701   0.323   1.214  0.00  0.00    -0.078 A 
ATOM      4  C2  OXE d   1      -0.498  -0.340   1.192  0.00  0.00    -0.078 A 
ATOM      5  C3  OXE d   1       0.043  -0.827   2.378  0.00  0.00     0.003 A 
ATOM      6  C4  OXE d   1      -0.699  -0.785   3.565  0.00  0.00    -0.002 A 
ATOM      7  C5  OXE d   1      -1.944  -0.149   3.602  0.00  0.00    -0.002 A 
ATOM      8  C6  OXE d   1      -2.440   0.446   2.447  0.00  0.00     0.003 A 
ENDROOT
TORSDOF 0
ENDMDL
