MODEL 1
REMARK minimizedAffinity 3.93268919
REMARK minimizedRMSD -1
REMARK  0 active torsions:
REMARK  status: ('A' for Active; 'I' for Inactive)
ROOT
ATOM      1  C2' OXE d   1      -1.573   1.706   2.231  0.00  0.00     0.078 C 
ATOM      2  C1' OXE d   1       0.636   0.305   1.212  0.00  0.00     0.078 C 
ATOM      3  C1  OXE d   1      -0.697   0.103   0.537  0.00  0.00    -0.078 A 
ATOM      4  C2  OXE d   1      -1.782   0.756   1.071  0.00  0.00    -0.078 A 
ATOM      5  C3  OXE d   1      -3.024   0.648   0.453  0.00  0.00     0.003 A 
ATOM      6  C4  OXE d   1      -3.211  -0.240  -0.613  0.00  0.00    -0.002 A 
ATOM      7  C5  OXE d   1      -2.128  -0.946  -1.147  0.00  0.00    -0.002 A 
ATOM      8  C6  OXE d   1      -0.859  -0.753  -0.612  0.00  0.00     0.003 A 
ENDROOT
TORSDOF 0
ENDMDL
