MODEL 1
REMARK minimizedAffinity 5.31065559
REMARK minimizedRMSD -1
REMARK  0 active torsions:
REMARK  status: ('A' for Active; 'I' for Inactive)
ROOT
ATOM      1  N1  IND d   1      -6.000   4.213  -5.326  0.00  0.00    -0.196 N 
ATOM      2  C2  IND d   1      -5.998   5.021  -4.223  0.00  0.00     0.054 A 
ATOM      3  C3  IND d   1      -5.060   4.610  -3.341  0.00  0.00    -0.031 A 
ATOM      4  C4  IND d   1      -3.348   2.698  -3.545  0.00  0.00     0.051 A 
ATOM      5  C5  IND d   1      -2.986   1.658  -4.354  0.00  0.00    -0.031 A 
ATOM      6  C6  IND d   1      -3.621   1.413  -5.555  0.00  0.00     0.015 A 
ATOM      7  C7  IND d   1      -4.639   2.210  -5.998  0.00  0.00    -0.016 A 
ATOM      8  C8  IND d   1      -5.014   3.263  -5.175  0.00  0.00    -0.047 A 
ATOM      9  C9  IND d   1      -4.402   3.491  -3.936  0.00  0.00    -0.096 A 
ATOM     10  HN1 IND d   1      -6.528   4.286  -6.001  0.00  0.00     0.298 HD
ENDROOT
TORSDOF 0
ENDMDL
