MODEL 1
REMARK minimizedAffinity 2.55943561
REMARK minimizedRMSD -1
REMARK  0 active torsions:
REMARK  status: ('A' for Active; 'I' for Inactive)
ROOT
ATOM      1  N1  IND d   1      -5.109   4.840  -2.362  0.00  0.00    -0.196 N 
ATOM      2  C2  IND d   1      -5.254   3.735  -1.570  0.00  0.00     0.054 A 
ATOM      3  C3  IND d   1      -5.635   2.671  -2.312  0.00  0.00    -0.031 A 
ATOM      4  C4  IND d   1      -5.979   2.491  -4.857  0.00  0.00     0.051 A 
ATOM      5  C5  IND d   1      -5.999   3.244  -5.997  0.00  0.00    -0.031 A 
ATOM      6  C6  IND d   1      -5.715   4.594  -5.984  0.00  0.00     0.015 A 
ATOM      7  C7  IND d   1      -5.388   5.242  -4.827  0.00  0.00    -0.016 A 
ATOM      8  C8  IND d   1      -5.373   4.482  -3.666  0.00  0.00    -0.047 A 
ATOM      9  C9  IND d   1      -5.702   3.121  -3.666  0.00  0.00    -0.096 A 
ATOM     10  HN1 IND d   1      -4.889   5.626  -2.092  0.00  0.00     0.298 HD
ENDROOT
TORSDOF 0
ENDMDL
