MODEL 1
REMARK minimizedAffinity 13.0447206
REMARK minimizedRMSD -1
REMARK  0 active torsions:
REMARK  status: ('A' for Active; 'I' for Inactive)
ROOT
ATOM      1  N1  IND d   1      -0.363   0.104   5.144  0.00  0.00    -0.196 N 
ATOM      2  C2  IND d   1       0.709  -0.709   5.388  0.00  0.00     0.054 A 
ATOM      3  C3  IND d   1       1.761  -0.343   4.623  0.00  0.00    -0.031 A 
ATOM      4  C4  IND d   1       1.979   1.624   2.976  0.00  0.00     0.051 A 
ATOM      5  C5  IND d   1       1.255   2.625   2.391  0.00  0.00    -0.031 A 
ATOM      6  C6  IND d   1      -0.071   2.843   2.702  0.00  0.00     0.015 A 
ATOM      7  C7  IND d   1      -0.723   2.071   3.623  0.00  0.00    -0.016 A 
ATOM      8  C8  IND d   1       0.007   1.050   4.213  0.00  0.00    -0.047 A 
ATOM      9  C9  IND d   1       1.342   0.797   3.870  0.00  0.00    -0.096 A 
ATOM     10  HN1 IND d   1      -1.138   0.036   5.511  0.00  0.00     0.298 HD
ENDROOT
TORSDOF 0
ENDMDL
