MODEL 1
REMARK minimizedAffinity 5.84532499
REMARK minimizedRMSD -1
REMARK  0 active torsions:
REMARK  status: ('A' for Active; 'I' for Inactive)
ROOT
ATOM      1  N1  IND d   1      -3.767  -5.842  -2.102  0.00  0.00    -0.196 N 
ATOM      2  C2  IND d   1      -4.957  -5.800  -1.431  0.00  0.00     0.054 A 
ATOM      3  C3  IND d   1      -5.989  -5.781  -2.305  0.00  0.00    -0.031 A 
ATOM      4  C4  IND d   1      -5.958  -5.913  -4.875  0.00  0.00     0.051 A 
ATOM      5  C5  IND d   1      -5.105  -5.927  -5.943  0.00  0.00    -0.031 A 
ATOM      6  C6  IND d   1      -3.735  -5.916  -5.782  0.00  0.00     0.015 A 
ATOM      7  C7  IND d   1      -3.164  -5.902  -4.541  0.00  0.00    -0.016 A 
ATOM      8  C8  IND d   1      -4.027  -5.880  -3.454  0.00  0.00    -0.047 A 
ATOM      9  C9  IND d   1      -5.418  -5.848  -3.613  0.00  0.00    -0.096 A 
ATOM     10  HN1 IND d   1      -2.987  -5.843  -1.740  0.00  0.00     0.298 HD
ENDROOT
TORSDOF 0
ENDMDL
