MODEL 1
REMARK minimizedAffinity 10.978158
REMARK minimizedRMSD -1
REMARK  0 active torsions:
REMARK  status: ('A' for Active; 'I' for Inactive)
ROOT
ATOM      1  N1  IND d   1      -0.710   3.377   1.874  0.00  0.00    -0.196 N 
ATOM      2  C2  IND d   1       0.377   2.627   2.229  0.00  0.00     0.054 A 
ATOM      3  C3  IND d   1       1.461   3.003   1.514  0.00  0.00    -0.031 A 
ATOM      4  C4  IND d   1       1.703   4.893  -0.218  0.00  0.00     0.051 A 
ATOM      5  C5  IND d   1       0.977   5.828  -0.900  0.00  0.00    -0.031 A 
ATOM      6  C6  IND d   1      -0.375   6.000  -0.686  0.00  0.00     0.015 A 
ATOM      7  C7  IND d   1      -1.053   5.247   0.231  0.00  0.00    -0.016 A 
ATOM      8  C8  IND d   1      -0.320   4.291   0.920  0.00  0.00    -0.047 A 
ATOM      9  C9  IND d   1       1.044   4.083   0.676  0.00  0.00    -0.096 A 
ATOM     10  HN1 IND d   1      -1.504   3.292   2.193  0.00  0.00     0.298 HD
ENDROOT
TORSDOF 0
ENDMDL
