MODEL 1
REMARK minimizedAffinity -4.8141799
REMARK minimizedRMSD -1
REMARK  1 active torsions:
REMARK  status: ('A' for Active; 'I' for Inactive)
REMARK    1  A    between atoms: C1_2  and  C2_3 
ROOT
ATOM      1  C2  UNL d   1       0.018  -0.215   0.249  0.00  0.00    -0.076 A 
ATOM      2  C3  UNL d   1      -0.731  -1.342   0.630  0.00  0.00     0.004 A 
ATOM      3  C4  UNL d   1      -0.121  -2.583   0.805  0.00  0.00    -0.003 A 
ATOM      4  C5  UNL d   1       1.248  -2.717   0.601  0.00  0.00     0.000 A 
ATOM      5  C6  UNL d   1       2.009  -1.606   0.240  0.00  0.00     0.000 A 
ATOM      6  C7  UNL d   1       1.413  -0.345   0.076  0.00  0.00    -0.073 A 
ATOM      7  C8  UNL d   1       2.281   0.818  -0.320  0.00  0.00     0.078 C 
ENDROOT
BRANCH   1   8
ATOM      8  C1  UNL d   1      -0.702   1.099   0.048  0.00  0.00     0.053 C 
ATOM      9  C   UNL d   1      -1.518   1.126  -1.236  0.00  0.00     0.018 C 
ENDBRANCH   1   8
TORSDOF 1
ENDMDL
