MODEL 1
REMARK minimizedAffinity -3.8284173
REMARK minimizedRMSD -1
REMARK  1 active torsions:
REMARK  status: ('A' for Active; 'I' for Inactive)
REMARK    1  A    between atoms: C1_2  and  C2_3 
ROOT
ATOM      1  C2  UNL d   1      -0.093  -0.088   0.276  0.00  0.00    -0.076 A 
ATOM      2  C3  UNL d   1      -0.937  -1.195   0.471  0.00  0.00     0.004 A 
ATOM      3  C4  UNL d   1      -0.412  -2.460   0.734  0.00  0.00    -0.003 A 
ATOM      4  C5  UNL d   1       0.965  -2.637   0.806  0.00  0.00     0.000 A 
ATOM      5  C6  UNL d   1       1.816  -1.546   0.633  0.00  0.00     0.000 A 
ATOM      6  C7  UNL d   1       1.303  -0.262   0.384  0.00  0.00    -0.073 A 
ATOM      7  C8  UNL d   1       2.267   0.878   0.199  0.00  0.00     0.078 C 
ENDROOT
BRANCH   1   8
ATOM      8  C1  UNL d   1      -0.719   1.254  -0.032  0.00  0.00     0.053 C 
ATOM      9  C   UNL d   1      -1.451   1.262  -1.365  0.00  0.00     0.018 C 
ENDBRANCH   1   8
TORSDOF 1
ENDMDL
