MODEL 1
REMARK minimizedAffinity -5.55007219
REMARK minimizedRMSD -1
REMARK  1 active torsions:
REMARK  status: ('A' for Active; 'I' for Inactive)
REMARK    1  A    between atoms: C1_2  and  C2_3 
ROOT
ATOM      1  C2  UNL d   1      -0.411   0.170   0.162  0.00  0.00    -0.076 A 
ATOM      2  C3  UNL d   1       0.577  -0.460  -0.614  0.00  0.00     0.004 A 
ATOM      3  C4  UNL d   1       1.121  -1.684  -0.228  0.00  0.00    -0.003 A 
ATOM      4  C5  UNL d   1       0.686  -2.298   0.941  0.00  0.00     0.000 A 
ATOM      5  C6  UNL d   1      -0.306  -1.695   1.715  0.00  0.00     0.000 A 
ATOM      6  C7  UNL d   1      -0.877  -0.470   1.331  0.00  0.00    -0.073 A 
ATOM      7  C8  UNL d   1      -1.939   0.138   2.206  0.00  0.00     0.078 C 
ENDROOT
BRANCH   1   8
ATOM      8  C1  UNL d   1      -0.945   1.509  -0.293  0.00  0.00     0.053 C 
ATOM      9  C   UNL d   1      -1.607   1.439  -1.660  0.00  0.00     0.018 C 
ENDBRANCH   1   8
TORSDOF 1
ENDMDL
