MODEL 1
REMARK minimizedAffinity -5.2019906
REMARK minimizedRMSD -1
REMARK  1 active torsions:
REMARK  status: ('A' for Active; 'I' for Inactive)
REMARK    1  A    between atoms: C1_2  and  C2_3 
ROOT
ATOM      1  C2  UNL d   1       0.091   0.218   0.035  0.00  0.00    -0.076 A 
ATOM      2  C3  UNL d   1      -0.682  -0.716   0.747  0.00  0.00     0.004 A 
ATOM      3  C4  UNL d   1      -0.151  -1.948   1.125  0.00  0.00    -0.003 A 
ATOM      4  C5  UNL d   1       1.162  -2.267   0.796  0.00  0.00     0.000 A 
ATOM      5  C6  UNL d   1       1.949  -1.346   0.105  0.00  0.00     0.000 A 
ATOM      6  C7  UNL d   1       1.434  -0.092  -0.269  0.00  0.00    -0.073 A 
ATOM      7  C8  UNL d   1       2.325   0.860  -1.018  0.00  0.00     0.078 C 
ENDROOT
BRANCH   1   8
ATOM      8  C1  UNL d   1      -0.548   1.527  -0.371  0.00  0.00     0.053 C 
ATOM      9  C   UNL d   1      -1.776   1.329  -1.246  0.00  0.00     0.018 C 
ENDBRANCH   1   8
TORSDOF 1
ENDMDL
