MODEL 1
REMARK minimizedAffinity -4.03524971
REMARK minimizedRMSD -1
REMARK  1 active torsions:
REMARK  status: ('A' for Active; 'I' for Inactive)
REMARK    1  A    between atoms: C1_2  and  C2_3 
ROOT
ATOM      1  C2  UNL d   1      -0.129   1.182  -0.459  0.00  0.00    -0.076 A 
ATOM      2  C3  UNL d   1       1.053   0.714  -1.059  0.00  0.00     0.004 A 
ATOM      3  C4  UNL d   1       1.711  -0.411  -0.566  0.00  0.00    -0.003 A 
ATOM      4  C5  UNL d   1       1.197  -1.087   0.535  0.00  0.00     0.000 A 
ATOM      5  C6  UNL d   1       0.015  -0.648   1.132  0.00  0.00     0.000 A 
ATOM      6  C7  UNL d   1      -0.669   0.476   0.637  0.00  0.00    -0.073 A 
ATOM      7  C8  UNL d   1      -1.935   0.909   1.323  0.00  0.00     0.078 C 
ENDROOT
BRANCH   1   8
ATOM      8  C1  UNL d   1      -0.784   2.424  -1.021  0.00  0.00     0.053 C 
ATOM      9  C   UNL d   1      -1.814   2.105  -2.094  0.00  0.00     0.018 C 
ENDBRANCH   1   8
TORSDOF 1
ENDMDL
