MODEL 1
REMARK minimizedAffinity -4.01754618
REMARK minimizedRMSD -1
REMARK  1 active torsions:
REMARK  status: ('A' for Active; 'I' for Inactive)
REMARK    1  A    between atoms: C1_2  and  C2_3 
ROOT
ATOM      1  C2  UNL d   1       0.404  -1.025   0.362  0.00  0.00    -0.076 A 
ATOM      2  C3  UNL d   1       0.942  -0.259  -0.687  0.00  0.00     0.004 A 
ATOM      3  C4  UNL d   1       0.334   0.928  -1.093  0.00  0.00    -0.003 A 
ATOM      4  C5  UNL d   1      -0.821   1.368  -0.457  0.00  0.00     0.000 A 
ATOM      5  C6  UNL d   1      -1.358   0.630   0.597  0.00  0.00     0.000 A 
ATOM      6  C7  UNL d   1      -0.749  -0.560   1.030  0.00  0.00    -0.073 A 
ATOM      7  C8  UNL d   1      -1.375  -1.319   2.167  0.00  0.00     0.078 C 
ENDROOT
BRANCH   1   8
ATOM      8  C1  UNL d   1       1.091  -2.317   0.741  0.00  0.00     0.053 C 
ATOM      9  C   UNL d   1       2.454  -2.088   1.377  0.00  0.00     0.018 C 
ENDBRANCH   1   8
TORSDOF 1
ENDMDL
