MODEL 1
REMARK minimizedAffinity -4.04519558
REMARK minimizedRMSD -1
REMARK  1 active torsions:
REMARK  status: ('A' for Active; 'I' for Inactive)
REMARK    1  A    between atoms: C1_2  and  C2_3 
ROOT
ATOM      1  C2  UNL d   1      -0.131   0.279  -0.018  0.00  0.00    -0.076 A 
ATOM      2  C3  UNL d   1      -0.698  -0.894   0.509  0.00  0.00     0.004 A 
ATOM      3  C4  UNL d   1       0.074  -2.037   0.709  0.00  0.00    -0.003 A 
ATOM      4  C5  UNL d   1       1.427  -2.025   0.387  0.00  0.00     0.000 A 
ATOM      5  C6  UNL d   1       2.010  -0.864  -0.120  0.00  0.00     0.000 A 
ATOM      6  C7  UNL d   1       1.249   0.302  -0.313  0.00  0.00    -0.073 A 
ATOM      7  C8  UNL d   1       1.927   1.524  -0.868  0.00  0.00     0.078 C 
ENDROOT
BRANCH   1   8
ATOM      8  C1  UNL d   1      -1.025   1.479  -0.239  0.00  0.00     0.053 C 
ATOM      9  C   UNL d   1      -1.705   1.456  -1.599  0.00  0.00     0.018 C 
ENDBRANCH   1   8
TORSDOF 1
ENDMDL
