MODEL 1
REMARK minimizedAffinity -4.78380442
REMARK minimizedRMSD -1
REMARK  1 active torsions:
REMARK  status: ('A' for Active; 'I' for Inactive)
REMARK    1  A    between atoms: C1_2  and  C2_3 
ROOT
ATOM      1  C2  UNL d   1       0.304  -0.061  -0.041  0.00  0.00    -0.076 A 
ATOM      2  C3  UNL d   1       1.463  -0.005  -0.834  0.00  0.00     0.004 A 
ATOM      3  C4  UNL d   1       2.328  -1.095  -0.919  0.00  0.00    -0.003 A 
ATOM      4  C5  UNL d   1       2.047  -2.259  -0.212  0.00  0.00     0.000 A 
ATOM      5  C6  UNL d   1       0.893  -2.339   0.566  0.00  0.00     0.000 A 
ATOM      6  C7  UNL d   1       0.002  -1.255   0.649  0.00  0.00    -0.073 A 
ATOM      7  C8  UNL d   1      -1.225  -1.393   1.508  0.00  0.00     0.078 C 
ENDROOT
BRANCH   1   8
ATOM      8  C1  UNL d   1      -0.582   1.162   0.035  0.00  0.00     0.053 C 
ATOM      9  C   UNL d   1      -1.273   1.462  -1.286  0.00  0.00     0.018 C 
ENDBRANCH   1   8
TORSDOF 1
ENDMDL
