MODEL 1
REMARK minimizedAffinity -4.21984863
REMARK minimizedRMSD -1
REMARK  1 active torsions:
REMARK  status: ('A' for Active; 'I' for Inactive)
REMARK    1  A    between atoms: C1_2  and  C2_3 
ROOT
ATOM      1  C2  UNL d   1       0.230  -0.187  -0.161  0.00  0.00    -0.076 A 
ATOM      2  C3  UNL d   1      -0.404  -1.087   0.714  0.00  0.00     0.004 A 
ATOM      3  C4  UNL d   1       0.337  -1.984   1.480  0.00  0.00    -0.003 A 
ATOM      4  C5  UNL d   1       1.725  -1.996   1.386  0.00  0.00     0.000 A 
ATOM      5  C6  UNL d   1       2.371  -1.098   0.536  0.00  0.00     0.000 A 
ATOM      6  C7  UNL d   1       1.639  -0.176  -0.231  0.00  0.00    -0.073 A 
ATOM      7  C8  UNL d   1       2.387   0.765  -1.135  0.00  0.00     0.078 C 
ENDROOT
BRANCH   1   8
ATOM      8  C1  UNL d   1      -0.628   0.745  -0.987  0.00  0.00     0.053 C 
ATOM      9  C   UNL d   1      -1.224   1.875  -0.162  0.00  0.00     0.018 C 
ENDBRANCH   1   8
TORSDOF 1
ENDMDL
