MODEL 1
REMARK minimizedAffinity -3.87481046
REMARK minimizedRMSD -1
REMARK  1 active torsions:
REMARK  status: ('A' for Active; 'I' for Inactive)
REMARK    1  A    between atoms: C1_2  and  C2_3 
ROOT
ATOM      1  C2  UNL d   1      -0.071   0.197   0.059  0.00  0.00    -0.076 A 
ATOM      2  C3  UNL d   1       0.990   0.177  -0.862  0.00  0.00     0.004 A 
ATOM      3  C4  UNL d   1       1.943  -0.840  -0.837  0.00  0.00    -0.003 A 
ATOM      4  C5  UNL d   1       1.849  -1.855   0.109  0.00  0.00     0.000 A 
ATOM      5  C6  UNL d   1       0.793  -1.861   1.019  0.00  0.00     0.000 A 
ATOM      6  C7  UNL d   1      -0.185  -0.851   0.997  0.00  0.00    -0.073 A 
ATOM      7  C8  UNL d   1      -1.300  -0.904   2.006  0.00  0.00     0.078 C 
ENDROOT
BRANCH   1   8
ATOM      8  C1  UNL d   1      -1.059   1.340   0.002  0.00  0.00     0.053 C 
ATOM      9  C   UNL d   1      -1.469   1.685  -1.422  0.00  0.00     0.018 C 
ENDBRANCH   1   8
TORSDOF 1
ENDMDL
