MODEL 1
REMARK minimizedAffinity -2.29667616
REMARK minimizedRMSD -1
REMARK  1 active torsions:
REMARK  status: ('A' for Active; 'I' for Inactive)
REMARK    1  A    between atoms: C1_2  and  C2_3 
ROOT
ATOM      1  C2  UNL d   1      -0.071  -0.121   0.015  0.00  0.00    -0.076 A 
ATOM      2  C3  UNL d   1      -0.771  -1.280   0.394  0.00  0.00     0.004 A 
ATOM      3  C4  UNL d   1      -0.097  -2.470   0.660  0.00  0.00    -0.003 A 
ATOM      4  C5  UNL d   1       1.289  -2.521   0.553  0.00  0.00     0.000 A 
ATOM      5  C6  UNL d   1       2.000  -1.376   0.196  0.00  0.00     0.000 A 
ATOM      6  C7  UNL d   1       1.337  -0.164  -0.060  0.00  0.00    -0.073 A 
ATOM      7  C8  UNL d   1       2.154   1.038  -0.448  0.00  0.00     0.078 C 
ENDROOT
BRANCH   1   8
ATOM      8  C1  UNL d   1      -0.859   1.134  -0.287  0.00  0.00     0.053 C 
ATOM      9  C   UNL d   1      -1.772   0.972  -1.492  0.00  0.00     0.018 C 
ENDBRANCH   1   8
TORSDOF 1
ENDMDL
