MODEL 1
REMARK minimizedAffinity -2.78271461
REMARK minimizedRMSD -1
REMARK  1 active torsions:
REMARK  status: ('A' for Active; 'I' for Inactive)
REMARK    1  A    between atoms: C1_2  and  C2_3 
ROOT
ATOM      1  C2  UNL d   1      -0.195   0.130   0.178  0.00  0.00    -0.076 A 
ATOM      2  C3  UNL d   1       0.916  -0.002  -0.673  0.00  0.00     0.004 A 
ATOM      3  C4  UNL d   1       1.855  -1.013  -0.477  0.00  0.00    -0.003 A 
ATOM      4  C5  UNL d   1       1.698  -1.910   0.573  0.00  0.00     0.000 A 
ATOM      5  C6  UNL d   1       0.592  -1.806   1.417  0.00  0.00     0.000 A 
ATOM      6  C7  UNL d   1      -0.372  -0.802   1.224  0.00  0.00    -0.073 A 
ATOM      7  C8  UNL d   1      -1.541  -0.732   2.168  0.00  0.00     0.078 C 
ENDROOT
BRANCH   1   8
ATOM      8  C1  UNL d   1      -1.166   1.262  -0.067  0.00  0.00     0.053 C 
ATOM      9  C   UNL d   1      -1.326   1.583  -1.545  0.00  0.00     0.018 C 
ENDBRANCH   1   8
TORSDOF 1
ENDMDL
