MODEL 1
REMARK minimizedAffinity -2.41343594
REMARK minimizedRMSD -1
REMARK  0 active torsions:
REMARK  status: ('A' for Active; 'I' for Inactive)
ROOT
ATOM      1  C   UNL d   1      -0.016   0.725   1.137  0.00  0.00     0.124 A 
ATOM      2  C1  UNL d   1       0.356   1.345  -0.048  0.00  0.00     0.062 A 
ATOM      3  C2  UNL d   1       0.041   0.761  -1.272  0.00  0.00     0.162 A 
ATOM      4  C3  UNL d   1      -0.650  -0.449  -1.318  0.00  0.00    -0.034 A 
ATOM      5  C4  UNL d   1      -1.019  -1.068  -0.122  0.00  0.00     0.162 A 
ATOM      6  C5  UNL d   1      -0.703  -0.480   1.099  0.00  0.00     0.062 A 
ATOM      7  F   UNL d   1      -1.062  -1.081   2.243  0.00  0.00    -0.097 F 
ATOM      8  F1  UNL d   1      -1.685  -2.232  -0.129  0.00  0.00    -0.096 F 
ATOM      9  I   UNL d   1      -1.123  -1.325  -3.146  0.00  0.00    -0.060 I 
ATOM     10  F2  UNL d   1       0.412   1.383  -2.401  0.00  0.00    -0.096 F 
ATOM     11  F3  UNL d   1       1.020   2.509  -0.015  0.00  0.00    -0.097 F 
ATOM     12  F4  UNL d   1       0.289   1.288   2.313  0.00  0.00    -0.092 F 
ENDROOT
TORSDOF 0
ENDMDL
