MODEL 1
REMARK minimizedAffinity -1.79444957
REMARK minimizedRMSD -1
REMARK  0 active torsions:
REMARK  status: ('A' for Active; 'I' for Inactive)
ROOT
ATOM      1  C   UNL d   1       1.265   0.688   0.044  0.00  0.00     0.124 A 
ATOM      2  C1  UNL d   1       0.574  -0.492  -0.198  0.00  0.00     0.062 A 
ATOM      3  C2  UNL d   1      -0.441  -0.898   0.663  0.00  0.00     0.162 A 
ATOM      4  C3  UNL d   1      -0.773  -0.124   1.774  0.00  0.00    -0.034 A 
ATOM      5  C4  UNL d   1      -0.074   1.061   2.012  0.00  0.00     0.162 A 
ATOM      6  C5  UNL d   1       0.940   1.463   1.148  0.00  0.00     0.062 A 
ATOM      7  F   UNL d   1       1.606   2.603   1.383  0.00  0.00    -0.097 F 
ATOM      8  F1  UNL d   1      -0.367   1.830   3.071  0.00  0.00    -0.096 F 
ATOM      9  I   UNL d   1      -2.290  -0.728   3.064  0.00  0.00    -0.060 I 
ATOM     10  F2  UNL d   1      -1.091  -2.043   0.405  0.00  0.00    -0.096 F 
ATOM     11  F3  UNL d   1       0.887  -1.243  -1.264  0.00  0.00    -0.097 F 
ATOM     12  F4  UNL d   1       2.242   1.076  -0.786  0.00  0.00    -0.092 F 
ENDROOT
TORSDOF 0
ENDMDL
