MODEL 1
REMARK minimizedAffinity -2.14452982
REMARK minimizedRMSD -1
REMARK  0 active torsions:
REMARK  status: ('A' for Active; 'I' for Inactive)
ROOT
ATOM      1  C   UNL d   1       0.496  -1.753  -0.800  0.00  0.00     0.124 A 
ATOM      2  C1  UNL d   1       1.767  -1.202  -0.717  0.00  0.00     0.062 A 
ATOM      3  C2  UNL d   1       1.942   0.081  -0.206  0.00  0.00     0.162 A 
ATOM      4  C3  UNL d   1       0.842   0.822   0.227  0.00  0.00    -0.034 A 
ATOM      5  C4  UNL d   1      -0.433   0.261   0.139  0.00  0.00     0.162 A 
ATOM      6  C5  UNL d   1      -0.603  -1.021  -0.372  0.00  0.00     0.062 A 
ATOM      7  F   UNL d   1      -1.832  -1.551  -0.452  0.00  0.00    -0.097 F 
ATOM      8  F1  UNL d   1      -1.512   0.946   0.547  0.00  0.00    -0.096 F 
ATOM      9  I   UNL d   1       1.099   2.740   0.992  0.00  0.00    -0.060 I 
ATOM     10  F2  UNL d   1       3.182   0.588  -0.137  0.00  0.00    -0.096 F 
ATOM     11  F3  UNL d   1       2.830  -1.907  -1.131  0.00  0.00    -0.097 F 
ATOM     12  F4  UNL d   1       0.330  -2.987  -1.294  0.00  0.00    -0.092 F 
ENDROOT
TORSDOF 0
ENDMDL
