MODEL 1
REMARK minimizedAffinity -1.39626205
REMARK minimizedRMSD -1
REMARK  0 active torsions:
REMARK  status: ('A' for Active; 'I' for Inactive)
ROOT
ATOM      1  C   UNL d   1       1.055   1.631   1.700  0.00  0.00     0.124 A 
ATOM      2  C1  UNL d   1      -0.069   1.008   2.224  0.00  0.00     0.062 A 
ATOM      3  C2  UNL d   1      -0.740   0.039   1.483  0.00  0.00     0.162 A 
ATOM      4  C3  UNL d   1      -0.289  -0.314   0.212  0.00  0.00    -0.034 A 
ATOM      5  C4  UNL d   1       0.842   0.318  -0.309  0.00  0.00     0.162 A 
ATOM      6  C5  UNL d   1       1.510   1.286   0.435  0.00  0.00     0.062 A 
ATOM      7  F   UNL d   1       2.596   1.887  -0.072  0.00  0.00    -0.097 F 
ATOM      8  F1  UNL d   1       1.303   0.003  -1.528  0.00  0.00    -0.096 F 
ATOM      9  I   UNL d   1      -1.290  -1.762  -0.898  0.00  0.00    -0.060 I 
ATOM     10  F2  UNL d   1      -1.824  -0.547   2.014  0.00  0.00    -0.096 F 
ATOM     11  F3  UNL d   1      -0.510   1.340   3.445  0.00  0.00    -0.097 F 
ATOM     12  F4  UNL d   1       1.699   2.563   2.414  0.00  0.00    -0.092 F 
ENDROOT
TORSDOF 0
ENDMDL
