MODEL 1
REMARK minimizedAffinity 0.866030872
REMARK minimizedRMSD -1
REMARK  0 active torsions:
REMARK  status: ('A' for Active; 'I' for Inactive)
ROOT
ATOM      1  C   UNL d   1       1.363   1.309   0.938  0.00  0.00     0.124 A 
ATOM      2  C1  UNL d   1       0.036   1.223   1.336  0.00  0.00     0.062 A 
ATOM      3  C2  UNL d   1      -0.813   0.291   0.746  0.00  0.00     0.162 A 
ATOM      4  C3  UNL d   1      -0.337  -0.563  -0.248  0.00  0.00    -0.034 A 
ATOM      5  C4  UNL d   1       0.999  -0.471  -0.644  0.00  0.00     0.162 A 
ATOM      6  C5  UNL d   1       1.843   0.462  -0.051  0.00  0.00     0.062 A 
ATOM      7  F   UNL d   1       3.125   0.544  -0.437  0.00  0.00    -0.097 F 
ATOM      8  F1  UNL d   1       1.489  -1.277  -1.597  0.00  0.00    -0.096 F 
ATOM      9  I   UNL d   1      -1.603  -1.958  -1.133  0.00  0.00    -0.060 I 
ATOM     10  F2  UNL d   1      -2.090   0.231   1.150  0.00  0.00    -0.096 F 
ATOM     11  F3  UNL d   1      -0.430   2.041   2.291  0.00  0.00    -0.097 F 
ATOM     12  F4  UNL d   1       2.178   2.207   1.507  0.00  0.00    -0.092 F 
ENDROOT
TORSDOF 0
ENDMDL
