MODEL 1
REMARK minimizedAffinity -4.1262002
REMARK minimizedRMSD -1
REMARK  0 active torsions:
REMARK  status: ('A' for Active; 'I' for Inactive)
ROOT
ATOM      1  C   UNL d   1       1.880   2.136   0.624  0.00  0.00     0.124 A 
ATOM      2  C1  UNL d   1       2.369   0.989   0.015  0.00  0.00     0.062 A 
ATOM      3  C2  UNL d   1       1.502  -0.040  -0.341  0.00  0.00     0.162 A 
ATOM      4  C3  UNL d   1       0.135   0.074  -0.089  0.00  0.00    -0.034 A 
ATOM      5  C4  UNL d   1      -0.350   1.230   0.525  0.00  0.00     0.162 A 
ATOM      6  C5  UNL d   1       0.521   2.255   0.878  0.00  0.00     0.062 A 
ATOM      7  F   UNL d   1       0.046   3.363   1.467  0.00  0.00    -0.097 F 
ATOM      8  F1  UNL d   1      -1.659   1.372   0.782  0.00  0.00    -0.096 F 
ATOM      9  I   UNL d   1      -1.166  -1.462  -0.618  0.00  0.00    -0.060 I 
ATOM     10  F2  UNL d   1       2.003  -1.137  -0.928  0.00  0.00    -0.096 F 
ATOM     11  F3  UNL d   1       3.682   0.870  -0.231  0.00  0.00    -0.097 F 
ATOM     12  F4  UNL d   1       2.717   3.124   0.966  0.00  0.00    -0.092 F 
ENDROOT
TORSDOF 0
ENDMDL
