MODEL 1
REMARK minimizedAffinity -1.18772256
REMARK minimizedRMSD -1
REMARK  0 active torsions:
REMARK  status: ('A' for Active; 'I' for Inactive)
ROOT
ATOM      1  C   UNL d   1       0.971   1.937   1.644  0.00  0.00     0.124 A 
ATOM      2  C1  UNL d   1       1.042   1.912   0.258  0.00  0.00     0.062 A 
ATOM      3  C2  UNL d   1       0.411   0.898  -0.457  0.00  0.00     0.162 A 
ATOM      4  C3  UNL d   1      -0.297  -0.099   0.213  0.00  0.00    -0.034 A 
ATOM      5  C4  UNL d   1      -0.363  -0.068   1.607  0.00  0.00     0.162 A 
ATOM      6  C5  UNL d   1       0.269   0.947   2.317  0.00  0.00     0.062 A 
ATOM      7  F   UNL d   1       0.200   0.970   3.656  0.00  0.00    -0.097 F 
ATOM      8  F1  UNL d   1      -1.036  -1.012   2.283  0.00  0.00    -0.096 F 
ATOM      9  I   UNL d   1      -1.242  -1.617  -0.853  0.00  0.00    -0.060 I 
ATOM     10  F2  UNL d   1       0.496   0.899  -1.796  0.00  0.00    -0.096 F 
ATOM     11  F3  UNL d   1       1.720   2.867  -0.395  0.00  0.00    -0.097 F 
ATOM     12  F4  UNL d   1       1.580   2.914   2.329  0.00  0.00    -0.092 F 
ENDROOT
TORSDOF 0
ENDMDL
