MODEL 1
REMARK minimizedAffinity -3.67550921
REMARK minimizedRMSD -1
REMARK  0 active torsions:
REMARK  status: ('A' for Active; 'I' for Inactive)
ROOT
ATOM      1  C   UNL d   1       1.815   1.758   1.553  0.00  0.00     0.124 A 
ATOM      2  C1  UNL d   1       2.327   1.206   0.387  0.00  0.00     0.062 A 
ATOM      3  C2  UNL d   1       1.543   0.358  -0.389  0.00  0.00     0.162 A 
ATOM      4  C3  UNL d   1       0.237   0.055  -0.002  0.00  0.00    -0.034 A 
ATOM      5  C4  UNL d   1      -0.270   0.613   1.173  0.00  0.00     0.162 A 
ATOM      6  C5  UNL d   1       0.517   1.460   1.945  0.00  0.00     0.062 A 
ATOM      7  F   UNL d   1       0.021   1.992   3.072  0.00  0.00    -0.097 F 
ATOM      8  F1  UNL d   1      -1.521   0.343   1.574  0.00  0.00    -0.096 F 
ATOM      9  I   UNL d   1      -0.938  -1.213  -1.160  0.00  0.00    -0.060 I 
ATOM     10  F2  UNL d   1       2.064  -0.160  -1.512  0.00  0.00    -0.096 F 
ATOM     11  F3  UNL d   1       3.581   1.491   0.007  0.00  0.00    -0.097 F 
ATOM     12  F4  UNL d   1       2.571   2.573   2.299  0.00  0.00    -0.092 F 
ENDROOT
TORSDOF 0
ENDMDL
