MODEL 1
REMARK minimizedAffinity 3.21018362
REMARK minimizedRMSD -1
REMARK  0 active torsions:
REMARK  status: ('A' for Active; 'I' for Inactive)
ROOT
ATOM      1  C   UNL d   1      -3.739  -2.381  -2.189  0.00  0.00     0.124 A 
ATOM      2  C1  UNL d   1      -3.106  -1.608  -3.153  0.00  0.00     0.062 A 
ATOM      3  C2  UNL d   1      -1.779  -1.225  -2.983  0.00  0.00     0.162 A 
ATOM      4  C3  UNL d   1      -1.074  -1.616  -1.844  0.00  0.00    -0.034 A 
ATOM      5  C4  UNL d   1      -1.717  -2.392  -0.879  0.00  0.00     0.162 A 
ATOM      6  C5  UNL d   1      -3.044  -2.772  -1.053  0.00  0.00     0.062 A 
ATOM      7  F   UNL d   1      -3.654  -3.519  -0.121  0.00  0.00    -0.097 F 
ATOM      8  F1  UNL d   1      -1.069  -2.785   0.228  0.00  0.00    -0.096 F 
ATOM      9  I   UNL d   1       0.911  -1.046  -1.586  0.00  0.00    -0.060 I 
ATOM     10  F2  UNL d   1      -1.192  -0.479  -3.931  0.00  0.00    -0.096 F 
ATOM     11  F3  UNL d   1      -3.775  -1.228  -4.251  0.00  0.00    -0.097 F 
ATOM     12  F4  UNL d   1      -5.016  -2.747  -2.355  0.00  0.00    -0.092 F 
ENDROOT
TORSDOF 0
ENDMDL
