MODEL 1
REMARK minimizedAffinity -3.48302627
REMARK minimizedRMSD -1
REMARK  0 active torsions:
REMARK  status: ('A' for Active; 'I' for Inactive)
ROOT
ATOM      1  C   UNL d   1       1.500   1.882   0.660  0.00  0.00     0.124 A 
ATOM      2  C1  UNL d   1       0.152   2.037   0.955  0.00  0.00     0.062 A 
ATOM      3  C2  UNL d   1      -0.768   1.075   0.548  0.00  0.00     0.162 A 
ATOM      4  C3  UNL d   1      -0.344  -0.052  -0.156  0.00  0.00    -0.034 A 
ATOM      5  C4  UNL d   1       1.013  -0.200  -0.449  0.00  0.00     0.162 A 
ATOM      6  C5  UNL d   1       1.929   0.764  -0.041  0.00  0.00     0.062 A 
ATOM      7  F   UNL d   1       3.230   0.612  -0.326  0.00  0.00    -0.097 F 
ATOM      8  F1  UNL d   1       1.455  -1.272  -1.125  0.00  0.00    -0.096 F 
ATOM      9  I   UNL d   1      -1.717  -1.492  -0.765  0.00  0.00    -0.060 I 
ATOM     10  F2  UNL d   1      -2.064   1.251   0.846  0.00  0.00    -0.096 F 
ATOM     11  F3  UNL d   1      -0.265   3.117   1.631  0.00  0.00    -0.097 F 
ATOM     12  F4  UNL d   1       2.383   2.809   1.052  0.00  0.00    -0.092 F 
ENDROOT
TORSDOF 0
ENDMDL
