MODEL 1
REMARK minimizedAffinity -4.11462688
REMARK minimizedRMSD -1
REMARK  0 active torsions:
REMARK  status: ('A' for Active; 'I' for Inactive)
ROOT
ATOM      1  C   UNL d   1       1.817   1.917   0.854  0.00  0.00     0.124 A 
ATOM      2  C1  UNL d   1       0.449   2.091   1.018  0.00  0.00     0.062 A 
ATOM      3  C2  UNL d   1      -0.437   1.101   0.603  0.00  0.00     0.162 A 
ATOM      4  C3  UNL d   1       0.042  -0.073   0.021  0.00  0.00    -0.034 A 
ATOM      5  C4  UNL d   1       1.418  -0.240  -0.142  0.00  0.00     0.162 A 
ATOM      6  C5  UNL d   1       2.300   0.753   0.274  0.00  0.00     0.062 A 
ATOM      7  F   UNL d   1       3.620   0.583   0.115  0.00  0.00    -0.097 F 
ATOM      8  F1  UNL d   1       1.912  -1.356  -0.698  0.00  0.00    -0.096 F 
ATOM      9  I   UNL d   1      -1.280  -1.555  -0.601  0.00  0.00    -0.060 I 
ATOM     10  F2  UNL d   1      -1.753   1.296   0.774  0.00  0.00    -0.096 F 
ATOM     11  F3  UNL d   1      -0.020   3.216   1.577  0.00  0.00    -0.097 F 
ATOM     12  F4  UNL d   1       2.667   2.872   1.253  0.00  0.00    -0.092 F 
ENDROOT
TORSDOF 0
ENDMDL
