MODEL 1
REMARK minimizedAffinity -0.80545944
REMARK minimizedRMSD -1
REMARK  0 active torsions:
REMARK  status: ('A' for Active; 'I' for Inactive)
ROOT
ATOM      1  C   UNL d   1       1.010   2.073   1.284  0.00  0.00     0.124 A 
ATOM      2  C1  UNL d   1      -0.019   1.399   1.927  0.00  0.00     0.062 A 
ATOM      3  C2  UNL d   1      -0.685   0.360   1.282  0.00  0.00     0.162 A 
ATOM      4  C3  UNL d   1      -0.324  -0.012  -0.013  0.00  0.00    -0.034 A 
ATOM      5  C4  UNL d   1       0.712   0.672  -0.653  0.00  0.00     0.162 A 
ATOM      6  C5  UNL d   1       1.375   1.709  -0.005  0.00  0.00     0.062 A 
ATOM      7  F   UNL d   1       2.369   2.359  -0.627  0.00  0.00    -0.097 F 
ATOM      8  F1  UNL d   1       1.085   0.340  -1.898  0.00  0.00    -0.096 F 
ATOM      9  I   UNL d   1      -1.317  -1.564  -0.979  0.00  0.00    -0.060 I 
ATOM     10  F2  UNL d   1      -1.676  -0.274   1.927  0.00  0.00    -0.096 F 
ATOM     11  F3  UNL d   1      -0.373   1.749   3.171  0.00  0.00    -0.097 F 
ATOM     12  F4  UNL d   1       1.649   3.072   1.906  0.00  0.00    -0.092 F 
ENDROOT
TORSDOF 0
ENDMDL
