MODEL 1
REMARK minimizedAffinity -0.54746592
REMARK minimizedRMSD -1
REMARK  0 active torsions:
REMARK  status: ('A' for Active; 'I' for Inactive)
ROOT
ATOM      1  C   UNL d   1      -0.162   1.545   1.980  0.00  0.00     0.124 A 
ATOM      2  C1  UNL d   1       0.530   1.877   0.823  0.00  0.00     0.062 A 
ATOM      3  C2  UNL d   1       0.509   1.021  -0.274  0.00  0.00     0.162 A 
ATOM      4  C3  UNL d   1      -0.207  -0.174  -0.221  0.00  0.00    -0.034 A 
ATOM      5  C4  UNL d   1      -0.900  -0.501   0.946  0.00  0.00     0.162 A 
ATOM      6  C5  UNL d   1      -0.876   0.357   2.040  0.00  0.00     0.062 A 
ATOM      7  F   UNL d   1      -1.545   0.035   3.157  0.00  0.00    -0.097 F 
ATOM      8  F1  UNL d   1      -1.599  -1.643   1.031  0.00  0.00    -0.096 F 
ATOM      9  I   UNL d   1      -0.241  -1.456  -1.860  0.00  0.00    -0.060 I 
ATOM     10  F2  UNL d   1       1.187   1.367  -1.379  0.00  0.00    -0.096 F 
ATOM     11  F3  UNL d   1       1.222   3.024   0.763  0.00  0.00    -0.097 F 
ATOM     12  F4  UNL d   1      -0.139   2.370   3.035  0.00  0.00    -0.092 F 
ENDROOT
TORSDOF 0
ENDMDL
