MODEL 1
REMARK minimizedAffinity -0.481360972
REMARK minimizedRMSD -1
REMARK  0 active torsions:
REMARK  status: ('A' for Active; 'I' for Inactive)
ROOT
ATOM      1  C   UNL d   1       1.314   1.247  -0.294  0.00  0.00     0.124 A 
ATOM      2  C1  UNL d   1       1.121   1.981   0.869  0.00  0.00     0.062 A 
ATOM      3  C2  UNL d   1       0.049   1.692   1.708  0.00  0.00     0.162 A 
ATOM      4  C3  UNL d   1      -0.838   0.665   1.389  0.00  0.00    -0.034 A 
ATOM      5  C4  UNL d   1      -0.638  -0.068   0.217  0.00  0.00     0.162 A 
ATOM      6  C5  UNL d   1       0.435   0.224  -0.618  0.00  0.00     0.062 A 
ATOM      7  F   UNL d   1       0.620  -0.486  -1.741  0.00  0.00    -0.097 F 
ATOM      8  F1  UNL d   1      -1.472  -1.063  -0.120  0.00  0.00    -0.096 F 
ATOM      9  I   UNL d   1      -2.443   0.230   2.641  0.00  0.00    -0.060 I 
ATOM     10  F2  UNL d   1      -0.113   2.417   2.825  0.00  0.00    -0.096 F 
ATOM     11  F3  UNL d   1       1.969   2.970   1.184  0.00  0.00    -0.097 F 
ATOM     12  F4  UNL d   1       2.346   1.527  -1.100  0.00  0.00    -0.092 F 
ENDROOT
TORSDOF 0
ENDMDL
