MODEL 1
REMARK minimizedAffinity -2.16844416
REMARK minimizedRMSD -1
REMARK  0 active torsions:
REMARK  status: ('A' for Active; 'I' for Inactive)
ROOT
ATOM      1  C   UNL d   1       1.319   1.984   1.568  0.00  0.00     0.124 A 
ATOM      2  C1  UNL d   1       0.156   1.417   2.070  0.00  0.00     0.062 A 
ATOM      3  C2  UNL d   1      -0.507   0.427   1.349  0.00  0.00     0.162 A 
ATOM      4  C3  UNL d   1      -0.007  -0.002   0.120  0.00  0.00    -0.034 A 
ATOM      5  C4  UNL d   1       1.163   0.574  -0.378  0.00  0.00     0.162 A 
ATOM      6  C5  UNL d   1       1.821   1.563   0.345  0.00  0.00     0.062 A 
ATOM      7  F   UNL d   1       2.945   2.110  -0.141  0.00  0.00    -0.097 F 
ATOM      8  F1  UNL d   1       1.671   0.185  -1.557  0.00  0.00    -0.096 F 
ATOM      9  I   UNL d   1      -0.995  -1.482  -0.960  0.00  0.00    -0.060 I 
ATOM     10  F2  UNL d   1      -1.629  -0.104   1.858  0.00  0.00    -0.096 F 
ATOM     11  F3  UNL d   1      -0.332   1.823   3.251  0.00  0.00    -0.097 F 
ATOM     12  F4  UNL d   1       1.954   2.937   2.263  0.00  0.00    -0.092 F 
ENDROOT
TORSDOF 0
ENDMDL
