MODEL 1
REMARK minimizedAffinity 1.27080095
REMARK minimizedRMSD -1
REMARK  0 active torsions:
REMARK  status: ('A' for Active; 'I' for Inactive)
ROOT
ATOM      1  C1  BNZ d   1       1.247  -0.768  -0.540  0.00  0.00     0.000 A 
ATOM      2  C2  BNZ d   1       2.452  -0.239  -0.162  0.00  0.00     0.000 A 
ATOM      3  C3  BNZ d   1       3.407  -1.021   0.424  0.00  0.00     0.000 A 
ATOM      4  C4  BNZ d   1       3.141  -2.321   0.669  0.00  0.00     0.000 A 
ATOM      5  C5  BNZ d   1       1.927  -2.867   0.302  0.00  0.00     0.000 A 
ATOM      6  C6  BNZ d   1       0.983  -2.086  -0.324  0.00  0.00     0.000 A 
ENDROOT
TORSDOF 0
ENDMDL
