MODEL 1
REMARK minimizedAffinity -0.522907794
REMARK minimizedRMSD -1
REMARK  0 active torsions:
REMARK  status: ('A' for Active; 'I' for Inactive)
ROOT
ATOM      1  C1  BNZ d   1       1.628   0.151  -0.327  0.00  0.00     0.000 A 
ATOM      2  C2  BNZ d   1       0.739  -0.312  -1.260  0.00  0.00     0.000 A 
ATOM      3  C3  BNZ d   1      -0.562   0.108  -1.256  0.00  0.00     0.000 A 
ATOM      4  C4  BNZ d   1      -0.981   0.957  -0.296  0.00  0.00     0.000 A 
ATOM      5  C5  BNZ d   1      -0.099   1.425   0.658  0.00  0.00     0.000 A 
ATOM      6  C6  BNZ d   1       1.219   1.031   0.627  0.00  0.00     0.000 A 
ENDROOT
TORSDOF 0
ENDMDL
