MODEL 1
REMARK minimizedAffinity 1.87698913
REMARK minimizedRMSD -1
REMARK  0 active torsions:
REMARK  status: ('A' for Active; 'I' for Inactive)
ROOT
ATOM      1  C1  BNZ d   1      -5.997   1.814  -0.759  0.00  0.00     0.000 A 
ATOM      2  C2  BNZ d   1      -5.721   2.506  -1.908  0.00  0.00     0.000 A 
ATOM      3  C3  BNZ d   1      -4.649   2.170  -2.687  0.00  0.00     0.000 A 
ATOM      4  C4  BNZ d   1      -3.832   1.170  -2.295  0.00  0.00     0.000 A 
ATOM      5  C5  BNZ d   1      -4.092   0.469  -1.134  0.00  0.00     0.000 A 
ATOM      6  C6  BNZ d   1      -5.194   0.785  -0.373  0.00  0.00     0.000 A 
ENDROOT
TORSDOF 0
ENDMDL
