MODEL 1
REMARK minimizedAffinity 4.49727678
REMARK minimizedRMSD -1
REMARK  0 active torsions:
REMARK  status: ('A' for Active; 'I' for Inactive)
ROOT
ATOM      1  C1  BNZ d   1       1.877  -3.063   1.063  0.00  0.00     0.000 A 
ATOM      2  C2  BNZ d   1       2.756  -2.018   1.171  0.00  0.00     0.000 A 
ATOM      3  C3  BNZ d   1       2.703  -0.966   0.300  0.00  0.00     0.000 A 
ATOM      4  C4  BNZ d   1       1.799  -0.978  -0.701  0.00  0.00     0.000 A 
ATOM      5  C5  BNZ d   1       0.913  -2.029  -0.829  0.00  0.00     0.000 A 
ATOM      6  C6  BNZ d   1       0.944  -3.068   0.073  0.00  0.00     0.000 A 
ENDROOT
TORSDOF 0
ENDMDL
