MODEL 1
REMARK minimizedAffinity 1.22866821
REMARK minimizedRMSD -1
REMARK  0 active torsions:
REMARK  status: ('A' for Active; 'I' for Inactive)
ROOT
ATOM      1  C1  BNZ d   1      -5.534   2.526  -1.346  0.00  0.00     0.000 A 
ATOM      2  C2  BNZ d   1      -4.878   1.386  -1.725  0.00  0.00     0.000 A 
ATOM      3  C3  BNZ d   1      -4.667   1.106  -3.047  0.00  0.00     0.000 A 
ATOM      4  C4  BNZ d   1      -5.147   1.946  -3.986  0.00  0.00     0.000 A 
ATOM      5  C5  BNZ d   1      -5.818   3.096  -3.620  0.00  0.00     0.000 A 
ATOM      6  C6  BNZ d   1      -5.994   3.393  -2.288  0.00  0.00     0.000 A 
ENDROOT
TORSDOF 0
ENDMDL
