MODEL 1
REMARK minimizedAffinity 2.34275389
REMARK minimizedRMSD -1
REMARK  0 active torsions:
REMARK  status: ('A' for Active; 'I' for Inactive)
ROOT
ATOM      1  C1  BNZ d   1       2.397   0.007   0.275  0.00  0.00     0.000 A 
ATOM      2  C2  BNZ d   1       3.026  -0.317   1.447  0.00  0.00     0.000 A 
ATOM      3  C3  BNZ d   1       3.255  -1.623   1.781  0.00  0.00     0.000 A 
ATOM      4  C4  BNZ d   1       2.821  -2.602   0.962  0.00  0.00     0.000 A 
ATOM      5  C5  BNZ d   1       2.177  -2.292  -0.219  0.00  0.00     0.000 A 
ATOM      6  C6  BNZ d   1       1.982  -0.976  -0.570  0.00  0.00     0.000 A 
ENDROOT
TORSDOF 0
ENDMDL
