MODEL 1
REMARK minimizedAffinity 0.842840493
REMARK minimizedRMSD -1
REMARK  0 active torsions:
REMARK  status: ('A' for Active; 'I' for Inactive)
ROOT
ATOM      1  C1  BNZ d   1       3.370  -1.209   1.397  0.00  0.00     0.000 A 
ATOM      2  C2  BNZ d   1       4.229  -0.165   1.179  0.00  0.00     0.000 A 
ATOM      3  C3  BNZ d   1       4.499   0.265  -0.090  0.00  0.00     0.000 A 
ATOM      4  C4  BNZ d   1       3.942  -0.373  -1.139  0.00  0.00     0.000 A 
ATOM      5  C5  BNZ d   1       3.081  -1.434  -0.936  0.00  0.00     0.000 A 
ATOM      6  C6  BNZ d   1       2.782  -1.839   0.344  0.00  0.00     0.000 A 
ENDROOT
TORSDOF 0
ENDMDL
