MODEL 1
REMARK minimizedAffinity 6.71059608
REMARK minimizedRMSD -1
REMARK  0 active torsions:
REMARK  status: ('A' for Active; 'I' for Inactive)
ROOT
ATOM      1  C1  BNZ d   1       1.634  -2.741   0.298  0.00  0.00     0.000 A 
ATOM      2  C2  BNZ d   1       1.849  -2.538   1.635  0.00  0.00     0.000 A 
ATOM      3  C3  BNZ d   1       2.895  -1.771   2.067  0.00  0.00     0.000 A 
ATOM      4  C4  BNZ d   1       3.746  -1.243   1.165  0.00  0.00     0.000 A 
ATOM      5  C5  BNZ d   1       3.549  -1.446  -0.186  0.00  0.00     0.000 A 
ATOM      6  C6  BNZ d   1       2.472  -2.186  -0.619  0.00  0.00     0.000 A 
ENDROOT
TORSDOF 0
ENDMDL
