MODEL 1
REMARK minimizedAffinity 0.727969766
REMARK minimizedRMSD -1
REMARK  0 active torsions:
REMARK  status: ('A' for Active; 'I' for Inactive)
ROOT
ATOM      1  C1  BNZ d   1       0.546  -5.988   5.998  0.00  0.00     0.000 A 
ATOM      2  C2  BNZ d   1       1.448  -4.963   5.895  0.00  0.00     0.000 A 
ATOM      3  C3  BNZ d   1       1.028  -3.679   5.687  0.00  0.00     0.000 A 
ATOM      4  C4  BNZ d   1      -0.289  -3.428   5.541  0.00  0.00     0.000 A 
ATOM      5  C5  BNZ d   1      -1.210  -4.453   5.632  0.00  0.00     0.000 A 
ATOM      6  C6  BNZ d   1      -0.786  -5.738   5.881  0.00  0.00     0.000 A 
ENDROOT
TORSDOF 0
ENDMDL
