MODEL 1
REMARK minimizedAffinity -3.20071125
REMARK minimizedRMSD -1
REMARK  0 active torsions:
REMARK  status: ('A' for Active; 'I' for Inactive)
ROOT
ATOM      1  C1  BNZ d   1       2.451  -0.169  -0.310  0.00  0.00     0.000 A 
ATOM      2  C2  BNZ d   1       2.982   1.089  -0.416  0.00  0.00     0.000 A 
ATOM      3  C3  BNZ d   1       3.831   1.406  -1.439  0.00  0.00     0.000 A 
ATOM      4  C4  BNZ d   1       4.179   0.456  -2.331  0.00  0.00     0.000 A 
ATOM      5  C5  BNZ d   1       3.659  -0.819  -2.232  0.00  0.00     0.000 A 
ATOM      6  C6  BNZ d   1       2.775  -1.124  -1.223  0.00  0.00     0.000 A 
ENDROOT
TORSDOF 0
ENDMDL
