MODEL 1
REMARK minimizedAffinity 5.25064754
REMARK minimizedRMSD -1
REMARK  0 active torsions:
REMARK  status: ('A' for Active; 'I' for Inactive)
ROOT
ATOM      1  C   UNL d   1       5.629   3.994  -5.972  0.00  0.00    -0.002 A 
ATOM      2  C1  UNL d   1       5.046   5.253  -5.998  0.00  0.00     0.010 A 
ATOM      3  C2  UNL d   1       4.793   5.944  -4.810  0.00  0.00     0.041 A 
ATOM      4  C3  UNL d   1       5.141   5.342  -3.585  0.00  0.00    -0.075 A 
ATOM      5  S   UNL d   1       4.926   6.000  -2.006  0.00  0.00     0.015 SA
ATOM      6  C4  UNL d   1       5.604   4.626  -1.260  0.00  0.00     0.022 A 
ATOM      7  C5  UNL d   1       5.989   3.678  -2.178  0.00  0.00     0.026 A 
ATOM      8  C6  UNL d   1       5.730   4.075  -3.533  0.00  0.00    -0.082 A 
ATOM      9  C7  UNL d   1       5.972   3.401  -4.754  0.00  0.00     0.045 A 
ENDROOT
TORSDOF 0
ENDMDL
