MODEL 1
REMARK minimizedAffinity 3.52521968
REMARK minimizedRMSD -1
REMARK  0 active torsions:
REMARK  status: ('A' for Active; 'I' for Inactive)
ROOT
ATOM      1  C   UNL d   1       5.310   4.870  -1.255  0.00  0.00    -0.002 A 
ATOM      2  C1  UNL d   1       4.138   5.610  -1.329  0.00  0.00     0.010 A 
ATOM      3  C2  UNL d   1       3.622   5.999  -2.566  0.00  0.00     0.041 A 
ATOM      4  C3  UNL d   1       4.308   5.628  -3.739  0.00  0.00    -0.075 A 
ATOM      5  S   UNL d   1       3.862   5.991  -5.364  0.00  0.00     0.015 SA
ATOM      6  C4  UNL d   1       5.215   5.173  -5.998  0.00  0.00     0.022 A 
ATOM      7  C5  UNL d   1       6.000   4.629  -5.008  0.00  0.00     0.026 A 
ATOM      8  C6  UNL d   1       5.489   4.882  -3.690  0.00  0.00    -0.082 A 
ATOM      9  C7  UNL d   1       5.988   4.503  -2.420  0.00  0.00     0.045 A 
ENDROOT
TORSDOF 0
ENDMDL
