MODEL 1
REMARK minimizedAffinity 13.7689705
REMARK minimizedRMSD -1
REMARK  0 active torsions:
REMARK  status: ('A' for Active; 'I' for Inactive)
ROOT
ATOM      1  C   UNL d   1       5.207   3.703  -4.793  0.00  0.00    -0.002 A 
ATOM      2  C1  UNL d   1       3.827   3.846  -4.751  0.00  0.00     0.010 A 
ATOM      3  C2  UNL d   1       3.212   4.487  -3.674  0.00  0.00     0.041 A 
ATOM      4  C3  UNL d   1       4.014   4.989  -2.630  0.00  0.00    -0.075 A 
ATOM      5  S   UNL d   1       3.481   5.810  -1.212  0.00  0.00     0.015 SA
ATOM      6  C4  UNL d   1       5.072   5.992  -0.628  0.00  0.00     0.022 A 
ATOM      7  C5  UNL d   1       6.000   5.444  -1.482  0.00  0.00     0.026 A 
ATOM      8  C6  UNL d   1       5.406   4.858  -2.650  0.00  0.00    -0.082 A 
ATOM      9  C7  UNL d   1       6.000   4.202  -3.756  0.00  0.00     0.045 A 
ENDROOT
TORSDOF 0
ENDMDL
