MODEL 1
REMARK minimizedAffinity 12.4719067
REMARK minimizedRMSD -1
REMARK  0 active torsions:
REMARK  status: ('A' for Active; 'I' for Inactive)
ROOT
ATOM      1  C   UNL d   1       5.991   5.413  -3.359  0.00  0.00    -0.002 A 
ATOM      2  C1  UNL d   1       5.999   4.737  -2.147  0.00  0.00     0.010 A 
ATOM      3  C2  UNL d   1       4.808   4.499  -1.458  0.00  0.00     0.041 A 
ATOM      4  C3  UNL d   1       3.597   4.955  -2.014  0.00  0.00    -0.075 A 
ATOM      5  S   UNL d   1       2.016   4.777  -1.349  0.00  0.00     0.015 SA
ATOM      6  C4  UNL d   1       1.292   5.593  -2.658  0.00  0.00     0.022 A 
ATOM      7  C5  UNL d   1       2.219   5.999  -3.589  0.00  0.00     0.026 A 
ATOM      8  C6  UNL d   1       3.563   5.637  -3.233  0.00  0.00    -0.082 A 
ATOM      9  C7  UNL d   1       4.787   5.864  -3.907  0.00  0.00     0.045 A 
ENDROOT
TORSDOF 0
ENDMDL
