MODEL 1
REMARK minimizedAffinity 13.1985388
REMARK minimizedRMSD -1
REMARK  0 active torsions:
REMARK  status: ('A' for Active; 'I' for Inactive)
ROOT
ATOM      1  C   UNL d   1      -0.307  -2.674  -3.981  0.00  0.00    -0.002 A 
ATOM      2  C1  UNL d   1      -0.482  -2.212  -2.684  0.00  0.00     0.010 A 
ATOM      3  C2  UNL d   1       0.617  -1.829  -1.912  0.00  0.00     0.041 A 
ATOM      4  C3  UNL d   1       1.906  -1.918  -2.471  0.00  0.00    -0.075 A 
ATOM      5  S   UNL d   1       3.399  -1.504  -1.714  0.00  0.00     0.015 SA
ATOM      6  C4  UNL d   1       4.304  -1.929  -3.094  0.00  0.00     0.022 A 
ATOM      7  C5  UNL d   1       3.503  -2.378  -4.117  0.00  0.00     0.026 A 
ATOM      8  C6  UNL d   1       2.108  -2.379  -3.775  0.00  0.00    -0.082 A 
ATOM      9  C7  UNL d   1       0.974  -2.760  -4.532  0.00  0.00     0.045 A 
ENDROOT
TORSDOF 0
ENDMDL
