MODEL 1
REMARK minimizedAffinity -2.69603896
REMARK minimizedRMSD -1
REMARK  0 active torsions:
REMARK  status: ('A' for Active; 'I' for Inactive)
ROOT
ATOM      1  C   UNL d   1       3.923   5.250  -1.676  0.00  0.00    -0.002 A 
ATOM      2  C1  UNL d   1       5.281   5.514  -1.783  0.00  0.00     0.010 A 
ATOM      3  C2  UNL d   1       6.000   5.093  -2.904  0.00  0.00     0.041 A 
ATOM      4  C3  UNL d   1       5.324   4.397  -3.926  0.00  0.00    -0.075 A 
ATOM      5  S   UNL d   1       5.999   3.787  -5.390  0.00  0.00     0.015 SA
ATOM      6  C4  UNL d   1       4.500   3.162  -5.908  0.00  0.00     0.022 A 
ATOM      7  C5  UNL d   1       3.498   3.404  -4.998  0.00  0.00     0.026 A 
ATOM      8  C6  UNL d   1       3.956   4.121  -3.841  0.00  0.00    -0.082 A 
ATOM      9  C7  UNL d   1       3.256   4.560  -2.691  0.00  0.00     0.045 A 
ENDROOT
TORSDOF 0
ENDMDL
