MODEL 1
REMARK minimizedAffinity 6.76859045
REMARK minimizedRMSD -1
REMARK  0 active torsions:
REMARK  status: ('A' for Active; 'I' for Inactive)
ROOT
ATOM      1  C   UNL d   1       5.991   0.894  -4.547  0.00  0.00    -0.002 A 
ATOM      2  C1  UNL d   1       5.990   1.445  -5.820  0.00  0.00     0.010 A 
ATOM      3  C2  UNL d   1       5.991   2.831  -5.994  0.00  0.00     0.041 A 
ATOM      4  C3  UNL d   1       5.994   3.660  -4.855  0.00  0.00    -0.075 A 
ATOM      5  S   UNL d   1       5.997   5.384  -4.825  0.00  0.00     0.015 SA
ATOM      6  C4  UNL d   1       6.000   5.429  -3.122  0.00  0.00     0.022 A 
ATOM      7  C5  UNL d   1       5.999   4.169  -2.573  0.00  0.00     0.026 A 
ATOM      8  C6  UNL d   1       5.996   3.129  -3.563  0.00  0.00    -0.082 A 
ATOM      9  C7  UNL d   1       5.995   1.720  -3.420  0.00  0.00     0.045 A 
ENDROOT
TORSDOF 0
ENDMDL
