MODEL 1
REMARK minimizedAffinity -1.35012197
REMARK minimizedRMSD -1
REMARK  0 active torsions:
REMARK  status: ('A' for Active; 'I' for Inactive)
ROOT
ATOM      1  C   UNL d   1       5.689   1.664  -4.940  0.00  0.00    -0.002 A 
ATOM      2  C1  UNL d   1       5.000   2.237  -6.000  0.00  0.00     0.010 A 
ATOM      3  C2  UNL d   1       4.607   3.576  -5.950  0.00  0.00     0.041 A 
ATOM      4  C3  UNL d   1       4.922   4.337  -4.806  0.00  0.00    -0.075 A 
ATOM      5  S   UNL d   1       4.542   5.994  -4.524  0.00  0.00     0.015 SA
ATOM      6  C4  UNL d   1       5.286   5.981  -2.990  0.00  0.00     0.022 A 
ATOM      7  C5  UNL d   1       5.815   4.749  -2.685  0.00  0.00     0.026 A 
ATOM      8  C6  UNL d   1       5.615   3.782  -3.727  0.00  0.00    -0.082 A 
ATOM      9  C7  UNL d   1       5.999   2.421  -3.808  0.00  0.00     0.045 A 
ENDROOT
TORSDOF 0
ENDMDL
