MODEL 1
REMARK minimizedAffinity 0.972718835
REMARK minimizedRMSD -1
REMARK  0 active torsions:
REMARK  status: ('A' for Active; 'I' for Inactive)
ROOT
ATOM      1  C   UNL d   1       1.978   3.749  -2.562  0.00  0.00    -0.002 A 
ATOM      2  C1  UNL d   1       2.485   4.178  -1.343  0.00  0.00     0.010 A 
ATOM      3  C2  UNL d   1       3.721   4.822  -1.276  0.00  0.00     0.041 A 
ATOM      4  C3  UNL d   1       4.446   5.033  -2.465  0.00  0.00    -0.075 A 
ATOM      5  S   UNL d   1       5.981   5.802  -2.625  0.00  0.00     0.015 SA
ATOM      6  C4  UNL d   1       5.999   5.580  -4.315  0.00  0.00     0.022 A 
ATOM      7  C5  UNL d   1       4.870   4.937  -4.763  0.00  0.00     0.026 A 
ATOM      8  C6  UNL d   1       3.956   4.612  -3.705  0.00  0.00    -0.082 A 
ATOM      9  C7  UNL d   1       2.699   3.960  -3.740  0.00  0.00     0.045 A 
ENDROOT
TORSDOF 0
ENDMDL
