MODEL 1
REMARK minimizedAffinity 2.45327759
REMARK minimizedRMSD -1
REMARK  0 active torsions:
REMARK  status: ('A' for Active; 'I' for Inactive)
ROOT
ATOM      1  C   UNL d   1      -0.275  -2.713  -1.734  0.00  0.00    -0.002 A 
ATOM      2  C1  UNL d   1      -1.124  -1.883  -2.452  0.00  0.00     0.010 A 
ATOM      3  C2  UNL d   1      -1.721  -2.329  -3.633  0.00  0.00     0.041 A 
ATOM      4  C3  UNL d   1      -1.449  -3.636  -4.083  0.00  0.00    -0.075 A 
ATOM      5  S   UNL d   1      -2.067  -4.396  -5.502  0.00  0.00     0.015 SA
ATOM      6  C4  UNL d   1      -1.219  -5.841  -5.187  0.00  0.00     0.022 A 
ATOM      7  C5  UNL d   1      -0.477  -5.762  -4.032  0.00  0.00     0.026 A 
ATOM      8  C6  UNL d   1      -0.598  -4.490  -3.377  0.00  0.00    -0.082 A 
ATOM      9  C7  UNL d   1      -0.007  -4.009  -2.184  0.00  0.00     0.045 A 
ENDROOT
TORSDOF 0
ENDMDL
