MODEL 1
REMARK minimizedAffinity 9.38835239
REMARK minimizedRMSD -1
REMARK  0 active torsions:
REMARK  status: ('A' for Active; 'I' for Inactive)
ROOT
ATOM      1  C   UNL d   1       1.939   4.460  -4.209  0.00  0.00    -0.002 A 
ATOM      2  C1  UNL d   1       2.487   5.466  -4.993  0.00  0.00     0.010 A 
ATOM      3  C2  UNL d   1       3.741   5.999  -4.688  0.00  0.00     0.041 A 
ATOM      4  C3  UNL d   1       4.443   5.498  -3.574  0.00  0.00    -0.075 A 
ATOM      5  S   UNL d   1       5.994   5.998  -3.011  0.00  0.00     0.015 SA
ATOM      6  C4  UNL d   1       5.965   4.888  -1.719  0.00  0.00     0.022 A 
ATOM      7  C5  UNL d   1       4.808   4.146  -1.701  0.00  0.00     0.026 A 
ATOM      8  C6  UNL d   1       3.912   4.485  -2.771  0.00  0.00    -0.082 A 
ATOM      9  C7  UNL d   1       2.638   3.966  -3.105  0.00  0.00     0.045 A 
ENDROOT
TORSDOF 0
ENDMDL
