MODEL 1
REMARK minimizedAffinity 9.26658535
REMARK minimizedRMSD -1
REMARK  0 active torsions:
REMARK  status: ('A' for Active; 'I' for Inactive)
ROOT
ATOM      1  C   UNL d   1       5.799   5.999  -3.742  0.00  0.00    -0.002 A 
ATOM      2  C1  UNL d   1       5.616   5.334  -2.537  0.00  0.00     0.010 A 
ATOM      3  C2  UNL d   1       5.564   3.939  -2.497  0.00  0.00     0.041 A 
ATOM      4  C3  UNL d   1       5.702   3.217  -3.699  0.00  0.00    -0.075 A 
ATOM      5  S   UNL d   1       5.671   1.504  -3.891  0.00  0.00     0.015 SA
ATOM      6  C4  UNL d   1       5.901   1.614  -5.576  0.00  0.00     0.022 A 
ATOM      7  C5  UNL d   1       6.000   2.919  -5.999  0.00  0.00     0.026 A 
ATOM      8  C6  UNL d   1       5.887   3.864  -4.924  0.00  0.00    -0.082 A 
ATOM      9  C7  UNL d   1       5.935   5.279  -4.932  0.00  0.00     0.045 A 
ENDROOT
TORSDOF 0
ENDMDL
