MODEL 1
REMARK minimizedAffinity 4.91275358
REMARK minimizedRMSD -1
REMARK  0 active torsions:
REMARK  status: ('A' for Active; 'I' for Inactive)
ROOT
ATOM      1  C   UNL d   1       5.996   3.200  -3.985  0.00  0.00    -0.002 A 
ATOM      2  C1  UNL d   1       5.852   3.362  -5.356  0.00  0.00     0.010 A 
ATOM      3  C2  UNL d   1       4.814   4.140  -5.873  0.00  0.00     0.041 A 
ATOM      4  C3  UNL d   1       3.917   4.760  -4.982  0.00  0.00    -0.075 A 
ATOM      5  S   UNL d   1       2.572   5.759  -5.388  0.00  0.00     0.015 SA
ATOM      6  C4  UNL d   1       2.158   5.995  -3.752  0.00  0.00     0.022 A 
ATOM      7  C5  UNL d   1       3.014   5.335  -2.903  0.00  0.00     0.026 A 
ATOM      8  C6  UNL d   1       4.043   4.612  -3.597  0.00  0.00    -0.082 A 
ATOM      9  C7  UNL d   1       5.104   3.816  -3.104  0.00  0.00     0.045 A 
ENDROOT
TORSDOF 0
ENDMDL
