MODEL 1
REMARK minimizedAffinity -0.206810713
REMARK minimizedRMSD -1
REMARK  0 active torsions:
REMARK  status: ('A' for Active; 'I' for Inactive)
ROOT
ATOM      1  C   UNL d   1       5.248   5.323  -1.293  0.00  0.00    -0.002 A 
ATOM      2  C1  UNL d   1       5.892   4.107  -1.472  0.00  0.00     0.010 A 
ATOM      3  C2  UNL d   1       6.000   3.541  -2.744  0.00  0.00     0.041 A 
ATOM      4  C3  UNL d   1       5.447   4.226  -3.844  0.00  0.00    -0.075 A 
ATOM      5  S   UNL d   1       5.460   3.726  -5.494  0.00  0.00     0.015 SA
ATOM      6  C4  UNL d   1       4.612   5.115  -6.000  0.00  0.00     0.022 A 
ATOM      7  C5  UNL d   1       4.318   5.951  -4.949  0.00  0.00     0.026 A 
ATOM      8  C6  UNL d   1       4.794   5.453  -3.689  0.00  0.00    -0.082 A 
ATOM      9  C7  UNL d   1       4.700   6.000  -2.386  0.00  0.00     0.045 A 
ENDROOT
TORSDOF 0
ENDMDL
