MODEL 1
REMARK minimizedAffinity 1.39791417
REMARK minimizedRMSD -1
REMARK  0 active torsions:
REMARK  status: ('A' for Active; 'I' for Inactive)
ROOT
ATOM      1  C   UNL d   1       3.997   3.550  -5.733  0.00  0.00    -0.002 A 
ATOM      2  C1  UNL d   1       5.301   3.957  -5.976  0.00  0.00     0.010 A 
ATOM      3  C2  UNL d   1       5.994   4.721  -5.034  0.00  0.00     0.041 A 
ATOM      4  C3  UNL d   1       5.347   5.071  -3.833  0.00  0.00    -0.075 A 
ATOM      5  S   UNL d   1       5.999   6.000  -2.534  0.00  0.00     0.015 SA
ATOM      6  C4  UNL d   1       4.561   5.878  -1.627  0.00  0.00     0.022 A 
ATOM      7  C5  UNL d   1       3.597   5.150  -2.284  0.00  0.00     0.026 A 
ATOM      8  C6  UNL d   1       4.035   4.673  -3.565  0.00  0.00    -0.082 A 
ATOM      9  C7  UNL d   1       3.359   3.900  -4.540  0.00  0.00     0.045 A 
ENDROOT
TORSDOF 0
ENDMDL
