MODEL 1
REMARK minimizedAffinity -1.97576594
REMARK minimizedRMSD -1
REMARK  0 active torsions:
REMARK  status: ('A' for Active; 'I' for Inactive)
ROOT
ATOM      1  C   UNL d   1       5.954   2.610  -5.046  0.00  0.00    -0.002 A 
ATOM      2  C1  UNL d   1       5.038   3.033  -5.998  0.00  0.00     0.010 A 
ATOM      3  C2  UNL d   1       4.149   4.072  -5.716  0.00  0.00     0.041 A 
ATOM      4  C3  UNL d   1       4.198   4.686  -4.449  0.00  0.00    -0.075 A 
ATOM      5  S   UNL d   1       3.207   5.978  -3.881  0.00  0.00     0.015 SA
ATOM      6  C4  UNL d   1       3.977   5.999  -2.361  0.00  0.00     0.022 A 
ATOM      7  C5  UNL d   1       4.968   5.050  -2.271  0.00  0.00     0.026 A 
ATOM      8  C6  UNL d   1       5.112   4.278  -3.474  0.00  0.00    -0.082 A 
ATOM      9  C7  UNL d   1       5.999   3.221  -3.790  0.00  0.00     0.045 A 
ENDROOT
TORSDOF 0
ENDMDL
