MODEL 1
REMARK minimizedAffinity 3.7080214
REMARK minimizedRMSD -1
REMARK  0 active torsions:
REMARK  status: ('A' for Active; 'I' for Inactive)
ROOT
ATOM      1  C   UNL d   1       5.887   5.206  -2.030  0.00  0.00    -0.002 A 
ATOM      2  C1  UNL d   1       5.900   5.999  -3.169  0.00  0.00     0.010 A 
ATOM      3  C2  UNL d   1       5.936   5.418  -4.438  0.00  0.00     0.041 A 
ATOM      4  C3  UNL d   1       5.956   4.014  -4.545  0.00  0.00    -0.075 A 
ATOM      5  S   UNL d   1       5.999   3.082  -5.995  0.00  0.00     0.015 SA
ATOM      6  C4  UNL d   1       6.000   1.609  -5.137  0.00  0.00     0.022 A 
ATOM      7  C5  UNL d   1       5.969   1.805  -3.776  0.00  0.00     0.026 A 
ATOM      8  C6  UNL d   1       5.942   3.194  -3.413  0.00  0.00    -0.082 A 
ATOM      9  C7  UNL d   1       5.907   3.813  -2.140  0.00  0.00     0.045 A 
ENDROOT
TORSDOF 0
ENDMDL
