MODEL 1
REMARK minimizedAffinity 12.3792791
REMARK minimizedRMSD -1
REMARK  0 active torsions:
REMARK  status: ('A' for Active; 'I' for Inactive)
ROOT
ATOM      1  C   UNL d   1      -2.145   6.000  -3.012  0.00  0.00     0.077 C 
ATOM      2  C1  UNL d   1      -2.174   4.557  -2.606  0.00  0.00    -0.074 A 
ATOM      3  C2  UNL d   1      -3.135   3.683  -3.123  0.00  0.00    -0.005 A 
ATOM      4  C3  UNL d   1      -3.144   2.341  -2.743  0.00  0.00     0.006 A 
ATOM      5  C4  UNL d   1      -2.192   1.860  -1.843  0.00  0.00    -0.005 A 
ATOM      6  C5  UNL d   1      -1.222   2.718  -1.316  0.00  0.00    -0.074 A 
ATOM      7  C6  UNL d   1      -0.186   2.215  -0.355  0.00  0.00     0.077 C 
ATOM      8  C7  UNL d   1      -1.216   4.064  -1.708  0.00  0.00    -0.001 A 
ENDROOT
TORSDOF 0
ENDMDL
