MODEL 1
REMARK minimizedAffinity 0.576953769
REMARK minimizedRMSD -1
REMARK  0 active torsions:
REMARK  status: ('A' for Active; 'I' for Inactive)
ROOT
ATOM      1  C   UNL d   1      -4.805  -5.534  -5.944  0.00  0.00     0.077 C 
ATOM      2  C1  UNL d   1      -3.377  -5.076  -5.957  0.00  0.00    -0.074 A 
ATOM      3  C2  UNL d   1      -2.326  -5.998  -5.975  0.00  0.00    -0.005 A 
ATOM      4  C3  UNL d   1      -1.003  -5.556  -5.996  0.00  0.00     0.006 A 
ATOM      5  C4  UNL d   1      -0.718  -4.190  -6.000  0.00  0.00    -0.005 A 
ATOM      6  C5  UNL d   1      -1.756  -3.253  -5.983  0.00  0.00    -0.074 A 
ATOM      7  C6  UNL d   1      -1.468  -1.781  -5.996  0.00  0.00     0.077 C 
ATOM      8  C7  UNL d   1      -3.083  -3.705  -5.968  0.00  0.00    -0.001 A 
ENDROOT
TORSDOF 0
ENDMDL
