MODEL 1
REMARK minimizedAffinity 1.72676635
REMARK minimizedRMSD -1
REMARK  0 active torsions:
REMARK  status: ('A' for Active; 'I' for Inactive)
ROOT
ATOM      1  C   UNL d   1       0.459   5.253  -5.140  0.00  0.00     0.077 C 
ATOM      2  C1  UNL d   1      -0.507   5.084  -4.005  0.00  0.00    -0.074 A 
ATOM      3  C2  UNL d   1      -0.199   5.552  -2.723  0.00  0.00    -0.005 A 
ATOM      4  C3  UNL d   1      -1.111   5.397  -1.680  0.00  0.00     0.006 A 
ATOM      5  C4  UNL d   1      -2.338   4.773  -1.906  0.00  0.00    -0.005 A 
ATOM      6  C5  UNL d   1      -2.664   4.300  -3.181  0.00  0.00    -0.074 A 
ATOM      7  C6  UNL d   1      -3.983   3.636  -3.444  0.00  0.00     0.077 C 
ATOM      8  C7  UNL d   1      -1.745   4.466  -4.226  0.00  0.00    -0.001 A 
ENDROOT
TORSDOF 0
ENDMDL
