MODEL 1
REMARK minimizedAffinity 5.23007965
REMARK minimizedRMSD -1
REMARK  0 active torsions:
REMARK  status: ('A' for Active; 'I' for Inactive)
ROOT
ATOM      1  C   UNL d   1      -3.682  -5.893  -5.985  0.00  0.00     0.077 C 
ATOM      2  C1  UNL d   1      -2.664  -4.792  -5.996  0.00  0.00    -0.074 A 
ATOM      3  C2  UNL d   1      -3.057  -3.450  -5.998  0.00  0.00    -0.005 A 
ATOM      4  C3  UNL d   1      -2.099  -2.436  -5.998  0.00  0.00     0.006 A 
ATOM      5  C4  UNL d   1      -0.740  -2.753  -5.997  0.00  0.00    -0.005 A 
ATOM      6  C5  UNL d   1      -0.328  -4.090  -5.994  0.00  0.00    -0.074 A 
ATOM      7  C6  UNL d   1       1.128  -4.448  -5.982  0.00  0.00     0.077 C 
ATOM      8  C7  UNL d   1      -1.297  -5.103  -5.986  0.00  0.00    -0.001 A 
ENDROOT
TORSDOF 0
ENDMDL
