MODEL 1
REMARK minimizedAffinity -0.570310295
REMARK minimizedRMSD -1
REMARK  0 active torsions:
REMARK  status: ('A' for Active; 'I' for Inactive)
ROOT
ATOM      1  C   UNL d   1      -1.406  -2.218  -5.981  0.00  0.00     0.077 C 
ATOM      2  C1  UNL d   1      -2.152  -3.520  -5.988  0.00  0.00    -0.074 A 
ATOM      3  C2  UNL d   1      -1.468  -4.740  -5.972  0.00  0.00    -0.005 A 
ATOM      4  C3  UNL d   1      -2.175  -5.942  -5.969  0.00  0.00     0.006 A 
ATOM      5  C4  UNL d   1      -3.570  -5.937  -5.981  0.00  0.00    -0.005 A 
ATOM      6  C5  UNL d   1      -4.271  -4.727  -5.996  0.00  0.00    -0.074 A 
ATOM      7  C6  UNL d   1      -5.771  -4.703  -5.999  0.00  0.00     0.077 C 
ATOM      8  C7  UNL d   1      -3.554  -3.523  -5.992  0.00  0.00    -0.001 A 
ENDROOT
TORSDOF 0
ENDMDL
