MODEL 1
REMARK minimizedAffinity 4.47297859
REMARK minimizedRMSD -1
REMARK  0 active torsions:
REMARK  status: ('A' for Active; 'I' for Inactive)
ROOT
ATOM      1  C   UNL d   1      -1.103  -1.671  -5.987  0.00  0.00     0.077 C 
ATOM      2  C1  UNL d   1      -1.176  -3.169  -5.991  0.00  0.00    -0.074 A 
ATOM      3  C2  UNL d   1      -0.013  -3.946  -5.992  0.00  0.00    -0.005 A 
ATOM      4  C3  UNL d   1      -0.097  -5.338  -5.986  0.00  0.00     0.006 A 
ATOM      5  C4  UNL d   1      -1.343  -5.966  -5.979  0.00  0.00    -0.005 A 
ATOM      6  C5  UNL d   1      -2.517  -5.206  -5.977  0.00  0.00    -0.074 A 
ATOM      7  C6  UNL d   1      -3.864  -5.866  -5.960  0.00  0.00     0.077 C 
ATOM      8  C7  UNL d   1      -2.424  -3.808  -5.976  0.00  0.00    -0.001 A 
ENDROOT
TORSDOF 0
ENDMDL
