MODEL 1
REMARK minimizedAffinity 3.98105025
REMARK minimizedRMSD -1
REMARK  0 active torsions:
REMARK  status: ('A' for Active; 'I' for Inactive)
ROOT
ATOM      1  C   UNL d   1      -0.015   2.524   0.565  0.00  0.00     0.077 C 
ATOM      2  C1  UNL d   1      -0.317   3.726  -0.279  0.00  0.00    -0.074 A 
ATOM      3  C2  UNL d   1      -0.855   4.886   0.288  0.00  0.00    -0.005 A 
ATOM      4  C3  UNL d   1      -1.122   6.000  -0.508  0.00  0.00     0.006 A 
ATOM      5  C4  UNL d   1      -0.854   5.966  -1.877  0.00  0.00    -0.005 A 
ATOM      6  C5  UNL d   1      -0.315   4.815  -2.462  0.00  0.00    -0.074 A 
ATOM      7  C6  UNL d   1      -0.012   4.765  -3.930  0.00  0.00     0.077 C 
ATOM      8  C7  UNL d   1      -0.043   3.702  -1.654  0.00  0.00    -0.001 A 
ENDROOT
TORSDOF 0
ENDMDL
