MODEL 1
REMARK minimizedAffinity 6.25469923
REMARK minimizedRMSD -1
REMARK  0 active torsions:
REMARK  status: ('A' for Active; 'I' for Inactive)
ROOT
ATOM      1  C2' OXE d   1      -3.844  -2.551  -3.403  0.00  0.00     0.078 C 
ATOM      2  C1' OXE d   1      -5.965  -2.265  -5.219  0.00  0.00     0.078 C 
ATOM      3  C1  OXE d   1      -5.254  -3.595  -5.171  0.00  0.00    -0.078 A 
ATOM      4  C2  OXE d   1      -4.187  -3.711  -4.313  0.00  0.00    -0.078 A 
ATOM      5  C3  OXE d   1      -3.531  -4.932  -4.190  0.00  0.00     0.003 A 
ATOM      6  C4  OXE d   1      -3.848  -5.996  -5.043  0.00  0.00    -0.002 A 
ATOM      7  C5  OXE d   1      -4.905  -5.886  -5.952  0.00  0.00    -0.002 A 
ATOM      8  C6  OXE d   1      -5.644  -4.709  -5.999  0.00  0.00     0.003 A 
ENDROOT
TORSDOF 0
ENDMDL
