MODEL 1
REMARK minimizedAffinity 12.119545
REMARK minimizedRMSD -1
REMARK  0 active torsions:
REMARK  status: ('A' for Active; 'I' for Inactive)
ROOT
ATOM      1  C2' OXE d   1      -3.733   3.079   1.573  0.00  0.00     0.078 C 
ATOM      2  C1' OXE d   1      -5.985   4.218   0.345  0.00  0.00     0.078 C 
ATOM      3  C1  OXE d   1      -5.156   3.252  -0.464  0.00  0.00    -0.078 A 
ATOM      4  C2  OXE d   1      -4.029   2.735   0.129  0.00  0.00    -0.078 A 
ATOM      5  C3  OXE d   1      -3.259   1.798  -0.553  0.00  0.00     0.003 A 
ATOM      6  C4  OXE d   1      -3.534   1.493  -1.891  0.00  0.00    -0.002 A 
ATOM      7  C5  OXE d   1      -4.654   2.039  -2.528  0.00  0.00    -0.002 A 
ATOM      8  C6  OXE d   1      -5.498   2.885  -1.816  0.00  0.00     0.003 A 
ENDROOT
TORSDOF 0
ENDMDL
