MODEL 1
REMARK minimizedAffinity 14.5356369
REMARK minimizedRMSD -1
REMARK  0 active torsions:
REMARK  status: ('A' for Active; 'I' for Inactive)
ROOT
ATOM      1  C2' OXE d   1       2.428   2.126   1.596  0.00  0.00     0.078 C 
ATOM      2  C1' OXE d   1       3.873   0.283   0.048  0.00  0.00     0.078 C 
ATOM      3  C1  OXE d   1       2.752  -0.246   0.908  0.00  0.00    -0.078 A 
ATOM      4  C2  OXE d   1       2.081   0.656   1.697  0.00  0.00    -0.078 A 
ATOM      5  C3  OXE d   1       1.003   0.230   2.467  0.00  0.00     0.003 A 
ATOM      6  C4  OXE d   1       0.694  -1.132   2.563  0.00  0.00    -0.002 A 
ATOM      7  C5  OXE d   1       1.391  -2.073   1.797  0.00  0.00    -0.002 A 
ATOM      8  C6  OXE d   1       2.392  -1.643   0.934  0.00  0.00     0.003 A 
ENDROOT
TORSDOF 0
ENDMDL
