MODEL 1
REMARK minimizedAffinity 7.87870073
REMARK minimizedRMSD -1
REMARK  0 active torsions:
REMARK  status: ('A' for Active; 'I' for Inactive)
ROOT
ATOM      1  C2' OXE d   1      -4.941  -2.374  -1.572  0.00  0.00     0.078 C 
ATOM      2  C1' OXE d   1      -5.949  -0.076  -2.831  0.00  0.00     0.078 C 
ATOM      3  C1  OXE d   1      -5.707  -1.296  -3.683  0.00  0.00    -0.078 A 
ATOM      4  C2  OXE d   1      -5.170  -2.401  -3.068  0.00  0.00    -0.078 A 
ATOM      5  C3  OXE d   1      -4.978  -3.571  -3.797  0.00  0.00     0.003 A 
ATOM      6  C4  OXE d   1      -5.184  -3.585  -5.182  0.00  0.00    -0.002 A 
ATOM      7  C5  OXE d   1      -5.693  -2.458  -5.836  0.00  0.00    -0.002 A 
ATOM      8  C6  OXE d   1      -6.000  -1.322  -5.095  0.00  0.00     0.003 A 
ENDROOT
TORSDOF 0
ENDMDL
