MODEL 1
REMARK minimizedAffinity 17.9741192
REMARK minimizedRMSD -1
REMARK  0 active torsions:
REMARK  status: ('A' for Active; 'I' for Inactive)
ROOT
ATOM      1  C2' OXE d   1      -3.757  -5.159  -2.277  0.00  0.00     0.078 C 
ATOM      2  C1' OXE d   1      -4.720  -2.591  -2.874  0.00  0.00     0.078 C 
ATOM      3  C1  OXE d   1      -4.982  -3.690  -3.873  0.00  0.00    -0.078 A 
ATOM      4  C2  OXE d   1      -4.466  -4.933  -3.594  0.00  0.00    -0.078 A 
ATOM      5  C3  OXE d   1      -4.725  -5.996  -4.455  0.00  0.00     0.003 A 
ATOM      6  C4  OXE d   1      -5.374  -5.777  -5.677  0.00  0.00    -0.002 A 
ATOM      7  C5  OXE d   1      -5.872  -4.510  -5.999  0.00  0.00    -0.002 A 
ATOM      8  C6  OXE d   1      -5.722  -3.468  -5.090  0.00  0.00     0.003 A 
ENDROOT
TORSDOF 0
ENDMDL
