MODEL 1
REMARK minimizedAffinity 10.7556353
REMARK minimizedRMSD -1
REMARK  0 active torsions:
REMARK  status: ('A' for Active; 'I' for Inactive)
ROOT
ATOM      1  C2' OXE d   1      -3.789  -2.361  -3.755  0.00  0.00     0.078 C 
ATOM      2  C1' OXE d   1      -5.961  -2.316  -5.533  0.00  0.00     0.078 C 
ATOM      3  C1  OXE d   1      -5.241  -3.627  -5.334  0.00  0.00    -0.078 A 
ATOM      4  C2  OXE d   1      -4.151  -3.628  -4.498  0.00  0.00    -0.078 A 
ATOM      5  C3  OXE d   1      -3.484  -4.822  -4.237  0.00  0.00     0.003 A 
ATOM      6  C4  OXE d   1      -3.819  -5.988  -4.936  0.00  0.00    -0.002 A 
ATOM      7  C5  OXE d   1      -4.901  -5.999  -5.822  0.00  0.00    -0.002 A 
ATOM      8  C6  OXE d   1      -5.648  -4.839  -6.000  0.00  0.00     0.003 A 
ENDROOT
TORSDOF 0
ENDMDL
