MODEL 1
REMARK minimizedAffinity 12.8230762
REMARK minimizedRMSD -1
REMARK  0 active torsions:
REMARK  status: ('A' for Active; 'I' for Inactive)
ROOT
ATOM      1  C2' OXE d   1      -3.200   0.006  -3.320  0.00  0.00     0.078 C 
ATOM      2  C1' OXE d   1      -4.052   2.676  -3.485  0.00  0.00     0.078 C 
ATOM      3  C1  OXE d   1      -3.303   2.252  -2.246  0.00  0.00    -0.078 A 
ATOM      4  C2  OXE d   1      -2.931   0.932  -2.154  0.00  0.00    -0.078 A 
ATOM      5  C3  OXE d   1      -2.190   0.500  -1.057  0.00  0.00     0.003 A 
ATOM      6  C4  OXE d   1      -1.954   1.360   0.022  0.00  0.00    -0.002 A 
ATOM      7  C5  OXE d   1      -2.359   2.698  -0.034  0.00  0.00    -0.002 A 
ATOM      8  C6  OXE d   1      -2.996   3.169  -1.177  0.00  0.00     0.003 A 
ENDROOT
TORSDOF 0
ENDMDL
