MODEL 1
REMARK minimizedAffinity -2.11451244
REMARK minimizedRMSD -1
REMARK  0 active torsions:
REMARK  status: ('A' for Active; 'I' for Inactive)
ROOT
ATOM      1  C   UNL d   1      -2.066  -0.198   0.857  0.00  0.00     0.078 C 
ATOM      2  C1  UNL d   1      -0.621  -0.597   0.814  0.00  0.00    -0.077 A 
ATOM      3  C2  UNL d   1      -0.193  -1.674   0.029  0.00  0.00    -0.001 A 
ATOM      4  C3  UNL d   1       1.154  -2.041   0.006  0.00  0.00     0.003 A 
ATOM      5  C4  UNL d   1       2.083  -1.336   0.768  0.00  0.00    -0.005 A 
ATOM      6  C5  UNL d   1       1.667  -0.264   1.555  0.00  0.00     0.003 A 
ATOM      7  C6  UNL d   1       0.321   0.104   1.579  0.00  0.00    -0.001 A 
ENDROOT
TORSDOF 0
ENDMDL
