MODEL 1
REMARK minimizedAffinity -5.31631851
REMARK minimizedRMSD -1
REMARK  0 active torsions:
REMARK  status: ('A' for Active; 'I' for Inactive)
ROOT
ATOM      1  C   UNL d   1      -1.140   0.053   1.494  0.00  0.00     0.078 C 
ATOM      2  C1  UNL d   1      -0.123  -0.913   0.964  0.00  0.00    -0.077 A 
ATOM      3  C2  UNL d   1       1.238  -0.584   0.938  0.00  0.00    -0.001 A 
ATOM      4  C3  UNL d   1       2.173  -1.490   0.433  0.00  0.00     0.003 A 
ATOM      5  C4  UNL d   1       1.757  -2.728  -0.052  0.00  0.00    -0.005 A 
ATOM      6  C5  UNL d   1       0.404  -3.063  -0.032  0.00  0.00     0.003 A 
ATOM      7  C6  UNL d   1      -0.532  -2.159   0.473  0.00  0.00    -0.001 A 
ENDROOT
TORSDOF 0
ENDMDL
