MODEL 1
REMARK minimizedAffinity -4.01875639
REMARK minimizedRMSD -1
REMARK  0 active torsions:
REMARK  status: ('A' for Active; 'I' for Inactive)
ROOT
ATOM      1  C   UNL d   1      -1.853   0.597   1.101  0.00  0.00     0.078 C 
ATOM      2  C1  UNL d   1      -0.526  -0.073   0.908  0.00  0.00    -0.077 A 
ATOM      3  C2  UNL d   1       0.565   0.238   1.729  0.00  0.00    -0.001 A 
ATOM      4  C3  UNL d   1       1.798  -0.386   1.532  0.00  0.00     0.003 A 
ATOM      5  C4  UNL d   1       1.952  -1.324   0.514  0.00  0.00    -0.005 A 
ATOM      6  C5  UNL d   1       0.873  -1.639  -0.310  0.00  0.00     0.003 A 
ATOM      7  C6  UNL d   1      -0.361  -1.016  -0.114  0.00  0.00    -0.001 A 
ENDROOT
TORSDOF 0
ENDMDL
