MODEL 1
REMARK minimizedAffinity 0.297071785
REMARK minimizedRMSD -1
REMARK  0 active torsions:
REMARK  status: ('A' for Active; 'I' for Inactive)
ROOT
ATOM      1  C   UNL d   1       2.777  -0.842  -0.069  0.00  0.00     0.078 C 
ATOM      2  C1  UNL d   1       1.370  -1.244   0.261  0.00  0.00    -0.077 A 
ATOM      3  C2  UNL d   1       0.530  -0.393   0.989  0.00  0.00    -0.001 A 
ATOM      4  C3  UNL d   1      -0.774  -0.783   1.298  0.00  0.00     0.003 A 
ATOM      5  C4  UNL d   1      -1.249  -2.026   0.884  0.00  0.00    -0.005 A 
ATOM      6  C5  UNL d   1      -0.419  -2.881   0.161  0.00  0.00     0.003 A 
ATOM      7  C6  UNL d   1       0.885  -2.492  -0.149  0.00  0.00    -0.001 A 
ENDROOT
TORSDOF 0
ENDMDL
