MODEL 1
REMARK minimizedAffinity 6.77288055
REMARK minimizedRMSD -1
REMARK  0 active torsions:
REMARK  status: ('A' for Active; 'I' for Inactive)
ROOT
ATOM      1  C   UNL d   1       4.031   4.067  -1.682  0.00  0.00     0.078 C 
ATOM      2  C1  UNL d   1       3.322   2.907  -2.313  0.00  0.00    -0.077 A 
ATOM      3  C2  UNL d   1       3.830   1.607  -2.208  0.00  0.00    -0.001 A 
ATOM      4  C3  UNL d   1       3.164   0.537  -2.808  0.00  0.00     0.003 A 
ATOM      5  C4  UNL d   1       1.986   0.757  -3.520  0.00  0.00    -0.005 A 
ATOM      6  C5  UNL d   1       1.474   2.048  -3.632  0.00  0.00     0.003 A 
ATOM      7  C6  UNL d   1       2.139   3.119  -3.032  0.00  0.00    -0.001 A 
ENDROOT
TORSDOF 0
ENDMDL
