MODEL 1
REMARK minimizedAffinity -3.60934639
REMARK minimizedRMSD -1
REMARK  0 active torsions:
REMARK  status: ('A' for Active; 'I' for Inactive)
ROOT
ATOM      1  C   UNL d   1      -2.329   1.039   1.824  0.00  0.00     0.078 C 
ATOM      2  C1  UNL d   1      -1.303   0.092   1.277  0.00  0.00    -0.077 A 
ATOM      3  C2  UNL d   1      -1.682  -1.027   0.526  0.00  0.00    -0.001 A 
ATOM      4  C3  UNL d   1      -0.717  -1.905   0.031  0.00  0.00     0.003 A 
ATOM      5  C4  UNL d   1       0.634  -1.674   0.283  0.00  0.00    -0.005 A 
ATOM      6  C5  UNL d   1       1.021  -0.565   1.032  0.00  0.00     0.003 A 
ATOM      7  C6  UNL d   1       0.057   0.315   1.527  0.00  0.00    -0.001 A 
ENDROOT
TORSDOF 0
ENDMDL
