MODEL 1
REMARK minimizedAffinity 0.133040071
REMARK minimizedRMSD -1
REMARK  0 active torsions:
REMARK  status: ('A' for Active; 'I' for Inactive)
ROOT
ATOM      1  C   UNL d   1       3.468  -1.893   0.005  0.00  0.00     0.078 C 
ATOM      2  C1  UNL d   1       1.987  -1.969   0.224  0.00  0.00    -0.077 A 
ATOM      3  C2  UNL d   1       1.353  -1.143   1.160  0.00  0.00    -0.001 A 
ATOM      4  C3  UNL d   1      -0.026  -1.232   1.360  0.00  0.00     0.003 A 
ATOM      5  C4  UNL d   1      -0.782  -2.145   0.628  0.00  0.00    -0.005 A 
ATOM      6  C5  UNL d   1      -0.160  -2.972  -0.305  0.00  0.00     0.003 A 
ATOM      7  C6  UNL d   1       1.219  -2.885  -0.506  0.00  0.00    -0.001 A 
ENDROOT
TORSDOF 0
ENDMDL
