MODEL 1
REMARK minimizedAffinity 3.39921021
REMARK minimizedRMSD -1
REMARK  0 active torsions:
REMARK  status: ('A' for Active; 'I' for Inactive)
ROOT
ATOM      1  C   UNL d   1      -0.192  -0.666   2.104  0.00  0.00     0.078 C 
ATOM      2  C1  UNL d   1       0.074  -1.721   1.073  0.00  0.00    -0.077 A 
ATOM      3  C2  UNL d   1       1.377  -2.164   0.813  0.00  0.00    -0.001 A 
ATOM      4  C3  UNL d   1       1.611  -3.140  -0.156  0.00  0.00     0.003 A 
ATOM      5  C4  UNL d   1       0.548  -3.681  -0.876  0.00  0.00    -0.005 A 
ATOM      6  C5  UNL d   1      -0.752  -3.246  -0.626  0.00  0.00     0.003 A 
ATOM      7  C6  UNL d   1      -0.988  -2.269   0.343  0.00  0.00    -0.001 A 
ENDROOT
TORSDOF 0
ENDMDL
