MODEL 1
REMARK minimizedAffinity -0.375951409
REMARK minimizedRMSD -1
REMARK  0 active torsions:
REMARK  status: ('A' for Active; 'I' for Inactive)
ROOT
ATOM      1  C   UNL d   1       0.753  -3.595  -0.925  0.00  0.00     0.078 C 
ATOM      2  C1  UNL d   1       0.632  -2.311  -0.160  0.00  0.00    -0.077 A 
ATOM      3  C2  UNL d   1       1.748  -1.494   0.061  0.00  0.00    -0.001 A 
ATOM      4  C3  UNL d   1       1.622  -0.307   0.784  0.00  0.00     0.003 A 
ATOM      5  C4  UNL d   1       0.382   0.075   1.292  0.00  0.00    -0.005 A 
ATOM      6  C5  UNL d   1      -0.734  -0.732   1.079  0.00  0.00     0.003 A 
ATOM      7  C6  UNL d   1      -0.610  -1.920   0.357  0.00  0.00    -0.001 A 
ENDROOT
TORSDOF 0
ENDMDL
