MODEL 1
REMARK minimizedAffinity -3.5824132
REMARK minimizedRMSD -1
REMARK  0 active torsions:
REMARK  status: ('A' for Active; 'I' for Inactive)
ROOT
ATOM      1  C   UNL d   1       1.995  -3.819  -0.528  0.00  0.00     0.078 C 
ATOM      2  C1  UNL d   1       1.222  -2.666   0.039  0.00  0.00    -0.077 A 
ATOM      3  C2  UNL d   1       1.664  -1.349  -0.131  0.00  0.00    -0.001 A 
ATOM      4  C3  UNL d   1       0.939  -0.285   0.410  0.00  0.00     0.003 A 
ATOM      5  C4  UNL d   1      -0.231  -0.529   1.126  0.00  0.00    -0.005 A 
ATOM      6  C5  UNL d   1      -0.678  -1.837   1.302  0.00  0.00     0.003 A 
ATOM      7  C6  UNL d   1       0.046  -2.901   0.762  0.00  0.00    -0.001 A 
ENDROOT
TORSDOF 0
ENDMDL
