MODEL 1
REMARK minimizedAffinity -0.926928639
REMARK minimizedRMSD -1
REMARK  0 active torsions:
REMARK  status: ('A' for Active; 'I' for Inactive)
ROOT
ATOM      1  C   UNL d   1      -0.603  -1.097   0.723  0.00  0.00     0.078 C 
ATOM      2  C1  UNL d   1       0.638  -1.782   0.232  0.00  0.00    -0.077 A 
ATOM      3  C2  UNL d   1       0.604  -3.113  -0.199  0.00  0.00    -0.001 A 
ATOM      4  C3  UNL d   1       1.768  -3.741  -0.644  0.00  0.00     0.003 A 
ATOM      5  C4  UNL d   1       2.976  -3.046  -0.661  0.00  0.00    -0.005 A 
ATOM      6  C5  UNL d   1       3.020  -1.721  -0.231  0.00  0.00     0.003 A 
ATOM      7  C6  UNL d   1       1.856  -1.092   0.214  0.00  0.00    -0.001 A 
ENDROOT
TORSDOF 0
ENDMDL
