MODEL 1
REMARK minimizedAffinity 0.915046334
REMARK minimizedRMSD -1
REMARK  0 active torsions:
REMARK  status: ('A' for Active; 'I' for Inactive)
ROOT
ATOM      1  C   UNL d   1       3.613  -1.182   0.154  0.00  0.00     0.078 C 
ATOM      2  C1  UNL d   1       2.142  -1.172   0.445  0.00  0.00    -0.077 A 
ATOM      3  C2  UNL d   1       1.249  -1.933  -0.320  0.00  0.00    -0.001 A 
ATOM      4  C3  UNL d   1      -0.118  -1.906  -0.043  0.00  0.00     0.003 A 
ATOM      5  C4  UNL d   1      -0.606  -1.120   0.998  0.00  0.00    -0.005 A 
ATOM      6  C5  UNL d   1       0.274  -0.358   1.764  0.00  0.00     0.003 A 
ATOM      7  C6  UNL d   1       1.642  -0.383   1.489  0.00  0.00    -0.001 A 
ENDROOT
TORSDOF 0
ENDMDL
