MODEL 1
REMARK minimizedAffinity 2.1886301
REMARK minimizedRMSD -1
REMARK  0 active torsions:
REMARK  status: ('A' for Active; 'I' for Inactive)
ROOT
ATOM      1  C   UNL d   1       0.409  -2.264  -1.921  0.00  0.00     0.078 C 
ATOM      2  C1  UNL d   1       0.378  -1.533  -0.612  0.00  0.00    -0.077 A 
ATOM      3  C2  UNL d   1      -0.782  -1.506   0.172  0.00  0.00    -0.001 A 
ATOM      4  C3  UNL d   1      -0.800  -0.814   1.383  0.00  0.00     0.003 A 
ATOM      5  C4  UNL d   1       0.339  -0.141   1.822  0.00  0.00    -0.005 A 
ATOM      6  C5  UNL d   1       1.497  -0.160   1.047  0.00  0.00     0.003 A 
ATOM      7  C6  UNL d   1       1.517  -0.852  -0.165  0.00  0.00    -0.001 A 
ENDROOT
TORSDOF 0
ENDMDL
