MODEL 1
REMARK minimizedAffinity 3.6604991
REMARK minimizedRMSD -1
REMARK  0 active torsions:
REMARK  status: ('A' for Active; 'I' for Inactive)
ROOT
ATOM      1  C   UNL d   1       1.490  -3.827  -0.664  0.00  0.00     0.078 C 
ATOM      2  C1  UNL d   1       0.996  -2.643   0.113  0.00  0.00    -0.077 A 
ATOM      3  C2  UNL d   1       1.875  -1.859   0.870  0.00  0.00    -0.001 A 
ATOM      4  C3  UNL d   1       1.400  -0.766   1.595  0.00  0.00     0.003 A 
ATOM      5  C4  UNL d   1       0.043  -0.448   1.573  0.00  0.00    -0.005 A 
ATOM      6  C5  UNL d   1      -0.840  -1.224   0.824  0.00  0.00     0.003 A 
ATOM      7  C6  UNL d   1      -0.366  -2.317   0.098  0.00  0.00    -0.001 A 
ENDROOT
TORSDOF 0
ENDMDL
