MODEL 1
REMARK minimizedAffinity -5.19154453
REMARK minimizedRMSD -1
REMARK  0 active torsions:
REMARK  status: ('A' for Active; 'I' for Inactive)
ROOT
ATOM      1  C   UNL d   1      -1.962   1.134   1.885  0.00  0.00     0.078 C 
ATOM      2  C1  UNL d   1      -1.500  -0.213   1.415  0.00  0.00    -0.077 A 
ATOM      3  C2  UNL d   1      -0.355  -0.811   1.954  0.00  0.00    -0.001 A 
ATOM      4  C3  UNL d   1       0.069  -2.062   1.500  0.00  0.00     0.003 A 
ATOM      5  C4  UNL d   1      -0.647  -2.723   0.504  0.00  0.00    -0.005 A 
ATOM      6  C5  UNL d   1      -1.787  -2.135  -0.040  0.00  0.00     0.003 A 
ATOM      7  C6  UNL d   1      -2.212  -0.885   0.413  0.00  0.00    -0.001 A 
ENDROOT
TORSDOF 0
ENDMDL
