MODEL 1
REMARK minimizedAffinity -0.750850558
REMARK minimizedRMSD -1
REMARK  0 active torsions:
REMARK  status: ('A' for Active; 'I' for Inactive)
ROOT
ATOM      1  C   UNL d   1      -1.085  -0.548   1.811  0.00  0.00     0.078 C 
ATOM      2  C1  UNL d   1       0.146  -1.104   1.159  0.00  0.00    -0.077 A 
ATOM      3  C2  UNL d   1       1.335  -0.366   1.115  0.00  0.00    -0.001 A 
ATOM      4  C3  UNL d   1       2.470  -0.893   0.496  0.00  0.00     0.003 A 
ATOM      5  C4  UNL d   1       2.427  -2.159  -0.084  0.00  0.00    -0.005 A 
ATOM      6  C5  UNL d   1       1.247  -2.900  -0.046  0.00  0.00     0.003 A 
ATOM      7  C6  UNL d   1       0.111  -2.375   0.572  0.00  0.00    -0.001 A 
ENDROOT
TORSDOF 0
ENDMDL
