MODEL 1
REMARK minimizedAffinity 7.14415121
REMARK minimizedRMSD -1
REMARK  0 active torsions:
REMARK  status: ('A' for Active; 'I' for Inactive)
ROOT
ATOM      1  C   UNL d   1       4.670   3.353  -2.161  0.00  0.00     0.078 C 
ATOM      2  C1  UNL d   1       3.528   2.573  -2.740  0.00  0.00    -0.077 A 
ATOM      3  C2  UNL d   1       2.725   3.112  -3.752  0.00  0.00    -0.001 A 
ATOM      4  C3  UNL d   1       1.659   2.378  -4.274  0.00  0.00     0.003 A 
ATOM      5  C4  UNL d   1       1.385   1.100  -3.789  0.00  0.00    -0.005 A 
ATOM      6  C5  UNL d   1       2.177   0.556  -2.780  0.00  0.00     0.003 A 
ATOM      7  C6  UNL d   1       3.244   1.289  -2.257  0.00  0.00    -0.001 A 
ENDROOT
TORSDOF 0
ENDMDL
