MODEL 1
REMARK minimizedAffinity -3.35423541
REMARK minimizedRMSD -1
REMARK  0 active torsions:
REMARK  status: ('A' for Active; 'I' for Inactive)
ROOT
ATOM      1  C   UNL d   1      -1.943  -0.349   1.112  0.00  0.00     0.078 C 
ATOM      2  C1  UNL d   1      -0.761  -1.173   0.697  0.00  0.00    -0.077 A 
ATOM      3  C2  UNL d   1       0.546  -0.737   0.947  0.00  0.00    -0.001 A 
ATOM      4  C3  UNL d   1       1.637  -1.509   0.547  0.00  0.00     0.003 A 
ATOM      5  C4  UNL d   1       1.432  -2.722  -0.108  0.00  0.00    -0.005 A 
ATOM      6  C5  UNL d   1       0.136  -3.163  -0.364  0.00  0.00     0.003 A 
ATOM      7  C6  UNL d   1      -0.957  -2.392   0.036  0.00  0.00    -0.001 A 
ENDROOT
TORSDOF 0
ENDMDL
