MODEL 1
REMARK minimizedAffinity -4.2644887
REMARK minimizedRMSD -1
REMARK  0 active torsions:
REMARK  status: ('A' for Active; 'I' for Inactive)
ROOT
ATOM      1  O1  BZF d   1      -0.770   0.529   0.094  0.00  0.00    -0.204 OA
ATOM      2  C2  BZF d   1       0.176   1.218  -0.641  0.00  0.00     0.174 A 
ATOM      3  C3  BZF d   1       1.395   0.661  -0.493  0.00  0.00    -0.012 A 
ATOM      4  C3A BZF d   1       1.183  -0.500   0.316  0.00  0.00    -0.107 A 
ATOM      5  C4  BZF d   1       2.011  -1.475   0.794  0.00  0.00     0.055 A 
ATOM      6  C5  BZF d   1       1.502  -2.429   1.617  0.00  0.00    -0.016 A 
ATOM      7  C6  BZF d   1       0.172  -2.436   1.986  0.00  0.00     0.022 A 
ATOM      8  C7  BZF d   1      -0.689  -1.492   1.533  0.00  0.00     0.029 A 
ATOM      9  C7A BZF d   1      -0.184  -0.546   0.674  0.00  0.00     0.058 A 
ENDROOT
TORSDOF 0
ENDMDL
