MODEL 1
REMARK minimizedAffinity -2.03510475
REMARK minimizedRMSD -1
REMARK  0 active torsions:
REMARK  status: ('A' for Active; 'I' for Inactive)
ROOT
ATOM      1  O1  BZF d   1      -0.277  -1.591   0.974  0.00  0.00    -0.204 OA
ATOM      2  C2  BZF d   1      -1.607  -1.519   0.606  0.00  0.00     0.174 A 
ATOM      3  C3  BZF d   1      -1.831  -0.438  -0.168  0.00  0.00    -0.012 A 
ATOM      4  C3A BZF d   1      -0.545   0.155  -0.368  0.00  0.00    -0.107 A 
ATOM      5  C4  BZF d   1      -0.113   1.248  -1.064  0.00  0.00     0.055 A 
ATOM      6  C5  BZF d   1       1.199   1.598  -0.996  0.00  0.00    -0.016 A 
ATOM      7  C6  BZF d   1       2.103   0.882  -0.240  0.00  0.00     0.022 A 
ATOM      8  C7  BZF d   1       1.723  -0.213   0.463  0.00  0.00     0.029 A 
ATOM      9  C7A BZF d   1       0.405  -0.588   0.370  0.00  0.00     0.058 A 
ENDROOT
TORSDOF 0
ENDMDL
