MODEL 1
REMARK minimizedAffinity -5.29101086
REMARK minimizedRMSD -1
REMARK  0 active torsions:
REMARK  status: ('A' for Active; 'I' for Inactive)
ROOT
ATOM      1  O1  BZF d   1      -0.378   0.772  -0.099  0.00  0.00    -0.204 OA
ATOM      2  C2  BZF d   1       0.811   0.139  -0.407  0.00  0.00     0.174 A 
ATOM      3  C3  BZF d   1       0.864  -1.084   0.161  0.00  0.00    -0.012 A 
ATOM      4  C3A BZF d   1      -0.409  -1.260   0.792  0.00  0.00    -0.107 A 
ATOM      5  C4  BZF d   1      -0.968  -2.280   1.507  0.00  0.00     0.055 A 
ATOM      6  C5  BZF d   1      -2.203  -2.108   2.047  0.00  0.00    -0.016 A 
ATOM      7  C6  BZF d   1      -2.903  -0.928   1.898  0.00  0.00     0.022 A 
ATOM      8  C7  BZF d   1      -2.391   0.110   1.193  0.00  0.00     0.029 A 
ATOM      9  C7A BZF d   1      -1.157  -0.073   0.617  0.00  0.00     0.058 A 
ENDROOT
TORSDOF 0
ENDMDL
