MODEL 1
REMARK minimizedAffinity -4.94496107
REMARK minimizedRMSD -1
REMARK  0 active torsions:
REMARK  status: ('A' for Active; 'I' for Inactive)
ROOT
ATOM      1  O1  BZF d   1      -0.460  -1.862   1.396  0.00  0.00    -0.204 OA
ATOM      2  C2  BZF d   1       0.746  -2.519   1.241  0.00  0.00     0.174 A 
ATOM      3  C3  BZF d   1       1.683  -1.687   0.743  0.00  0.00    -0.012 A 
ATOM      4  C3A BZF d   1       1.047  -0.407   0.664  0.00  0.00    -0.107 A 
ATOM      5  C4  BZF d   1       1.469   0.828   0.261  0.00  0.00     0.055 A 
ATOM      6  C5  BZF d   1       0.579   1.854   0.237  0.00  0.00    -0.016 A 
ATOM      7  C6  BZF d   1      -0.740   1.680   0.603  0.00  0.00     0.022 A 
ATOM      8  C7  BZF d   1      -1.204   0.475   1.014  0.00  0.00     0.029 A 
ATOM      9  C7A BZF d   1      -0.299  -0.557   1.071  0.00  0.00     0.058 A 
ENDROOT
TORSDOF 0
ENDMDL
