MODEL 1
REMARK minimizedAffinity -1.92960739
REMARK minimizedRMSD -1
REMARK  0 active torsions:
REMARK  status: ('A' for Active; 'I' for Inactive)
ROOT
ATOM      1  O1  BZF d   1       1.504   0.186  -0.222  0.00  0.00    -0.204 OA
ATOM      2  C2  BZF d   1       0.542   0.849  -0.959  0.00  0.00     0.174 A 
ATOM      3  C3  BZF d   1      -0.682   0.335  -0.719  0.00  0.00    -0.012 A 
ATOM      4  C3A BZF d   1      -0.483  -0.653   0.296  0.00  0.00    -0.107 A 
ATOM      5  C4  BZF d   1      -1.325  -1.497   0.963  0.00  0.00     0.055 A 
ATOM      6  C5  BZF d   1      -0.803  -2.391   1.843  0.00  0.00    -0.016 A 
ATOM      7  C6  BZF d   1       0.555  -2.473   2.076  0.00  0.00     0.022 A 
ATOM      8  C7  BZF d   1       1.429  -1.654   1.441  0.00  0.00     0.029 A 
ATOM      9  C7A BZF d   1       0.901  -0.727   0.576  0.00  0.00     0.058 A 
ENDROOT
TORSDOF 0
ENDMDL
