MODEL 1
REMARK minimizedAffinity -2.37452006
REMARK minimizedRMSD -1
REMARK  0 active torsions:
REMARK  status: ('A' for Active; 'I' for Inactive)
ROOT
ATOM      1  O1  BZF d   1      -0.285   1.631  -0.515  0.00  0.00    -0.204 OA
ATOM      2  C2  BZF d   1       0.777   0.893  -1.002  0.00  0.00     0.174 A 
ATOM      3  C3  BZF d   1       0.624  -0.415  -0.711  0.00  0.00    -0.012 A 
ATOM      4  C3A BZF d   1      -0.655  -0.512  -0.077  0.00  0.00    -0.107 A 
ATOM      5  C4  BZF d   1      -1.376  -1.557   0.427  0.00  0.00     0.055 A 
ATOM      6  C5  BZF d   1      -2.559  -1.305   1.046  0.00  0.00    -0.016 A 
ATOM      7  C6  BZF d   1      -3.049  -0.023   1.182  0.00  0.00     0.022 A 
ATOM      8  C7  BZF d   1      -2.372   1.045   0.693  0.00  0.00     0.029 A 
ATOM      9  C7A BZF d   1      -1.192   0.791   0.038  0.00  0.00     0.058 A 
ENDROOT
TORSDOF 0
ENDMDL
