MODEL 1
REMARK minimizedAffinity 2.30408311
REMARK minimizedRMSD -1
REMARK  0 active torsions:
REMARK  status: ('A' for Active; 'I' for Inactive)
ROOT
ATOM      1  O1  BZF d   1      -0.607  -0.685  -0.303  0.00  0.00    -0.204 OA
ATOM      2  C2  BZF d   1      -0.390   0.144   0.781  0.00  0.00     0.174 A 
ATOM      3  C3  BZF d   1       0.103   1.334   0.382  0.00  0.00    -0.012 A 
ATOM      4  C3A BZF d   1       0.113   1.277  -1.048  0.00  0.00    -0.107 A 
ATOM      5  C4  BZF d   1       0.479   2.164  -2.020  0.00  0.00     0.055 A 
ATOM      6  C5  BZF d   1       0.436   1.773  -3.321  0.00  0.00    -0.016 A 
ATOM      7  C6  BZF d   1       0.037   0.503  -3.684  0.00  0.00     0.022 A 
ATOM      8  C7  BZF d   1      -0.341  -0.409  -2.756  0.00  0.00     0.029 A 
ATOM      9  C7A BZF d   1      -0.330  -0.006  -1.443  0.00  0.00     0.058 A 
ENDROOT
TORSDOF 0
ENDMDL
