MODEL 1
REMARK minimizedAffinity -4.63459635
REMARK minimizedRMSD -1
REMARK  0 active torsions:
REMARK  status: ('A' for Active; 'I' for Inactive)
ROOT
ATOM      1  O1  BZF d   1      -0.490  -3.002   1.505  0.00  0.00    -0.204 OA
ATOM      2  C2  BZF d   1      -1.663  -2.907   2.229  0.00  0.00     0.174 A 
ATOM      3  C3  BZF d   1      -2.184  -1.666   2.136  0.00  0.00    -0.012 A 
ATOM      4  C3A BZF d   1      -1.329  -0.967   1.226  0.00  0.00    -0.107 A 
ATOM      5  C4  BZF d   1      -1.335   0.301   0.718  0.00  0.00     0.055 A 
ATOM      6  C5  BZF d   1      -0.316   0.693  -0.091  0.00  0.00    -0.016 A 
ATOM      7  C6  BZF d   1       0.726  -0.153  -0.409  0.00  0.00     0.022 A 
ATOM      8  C7  BZF d   1       0.773  -1.422   0.067  0.00  0.00     0.029 A 
ATOM      9  C7A BZF d   1      -0.272  -1.832   0.858  0.00  0.00     0.058 A 
ENDROOT
TORSDOF 0
ENDMDL
