MODEL 1
REMARK minimizedAffinity -4.20283556
REMARK minimizedRMSD -1
REMARK  0 active torsions:
REMARK  status: ('A' for Active; 'I' for Inactive)
ROOT
ATOM      1  O1  BZF d   1      -0.682   0.849   0.678  0.00  0.00    -0.204 OA
ATOM      2  C2  BZF d   1       0.067   1.584  -0.220  0.00  0.00     0.174 A 
ATOM      3  C3  BZF d   1       1.025   0.819  -0.783  0.00  0.00    -0.012 A 
ATOM      4  C3A BZF d   1       0.805  -0.498  -0.269  0.00  0.00    -0.107 A 
ATOM      5  C4  BZF d   1       1.423  -1.700  -0.469  0.00  0.00     0.055 A 
ATOM      6  C5  BZF d   1       1.010  -2.781   0.243  0.00  0.00    -0.016 A 
ATOM      7  C6  BZF d   1      -0.013  -2.697   1.164  0.00  0.00     0.022 A 
ATOM      8  C7  BZF d   1      -0.660  -1.528   1.393  0.00  0.00     0.029 A 
ATOM      9  C7A BZF d   1      -0.267  -0.440   0.652  0.00  0.00     0.058 A 
ENDROOT
TORSDOF 0
ENDMDL
