MODEL 1
REMARK minimizedAffinity -3.69322038
REMARK minimizedRMSD -1
REMARK  0 active torsions:
REMARK  status: ('A' for Active; 'I' for Inactive)
ROOT
ATOM      1  O1  BZF d   1      -0.758  -0.005  -1.192  0.00  0.00    -0.204 OA
ATOM      2  C2  BZF d   1      -0.281  -0.364   0.054  0.00  0.00     0.174 A 
ATOM      3  C3  BZF d   1       0.899   0.238   0.307  0.00  0.00    -0.012 A 
ATOM      4  C3A BZF d   1       1.133   1.094  -0.816  0.00  0.00    -0.107 A 
ATOM      5  C4  BZF d   1       2.134   1.964  -1.141  0.00  0.00     0.055 A 
ATOM      6  C5  BZF d   1       2.099   2.592  -2.346  0.00  0.00    -0.016 A 
ATOM      7  C6  BZF d   1       1.081   2.370  -3.250  0.00  0.00     0.022 A 
ATOM      8  C7  BZF d   1       0.063   1.520  -2.970  0.00  0.00     0.029 A 
ATOM      9  C7A BZF d   1       0.079   0.909  -1.740  0.00  0.00     0.058 A 
ENDROOT
TORSDOF 0
ENDMDL
