MODEL 1
REMARK minimizedAffinity -3.3418777
REMARK minimizedRMSD -1
REMARK  0 active torsions:
REMARK  status: ('A' for Active; 'I' for Inactive)
ROOT
ATOM      1  O1  BZF d   1      -1.463   0.389  -0.350  0.00  0.00    -0.204 OA
ATOM      2  C2  BZF d   1      -0.227   0.886  -0.717  0.00  0.00     0.174 A 
ATOM      3  C3  BZF d   1       0.761   0.074  -0.287  0.00  0.00    -0.012 A 
ATOM      4  C3A BZF d   1       0.096  -1.044   0.310  0.00  0.00    -0.107 A 
ATOM      5  C4  BZF d   1       0.539  -2.191   0.903  0.00  0.00     0.055 A 
ATOM      6  C5  BZF d   1      -0.367  -3.044   1.449  0.00  0.00    -0.016 A 
ATOM      7  C6  BZF d   1      -1.721  -2.779   1.425  0.00  0.00     0.022 A 
ATOM      8  C7  BZF d   1      -2.208  -1.655   0.843  0.00  0.00     0.029 A 
ATOM      9  C7A BZF d   1      -1.297  -0.808   0.261  0.00  0.00     0.058 A 
ENDROOT
TORSDOF 0
ENDMDL
