MODEL 1
REMARK minimizedAffinity -3.92124748
REMARK minimizedRMSD -1
REMARK  0 active torsions:
REMARK  status: ('A' for Active; 'I' for Inactive)
ROOT
ATOM      1  O1  BZF d   1      -1.962   0.693   1.485  0.00  0.00    -0.204 OA
ATOM      2  C2  BZF d   1      -2.697  -0.003   2.425  0.00  0.00     0.174 A 
ATOM      3  C3  BZF d   1      -2.261  -1.275   2.527  0.00  0.00    -0.012 A 
ATOM      4  C3A BZF d   1      -1.126  -1.355   1.660  0.00  0.00    -0.107 A 
ATOM      5  C4  BZF d   1      -0.254  -2.357   1.344  0.00  0.00     0.055 A 
ATOM      6  C5  BZF d   1       0.702  -2.130   0.405  0.00  0.00    -0.016 A 
ATOM      7  C6  BZF d   1       0.812  -0.915  -0.240  0.00  0.00     0.022 A 
ATOM      8  C7  BZF d   1      -0.027   0.111   0.044  0.00  0.00     0.029 A 
ATOM      9  C7A BZF d   1      -0.973  -0.105   1.015  0.00  0.00     0.058 A 
ENDROOT
TORSDOF 0
ENDMDL
