MODEL 1
REMARK minimizedAffinity -5.44201517
REMARK minimizedRMSD -1
REMARK  0 active torsions:
REMARK  status: ('A' for Active; 'I' for Inactive)
ROOT
ATOM      1  O1  BZF d   1      -1.252   0.870   0.604  0.00  0.00    -0.204 OA
ATOM      2  C2  BZF d   1      -0.159   1.615   0.203  0.00  0.00     0.174 A 
ATOM      3  C3  BZF d   1       0.959   0.861   0.207  0.00  0.00    -0.012 A 
ATOM      4  C3A BZF d   1       0.523  -0.458   0.547  0.00  0.00    -0.107 A 
ATOM      5  C4  BZF d   1       1.170  -1.652   0.694  0.00  0.00     0.055 A 
ATOM      6  C5  BZF d   1       0.466  -2.739   1.105  0.00  0.00    -0.016 A 
ATOM      7  C6  BZF d   1      -0.884  -2.667   1.382  0.00  0.00     0.022 A 
ATOM      8  C7  BZF d   1      -1.570  -1.506   1.246  0.00  0.00     0.029 A 
ATOM      9  C7A BZF d   1      -0.867  -0.414   0.799  0.00  0.00     0.058 A 
ENDROOT
TORSDOF 0
ENDMDL
