MODEL 1
REMARK minimizedAffinity -5.18073034
REMARK minimizedRMSD -1
REMARK  0 active torsions:
REMARK  status: ('A' for Active; 'I' for Inactive)
ROOT
ATOM      1  O1  BZF d   1      -2.027  -1.835   0.865  0.00  0.00    -0.204 OA
ATOM      2  C2  BZF d   1      -1.343  -3.023   1.033  0.00  0.00     0.174 A 
ATOM      3  C3  BZF d   1      -0.026  -2.854   0.794  0.00  0.00    -0.012 A 
ATOM      4  C3A BZF d   1       0.135  -1.454   0.547  0.00  0.00    -0.107 A 
ATOM      5  C4  BZF d   1       1.216  -0.669   0.264  0.00  0.00     0.055 A 
ATOM      6  C5  BZF d   1       1.024   0.651   0.004  0.00  0.00    -0.016 A 
ATOM      7  C6  BZF d   1      -0.234   1.217   0.014  0.00  0.00     0.022 A 
ATOM      8  C7  BZF d   1      -1.336   0.480   0.295  0.00  0.00     0.029 A 
ATOM      9  C7A BZF d   1      -1.141  -0.848   0.589  0.00  0.00     0.058 A 
ENDROOT
TORSDOF 0
ENDMDL
