MODEL 1
REMARK minimizedAffinity -5.32659674
REMARK minimizedRMSD -1
REMARK  0 active torsions:
REMARK  status: ('A' for Active; 'I' for Inactive)
ROOT
ATOM      1  O1  BZF d   1       0.143   0.597  -0.213  0.00  0.00    -0.204 OA
ATOM      2  C2  BZF d   1       1.498   0.337  -0.138  0.00  0.00     0.174 A 
ATOM      3  C3  BZF d   1       1.722  -0.904   0.339  0.00  0.00    -0.012 A 
ATOM      4  C3A BZF d   1       0.424  -1.489   0.489  0.00  0.00    -0.107 A 
ATOM      5  C4  BZF d   1      -0.011  -2.713   0.909  0.00  0.00     0.055 A 
ATOM      6  C5  BZF d   1      -1.347  -2.941   1.009  0.00  0.00    -0.016 A 
ATOM      7  C6  BZF d   1      -2.274  -1.966   0.703  0.00  0.00     0.022 A 
ATOM      8  C7  BZF d   1      -1.891  -0.738   0.277  0.00  0.00     0.029 A 
ATOM      9  C7A BZF d   1      -0.542  -0.516   0.144  0.00  0.00     0.058 A 
ENDROOT
TORSDOF 0
ENDMDL
