MODEL 1
REMARK minimizedAffinity -4.60941029
REMARK minimizedRMSD -1
REMARK  0 active torsions:
REMARK  status: ('A' for Active; 'I' for Inactive)
ROOT
ATOM      1  O1  BZF d   1      -0.337  -2.412  -0.207  0.00  0.00    -0.204 OA
ATOM      2  C2  BZF d   1      -1.424  -3.047   0.362  0.00  0.00     0.174 A 
ATOM      3  C3  BZF d   1      -2.176  -2.174   1.063  0.00  0.00    -0.012 A 
ATOM      4  C3A BZF d   1      -1.568  -0.897   0.848  0.00  0.00    -0.107 A 
ATOM      5  C4  BZF d   1      -1.865   0.368   1.270  0.00  0.00     0.055 A 
ATOM      6  C5  BZF d   1      -1.029   1.387   0.942  0.00  0.00    -0.016 A 
ATOM      7  C6  BZF d   1       0.114   1.178   0.199  0.00  0.00     0.022 A 
ATOM      8  C7  BZF d   1       0.449  -0.058  -0.246  0.00  0.00     0.029 A 
ATOM      9  C7A BZF d   1      -0.412  -1.085   0.055  0.00  0.00     0.058 A 
ENDROOT
TORSDOF 0
ENDMDL
