MODEL 1
REMARK minimizedAffinity -3.76991248
REMARK minimizedRMSD -1
REMARK  2 active torsions:
REMARK  status: ('A' for Active; 'I' for Inactive)
REMARK    1  A    between atoms: C1_2  and  C2_3 
REMARK    2  A    between atoms: C2_3  and  C3_4 
ROOT
ATOM      1  C3  UNL d   1      -4.691   4.759   3.313  0.00  0.00    -0.075 A 
ATOM      2  C4  UNL d   1      -5.227   3.539   2.876  0.00  0.00     0.002 A 
ATOM      3  C5  UNL d   1      -5.239   2.428   3.720  0.00  0.00     0.002 A 
ATOM      4  C6  UNL d   1      -4.706   2.519   5.004  0.00  0.00    -0.004 A 
ATOM      5  C7  UNL d   1      -4.156   3.721   5.442  0.00  0.00     0.002 A 
ATOM      6  C8  UNL d   1      -4.147   4.836   4.602  0.00  0.00     0.002 A 
ENDROOT
BRANCH   1   7
ATOM      7  C2  UNL d   1      -4.702   5.974   2.416  0.00  0.00     0.056 C 
BRANCH   7   8
ATOM      8  C1  UNL d   1      -5.862   5.999   1.415  0.00  0.00     0.007 C 
ATOM      9  C   UNL d   1      -5.403   5.996  -0.037  0.00  0.00     0.009 C 
ENDBRANCH   7   8
ENDBRANCH   1   7
TORSDOF 2
ENDMDL
