MODEL 1
REMARK minimizedAffinity -2.94572663
REMARK minimizedRMSD -1
REMARK  2 active torsions:
REMARK  status: ('A' for Active; 'I' for Inactive)
REMARK    1  A    between atoms: C1_2  and  C2_3 
REMARK    2  A    between atoms: C2_3  and  C3_4 
ROOT
ATOM      1  C3  UNL d   1      -5.794   4.800   3.777  0.00  0.00    -0.075 A 
ATOM      2  C4  UNL d   1      -6.000   4.905   5.160  0.00  0.00     0.002 A 
ATOM      3  C5  UNL d   1      -5.810   3.800   5.990  0.00  0.00     0.002 A 
ATOM      4  C6  UNL d   1      -5.423   2.577   5.449  0.00  0.00    -0.004 A 
ATOM      5  C7  UNL d   1      -5.233   2.456   4.074  0.00  0.00     0.002 A 
ATOM      6  C8  UNL d   1      -5.418   3.561   3.241  0.00  0.00     0.002 A 
ENDROOT
BRANCH   1   7
ATOM      7  C2  UNL d   1      -5.970   6.000   2.876  0.00  0.00     0.056 C 
BRANCH   7   8
ATOM      8  C1  UNL d   1      -5.113   5.957   1.607  0.00  0.00     0.007 C 
ATOM      9  C   UNL d   1      -5.937   5.969   0.326  0.00  0.00     0.009 C 
ENDBRANCH   7   8
ENDBRANCH   1   7
TORSDOF 2
ENDMDL
