MODEL 1
REMARK minimizedAffinity -1.9450227
REMARK minimizedRMSD -1
REMARK  2 active torsions:
REMARK  status: ('A' for Active; 'I' for Inactive)
REMARK    1  A    between atoms: C1_2  and  C2_3 
REMARK    2  A    between atoms: C2_3  and  C3_4 
ROOT
ATOM      1  C3  UNL d   1       2.518   2.063   2.453  0.00  0.00    -0.075 A 
ATOM      2  C4  UNL d   1       2.768   0.721   2.132  0.00  0.00     0.002 A 
ATOM      3  C5  UNL d   1       2.493  -0.291   3.053  0.00  0.00     0.002 A 
ATOM      4  C6  UNL d   1       1.976   0.026   4.307  0.00  0.00    -0.004 A 
ATOM      5  C7  UNL d   1       1.739   1.357   4.642  0.00  0.00     0.002 A 
ATOM      6  C8  UNL d   1       2.009   2.371   3.722  0.00  0.00     0.002 A 
ENDROOT
BRANCH   1   7
ATOM      7  C2  UNL d   1       2.785   3.160   1.450  0.00  0.00     0.056 C 
BRANCH   7   8
ATOM      8  C1  UNL d   1       2.229   2.875   0.051  0.00  0.00     0.007 C 
ATOM      9  C   UNL d   1       3.096   3.441  -1.066  0.00  0.00     0.009 C 
ENDBRANCH   7   8
ENDBRANCH   1   7
TORSDOF 2
ENDMDL
