MODEL 1
REMARK minimizedAffinity -3.13692379
REMARK minimizedRMSD -1
REMARK  2 active torsions:
REMARK  status: ('A' for Active; 'I' for Inactive)
REMARK    1  A    between atoms: C1_2  and  C2_3 
REMARK    2  A    between atoms: C2_3  and  C3_4 
ROOT
ATOM      1  C3  UNL d   1      -4.439   4.360   3.808  0.00  0.00    -0.075 A 
ATOM      2  C4  UNL d   1      -4.962   5.083   4.890  0.00  0.00     0.002 A 
ATOM      3  C5  UNL d   1      -5.522   4.418   5.981  0.00  0.00     0.002 A 
ATOM      4  C6  UNL d   1      -5.576   3.026   6.000  0.00  0.00    -0.004 A 
ATOM      5  C7  UNL d   1      -5.075   2.299   4.923  0.00  0.00     0.002 A 
ATOM      6  C8  UNL d   1      -4.509   2.961   3.832  0.00  0.00     0.002 A 
ENDROOT
BRANCH   1   7
ATOM      7  C2  UNL d   1      -3.804   5.073   2.637  0.00  0.00     0.056 C 
BRANCH   7   8
ATOM      8  C1  UNL d   1      -4.723   5.210   1.418  0.00  0.00     0.007 C 
ATOM      9  C   UNL d   1      -5.992   5.999   1.708  0.00  0.00     0.009 C 
ENDBRANCH   7   8
ENDBRANCH   1   7
TORSDOF 2
ENDMDL
