MODEL 1
REMARK minimizedAffinity -2.87349677
REMARK minimizedRMSD -1
REMARK  2 active torsions:
REMARK  status: ('A' for Active; 'I' for Inactive)
REMARK    1  A    between atoms: C1_2  and  C2_3 
REMARK    2  A    between atoms: C2_3  and  C3_4 
ROOT
ATOM      1  C3  UNL d   1      -4.910   5.380   3.878  0.00  0.00    -0.075 A 
ATOM      2  C4  UNL d   1      -6.000   5.848   3.129  0.00  0.00     0.002 A 
ATOM      3  C5  UNL d   1      -5.972   5.805   1.735  0.00  0.00     0.002 A 
ATOM      4  C6  UNL d   1      -4.853   5.304   1.073  0.00  0.00    -0.004 A 
ATOM      5  C7  UNL d   1      -3.758   4.852   1.806  0.00  0.00     0.002 A 
ATOM      6  C8  UNL d   1      -3.785   4.890   3.202  0.00  0.00     0.002 A 
ENDROOT
BRANCH   1   7
ATOM      7  C2  UNL d   1      -4.946   5.397   5.388  0.00  0.00     0.056 C 
BRANCH   7   8
ATOM      8  C1  UNL d   1      -6.000   4.466   5.997  0.00  0.00     0.007 C 
ATOM      9  C   UNL d   1      -5.696   2.990   5.776  0.00  0.00     0.009 C 
ENDBRANCH   7   8
ENDBRANCH   1   7
TORSDOF 2
ENDMDL
