MODEL 1
REMARK minimizedAffinity 1.13235116
REMARK minimizedRMSD -1
REMARK  2 active torsions:
REMARK  status: ('A' for Active; 'I' for Inactive)
REMARK    1  A    between atoms: C1_2  and  C2_3 
REMARK    2  A    between atoms: C2_3  and  C3_4 
ROOT
ATOM      1  C3  UNL d   1      -4.829   4.189   4.195  0.00  0.00    -0.075 A 
ATOM      2  C4  UNL d   1      -4.552   3.444   3.040  0.00  0.00     0.002 A 
ATOM      3  C5  UNL d   1      -4.958   3.902   1.787  0.00  0.00     0.002 A 
ATOM      4  C6  UNL d   1      -5.653   5.104   1.673  0.00  0.00    -0.004 A 
ATOM      5  C7  UNL d   1      -5.948   5.845   2.815  0.00  0.00     0.002 A 
ATOM      6  C8  UNL d   1      -5.539   5.391   4.070  0.00  0.00     0.002 A 
ENDROOT
BRANCH   1   7
ATOM      7  C2  UNL d   1      -4.367   3.713   5.552  0.00  0.00     0.056 C 
BRANCH   7   8
ATOM      8  C1  UNL d   1      -3.028   4.310   5.999  0.00  0.00     0.007 C 
ATOM      9  C   UNL d   1      -2.748   5.679   5.394  0.00  0.00     0.009 C 
ENDBRANCH   7   8
ENDBRANCH   1   7
TORSDOF 2
ENDMDL
