MODEL 1
REMARK minimizedAffinity -3.83990574
REMARK minimizedRMSD -1
REMARK  2 active torsions:
REMARK  status: ('A' for Active; 'I' for Inactive)
REMARK    1  A    between atoms: C1_2  and  C2_3 
REMARK    2  A    between atoms: C2_3  and  C3_4 
ROOT
ATOM      1  C3  UNL d   1      -5.265   4.862   3.461  0.00  0.00    -0.075 A 
ATOM      2  C4  UNL d   1      -4.516   3.703   3.211  0.00  0.00     0.002 A 
ATOM      3  C5  UNL d   1      -4.521   2.646   4.121  0.00  0.00     0.002 A 
ATOM      4  C6  UNL d   1      -5.265   2.738   5.295  0.00  0.00    -0.004 A 
ATOM      5  C7  UNL d   1      -6.000   3.891   5.562  0.00  0.00     0.002 A 
ATOM      6  C8  UNL d   1      -6.000   4.949   4.651  0.00  0.00     0.002 A 
ENDROOT
BRANCH   1   7
ATOM      7  C2  UNL d   1      -5.286   5.998   2.466  0.00  0.00     0.056 C 
BRANCH   7   8
ATOM      8  C1  UNL d   1      -4.589   5.678   1.139  0.00  0.00     0.007 C 
ATOM      9  C   UNL d   1      -5.449   5.982  -0.080  0.00  0.00     0.009 C 
ENDBRANCH   7   8
ENDBRANCH   1   7
TORSDOF 2
ENDMDL
