MODEL 1
REMARK minimizedAffinity -2.03430724
REMARK minimizedRMSD -1
REMARK  2 active torsions:
REMARK  status: ('A' for Active; 'I' for Inactive)
REMARK    1  A    between atoms: C1_2  and  C2_3 
REMARK    2  A    between atoms: C2_3  and  C3_4 
ROOT
ATOM      1  C3  UNL d   1      -4.856   5.089   4.230  0.00  0.00    -0.075 A 
ATOM      2  C4  UNL d   1      -5.998   4.917   3.434  0.00  0.00     0.002 A 
ATOM      3  C5  UNL d   1      -5.979   5.265   2.083  0.00  0.00     0.002 A 
ATOM      4  C6  UNL d   1      -4.825   5.797   1.514  0.00  0.00    -0.004 A 
ATOM      5  C7  UNL d   1      -3.689   5.988   2.299  0.00  0.00     0.002 A 
ATOM      6  C8  UNL d   1      -3.704   5.637   3.650  0.00  0.00     0.002 A 
ENDROOT
BRANCH   1   7
ATOM      7  C2  UNL d   1      -4.861   4.687   5.685  0.00  0.00     0.056 C 
BRANCH   7   8
ATOM      8  C1  UNL d   1      -5.757   3.484   5.997  0.00  0.00     0.007 C 
ATOM      9  C   UNL d   1      -5.756   2.433   4.895  0.00  0.00     0.009 C 
ENDBRANCH   7   8
ENDBRANCH   1   7
TORSDOF 2
ENDMDL
