MODEL 1
REMARK minimizedAffinity -2.6288774
REMARK minimizedRMSD -1
REMARK  2 active torsions:
REMARK  status: ('A' for Active; 'I' for Inactive)
REMARK    1  A    between atoms: C1_2  and  C2_3 
REMARK    2  A    between atoms: C2_3  and  C3_4 
ROOT
ATOM      1  C3  UNL d   1      -5.174   4.517   4.240  0.00  0.00    -0.075 A 
ATOM      2  C4  UNL d   1      -4.280   5.505   3.802  0.00  0.00     0.002 A 
ATOM      3  C5  UNL d   1      -4.231   5.870   2.457  0.00  0.00     0.002 A 
ATOM      4  C6  UNL d   1      -5.065   5.246   1.531  0.00  0.00    -0.004 A 
ATOM      5  C7  UNL d   1      -5.945   4.251   1.952  0.00  0.00     0.002 A 
ATOM      6  C8  UNL d   1      -6.000   3.888   3.299  0.00  0.00     0.002 A 
ENDROOT
BRANCH   1   7
ATOM      7  C2  UNL d   1      -5.254   4.139   5.699  0.00  0.00     0.056 C 
BRANCH   7   8
ATOM      8  C1  UNL d   1      -4.831   2.696   5.994  0.00  0.00     0.007 C 
ATOM      9  C   UNL d   1      -5.997   1.717   5.998  0.00  0.00     0.009 C 
ENDBRANCH   7   8
ENDBRANCH   1   7
TORSDOF 2
ENDMDL
