MODEL 1
REMARK minimizedAffinity -4.80590343
REMARK minimizedRMSD -1
REMARK  1 active torsions:
REMARK  status: ('A' for Active; 'I' for Inactive)
REMARK    1  A    between atoms: C1_2  and  C2_3 
ROOT
ATOM      1  C2  UNL d   1       0.191  -0.032  -0.206  0.00  0.00    -0.076 A 
ATOM      2  C3  UNL d   1      -0.548   0.919  -0.930  0.00  0.00     0.004 A 
ATOM      3  C4  UNL d   1      -1.163   1.991  -0.286  0.00  0.00    -0.003 A 
ATOM      4  C5  UNL d   1      -1.048   2.130   1.093  0.00  0.00     0.000 A 
ATOM      5  C6  UNL d   1      -0.304   1.205   1.825  0.00  0.00     0.000 A 
ATOM      6  C7  UNL d   1       0.336   0.128   1.189  0.00  0.00    -0.073 A 
ATOM      7  C8  UNL d   1       1.121  -0.843   2.028  0.00  0.00     0.078 C 
ENDROOT
BRANCH   1   8
ATOM      8  C1  UNL d   1       0.813  -1.189  -0.955  0.00  0.00     0.053 C 
ATOM      9  C   UNL d   1      -0.220  -2.197  -1.432  0.00  0.00     0.018 C 
ENDBRANCH   1   8
TORSDOF 1
ENDMDL
