MODEL 1
REMARK minimizedAffinity 5.79014969
REMARK minimizedRMSD -1
REMARK  1 active torsions:
REMARK  status: ('A' for Active; 'I' for Inactive)
REMARK    1  A    between atoms: C1_2  and  C2_3 
ROOT
ATOM      1  C2  UNL d   1       0.258  -1.246   0.489  0.00  0.00    -0.076 A 
ATOM      2  C3  UNL d   1       1.188  -0.399  -0.137  0.00  0.00     0.004 A 
ATOM      3  C4  UNL d   1       1.555   0.815   0.442  0.00  0.00    -0.003 A 
ATOM      4  C5  UNL d   1       0.997   1.201   1.656  0.00  0.00     0.000 A 
ATOM      5  C6  UNL d   1       0.086   0.364   2.299  0.00  0.00     0.000 A 
ATOM      6  C7  UNL d   1      -0.282  -0.870   1.738  0.00  0.00    -0.073 A 
ATOM      7  C8  UNL d   1      -1.274  -1.731   2.472  0.00  0.00     0.078 C 
ENDROOT
BRANCH   1   8
ATOM      8  C1  UNL d   1      -0.122  -2.538  -0.199  0.00  0.00     0.053 C 
ATOM      9  C   UNL d   1       1.089  -3.388  -0.552  0.00  0.00     0.018 C 
ENDBRANCH   1   8
TORSDOF 1
ENDMDL
