MODEL 1
REMARK minimizedAffinity -1.50829506
REMARK minimizedRMSD -1
REMARK  1 active torsions:
REMARK  status: ('A' for Active; 'I' for Inactive)
REMARK    1  A    between atoms: C1_2  and  C2_3 
ROOT
ATOM      1  C2  UNL d   1       0.265   0.052  -0.370  0.00  0.00    -0.076 A 
ATOM      2  C3  UNL d   1       0.451  -0.404   0.947  0.00  0.00     0.004 A 
ATOM      3  C4  UNL d   1       0.121   0.399   2.037  0.00  0.00    -0.003 A 
ATOM      4  C5  UNL d   1      -0.402   1.671   1.828  0.00  0.00     0.000 A 
ATOM      5  C6  UNL d   1      -0.609   2.132   0.529  0.00  0.00     0.000 A 
ATOM      6  C7  UNL d   1      -0.296   1.329  -0.581  0.00  0.00    -0.073 A 
ATOM      7  C8  UNL d   1      -0.535   1.880  -1.961  0.00  0.00     0.078 C 
ENDROOT
BRANCH   1   8
ATOM      8  C1  UNL d   1       0.667  -0.853  -1.513  0.00  0.00     0.053 C 
ATOM      9  C   UNL d   1       0.652  -2.323  -1.125  0.00  0.00     0.018 C 
ENDBRANCH   1   8
TORSDOF 1
ENDMDL
