MODEL 1
REMARK minimizedAffinity -6.96362305
REMARK minimizedRMSD -1
REMARK  1 active torsions:
REMARK  status: ('A' for Active; 'I' for Inactive)
REMARK    1  A    between atoms: C1_2  and  C2_3 
ROOT
ATOM      1  C2  UNL d   1      -0.558   2.595  -0.250  0.00  0.00    -0.076 A 
ATOM      2  C3  UNL d   1      -1.179   3.366   0.747  0.00  0.00     0.004 A 
ATOM      3  C4  UNL d   1      -1.450   2.829   2.005  0.00  0.00    -0.003 A 
ATOM      4  C5  UNL d   1      -1.103   1.512   2.285  0.00  0.00     0.000 A 
ATOM      5  C6  UNL d   1      -0.470   0.738   1.313  0.00  0.00     0.000 A 
ATOM      6  C7  UNL d   1      -0.175   1.269   0.046  0.00  0.00    -0.073 A 
ATOM      7  C8  UNL d   1       0.503   0.388  -0.967  0.00  0.00     0.078 C 
ENDROOT
BRANCH   1   8
ATOM      8  C1  UNL d   1      -0.314   3.223  -1.604  0.00  0.00     0.053 C 
ATOM      9  C   UNL d   1       0.345   4.590  -1.502  0.00  0.00     0.018 C 
ENDBRANCH   1   8
TORSDOF 1
ENDMDL
