MODEL 1
REMARK minimizedAffinity -5.94748592
REMARK minimizedRMSD -1
REMARK  1 active torsions:
REMARK  status: ('A' for Active; 'I' for Inactive)
REMARK    1  A    between atoms: C1_2  and  C2_3 
ROOT
ATOM      1  C2  UNL d   1       0.088   0.671  -0.084  0.00  0.00    -0.076 A 
ATOM      2  C3  UNL d   1      -0.562   1.639  -0.868  0.00  0.00     0.004 A 
ATOM      3  C4  UNL d   1      -1.224   2.714  -0.278  0.00  0.00    -0.003 A 
ATOM      4  C5  UNL d   1      -1.246   2.839   1.107  0.00  0.00     0.000 A 
ATOM      5  C6  UNL d   1      -0.592   1.897   1.900  0.00  0.00     0.000 A 
ATOM      6  C7  UNL d   1       0.094   0.816   1.320  0.00  0.00    -0.073 A 
ATOM      7  C8  UNL d   1       0.778  -0.173   2.223  0.00  0.00     0.078 C 
ENDROOT
BRANCH   1   8
ATOM      8  C1  UNL d   1       0.767  -0.488  -0.779  0.00  0.00     0.053 C 
ATOM      9  C   UNL d   1      -0.192  -1.630  -1.079  0.00  0.00     0.018 C 
ENDBRANCH   1   8
TORSDOF 1
ENDMDL
