MODEL 1
REMARK minimizedAffinity -5.15312147
REMARK minimizedRMSD -1
REMARK  0 active torsions:
REMARK  status: ('A' for Active; 'I' for Inactive)
ROOT
ATOM      1  N1  IND d   1       0.152  -0.266  -1.001  0.00  0.00    -0.196 N 
ATOM      2  C2  IND d   1      -1.117   0.072  -1.382  0.00  0.00     0.054 A 
ATOM      3  C3  IND d   1      -1.169   0.274  -2.717  0.00  0.00    -0.031 A 
ATOM      4  C4  IND d   1       0.682   0.005  -4.486  0.00  0.00     0.051 A 
ATOM      5  C5  IND d   1       2.017  -0.253  -4.617  0.00  0.00    -0.031 A 
ATOM      6  C6  IND d   1       2.815  -0.537  -3.527  0.00  0.00     0.015 A 
ATOM      7  C7  IND d   1       2.302  -0.585  -2.262  0.00  0.00    -0.016 A 
ATOM      8  C8  IND d   1       0.947  -0.317  -2.125  0.00  0.00    -0.047 A 
ATOM      9  C9  IND d   1       0.142   0.014  -3.222  0.00  0.00    -0.096 A 
ATOM     10  HN1 IND d   1       0.409  -0.422  -0.196  0.00  0.00     0.298 HD
ENDROOT
TORSDOF 0
ENDMDL
