MODEL 1
REMARK minimizedAffinity -3.25130129
REMARK minimizedRMSD -1
REMARK  0 active torsions:
REMARK  status: ('A' for Active; 'I' for Inactive)
ROOT
ATOM      1  N1  IND d   1      -4.871   2.196   1.440  0.00  0.00    -0.196 N 
ATOM      2  C2  IND d   1      -4.505   2.441   2.734  0.00  0.00     0.054 A 
ATOM      3  C3  IND d   1      -4.494   3.771   2.976  0.00  0.00    -0.031 A 
ATOM      4  C4  IND d   1      -5.141   5.721   1.425  0.00  0.00     0.051 A 
ATOM      5  C5  IND d   1      -5.506   5.998   0.137  0.00  0.00    -0.031 A 
ATOM      6  C6  IND d   1      -5.684   5.001  -0.800  0.00  0.00     0.015 A 
ATOM      7  C7  IND d   1      -5.515   3.684  -0.480  0.00  0.00    -0.016 A 
ATOM      8  C8  IND d   1      -5.137   3.399   0.824  0.00  0.00    -0.047 A 
ATOM      9  C9  IND d   1      -4.913   4.409   1.769  0.00  0.00    -0.096 A 
ATOM     10  HN1 IND d   1      -4.927   1.421   1.072  0.00  0.00     0.298 HD
ENDROOT
TORSDOF 0
ENDMDL
