MODEL 1
REMARK minimizedAffinity -4.46825123
REMARK minimizedRMSD -1
REMARK  0 active torsions:
REMARK  status: ('A' for Active; 'I' for Inactive)
ROOT
ATOM      1  N1  IND d   1      -2.954  -2.065  -3.754  0.00  0.00    -0.196 N 
ATOM      2  C2  IND d   1      -3.006  -3.377  -4.134  0.00  0.00     0.054 A 
ATOM      3  C3  IND d   1      -2.428  -4.162  -3.198  0.00  0.00    -0.031 A 
ATOM      4  C4  IND d   1      -1.422  -3.518  -0.918  0.00  0.00     0.051 A 
ATOM      5  C5  IND d   1      -1.113  -2.434  -0.144  0.00  0.00    -0.031 A 
ATOM      6  C6  IND d   1      -1.410  -1.147  -0.541  0.00  0.00     0.015 A 
ATOM      7  C7  IND d   1      -2.041  -0.894  -1.727  0.00  0.00    -0.016 A 
ATOM      8  C8  IND d   1      -2.350  -1.992  -2.518  0.00  0.00    -0.047 A 
ATOM      9  C9  IND d   1      -2.012  -3.298  -2.140  0.00  0.00    -0.096 A 
ATOM     10  HN1 IND d   1      -3.248  -1.399  -4.210  0.00  0.00     0.298 HD
ENDROOT
TORSDOF 0
ENDMDL
