MODEL 1
REMARK minimizedAffinity 2.16155696
REMARK minimizedRMSD -1
REMARK  0 active torsions:
REMARK  status: ('A' for Active; 'I' for Inactive)
ROOT
ATOM      1  N1  IND d   1      -0.928   0.175  -1.550  0.00  0.00    -0.196 N 
ATOM      2  C2  IND d   1      -0.463   0.306  -0.271  0.00  0.00     0.054 A 
ATOM      3  C3  IND d   1      -0.788  -0.783   0.461  0.00  0.00    -0.031 A 
ATOM      4  C4  IND d   1      -1.991  -2.941  -0.262  0.00  0.00     0.051 A 
ATOM      5  C5  IND d   1      -2.636  -3.510  -1.324  0.00  0.00    -0.031 A 
ATOM      6  C6  IND d   1      -2.746  -2.868  -2.540  0.00  0.00     0.015 A 
ATOM      7  C7  IND d   1      -2.201  -1.632  -2.745  0.00  0.00    -0.016 A 
ATOM      8  C8  IND d   1      -1.550  -1.048  -1.667  0.00  0.00    -0.047 A 
ATOM      9  C9  IND d   1      -1.473  -1.677  -0.417  0.00  0.00    -0.096 A 
ATOM     10  HN1 IND d   1      -0.846   0.759  -2.176  0.00  0.00     0.298 HD
ENDROOT
TORSDOF 0
ENDMDL
