MODEL 1
REMARK minimizedAffinity -2.74467897
REMARK minimizedRMSD -1
REMARK  0 active torsions:
REMARK  status: ('A' for Active; 'I' for Inactive)
ROOT
ATOM      1  N1  IND d   1      -1.221  -1.859   0.624  0.00  0.00    -0.196 N 
ATOM      2  C2  IND d   1      -1.354  -0.501   0.537  0.00  0.00     0.054 A 
ATOM      3  C3  IND d   1      -1.894  -0.157  -0.654  0.00  0.00    -0.031 A 
ATOM      4  C4  IND d   1      -2.728  -1.663  -2.568  0.00  0.00     0.051 A 
ATOM      5  C5  IND d   1      -2.783  -2.970  -2.964  0.00  0.00    -0.031 A 
ATOM      6  C6  IND d   1      -2.314  -3.994  -2.167  0.00  0.00     0.015 A 
ATOM      7  C7  IND d   1      -1.779  -3.749  -0.934  0.00  0.00    -0.016 A 
ATOM      8  C8  IND d   1      -1.715  -2.423  -0.531  0.00  0.00    -0.047 A 
ATOM      9  C9  IND d   1      -2.151  -1.376  -1.353  0.00  0.00    -0.096 A 
ATOM     10  HN1 IND d   1      -0.885  -2.288   1.289  0.00  0.00     0.298 HD
ENDROOT
TORSDOF 0
ENDMDL
