MODEL 1
REMARK minimizedAffinity 7.29411125
REMARK minimizedRMSD -1
REMARK  0 active torsions:
REMARK  status: ('A' for Active; 'I' for Inactive)
ROOT
ATOM      1  N1  IND d   1      -2.973   1.392   2.550  0.00  0.00    -0.196 N 
ATOM      2  C2  IND d   1      -2.393   0.663   1.549  0.00  0.00     0.054 A 
ATOM      3  C3  IND d   1      -2.138  -0.595   1.972  0.00  0.00    -0.031 A 
ATOM      4  C4  IND d   1      -2.682  -1.704   4.230  0.00  0.00     0.051 A 
ATOM      5  C5  IND d   1      -3.177  -1.429   5.474  0.00  0.00    -0.031 A 
ATOM      6  C6  IND d   1      -3.641  -0.174   5.813  0.00  0.00     0.015 A 
ATOM      7  C7  IND d   1      -3.638   0.853   4.912  0.00  0.00    -0.016 A 
ATOM      8  C8  IND d   1      -3.130   0.579   3.651  0.00  0.00    -0.047 A 
ATOM      9  C9  IND d   1      -2.618  -0.681   3.315  0.00  0.00    -0.096 A 
ATOM     10  HN1 IND d   1      -3.202   2.220   2.500  0.00  0.00     0.298 HD
ENDROOT
TORSDOF 0
ENDMDL
