MODEL 1
REMARK minimizedAffinity 5.07168913
REMARK minimizedRMSD -1
REMARK  0 active torsions:
REMARK  status: ('A' for Active; 'I' for Inactive)
ROOT
ATOM      1  N1  IND d   1      -4.342  -4.717   0.631  0.00  0.00    -0.196 N 
ATOM      2  C2  IND d   1      -5.577  -4.739   0.046  0.00  0.00     0.054 A 
ATOM      3  C3  IND d   1      -5.620  -3.879  -0.996  0.00  0.00    -0.031 A 
ATOM      4  C4  IND d   1      -3.750  -2.409  -1.981  0.00  0.00     0.051 A 
ATOM      5  C5  IND d   1      -2.457  -2.022  -1.765  0.00  0.00    -0.031 A 
ATOM      6  C6  IND d   1      -1.710  -2.526  -0.719  0.00  0.00     0.015 A 
ATOM      7  C7  IND d   1      -2.228  -3.448   0.146  0.00  0.00    -0.016 A 
ATOM      8  C8  IND d   1      -3.542  -3.838  -0.067  0.00  0.00    -0.047 A 
ATOM      9  C9  IND d   1      -4.318  -3.299  -1.101  0.00  0.00    -0.096 A 
ATOM     10  HN1 IND d   1      -4.104  -5.174   1.319  0.00  0.00     0.298 HD
ENDROOT
TORSDOF 0
ENDMDL
