MODEL 1
REMARK minimizedAffinity -0.623446882
REMARK minimizedRMSD -1
REMARK  0 active torsions:
REMARK  status: ('A' for Active; 'I' for Inactive)
ROOT
ATOM      1  N1  IND d   1      -5.273  -2.258   5.522  0.00  0.00    -0.196 N 
ATOM      2  C2  IND d   1      -4.581  -3.268   4.914  0.00  0.00     0.054 A 
ATOM      3  C3  IND d   1      -3.374  -2.826   4.495  0.00  0.00    -0.031 A 
ATOM      4  C4  IND d   1      -2.287  -0.511   4.792  0.00  0.00     0.051 A 
ATOM      5  C5  IND d   1      -2.546   0.749   5.252  0.00  0.00    -0.031 A 
ATOM      6  C6  IND d   1      -3.750   1.078   5.839  0.00  0.00     0.015 A 
ATOM      7  C7  IND d   1      -4.741   0.151   6.000  0.00  0.00    -0.016 A 
ATOM      8  C8  IND d   1      -4.484  -1.128   5.528  0.00  0.00    -0.047 A 
ATOM      9  C9  IND d   1      -3.280  -1.457   4.893  0.00  0.00    -0.096 A 
ATOM     10  HN1 IND d   1      -6.067  -2.318   5.846  0.00  0.00     0.298 HD
ENDROOT
TORSDOF 0
ENDMDL
