MODEL 1
REMARK minimizedAffinity 2.53754926
REMARK minimizedRMSD -1
REMARK  0 active torsions:
REMARK  status: ('A' for Active; 'I' for Inactive)
ROOT
ATOM      1  N1  IND d   1       1.908   2.644   2.413  0.00  0.00    -0.196 N 
ATOM      2  C2  IND d   1       2.915   2.775   3.328  0.00  0.00     0.054 A 
ATOM      3  C3  IND d   1       4.068   3.123   2.714  0.00  0.00    -0.031 A 
ATOM      4  C4  IND d   1       4.507   3.630   0.228  0.00  0.00     0.051 A 
ATOM      5  C5  IND d   1       3.904   3.610  -0.998  0.00  0.00    -0.031 A 
ATOM      6  C6  IND d   1       2.578   3.263  -1.153  0.00  0.00     0.015 A 
ATOM      7  C7  IND d   1       1.798   2.932  -0.081  0.00  0.00    -0.016 A 
ATOM      8  C8  IND d   1       2.409   2.944   1.165  0.00  0.00    -0.047 A 
ATOM      9  C9  IND d   1       3.766   3.255   1.323  0.00  0.00    -0.096 A 
ATOM     10  HN1 IND d   1       1.098   2.414   2.587  0.00  0.00     0.298 HD
ENDROOT
TORSDOF 0
ENDMDL
