MODEL 1
REMARK minimizedAffinity 2.26302218
REMARK minimizedRMSD -1
REMARK  0 active torsions:
REMARK  status: ('A' for Active; 'I' for Inactive)
ROOT
ATOM      1  N1  IND d   1       3.952   4.408   2.341  0.00  0.00    -0.196 N 
ATOM      2  C2  IND d   1       3.017   3.471   2.680  0.00  0.00     0.054 A 
ATOM      3  C3  IND d   1       2.543   2.857   1.572  0.00  0.00    -0.031 A 
ATOM      4  C4  IND d   1       3.237   3.160  -0.888  0.00  0.00     0.051 A 
ATOM      5  C5  IND d   1       4.027   3.926  -1.698  0.00  0.00    -0.031 A 
ATOM      6  C6  IND d   1       4.852   4.910  -1.193  0.00  0.00     0.015 A 
ATOM      7  C7  IND d   1       4.926   5.158   0.149  0.00  0.00    -0.016 A 
ATOM      8  C8  IND d   1       4.119   4.387   0.974  0.00  0.00    -0.047 A 
ATOM      9  C9  IND d   1       3.248   3.416   0.463  0.00  0.00    -0.096 A 
ATOM     10  HN1 IND d   1       4.367   4.924   2.890  0.00  0.00     0.298 HD
ENDROOT
TORSDOF 0
ENDMDL
