MODEL 1
REMARK minimizedAffinity 2.58818388
REMARK minimizedRMSD -1
REMARK  0 active torsions:
REMARK  status: ('A' for Active; 'I' for Inactive)
ROOT
ATOM      1  N1  IND d   1      -1.387  -1.976  -0.107  0.00  0.00    -0.196 N 
ATOM      2  C2  IND d   1      -1.078  -0.645  -0.071  0.00  0.00     0.054 A 
ATOM      3  C3  IND d   1      -1.365  -0.064  -1.258  0.00  0.00    -0.031 A 
ATOM      4  C4  IND d   1      -2.443  -1.085  -3.361  0.00  0.00     0.051 A 
ATOM      5  C5  IND d   1      -2.868  -2.273  -3.885  0.00  0.00    -0.031 A 
ATOM      6  C6  IND d   1      -2.823  -3.447  -3.160  0.00  0.00     0.015 A 
ATOM      7  C7  IND d   1      -2.360  -3.473  -1.875  0.00  0.00    -0.016 A 
ATOM      8  C8  IND d   1      -1.920  -2.270  -1.343  0.00  0.00    -0.047 A 
ATOM      9  C9  IND d   1      -1.924  -1.083  -2.088  0.00  0.00    -0.096 A 
ATOM     10  HN1 IND d   1      -1.269  -2.536   0.535  0.00  0.00     0.298 HD
ENDROOT
TORSDOF 0
ENDMDL
