MODEL 1
REMARK minimizedAffinity 6.24242258
REMARK minimizedRMSD -1
REMARK  0 active torsions:
REMARK  status: ('A' for Active; 'I' for Inactive)
ROOT
ATOM      1  N1  IND d   1       3.762   3.317   2.929  0.00  0.00    -0.196 N 
ATOM      2  C2  IND d   1       3.389   3.421   1.617  0.00  0.00     0.054 A 
ATOM      3  C3  IND d   1       2.232   2.756   1.403  0.00  0.00    -0.031 A 
ATOM      4  C4  IND d   1       0.725   1.514   3.080  0.00  0.00     0.051 A 
ATOM      5  C5  IND d   1       0.666   1.116   4.386  0.00  0.00    -0.031 A 
ATOM      6  C6  IND d   1       1.654   1.441   5.292  0.00  0.00     0.015 A 
ATOM      7  C7  IND d   1       2.738   2.188   4.927  0.00  0.00    -0.016 A 
ATOM      8  C8  IND d   1       2.805   2.588   3.599  0.00  0.00    -0.047 A 
ATOM      9  C9  IND d   1       1.826   2.225   2.665  0.00  0.00    -0.096 A 
ATOM     10  HN1 IND d   1       4.474   3.651   3.276  0.00  0.00     0.298 HD
ENDROOT
TORSDOF 0
ENDMDL
