MODEL 1
REMARK minimizedAffinity 2.12671256
REMARK minimizedRMSD -1
REMARK  0 active torsions:
REMARK  status: ('A' for Active; 'I' for Inactive)
ROOT
ATOM      1  N1  IND d   1      -4.560   4.571   1.673  0.00  0.00    -0.196 N 
ATOM      2  C2  IND d   1      -5.663   5.354   1.474  0.00  0.00     0.054 A 
ATOM      3  C3  IND d   1      -5.994   6.000   2.614  0.00  0.00    -0.031 A 
ATOM      4  C4  IND d   1      -4.806   5.999   4.898  0.00  0.00     0.051 A 
ATOM      5  C5  IND d   1      -3.777   5.409   5.577  0.00  0.00    -0.031 A 
ATOM      6  C6  IND d   1      -2.938   4.493   4.977  0.00  0.00     0.015 A 
ATOM      7  C7  IND d   1      -3.090   4.140   3.666  0.00  0.00    -0.016 A 
ATOM      8  C8  IND d   1      -4.138   4.732   2.975  0.00  0.00    -0.047 A 
ATOM      9  C9  IND d   1      -5.019   5.630   3.591  0.00  0.00    -0.096 A 
ATOM     10  HN1 IND d   1      -4.191   4.064   1.085  0.00  0.00     0.298 HD
ENDROOT
TORSDOF 0
ENDMDL
