MODEL 1
REMARK minimizedAffinity 3.29468799
REMARK minimizedRMSD -1
REMARK  0 active torsions:
REMARK  status: ('A' for Active; 'I' for Inactive)
ROOT
ATOM      1  N1  IND d   1      -2.490   1.369   2.339  0.00  0.00    -0.196 N 
ATOM      2  C2  IND d   1      -2.795   0.463   3.316  0.00  0.00     0.054 A 
ATOM      3  C3  IND d   1      -2.580  -0.796   2.873  0.00  0.00    -0.031 A 
ATOM      4  C4  IND d   1      -1.632  -1.596   0.617  0.00  0.00     0.051 A 
ATOM      5  C5  IND d   1      -1.241  -1.139  -0.610  0.00  0.00    -0.031 A 
ATOM      6  C6  IND d   1      -1.243   0.205  -0.922  0.00  0.00     0.015 A 
ATOM      7  C7  IND d   1      -1.628   1.147  -0.011  0.00  0.00    -0.016 A 
ATOM      8  C8  IND d   1      -2.033   0.686   1.234  0.00  0.00    -0.047 A 
ATOM      9  C9  IND d   1      -2.073  -0.680   1.542  0.00  0.00    -0.096 A 
ATOM     10  HN1 IND d   1      -2.570   2.223   2.404  0.00  0.00     0.298 HD
ENDROOT
TORSDOF 0
ENDMDL
