MODEL 1
REMARK minimizedAffinity 4.10429859
REMARK minimizedRMSD -1
REMARK  0 active torsions:
REMARK  status: ('A' for Active; 'I' for Inactive)
ROOT
ATOM      1  N1  IND d   1      -1.771  -2.669  -0.629  0.00  0.00    -0.196 N 
ATOM      2  C2  IND d   1      -1.174  -1.448  -0.479  0.00  0.00     0.054 A 
ATOM      3  C3  IND d   1      -1.256  -0.741  -1.629  0.00  0.00    -0.031 A 
ATOM      4  C4  IND d   1      -2.411  -1.352  -3.846  0.00  0.00     0.051 A 
ATOM      5  C5  IND d   1      -3.060  -2.376  -4.476  0.00  0.00    -0.031 A 
ATOM      6  C6  IND d   1      -3.320  -3.574  -3.842  0.00  0.00     0.015 A 
ATOM      7  C7  IND d   1      -2.949  -3.789  -2.545  0.00  0.00    -0.016 A 
ATOM      8  C8  IND d   1      -2.284  -2.753  -1.904  0.00  0.00    -0.047 A 
ATOM      9  C9  IND d   1      -1.979  -1.551  -2.556  0.00  0.00    -0.096 A 
ATOM     10  HN1 IND d   1      -1.817  -3.281  -0.027  0.00  0.00     0.298 HD
ENDROOT
TORSDOF 0
ENDMDL
