MODEL 1
REMARK minimizedAffinity 4.68240404
REMARK minimizedRMSD -1
REMARK  0 active torsions:
REMARK  status: ('A' for Active; 'I' for Inactive)
ROOT
ATOM      1  N1  IND d   1       2.059   3.515   2.902  0.00  0.00    -0.196 N 
ATOM      2  C2  IND d   1       3.409   3.725   2.858  0.00  0.00     0.054 A 
ATOM      3  C3  IND d   1       4.055   2.782   3.581  0.00  0.00    -0.031 A 
ATOM      4  C4  IND d   1       3.104   0.745   4.834  0.00  0.00     0.051 A 
ATOM      5  C5  IND d   1       1.925   0.153   5.190  0.00  0.00    -0.031 A 
ATOM      6  C6  IND d   1       0.705   0.661   4.792  0.00  0.00     0.015 A 
ATOM      7  C7  IND d   1       0.620   1.778   4.009  0.00  0.00    -0.016 A 
ATOM      8  C8  IND d   1       1.815   2.385   3.651  0.00  0.00    -0.047 A 
ATOM      9  C9  IND d   1       3.054   1.898   4.088  0.00  0.00    -0.096 A 
ATOM     10  HN1 IND d   1       1.462   4.006   2.526  0.00  0.00     0.298 HD
ENDROOT
TORSDOF 0
ENDMDL
