MODEL 1
REMARK minimizedAffinity 2.32941151
REMARK minimizedRMSD -1
REMARK  0 active torsions:
REMARK  status: ('A' for Active; 'I' for Inactive)
ROOT
ATOM      1  N1  IND d   1      -4.180   3.482   1.905  0.00  0.00    -0.196 N 
ATOM      2  C2  IND d   1      -4.474   4.074   3.101  0.00  0.00     0.054 A 
ATOM      3  C3  IND d   1      -4.306   3.195   4.115  0.00  0.00    -0.031 A 
ATOM      4  C4  IND d   1      -3.458   0.765   4.048  0.00  0.00     0.051 A 
ATOM      5  C5  IND d   1      -3.098  -0.227   3.180  0.00  0.00    -0.031 A 
ATOM      6  C6  IND d   1      -3.077  -0.028   1.814  0.00  0.00     0.015 A 
ATOM      7  C7  IND d   1      -3.406   1.179   1.265  0.00  0.00    -0.016 A 
ATOM      8  C8  IND d   1      -3.779   2.186   2.143  0.00  0.00    -0.047 A 
ATOM      9  C9  IND d   1      -3.843   1.978   3.527  0.00  0.00    -0.096 A 
ATOM     10  HN1 IND d   1      -4.236   3.856   1.133  0.00  0.00     0.298 HD
ENDROOT
TORSDOF 0
ENDMDL
