MODEL 1
REMARK minimizedAffinity 4.75039244
REMARK minimizedRMSD -1
REMARK  0 active torsions:
REMARK  status: ('A' for Active; 'I' for Inactive)
ROOT
ATOM      1  N1  IND d   1      -4.301   4.494   0.552  0.00  0.00    -0.196 N 
ATOM      2  C2  IND d   1      -5.175   5.282  -0.144  0.00  0.00     0.054 A 
ATOM      3  C3  IND d   1      -5.982   5.955   0.707  0.00  0.00    -0.031 A 
ATOM      4  C4  IND d   1      -5.976   5.993   3.281  0.00  0.00     0.051 A 
ATOM      5  C5  IND d   1      -5.385   5.408   4.365  0.00  0.00    -0.031 A 
ATOM      6  C6  IND d   1      -4.380   4.472   4.232  0.00  0.00     0.015 A 
ATOM      7  C7  IND d   1      -3.919   4.092   3.003  0.00  0.00    -0.016 A 
ATOM      8  C8  IND d   1      -4.522   4.678   1.899  0.00  0.00    -0.047 A 
ATOM      9  C9  IND d   1      -5.571   5.598   2.028  0.00  0.00    -0.096 A 
ATOM     10  HN1 IND d   1      -3.713   3.970   0.206  0.00  0.00     0.298 HD
ENDROOT
TORSDOF 0
ENDMDL
