MODEL 1
REMARK minimizedAffinity -4.53987837
REMARK minimizedRMSD -1
REMARK  0 active torsions:
REMARK  status: ('A' for Active; 'I' for Inactive)
ROOT
ATOM      1  N1  IND d   1      -4.688   4.962   2.398  0.00  0.00    -0.196 N 
ATOM      2  C2  IND d   1      -5.172   5.904   3.263  0.00  0.00     0.054 A 
ATOM      3  C3  IND d   1      -5.420   5.349   4.471  0.00  0.00    -0.031 A 
ATOM      4  C4  IND d   1      -5.012   2.940   5.280  0.00  0.00     0.051 A 
ATOM      5  C5  IND d   1      -4.618   1.708   4.839  0.00  0.00    -0.031 A 
ATOM      6  C6  IND d   1      -4.216   1.494   3.536  0.00  0.00     0.015 A 
ATOM      7  C7  IND d   1      -4.183   2.511   2.625  0.00  0.00    -0.016 A 
ATOM      8  C8  IND d   1      -4.589   3.762   3.067  0.00  0.00    -0.047 A 
ATOM      9  C9  IND d   1      -5.039   3.976   4.376  0.00  0.00    -0.096 A 
ATOM     10  HN1 IND d   1      -4.481   5.097   1.574  0.00  0.00     0.298 HD
ENDROOT
TORSDOF 0
ENDMDL
