MODEL 1
REMARK minimizedAffinity 1.22686219
REMARK minimizedRMSD -1
REMARK  1 active torsions:
REMARK  status: ('A' for Active; 'I' for Inactive)
REMARK    1  A    between atoms: C1_2  and  C2_3 
ROOT
ATOM      1  C2  UNL d   1       2.552  -1.488  -0.041  0.00  0.00    -0.081 A 
ATOM      2  C3  UNL d   1       3.908  -1.432  -0.384  0.00  0.00     0.006 A 
ATOM      3  C4  UNL d   1       4.516  -0.209  -0.675  0.00  0.00     0.002 A 
ATOM      4  C5  UNL d   1       3.780   0.980  -0.620  0.00  0.00    -0.080 A 
ATOM      5  C6  UNL d   1       4.427   2.303  -0.901  0.00  0.00     0.076 C 
ATOM      6  C7  UNL d   1       2.420   0.923  -0.294  0.00  0.00     0.002 A 
ATOM      7  C8  UNL d   1       1.813  -0.301  -0.004  0.00  0.00     0.006 A 
ENDROOT
BRANCH   1   8
ATOM      8  C1  UNL d   1       1.910  -2.798   0.337  0.00  0.00     0.054 C 
ATOM      9  C   UNL d   1       0.602  -3.010  -0.412  0.00  0.00     0.018 C 
ENDBRANCH   1   8
TORSDOF 1
ENDMDL
