MODEL 1
REMARK minimizedAffinity -2.23649549
REMARK minimizedRMSD -1
REMARK  1 active torsions:
REMARK  status: ('A' for Active; 'I' for Inactive)
REMARK    1  A    between atoms: C1_2  and  C2_3 
ROOT
ATOM      1  C2  UNL d   1       1.419  -1.462   0.100  0.00  0.00    -0.081 A 
ATOM      2  C3  UNL d   1       0.526  -2.186  -0.700  0.00  0.00     0.006 A 
ATOM      3  C4  UNL d   1      -0.475  -1.527  -1.418  0.00  0.00     0.002 A 
ATOM      4  C5  UNL d   1      -0.595  -0.135  -1.355  0.00  0.00    -0.080 A 
ATOM      5  C6  UNL d   1      -1.646   0.587  -2.145  0.00  0.00     0.076 C 
ATOM      6  C7  UNL d   1       0.286   0.587  -0.542  0.00  0.00     0.002 A 
ATOM      7  C8  UNL d   1       1.286  -0.071   0.177  0.00  0.00     0.006 A 
ENDROOT
BRANCH   1   8
ATOM      8  C1  UNL d   1       2.539  -2.163   0.825  0.00  0.00     0.054 C 
ATOM      9  C   UNL d   1       3.752  -1.256   0.977  0.00  0.00     0.018 C 
ENDBRANCH   1   8
TORSDOF 1
ENDMDL
