MODEL 1
REMARK minimizedAffinity 5.52503777
REMARK minimizedRMSD -1
REMARK  1 active torsions:
REMARK  status: ('A' for Active; 'I' for Inactive)
REMARK    1  A    between atoms: C1_2  and  C2_3 
ROOT
ATOM      1  C2  UNL d   1       0.414   1.204  -0.704  0.00  0.00    -0.081 A 
ATOM      2  C3  UNL d   1       1.065   2.288  -0.105  0.00  0.00     0.006 A 
ATOM      3  C4  UNL d   1       2.382   2.163   0.346  0.00  0.00     0.002 A 
ATOM      4  C5  UNL d   1       3.070   0.954   0.198  0.00  0.00    -0.080 A 
ATOM      5  C6  UNL d   1       4.494   0.815   0.650  0.00  0.00     0.076 C 
ATOM      6  C7  UNL d   1       2.414  -0.135  -0.385  0.00  0.00     0.002 A 
ATOM      7  C8  UNL d   1       1.097  -0.010  -0.835  0.00  0.00     0.006 A 
ENDROOT
BRANCH   1   8
ATOM      8  C1  UNL d   1      -0.983   1.355  -1.250  0.00  0.00     0.054 C 
ATOM      9  C   UNL d   1      -1.065   0.894  -2.698  0.00  0.00     0.018 C 
ENDBRANCH   1   8
TORSDOF 1
ENDMDL
