MODEL 1
REMARK minimizedAffinity -1.4313159
REMARK minimizedRMSD -1
REMARK  1 active torsions:
REMARK  status: ('A' for Active; 'I' for Inactive)
REMARK    1  A    between atoms: C1_2  and  C2_3 
ROOT
ATOM      1  C2  UNL d   1       2.798  -0.040  -0.791  0.00  0.00    -0.081 A 
ATOM      2  C3  UNL d   1       1.563   0.618  -0.743  0.00  0.00     0.006 A 
ATOM      3  C4  UNL d   1       0.373  -0.095  -0.913  0.00  0.00     0.002 A 
ATOM      4  C5  UNL d   1       0.398  -1.477  -1.126  0.00  0.00    -0.080 A 
ATOM      5  C6  UNL d   1      -0.872  -2.259  -1.281  0.00  0.00     0.076 C 
ATOM      6  C7  UNL d   1       1.633  -2.132  -1.191  0.00  0.00     0.002 A 
ATOM      7  C8  UNL d   1       2.822  -1.420  -1.022  0.00  0.00     0.006 A 
ENDROOT
BRANCH   1   8
ATOM      8  C1  UNL d   1       4.078   0.715  -0.543  0.00  0.00     0.054 C 
ATOM      9  C   UNL d   1       4.533   1.458  -1.790  0.00  0.00     0.018 C 
ENDBRANCH   1   8
TORSDOF 1
ENDMDL
