MODEL 1
REMARK minimizedAffinity 4.35989189
REMARK minimizedRMSD -1
REMARK  1 active torsions:
REMARK  status: ('A' for Active; 'I' for Inactive)
REMARK    1  A    between atoms: C1_2  and  C2_3 
ROOT
ATOM      1  C2  UNL d   1       1.395  -0.639  -0.690  0.00  0.00    -0.081 A 
ATOM      2  C3  UNL d   1       1.753   0.693  -0.451  0.00  0.00     0.006 A 
ATOM      3  C4  UNL d   1       3.034   1.151  -0.771  0.00  0.00     0.002 A 
ATOM      4  C5  UNL d   1       3.974   0.286  -1.341  0.00  0.00    -0.080 A 
ATOM      5  C6  UNL d   1       5.342   0.772  -1.717  0.00  0.00     0.076 C 
ATOM      6  C7  UNL d   1       3.622  -1.049  -1.564  0.00  0.00     0.002 A 
ATOM      7  C8  UNL d   1       2.342  -1.507  -1.244  0.00  0.00     0.006 A 
ENDROOT
BRANCH   1   8
ATOM      8  C1  UNL d   1      -0.006  -1.119  -0.407  0.00  0.00     0.054 C 
ATOM      9  C   UNL d   1      -0.730  -1.500  -1.690  0.00  0.00     0.018 C 
ENDBRANCH   1   8
TORSDOF 1
ENDMDL
