MODEL 1
REMARK minimizedAffinity 6.25855541
REMARK minimizedRMSD -1
REMARK  3 active torsions:
REMARK  status: ('A' for Active; 'I' for Inactive)
REMARK    1  A    between atoms: C3'_2  and  C2'_3 
REMARK    2  A    between atoms: C2'_3  and  C1'_4 
REMARK    3  A    between atoms: C1'_4  and  C1_5 
ROOT
ATOM      1  C1  N4B d   1       0.543   0.158   0.130  0.00  0.00    -0.075 A 
ATOM      2  C2  N4B d   1       1.202   0.871  -0.895  0.00  0.00     0.002 A 
ATOM      3  C3  N4B d   1       1.548   2.186  -0.704  0.00  0.00     0.002 A 
ATOM      4  C4  N4B d   1       1.231   2.812   0.493  0.00  0.00    -0.004 A 
ATOM      5  C5  N4B d   1       0.617   2.109   1.488  0.00  0.00     0.002 A 
ATOM      6  C6  N4B d   1       0.267   0.785   1.310  0.00  0.00     0.002 A 
ENDROOT
BRANCH   1   7
ATOM      7  C1' N4B d   1       0.068  -1.256  -0.065  0.00  0.00     0.057 C 
BRANCH   7   8
ATOM      8  C2' N4B d   1      -1.451  -1.296   0.065  0.00  0.00     0.009 C 
BRANCH   8   9
ATOM      9  C3' N4B d   1      -2.142  -1.028  -1.261  0.00  0.00     0.004 C 
ATOM     10  C4' N4B d   1      -3.119  -2.103  -1.635  0.00  0.00     0.003 C 
ENDBRANCH   8   9
ENDBRANCH   7   8
ENDBRANCH   1   7
TORSDOF 3
ENDMDL
