MODEL 1
REMARK minimizedAffinity 1.49191117
REMARK minimizedRMSD -1
REMARK  3 active torsions:
REMARK  status: ('A' for Active; 'I' for Inactive)
REMARK    1  A    between atoms: C3'_2  and  C2'_3 
REMARK    2  A    between atoms: C2'_3  and  C1'_4 
REMARK    3  A    between atoms: C1'_4  and  C1_5 
ROOT
ATOM      1  C1  N4B d   1      -1.378  -1.944   1.227  0.00  0.00    -0.075 A 
ATOM      2  C2  N4B d   1      -1.238  -0.747   1.963  0.00  0.00     0.002 A 
ATOM      3  C3  N4B d   1      -0.318   0.196   1.572  0.00  0.00     0.002 A 
ATOM      4  C4  N4B d   1       0.481  -0.045   0.465  0.00  0.00    -0.004 A 
ATOM      5  C5  N4B d   1       0.322  -1.192  -0.255  0.00  0.00     0.002 A 
ATOM      6  C6  N4B d   1      -0.601  -2.146   0.124  0.00  0.00     0.002 A 
ENDROOT
BRANCH   1   7
ATOM      7  C1' N4B d   1      -2.309  -3.041   1.666  0.00  0.00     0.057 C 
BRANCH   7   8
ATOM      8  C2' N4B d   1      -3.022  -3.612   0.444  0.00  0.00     0.009 C 
BRANCH   8   9
ATOM      9  C3' N4B d   1      -4.402  -4.144   0.788  0.00  0.00     0.004 C 
ATOM     10  C4' N4B d   1      -4.520  -5.626   0.587  0.00  0.00     0.003 C 
ENDBRANCH   8   9
ENDBRANCH   7   8
ENDBRANCH   1   7
TORSDOF 3
ENDMDL
