MODEL 1
REMARK minimizedAffinity 1.54319549
REMARK minimizedRMSD -1
REMARK  3 active torsions:
REMARK  status: ('A' for Active; 'I' for Inactive)
REMARK    1  A    between atoms: C3'_2  and  C2'_3 
REMARK    2  A    between atoms: C2'_3  and  C1'_4 
REMARK    3  A    between atoms: C1'_4  and  C1_5 
ROOT
ATOM      1  C1  N4B d   1       0.697   5.228  -5.325  0.00  0.00    -0.075 A 
ATOM      2  C2  N4B d   1       1.828   5.747  -5.992  0.00  0.00     0.002 A 
ATOM      3  C3  N4B d   1       3.060   5.169  -5.804  0.00  0.00     0.002 A 
ATOM      4  C4  N4B d   1       3.187   4.089  -4.944  0.00  0.00    -0.004 A 
ATOM      5  C5  N4B d   1       2.085   3.578  -4.324  0.00  0.00     0.002 A 
ATOM      6  C6  N4B d   1       0.840   4.146  -4.506  0.00  0.00     0.002 A 
ENDROOT
BRANCH   1   7
ATOM      7  C1' N4B d   1      -0.655   5.879  -5.432  0.00  0.00     0.057 C 
BRANCH   7   8
ATOM      8  C2' N4B d   1      -1.271   5.986  -4.040  0.00  0.00     0.009 C 
BRANCH   8   9
ATOM      9  C3' N4B d   1      -2.788   5.937  -4.084  0.00  0.00     0.004 C 
ATOM     10  C4' N4B d   1      -3.411   5.983  -2.720  0.00  0.00     0.003 C 
ENDBRANCH   8   9
ENDBRANCH   7   8
ENDBRANCH   1   7
TORSDOF 3
ENDMDL
