MODEL 1
REMARK minimizedAffinity -0.527405858
REMARK minimizedRMSD -1
REMARK  3 active torsions:
REMARK  status: ('A' for Active; 'I' for Inactive)
REMARK    1  A    between atoms: C3'_2  and  C2'_3 
REMARK    2  A    between atoms: C2'_3  and  C1'_4 
REMARK    3  A    between atoms: C1'_4  and  C1_5 
ROOT
ATOM      1  C1  N4B d   1      -1.871   5.985  -4.300  0.00  0.00    -0.075 A 
ATOM      2  C2  N4B d   1      -3.267   5.992  -4.512  0.00  0.00     0.002 A 
ATOM      3  C3  N4B d   1      -4.125   5.994  -3.440  0.00  0.00     0.002 A 
ATOM      4  C4  N4B d   1      -3.613   5.971  -2.152  0.00  0.00    -0.004 A 
ATOM      5  C5  N4B d   1      -2.263   5.990  -1.954  0.00  0.00     0.002 A 
ATOM      6  C6  N4B d   1      -1.389   5.992  -3.023  0.00  0.00     0.002 A 
ENDROOT
BRANCH   1   7
ATOM      7  C1' N4B d   1      -0.895   5.894  -5.440  0.00  0.00     0.057 C 
BRANCH   7   8
ATOM      8  C2' N4B d   1       0.524   5.829  -4.881  0.00  0.00     0.009 C 
BRANCH   8   9
ATOM      9  C3' N4B d   1       1.568   5.799  -5.983  0.00  0.00     0.004 C 
ATOM     10  C4' N4B d   1       2.970   5.747  -5.454  0.00  0.00     0.003 C 
ENDBRANCH   8   9
ENDBRANCH   7   8
ENDBRANCH   1   7
TORSDOF 3
ENDMDL
