MODEL 1
REMARK minimizedAffinity 2.06086373
REMARK minimizedRMSD -1
REMARK  3 active torsions:
REMARK  status: ('A' for Active; 'I' for Inactive)
REMARK    1  A    between atoms: C3'_2  and  C2'_3 
REMARK    2  A    between atoms: C2'_3  and  C1'_4 
REMARK    3  A    between atoms: C1'_4  and  C1_5 
ROOT
ATOM      1  C1  N4B d   1       0.704   0.607   0.439  0.00  0.00    -0.075 A 
ATOM      2  C2  N4B d   1       1.195   0.539  -0.883  0.00  0.00     0.002 A 
ATOM      3  C3  N4B d   1       1.803   1.634  -1.447  0.00  0.00     0.002 A 
ATOM      4  C4  N4B d   1       1.914   2.808  -0.718  0.00  0.00    -0.004 A 
ATOM      5  C5  N4B d   1       1.460   2.858   0.568  0.00  0.00     0.002 A 
ATOM      6  C6  N4B d   1       0.850   1.764   1.149  0.00  0.00     0.002 A 
ENDROOT
BRANCH   1   7
ATOM      7  C1' N4B d   1      -0.044  -0.536   1.068  0.00  0.00     0.057 C 
BRANCH   7   8
ATOM      8  C2' N4B d   1      -1.516  -0.156   1.205  0.00  0.00     0.009 C 
BRANCH   8   9
ATOM      9  C3' N4B d   1      -1.925   0.017   2.658  0.00  0.00     0.004 C 
ATOM     10  C4' N4B d   1      -2.282  -1.281   3.319  0.00  0.00     0.003 C 
ENDBRANCH   8   9
ENDBRANCH   7   8
ENDBRANCH   1   7
TORSDOF 3
ENDMDL
