MODEL 1
REMARK minimizedAffinity 6.21783352
REMARK minimizedRMSD -1
REMARK  3 active torsions:
REMARK  status: ('A' for Active; 'I' for Inactive)
REMARK    1  A    between atoms: C3'_2  and  C2'_3 
REMARK    2  A    between atoms: C2'_3  and  C1'_4 
REMARK    3  A    between atoms: C1'_4  and  C1_5 
ROOT
ATOM      1  C1  N4B d   1      -0.142   0.437   1.086  0.00  0.00    -0.075 A 
ATOM      2  C2  N4B d   1      -0.065   1.110  -0.154  0.00  0.00     0.002 A 
ATOM      3  C3  N4B d   1       0.901   2.065  -0.357  0.00  0.00     0.002 A 
ATOM      4  C4  N4B d   1       1.784   2.376   0.666  0.00  0.00    -0.004 A 
ATOM      5  C5  N4B d   1       1.719   1.703   1.851  0.00  0.00     0.002 A 
ATOM      6  C6  N4B d   1       0.756   0.738   2.068  0.00  0.00     0.002 A 
ENDROOT
BRANCH   1   7
ATOM      7  C1' N4B d   1      -1.234  -0.553   1.385  0.00  0.00     0.057 C 
BRANCH   7   8
ATOM      8  C2' N4B d   1      -2.151   0.022   2.460  0.00  0.00     0.009 C 
BRANCH   8   9
ATOM      9  C3' N4B d   1      -3.016   1.151   1.925  0.00  0.00     0.004 C 
ATOM     10  C4' N4B d   1      -3.554   2.034   3.010  0.00  0.00     0.003 C 
ENDBRANCH   8   9
ENDBRANCH   7   8
ENDBRANCH   1   7
TORSDOF 3
ENDMDL
