MODEL 1
REMARK minimizedAffinity 4.04414892
REMARK minimizedRMSD -1
REMARK  3 active torsions:
REMARK  status: ('A' for Active; 'I' for Inactive)
REMARK    1  A    between atoms: C3'_2  and  C2'_3 
REMARK    2  A    between atoms: C2'_3  and  C1'_4 
REMARK    3  A    between atoms: C1'_4  and  C1_5 
ROOT
ATOM      1  C1  N4B d   1       0.175   1.175   1.192  0.00  0.00    -0.075 A 
ATOM      2  C2  N4B d   1       0.711   0.095   0.458  0.00  0.00     0.002 A 
ATOM      3  C3  N4B d   1       0.024  -1.092   0.382  0.00  0.00     0.002 A 
ATOM      4  C4  N4B d   1      -1.187  -1.227   1.044  0.00  0.00    -0.004 A 
ATOM      5  C5  N4B d   1      -1.710  -0.170   1.730  0.00  0.00     0.002 A 
ATOM      6  C6  N4B d   1      -1.032   1.030   1.812  0.00  0.00     0.002 A 
ENDROOT
BRANCH   1   7
ATOM      7  C1' N4B d   1       0.930   2.463   1.376  0.00  0.00     0.057 C 
BRANCH   7   8
ATOM      8  C2' N4B d   1       1.036   3.177   0.031  0.00  0.00     0.009 C 
BRANCH   8   9
ATOM      9  C3' N4B d   1       2.419   3.035  -0.580  0.00  0.00     0.004 C 
ATOM     10  C4' N4B d   1       2.405   2.295  -1.884  0.00  0.00     0.003 C 
ENDBRANCH   8   9
ENDBRANCH   7   8
ENDBRANCH   1   7
TORSDOF 3
ENDMDL
