MODEL 1
REMARK minimizedAffinity -1.25123405
REMARK minimizedRMSD -1
REMARK  0 active torsions:
REMARK  status: ('A' for Active; 'I' for Inactive)
ROOT
ATOM      1  C1  BNZ d   1       0.380  -2.419   0.347  0.00  0.00     0.000 A 
ATOM      2  C2  BNZ d   1       0.591  -1.288  -0.396  0.00  0.00     0.000 A 
ATOM      3  C3  BNZ d   1       0.037  -0.094  -0.028  0.00  0.00     0.000 A 
ATOM      4  C4  BNZ d   1      -0.759  -0.040   1.060  0.00  0.00     0.000 A 
ATOM      5  C5  BNZ d   1      -0.988  -1.173   1.815  0.00  0.00     0.000 A 
ATOM      6  C6  BNZ d   1      -0.398  -2.365   1.463  0.00  0.00     0.000 A 
ENDROOT
TORSDOF 0
ENDMDL
