MODEL 1
REMARK minimizedAffinity -4.96420288
REMARK minimizedRMSD -1
REMARK  0 active torsions:
REMARK  status: ('A' for Active; 'I' for Inactive)
ROOT
ATOM      1  C1  BNZ d   1      -1.492  -1.880  -1.066  0.00  0.00     0.000 A 
ATOM      2  C2  BNZ d   1      -2.044  -2.767  -0.182  0.00  0.00     0.000 A 
ATOM      3  C3  BNZ d   1      -1.495  -2.955   1.056  0.00  0.00     0.000 A 
ATOM      4  C4  BNZ d   1      -0.374  -2.285   1.392  0.00  0.00     0.000 A 
ATOM      5  C5  BNZ d   1       0.200  -1.394   0.508  0.00  0.00     0.000 A 
ATOM      6  C6  BNZ d   1      -0.378  -1.179  -0.722  0.00  0.00     0.000 A 
ENDROOT
TORSDOF 0
ENDMDL
