MODEL 1
REMARK minimizedAffinity -3.93197298
REMARK minimizedRMSD -1
REMARK  0 active torsions:
REMARK  status: ('A' for Active; 'I' for Inactive)
ROOT
ATOM      1  C1  BNZ d   1      -0.080  -1.298   0.422  0.00  0.00     0.000 A 
ATOM      2  C2  BNZ d   1      -0.717  -1.975   1.427  0.00  0.00     0.000 A 
ATOM      3  C3  BNZ d   1      -1.686  -1.367   2.176  0.00  0.00     0.000 A 
ATOM      4  C4  BNZ d   1      -1.987  -0.073   1.946  0.00  0.00     0.000 A 
ATOM      5  C5  BNZ d   1      -1.347   0.626   0.942  0.00  0.00     0.000 A 
ATOM      6  C6  BNZ d   1      -0.400  -0.001   0.164  0.00  0.00     0.000 A 
ENDROOT
TORSDOF 0
ENDMDL
