MODEL 1
REMARK minimizedAffinity -4.99040985
REMARK minimizedRMSD -1
REMARK  0 active torsions:
REMARK  status: ('A' for Active; 'I' for Inactive)
ROOT
ATOM      1  C1  BNZ d   1       0.757  -1.236   0.033  0.00  0.00     0.000 A 
ATOM      2  C2  BNZ d   1      -0.083  -2.128   0.645  0.00  0.00     0.000 A 
ATOM      3  C3  BNZ d   1      -1.381  -1.796   0.913  0.00  0.00     0.000 A 
ATOM      4  C4  BNZ d   1      -1.827  -0.561   0.606  0.00  0.00     0.000 A 
ATOM      5  C5  BNZ d   1      -0.990   0.353  -0.004  0.00  0.00     0.000 A 
ATOM      6  C6  BNZ d   1       0.306   0.002  -0.308  0.00  0.00     0.000 A 
ENDROOT
TORSDOF 0
ENDMDL
