MODEL 1
REMARK minimizedAffinity -1.72940493
REMARK minimizedRMSD -1
REMARK  0 active torsions:
REMARK  status: ('A' for Active; 'I' for Inactive)
ROOT
ATOM      1  C1  BNZ d   1      -2.724  -4.866  -4.798  0.00  0.00     0.000 A 
ATOM      2  C2  BNZ d   1      -2.152  -5.255  -5.980  0.00  0.00     0.000 A 
ATOM      3  C3  BNZ d   1      -0.917  -5.840  -6.000  0.00  0.00     0.000 A 
ATOM      4  C4  BNZ d   1      -0.240  -6.000  -4.844  0.00  0.00     0.000 A 
ATOM      5  C5  BNZ d   1      -0.800  -5.605  -3.646  0.00  0.00     0.000 A 
ATOM      6  C6  BNZ d   1      -2.059  -5.051  -3.625  0.00  0.00     0.000 A 
ENDROOT
TORSDOF 0
ENDMDL
