MODEL 1
REMARK minimizedAffinity -4.39389229
REMARK minimizedRMSD -1
REMARK  0 active torsions:
REMARK  status: ('A' for Active; 'I' for Inactive)
ROOT
ATOM      1  C1  BNZ d   1      -0.291   0.779   0.236  0.00  0.00     0.000 A 
ATOM      2  C2  BNZ d   1      -1.397   0.058   0.599  0.00  0.00     0.000 A 
ATOM      3  C3  BNZ d   1      -1.317  -1.291   0.805  0.00  0.00     0.000 A 
ATOM      4  C4  BNZ d   1      -0.141  -1.923   0.610  0.00  0.00     0.000 A 
ATOM      5  C5  BNZ d   1       0.981  -1.211   0.235  0.00  0.00     0.000 A 
ATOM      6  C6  BNZ d   1       0.905   0.152   0.066  0.00  0.00     0.000 A 
ENDROOT
TORSDOF 0
ENDMDL
