MODEL 1
REMARK minimizedAffinity -3.27633762
REMARK minimizedRMSD -1
REMARK  0 active torsions:
REMARK  status: ('A' for Active; 'I' for Inactive)
ROOT
ATOM      1  C1  BNZ d   1      -1.707  -1.934  -0.060  0.00  0.00     0.000 A 
ATOM      2  C2  BNZ d   1      -1.111  -0.751  -0.410  0.00  0.00     0.000 A 
ATOM      3  C3  BNZ d   1       0.144  -0.442   0.035  0.00  0.00     0.000 A 
ATOM      4  C4  BNZ d   1       0.784  -1.295   0.860  0.00  0.00     0.000 A 
ATOM      5  C5  BNZ d   1       0.193  -2.487   1.229  0.00  0.00     0.000 A 
ATOM      6  C6  BNZ d   1      -1.054  -2.813   0.748  0.00  0.00     0.000 A 
ENDROOT
TORSDOF 0
ENDMDL
