MODEL 1
REMARK minimizedAffinity -1.71880448
REMARK minimizedRMSD -1
REMARK  0 active torsions:
REMARK  status: ('A' for Active; 'I' for Inactive)
ROOT
ATOM      1  C1  BNZ d   1       0.775  -1.830   0.807  0.00  0.00     0.000 A 
ATOM      2  C2  BNZ d   1       0.280  -0.739   0.145  0.00  0.00     0.000 A 
ATOM      3  C3  BNZ d   1      -0.994  -0.301   0.372  0.00  0.00     0.000 A 
ATOM      4  C4  BNZ d   1      -1.785  -0.977   1.230  0.00  0.00     0.000 A 
ATOM      5  C5  BNZ d   1      -1.303  -2.085   1.899  0.00  0.00     0.000 A 
ATOM      6  C6  BNZ d   1      -0.007  -2.500   1.697  0.00  0.00     0.000 A 
ENDROOT
TORSDOF 0
ENDMDL
