MODEL 1
REMARK minimizedAffinity -2.28634238
REMARK minimizedRMSD -1
REMARK  0 active torsions:
REMARK  status: ('A' for Active; 'I' for Inactive)
ROOT
ATOM      1  C1  BNZ d   1      -0.371  -2.140   1.237  0.00  0.00     0.000 A 
ATOM      2  C2  BNZ d   1       0.943  -2.185   0.853  0.00  0.00     0.000 A 
ATOM      3  C3  BNZ d   1       1.543  -1.098   0.283  0.00  0.00     0.000 A 
ATOM      4  C4  BNZ d   1       0.820   0.019   0.061  0.00  0.00     0.000 A 
ATOM      5  C5  BNZ d   1      -0.508   0.077   0.434  0.00  0.00     0.000 A 
ATOM      6  C6  BNZ d   1      -1.098  -1.006   1.044  0.00  0.00     0.000 A 
ENDROOT
TORSDOF 0
ENDMDL
