MODEL 1
REMARK minimizedAffinity -4.96113396
REMARK minimizedRMSD -1
REMARK  0 active torsions:
REMARK  status: ('A' for Active; 'I' for Inactive)
ROOT
ATOM      1  C1  BNZ d   1       0.426  -1.957   0.570  0.00  0.00     0.000 A 
ATOM      2  C2  BNZ d   1      -0.513  -2.722   1.209  0.00  0.00     0.000 A 
ATOM      3  C3  BNZ d   1      -1.800  -2.282   1.345  0.00  0.00     0.000 A 
ATOM      4  C4  BNZ d   1      -2.137  -1.063   0.878  0.00  0.00     0.000 A 
ATOM      5  C5  BNZ d   1      -1.199  -0.276   0.239  0.00  0.00     0.000 A 
ATOM      6  C6  BNZ d   1       0.086  -0.738   0.070  0.00  0.00     0.000 A 
ENDROOT
TORSDOF 0
ENDMDL
