MODEL 1
REMARK minimizedAffinity -2.54941559
REMARK minimizedRMSD -1
REMARK  0 active torsions:
REMARK  status: ('A' for Active; 'I' for Inactive)
ROOT
ATOM      1  C1  BNZ d   1      -0.742   1.059   0.079  0.00  0.00     0.000 A 
ATOM      2  C2  BNZ d   1      -1.334  -0.124   0.435  0.00  0.00     0.000 A 
ATOM      3  C3  BNZ d   1      -0.614  -1.286   0.465  0.00  0.00     0.000 A 
ATOM      4  C4  BNZ d   1       0.684  -1.271   0.102  0.00  0.00     0.000 A 
ATOM      5  C5  BNZ d   1       1.293  -0.088  -0.269  0.00  0.00     0.000 A 
ATOM      6  C6  BNZ d   1       0.575   1.086  -0.260  0.00  0.00     0.000 A 
ENDROOT
TORSDOF 0
ENDMDL
