MODEL 1
REMARK minimizedAffinity -4.94523716
REMARK minimizedRMSD -1
REMARK  0 active torsions:
REMARK  status: ('A' for Active; 'I' for Inactive)
ROOT
ATOM      1  C1  BNZ d   1      -0.634  -0.453   0.731  0.00  0.00     0.000 A 
ATOM      2  C2  BNZ d   1      -1.718  -0.212   1.532  0.00  0.00     0.000 A 
ATOM      3  C3  BNZ d   1      -2.566  -1.223   1.886  0.00  0.00     0.000 A 
ATOM      4  C4  BNZ d   1      -2.353  -2.466   1.407  0.00  0.00     0.000 A 
ATOM      5  C5  BNZ d   1      -1.270  -2.723   0.591  0.00  0.00     0.000 A 
ATOM      6  C6  BNZ d   1      -0.396  -1.711   0.268  0.00  0.00     0.000 A 
ENDROOT
TORSDOF 0
ENDMDL
