MODEL 1
REMARK minimizedAffinity -1.95535803
REMARK minimizedRMSD -1
REMARK  0 active torsions:
REMARK  status: ('A' for Active; 'I' for Inactive)
ROOT
ATOM      1  C1  BNZ d   1       0.180  -0.101  -0.104  0.00  0.00     0.000 A 
ATOM      2  C2  BNZ d   1      -0.729  -0.191   0.916  0.00  0.00     0.000 A 
ATOM      3  C3  BNZ d   1      -1.372   0.922   1.381  0.00  0.00     0.000 A 
ATOM      4  C4  BNZ d   1      -1.077   2.127   0.852  0.00  0.00     0.000 A 
ATOM      5  C5  BNZ d   1      -0.156   2.235  -0.171  0.00  0.00     0.000 A 
ATOM      6  C6  BNZ d   1       0.461   1.108  -0.662  0.00  0.00     0.000 A 
ENDROOT
TORSDOF 0
ENDMDL
