MODEL 1
REMARK minimizedAffinity -4.65495062
REMARK minimizedRMSD -1
REMARK  0 active torsions:
REMARK  status: ('A' for Active; 'I' for Inactive)
ROOT
ATOM      1  C1  BNZ d   1       0.689  -1.379   0.278  0.00  0.00     0.000 A 
ATOM      2  C2  BNZ d   1      -0.348  -2.202   0.629  0.00  0.00     0.000 A 
ATOM      3  C3  BNZ d   1      -1.619  -1.714   0.750  0.00  0.00     0.000 A 
ATOM      4  C4  BNZ d   1      -1.845  -0.398   0.560  0.00  0.00     0.000 A 
ATOM      5  C5  BNZ d   1      -0.809   0.446   0.216  0.00  0.00     0.000 A 
ATOM      6  C6  BNZ d   1       0.463  -0.055   0.057  0.00  0.00     0.000 A 
ENDROOT
TORSDOF 0
ENDMDL
