MODEL 1
REMARK minimizedAffinity -3.90327382
REMARK minimizedRMSD -1
REMARK  0 active torsions:
REMARK  status: ('A' for Active; 'I' for Inactive)
ROOT
ATOM      1  C1  BNZ d   1      -1.586  -0.719   0.730  0.00  0.00     0.000 A 
ATOM      2  C2  BNZ d   1      -0.697   0.117   0.109  0.00  0.00     0.000 A 
ATOM      3  C3  BNZ d   1       0.636  -0.184   0.069  0.00  0.00     0.000 A 
ATOM      4  C4  BNZ d   1       1.083  -1.299   0.684  0.00  0.00     0.000 A 
ATOM      5  C5  BNZ d   1       0.200  -2.147   1.322  0.00  0.00     0.000 A 
ATOM      6  C6  BNZ d   1      -1.146  -1.861   1.327  0.00  0.00     0.000 A 
ENDROOT
TORSDOF 0
ENDMDL
