MODEL 1
REMARK minimizedAffinity -4.57833385
REMARK minimizedRMSD -1
REMARK  0 active torsions:
REMARK  status: ('A' for Active; 'I' for Inactive)
ROOT
ATOM      1  C1  BNZ d   1       0.042   0.458   0.063  0.00  0.00     0.000 A 
ATOM      2  C2  BNZ d   1      -1.076  -0.252   0.410  0.00  0.00     0.000 A 
ATOM      3  C3  BNZ d   1      -0.994  -1.580   0.722  0.00  0.00     0.000 A 
ATOM      4  C4  BNZ d   1       0.199  -2.205   0.648  0.00  0.00     0.000 A 
ATOM      5  C5  BNZ d   1       1.334  -1.506   0.290  0.00  0.00     0.000 A 
ATOM      6  C6  BNZ d   1       1.254  -0.160   0.015  0.00  0.00     0.000 A 
ENDROOT
TORSDOF 0
ENDMDL
