MODEL 1
REMARK minimizedAffinity -0.849686325
REMARK minimizedRMSD -1
REMARK  0 active torsions:
REMARK  status: ('A' for Active; 'I' for Inactive)
ROOT
ATOM      1  C1  BNZ d   1      -3.230  -3.620  -5.956  0.00  0.00     0.000 A 
ATOM      2  C2  BNZ d   1      -1.861  -3.655  -5.961  0.00  0.00     0.000 A 
ATOM      3  C3  BNZ d   1      -1.191  -4.846  -6.000  0.00  0.00     0.000 A 
ATOM      4  C4  BNZ d   1      -1.890  -6.000  -5.993  0.00  0.00     0.000 A 
ATOM      5  C5  BNZ d   1      -3.270  -5.981  -5.979  0.00  0.00     0.000 A 
ATOM      6  C6  BNZ d   1      -3.941  -4.780  -5.979  0.00  0.00     0.000 A 
ENDROOT
TORSDOF 0
ENDMDL
