MODEL 1
REMARK minimizedAffinity -1.32921314
REMARK minimizedRMSD -1
REMARK  2 active torsions:
REMARK  status: ('A' for Active; 'I' for Inactive)
REMARK    1  A    between atoms: C2'_3  and  C1'_4 
REMARK    2  A    between atoms: C1'_4  and  C1_5 
ROOT
ATOM      1  C1  I4B d   1      -5.978  -2.520  -4.277  0.00  0.00    -0.075 A 
ATOM      2  C2  I4B d   1      -5.984  -1.870  -3.068  0.00  0.00     0.003 A 
ATOM      3  C3  I4B d   1      -6.000  -0.455  -3.019  0.00  0.00     0.002 A 
ATOM      4  C4  I4B d   1      -5.959   0.265  -4.195  0.00  0.00    -0.004 A 
ATOM      5  C5  I4B d   1      -5.977  -0.395  -5.420  0.00  0.00     0.002 A 
ATOM      6  C6  I4B d   1      -5.999  -1.797  -5.462  0.00  0.00     0.003 A 
ENDROOT
BRANCH   1   7
ATOM      7  C1' I4B d   1      -5.928  -4.015  -4.291  0.00  0.00     0.060 C 
BRANCH   7   8
ATOM      8  C2' I4B d   1      -4.840  -4.437  -5.257  0.00  0.00    -0.013 C 
ATOM      9  C4' I4B d   1      -3.549  -4.721  -4.534  0.00  0.00     0.013 C 
ATOM     10  C3' I4B d   1      -5.323  -5.647  -5.999  0.00  0.00     0.013 C 
ENDBRANCH   7   8
ENDBRANCH   1   7
TORSDOF 2
ENDMDL
