MODEL 1
REMARK minimizedAffinity -1.9435823
REMARK minimizedRMSD -1
REMARK  2 active torsions:
REMARK  status: ('A' for Active; 'I' for Inactive)
REMARK    1  A    between atoms: C2'_3  and  C1'_4 
REMARK    2  A    between atoms: C1'_4  and  C1_5 
ROOT
ATOM      1  C1  I4B d   1      -4.770  -3.541  -5.571  0.00  0.00    -0.075 A 
ATOM      2  C2  I4B d   1      -5.343  -4.786  -5.641  0.00  0.00     0.003 A 
ATOM      3  C3  I4B d   1      -4.535  -5.947  -5.577  0.00  0.00     0.002 A 
ATOM      4  C4  I4B d   1      -3.164  -5.817  -5.496  0.00  0.00    -0.004 A 
ATOM      5  C5  I4B d   1      -2.586  -4.554  -5.402  0.00  0.00     0.002 A 
ATOM      6  C6  I4B d   1      -3.395  -3.408  -5.428  0.00  0.00     0.003 A 
ENDROOT
BRANCH   1   7
ATOM      7  C1' I4B d   1      -5.651  -2.336  -5.675  0.00  0.00     0.060 C 
BRANCH   7   8
ATOM      8  C2' I4B d   1      -5.406  -1.473  -4.454  0.00  0.00    -0.013 C 
ATOM      9  C4' I4B d   1      -6.000  -0.100  -4.629  0.00  0.00     0.013 C 
ATOM     10  C3' I4B d   1      -5.997  -2.172  -3.266  0.00  0.00     0.013 C 
ENDBRANCH   7   8
ENDBRANCH   1   7
TORSDOF 2
ENDMDL
