MODEL 1
REMARK minimizedAffinity 4.09900522
REMARK minimizedRMSD -1
REMARK  2 active torsions:
REMARK  status: ('A' for Active; 'I' for Inactive)
REMARK    1  A    between atoms: C2'_3  and  C1'_4 
REMARK    2  A    between atoms: C1'_4  and  C1_5 
ROOT
ATOM      1  C1  I4B d   1      -0.689  -1.140   1.063  0.00  0.00    -0.075 A 
ATOM      2  C2  I4B d   1      -0.110  -2.175   1.754  0.00  0.00     0.003 A 
ATOM      3  C3  I4B d   1       1.288  -2.386   1.683  0.00  0.00     0.002 A 
ATOM      4  C4  I4B d   1       2.058  -1.573   0.876  0.00  0.00    -0.004 A 
ATOM      5  C5  I4B d   1       1.473  -0.510   0.195  0.00  0.00     0.002 A 
ATOM      6  C6  I4B d   1       0.093  -0.283   0.298  0.00  0.00     0.003 A 
ENDROOT
BRANCH   1   7
ATOM      7  C1' I4B d   1      -2.173  -0.966   1.134  0.00  0.00     0.060 C 
BRANCH   7   8
ATOM      8  C2' I4B d   1      -2.769  -1.522  -0.143  0.00  0.00    -0.013 C 
ATOM      9  C4' I4B d   1      -2.966  -3.012  -0.050  0.00  0.00     0.013 C 
ATOM     10  C3' I4B d   1      -4.070  -0.818  -0.392  0.00  0.00     0.013 C 
ENDBRANCH   7   8
ENDBRANCH   1   7
TORSDOF 2
ENDMDL
