MODEL 1
REMARK minimizedAffinity 6.28295231
REMARK minimizedRMSD -1
REMARK  2 active torsions:
REMARK  status: ('A' for Active; 'I' for Inactive)
REMARK    1  A    between atoms: C2'_3  and  C1'_4 
REMARK    2  A    between atoms: C1'_4  and  C1_5 
ROOT
ATOM      1  C1  I4B d   1      -5.258  -3.211  -4.219  0.00  0.00    -0.075 A 
ATOM      2  C2  I4B d   1      -5.984  -3.955  -5.115  0.00  0.00     0.003 A 
ATOM      3  C3  I4B d   1      -5.328  -4.847  -5.998  0.00  0.00     0.002 A 
ATOM      4  C4  I4B d   1      -3.950  -4.925  -5.984  0.00  0.00    -0.004 A 
ATOM      5  C5  I4B d   1      -3.217  -4.187  -5.059  0.00  0.00     0.002 A 
ATOM      6  C6  I4B d   1      -3.876  -3.334  -4.162  0.00  0.00     0.003 A 
ENDROOT
BRANCH   1   7
ATOM      7  C1' I4B d   1      -5.981  -2.255  -3.324  0.00  0.00     0.060 C 
BRANCH   7   8
ATOM      8  C2' I4B d   1      -5.505  -0.855  -3.654  0.00  0.00    -0.013 C 
ATOM      9  C4' I4B d   1      -5.991  -0.420  -5.012  0.00  0.00     0.013 C 
ATOM     10  C3' I4B d   1      -6.000   0.068  -2.581  0.00  0.00     0.013 C 
ENDBRANCH   7   8
ENDBRANCH   1   7
TORSDOF 2
ENDMDL
