MODEL 1
REMARK minimizedAffinity -0.0131676933
REMARK minimizedRMSD -1
REMARK  2 active torsions:
REMARK  status: ('A' for Active; 'I' for Inactive)
REMARK    1  A    between atoms: C2'_3  and  C1'_4 
REMARK    2  A    between atoms: C1'_4  and  C1_5 
ROOT
ATOM      1  C1  I4B d   1      -3.693  -4.593  -5.935  0.00  0.00    -0.075 A 
ATOM      2  C2  I4B d   1      -5.031  -4.902  -5.953  0.00  0.00     0.003 A 
ATOM      3  C3  I4B d   1      -6.000  -3.871  -5.996  0.00  0.00     0.002 A 
ATOM      4  C4  I4B d   1      -5.592  -2.553  -5.970  0.00  0.00    -0.004 A 
ATOM      5  C5  I4B d   1      -4.235  -2.242  -5.975  0.00  0.00     0.002 A 
ATOM      6  C6  I4B d   1      -3.279  -3.268  -5.970  0.00  0.00     0.003 A 
ENDROOT
BRANCH   1   7
ATOM      7  C1' I4B d   1      -2.698  -5.706  -5.856  0.00  0.00     0.060 C 
BRANCH   7   8
ATOM      8  C2' I4B d   1      -2.172  -5.763  -4.435  0.00  0.00    -0.013 C 
ATOM      9  C4' I4B d   1      -0.722  -5.361  -4.374  0.00  0.00     0.013 C 
ATOM     10  C3' I4B d   1      -3.021  -4.859  -3.592  0.00  0.00     0.013 C 
ENDBRANCH   7   8
ENDBRANCH   1   7
TORSDOF 2
ENDMDL
