MODEL 1
REMARK minimizedAffinity -0.197265416
REMARK minimizedRMSD -1
REMARK  2 active torsions:
REMARK  status: ('A' for Active; 'I' for Inactive)
REMARK    1  A    between atoms: C2'_3  and  C1'_4 
REMARK    2  A    between atoms: C1'_4  and  C1_5 
ROOT
ATOM      1  C1  I4B d   1      -4.216  -4.519  -4.024  0.00  0.00    -0.075 A 
ATOM      2  C2  I4B d   1      -3.007  -4.240  -3.437  0.00  0.00     0.003 A 
ATOM      3  C3  I4B d   1      -1.812  -4.776  -3.976  0.00  0.00     0.002 A 
ATOM      4  C4  I4B d   1      -1.877  -5.621  -5.065  0.00  0.00    -0.004 A 
ATOM      5  C5  I4B d   1      -3.101  -5.884  -5.673  0.00  0.00     0.002 A 
ATOM      6  C6  I4B d   1      -4.277  -5.321  -5.157  0.00  0.00     0.003 A 
ENDROOT
BRANCH   1   7
ATOM      7  C1' I4B d   1      -5.461  -3.964  -3.409  0.00  0.00     0.060 C 
BRANCH   7   8
ATOM      8  C2' I4B d   1      -5.997  -2.888  -4.332  0.00  0.00    -0.013 C 
ATOM      9  C4' I4B d   1      -5.218  -1.607  -4.186  0.00  0.00     0.013 C 
ATOM     10  C3' I4B d   1      -5.929  -3.406  -5.737  0.00  0.00     0.013 C 
ENDBRANCH   7   8
ENDBRANCH   1   7
TORSDOF 2
ENDMDL
