MODEL 1
REMARK minimizedAffinity 3.40814734
REMARK minimizedRMSD -1
REMARK  2 active torsions:
REMARK  status: ('A' for Active; 'I' for Inactive)
REMARK    1  A    between atoms: C2'_3  and  C1'_4 
REMARK    2  A    between atoms: C1'_4  and  C1_5 
ROOT
ATOM      1  C1  I4B d   1      -3.364  -4.196  -5.179  0.00  0.00    -0.075 A 
ATOM      2  C2  I4B d   1      -3.432  -5.099  -4.147  0.00  0.00     0.003 A 
ATOM      3  C3  I4B d   1      -2.365  -6.000  -3.917  0.00  0.00     0.002 A 
ATOM      4  C4  I4B d   1      -1.278  -5.998  -4.767  0.00  0.00    -0.004 A 
ATOM      5  C5  I4B d   1      -1.200  -5.066  -5.799  0.00  0.00     0.002 A 
ATOM      6  C6  I4B d   1      -2.244  -4.151  -5.998  0.00  0.00     0.003 A 
ENDROOT
BRANCH   1   7
ATOM      7  C1' I4B d   1      -4.524  -3.280  -5.413  0.00  0.00     0.060 C 
BRANCH   7   8
ATOM      8  C2' I4B d   1      -5.183  -3.010  -4.076  0.00  0.00    -0.013 C 
ATOM      9  C4' I4B d   1      -4.170  -2.993  -2.962  0.00  0.00     0.013 C 
ATOM     10  C3' I4B d   1      -5.904  -1.699  -4.172  0.00  0.00     0.013 C 
ENDBRANCH   7   8
ENDBRANCH   1   7
TORSDOF 2
ENDMDL
