MODEL 1
REMARK minimizedAffinity 11.90979
REMARK minimizedRMSD -1
REMARK  2 active torsions:
REMARK  status: ('A' for Active; 'I' for Inactive)
REMARK    1  A    between atoms: C2'_3  and  C1'_4 
REMARK    2  A    between atoms: C1'_4  and  C1_5 
ROOT
ATOM      1  C1  I4B d   1      -3.640  -3.560  -3.313  0.00  0.00    -0.075 A 
ATOM      2  C2  I4B d   1      -2.774  -3.383  -4.363  0.00  0.00     0.003 A 
ATOM      3  C3  I4B d   1      -3.261  -3.358  -5.693  0.00  0.00     0.002 A 
ATOM      4  C4  I4B d   1      -4.605  -3.564  -5.928  0.00  0.00    -0.004 A 
ATOM      5  C5  I4B d   1      -5.485  -3.721  -4.861  0.00  0.00     0.002 A 
ATOM      6  C6  I4B d   1      -5.002  -3.707  -3.545  0.00  0.00     0.003 A 
ENDROOT
BRANCH   1   7
ATOM      7  C1' I4B d   1      -3.088  -3.613  -1.924  0.00  0.00     0.060 C 
BRANCH   7   8
ATOM      8  C2' I4B d   1      -2.780  -2.195  -1.489  0.00  0.00    -0.013 C 
ATOM      9  C4' I4B d   1      -3.877  -1.248  -1.900  0.00  0.00     0.013 C 
ATOM     10  C3' I4B d   1      -2.595  -2.197  -0.001  0.00  0.00     0.013 C 
ENDBRANCH   7   8
ENDBRANCH   1   7
TORSDOF 2
ENDMDL
