MODEL 1
REMARK minimizedAffinity -0.366567045
REMARK minimizedRMSD -1
REMARK  2 active torsions:
REMARK  status: ('A' for Active; 'I' for Inactive)
REMARK    1  A    between atoms: C2'_3  and  C1'_4 
REMARK    2  A    between atoms: C1'_4  and  C1_5 
ROOT
ATOM      1  C1  I4B d   1      -4.793  -3.891  -4.896  0.00  0.00    -0.075 A 
ATOM      2  C2  I4B d   1      -4.957  -5.014  -5.668  0.00  0.00     0.003 A 
ATOM      3  C3  I4B d   1      -3.843  -5.822  -5.998  0.00  0.00     0.002 A 
ATOM      4  C4  I4B d   1      -2.583  -5.445  -5.580  0.00  0.00    -0.004 A 
ATOM      5  C5  I4B d   1      -2.421  -4.319  -4.778  0.00  0.00     0.002 A 
ATOM      6  C6  I4B d   1      -3.534  -3.544  -4.423  0.00  0.00     0.003 A 
ENDROOT
BRANCH   1   7
ATOM      7  C1' I4B d   1      -5.987  -3.042  -4.594  0.00  0.00     0.060 C 
BRANCH   7   8
ATOM      8  C2' I4B d   1      -5.509  -1.618  -4.395  0.00  0.00    -0.013 C 
ATOM      9  C4' I4B d   1      -6.000  -0.719  -5.499  0.00  0.00     0.013 C 
ATOM     10  C3' I4B d   1      -5.998  -1.149  -3.057  0.00  0.00     0.013 C 
ENDBRANCH   7   8
ENDBRANCH   1   7
TORSDOF 2
ENDMDL
