MODEL 1
REMARK minimizedAffinity 1.3626138
REMARK minimizedRMSD -1
REMARK  2 active torsions:
REMARK  status: ('A' for Active; 'I' for Inactive)
REMARK    1  A    between atoms: C2'_3  and  C1'_4 
REMARK    2  A    between atoms: C1'_4  and  C1_5 
ROOT
ATOM      1  C1  I4B d   1      -4.318  -4.212  -4.331  0.00  0.00    -0.075 A 
ATOM      2  C2  I4B d   1      -3.266  -4.214  -3.449  0.00  0.00     0.003 A 
ATOM      3  C3  I4B d   1      -2.145  -5.048  -3.677  0.00  0.00     0.002 A 
ATOM      4  C4  I4B d   1      -2.140  -5.896  -4.766  0.00  0.00    -0.004 A 
ATOM      5  C5  I4B d   1      -3.196  -5.876  -5.672  0.00  0.00     0.002 A 
ATOM      6  C6  I4B d   1      -4.287  -5.020  -5.460  0.00  0.00     0.003 A 
ENDROOT
BRANCH   1   7
ATOM      7  C1' I4B d   1      -5.500  -3.343  -4.041  0.00  0.00     0.060 C 
BRANCH   7   8
ATOM      8  C2' I4B d   1      -5.227  -1.973  -4.628  0.00  0.00    -0.013 C 
ATOM      9  C4' I4B d   1      -5.833  -1.836  -6.000  0.00  0.00     0.013 C 
ATOM     10  C3' I4B d   1      -5.783  -0.947  -3.686  0.00  0.00     0.013 C 
ENDBRANCH   7   8
ENDBRANCH   1   7
TORSDOF 2
ENDMDL
