MODEL 1
REMARK minimizedAffinity -0.707698107
REMARK minimizedRMSD -1
REMARK  2 active torsions:
REMARK  status: ('A' for Active; 'I' for Inactive)
REMARK    1  A    between atoms: C2'_3  and  C1'_4 
REMARK    2  A    between atoms: C1'_4  and  C1_5 
ROOT
ATOM      1  C1  I4B d   1      -4.563  -4.673  -4.496  0.00  0.00    -0.075 A 
ATOM      2  C2  I4B d   1      -3.516  -4.609  -3.612  0.00  0.00     0.003 A 
ATOM      3  C3  I4B d   1      -2.284  -5.237  -3.919  0.00  0.00     0.002 A 
ATOM      4  C4  I4B d   1      -2.162  -5.955  -5.091  0.00  0.00    -0.004 A 
ATOM      5  C5  I4B d   1      -3.217  -5.999  -5.997  0.00  0.00     0.002 A 
ATOM      6  C6  I4B d   1      -4.422  -5.343  -5.704  0.00  0.00     0.003 A 
ENDROOT
BRANCH   1   7
ATOM      7  C1' I4B d   1      -5.860  -4.026  -4.125  0.00  0.00     0.060 C 
BRANCH   7   8
ATOM      8  C2' I4B d   1      -5.969  -2.724  -4.892  0.00  0.00    -0.013 C 
ATOM      9  C4' I4B d   1      -6.000  -1.542  -3.958  0.00  0.00     0.013 C 
ATOM     10  C3' I4B d   1      -4.803  -2.641  -5.831  0.00  0.00     0.013 C 
ENDBRANCH   7   8
ENDBRANCH   1   7
TORSDOF 2
ENDMDL
