MODEL 1
REMARK minimizedAffinity -2.15405917
REMARK minimizedRMSD -1
REMARK  0 active torsions:
REMARK  status: ('A' for Active; 'I' for Inactive)
ROOT
ATOM      1  C   UNL d   1       5.043   5.423  -5.993  0.00  0.00     0.020 A 
ATOM      2  C1  UNL d   1       5.842   4.280  -5.998  0.00  0.00     0.020 A 
ATOM      3  C2  UNL d   1       5.265   3.024  -5.800  0.00  0.00     0.034 A 
ATOM      4  C3  UNL d   1       3.885   2.908  -5.597  0.00  0.00     0.017 A 
ATOM      5  C4  UNL d   1       3.084   4.055  -5.592  0.00  0.00     0.017 A 
ATOM      6  C5  UNL d   1       3.667   5.311  -5.791  0.00  0.00     0.034 A 
ATOM      7 Cl   UNL d   1       1.374   3.991  -5.348  0.00  0.00    -0.070 Cl
ATOM      8 Cl1  UNL d   1       3.239   1.323  -5.359  0.00  0.00    -0.070 Cl
ENDROOT
TORSDOF 0
ENDMDL
