MODEL 1
REMARK minimizedAffinity -1.88195908
REMARK minimizedRMSD -1
REMARK  0 active torsions:
REMARK  status: ('A' for Active; 'I' for Inactive)
ROOT
ATOM      1  C   UNL d   1       2.422   5.894  -5.697  0.00  0.00     0.020 A 
ATOM      2  C1  UNL d   1       1.545   4.932  -5.197  0.00  0.00     0.020 A 
ATOM      3  C2  UNL d   1       2.003   3.638  -4.937  0.00  0.00     0.034 A 
ATOM      4  C3  UNL d   1       3.340   3.303  -5.177  0.00  0.00     0.017 A 
ATOM      5  C4  UNL d   1       4.220   4.269  -5.678  0.00  0.00     0.017 A 
ATOM      6  C5  UNL d   1       3.757   5.563  -5.937  0.00  0.00     0.034 A 
ATOM      7 Cl   UNL d   1       5.884   3.931  -5.999  0.00  0.00    -0.070 Cl
ATOM      8 Cl1  UNL d   1       3.837   1.684  -4.832  0.00  0.00    -0.070 Cl
ENDROOT
TORSDOF 0
ENDMDL
