MODEL 1
REMARK minimizedAffinity -0.516448855
REMARK minimizedRMSD -1
REMARK  0 active torsions:
REMARK  status: ('A' for Active; 'I' for Inactive)
ROOT
ATOM      1  C   UNL d   1       5.078   4.946  -5.984  0.00  0.00     0.020 A 
ATOM      2  C1  UNL d   1       4.166   6.000  -6.000  0.00  0.00     0.020 A 
ATOM      3  C2  UNL d   1       2.794   5.736  -5.985  0.00  0.00     0.034 A 
ATOM      4  C3  UNL d   1       2.332   4.416  -5.954  0.00  0.00     0.017 A 
ATOM      5  C4  UNL d   1       3.249   3.358  -5.939  0.00  0.00     0.017 A 
ATOM      6  C5  UNL d   1       4.621   3.628  -5.954  0.00  0.00     0.034 A 
ATOM      7 Cl   UNL d   1       2.754   1.703  -5.901  0.00  0.00    -0.070 Cl
ATOM      8 Cl1  UNL d   1       0.623   4.163  -5.937  0.00  0.00    -0.070 Cl
ENDROOT
TORSDOF 0
ENDMDL
