MODEL 1
REMARK minimizedAffinity -2.41080523
REMARK minimizedRMSD -1
REMARK  0 active torsions:
REMARK  status: ('A' for Active; 'I' for Inactive)
ROOT
ATOM      1  C   UNL d   1       0.996   4.932  -5.742  0.00  0.00     0.020 A 
ATOM      2  C1  UNL d   1       1.879   5.995  -5.923  0.00  0.00     0.020 A 
ATOM      3  C2  UNL d   1       3.253   5.756  -5.999  0.00  0.00     0.034 A 
ATOM      4  C3  UNL d   1       3.747   4.450  -5.895  0.00  0.00     0.017 A 
ATOM      5  C4  UNL d   1       2.859   3.384  -5.714  0.00  0.00     0.017 A 
ATOM      6  C5  UNL d   1       1.484   3.629  -5.638  0.00  0.00     0.034 A 
ATOM      7 Cl   UNL d   1       3.393   1.746  -5.577  0.00  0.00    -0.070 Cl
ATOM      8 Cl1  UNL d   1       5.457   4.228  -5.999  0.00  0.00    -0.070 Cl
ENDROOT
TORSDOF 0
ENDMDL
