MODEL 1
REMARK minimizedAffinity 0.0287792254
REMARK minimizedRMSD -1
REMARK  0 active torsions:
REMARK  status: ('A' for Active; 'I' for Inactive)
ROOT
ATOM      1  C   UNL d   1       5.990   4.086  -5.998  0.00  0.00     0.020 A 
ATOM      2  C1  UNL d   1       5.214   5.244  -5.984  0.00  0.00     0.020 A 
ATOM      3  C2  UNL d   1       3.823   5.152  -5.897  0.00  0.00     0.034 A 
ATOM      4  C3  UNL d   1       3.204   3.899  -5.823  0.00  0.00     0.017 A 
ATOM      5  C4  UNL d   1       3.984   2.737  -5.837  0.00  0.00     0.017 A 
ATOM      6  C5  UNL d   1       5.376   2.835  -5.924  0.00  0.00     0.034 A 
ATOM      7 Cl   UNL d   1       3.292   1.155  -5.749  0.00  0.00    -0.070 Cl
ATOM      8 Cl1  UNL d   1       1.480   3.860  -5.716  0.00  0.00    -0.070 Cl
ENDROOT
TORSDOF 0
ENDMDL
