MODEL 1
REMARK minimizedAffinity -1.38086164
REMARK minimizedRMSD -1
REMARK  0 active torsions:
REMARK  status: ('A' for Active; 'I' for Inactive)
ROOT
ATOM      1  C   UNL d   1       5.525   3.246   2.058  0.00  0.00     0.020 A 
ATOM      2  C1  UNL d   1       4.205   3.443   1.654  0.00  0.00     0.020 A 
ATOM      3  C2  UNL d   1       3.359   2.347   1.472  0.00  0.00     0.034 A 
ATOM      4  C3  UNL d   1       3.833   1.048   1.694  0.00  0.00     0.017 A 
ATOM      5  C4  UNL d   1       5.158   0.852   2.099  0.00  0.00     0.017 A 
ATOM      6  C5  UNL d   1       6.000   1.953   2.280  0.00  0.00     0.034 A 
ATOM      7 Cl   UNL d   1       5.813  -0.720   2.393  0.00  0.00    -0.070 Cl
ATOM      8 Cl1  UNL d   1       2.732  -0.261   1.450  0.00  0.00    -0.070 Cl
ENDROOT
TORSDOF 0
ENDMDL
