MODEL 1
REMARK minimizedAffinity -1.72751343
REMARK minimizedRMSD -1
REMARK  0 active torsions:
REMARK  status: ('A' for Active; 'I' for Inactive)
ROOT
ATOM      1  C   UNL d   1       5.256   5.007  -5.996  0.00  0.00     0.020 A 
ATOM      2  C1  UNL d   1       5.959   3.818  -5.808  0.00  0.00     0.020 A 
ATOM      3  C2  UNL d   1       5.275   2.647  -5.473  0.00  0.00     0.034 A 
ATOM      4  C3  UNL d   1       3.883   2.664  -5.325  0.00  0.00     0.017 A 
ATOM      5  C4  UNL d   1       3.178   3.858  -5.514  0.00  0.00     0.017 A 
ATOM      6  C5  UNL d   1       3.868   5.027  -5.850  0.00  0.00     0.034 A 
ATOM      7 Cl   UNL d   1       1.460   3.956  -5.349  0.00  0.00    -0.070 Cl
ATOM      8 Cl1  UNL d   1       3.102   1.180  -4.909  0.00  0.00    -0.070 Cl
ENDROOT
TORSDOF 0
ENDMDL
