MODEL 1
REMARK minimizedAffinity -0.761962891
REMARK minimizedRMSD -1
REMARK  0 active torsions:
REMARK  status: ('A' for Active; 'I' for Inactive)
ROOT
ATOM      1  C   UNL d   1       1.523   4.992  -5.439  0.00  0.00     0.020 A 
ATOM      2  C1  UNL d   1       2.402   6.000  -5.833  0.00  0.00     0.020 A 
ATOM      3  C2  UNL d   1       3.759   5.717  -6.000  0.00  0.00     0.034 A 
ATOM      4  C3  UNL d   1       4.241   4.422  -5.773  0.00  0.00     0.017 A 
ATOM      5  C4  UNL d   1       3.358   3.411  -5.378  0.00  0.00     0.017 A 
ATOM      6  C5  UNL d   1       2.000   3.700  -5.212  0.00  0.00     0.034 A 
ATOM      7 Cl   UNL d   1       3.878   1.790  -5.080  0.00  0.00    -0.070 Cl
ATOM      8 Cl1  UNL d   1       5.931   4.143  -6.000  0.00  0.00    -0.070 Cl
ENDROOT
TORSDOF 0
ENDMDL
