MODEL 1
REMARK minimizedAffinity 0.994504094
REMARK minimizedRMSD -1
REMARK  0 active torsions:
REMARK  status: ('A' for Active; 'I' for Inactive)
ROOT
ATOM      1  C   UNL d   1       5.191   5.349  -6.000  0.00  0.00     0.020 A 
ATOM      2  C1  UNL d   1       5.933   4.169  -5.998  0.00  0.00     0.020 A 
ATOM      3  C2  UNL d   1       5.302   2.948  -5.749  0.00  0.00     0.034 A 
ATOM      4  C3  UNL d   1       3.925   2.905  -5.501  0.00  0.00     0.017 A 
ATOM      5  C4  UNL d   1       3.181   4.091  -5.503  0.00  0.00     0.017 A 
ATOM      6  C5  UNL d   1       3.818   5.310  -5.753  0.00  0.00     0.034 A 
ATOM      7 Cl   UNL d   1       1.479   4.117  -5.205  0.00  0.00    -0.070 Cl
ATOM      8 Cl1  UNL d   1       3.210   1.361  -5.201  0.00  0.00    -0.070 Cl
ENDROOT
TORSDOF 0
ENDMDL
