MODEL 1
REMARK minimizedAffinity -1.02521563
REMARK minimizedRMSD -1
REMARK  0 active torsions:
REMARK  status: ('A' for Active; 'I' for Inactive)
ROOT
ATOM      1  C   UNL d   1       4.481   5.652  -5.996  0.00  0.00     0.020 A 
ATOM      2  C1  UNL d   1       5.476   4.676  -5.999  0.00  0.00     0.020 A 
ATOM      3  C2  UNL d   1       5.128   3.323  -6.000  0.00  0.00     0.034 A 
ATOM      4  C3  UNL d   1       3.781   2.944  -5.997  0.00  0.00     0.017 A 
ATOM      5  C4  UNL d   1       2.782   3.924  -5.994  0.00  0.00     0.017 A 
ATOM      6  C5  UNL d   1       3.137   5.277  -5.994  0.00  0.00     0.034 A 
ATOM      7 Cl   UNL d   1       1.099   3.533  -5.992  0.00  0.00    -0.070 Cl
ATOM      8 Cl1  UNL d   1       3.422   1.253  -5.999  0.00  0.00    -0.070 Cl
ENDROOT
TORSDOF 0
ENDMDL
