MODEL 1
REMARK minimizedAffinity -2.56863046
REMARK minimizedRMSD -1
REMARK  0 active torsions:
REMARK  status: ('A' for Active; 'I' for Inactive)
ROOT
ATOM      1  C   UNL d   1       2.261   6.000  -5.907  0.00  0.00     0.020 A 
ATOM      2  C1  UNL d   1       1.428   4.926  -5.596  0.00  0.00     0.020 A 
ATOM      3  C2  UNL d   1       1.974   3.659  -5.379  0.00  0.00     0.034 A 
ATOM      4  C3  UNL d   1       3.357   3.463  -5.471  0.00  0.00     0.017 A 
ATOM      5  C4  UNL d   1       4.192   4.541  -5.783  0.00  0.00     0.017 A 
ATOM      6  C5  UNL d   1       3.640   5.808  -6.000  0.00  0.00     0.034 A 
ATOM      7 Cl   UNL d   1       5.908   4.377  -5.914  0.00  0.00    -0.070 Cl
ATOM      8 Cl1  UNL d   1       3.963   1.869  -5.189  0.00  0.00    -0.070 Cl
ENDROOT
TORSDOF 0
ENDMDL
