MODEL 1
REMARK minimizedAffinity 6.57417059
REMARK minimizedRMSD -1
REMARK  0 active torsions:
REMARK  status: ('A' for Active; 'I' for Inactive)
ROOT
ATOM      1  C   UNL d   1      -1.985   3.447   2.690  0.00  0.00     0.020 A 
ATOM      2  C1  UNL d   1      -0.728   3.048   2.236  0.00  0.00     0.020 A 
ATOM      3  C2  UNL d   1      -0.355   3.291   0.913  0.00  0.00     0.034 A 
ATOM      4  C3  UNL d   1      -1.239   3.934   0.039  0.00  0.00     0.017 A 
ATOM      5  C4  UNL d   1      -2.500   4.334   0.496  0.00  0.00     0.017 A 
ATOM      6  C5  UNL d   1      -2.869   4.088   1.822  0.00  0.00     0.034 A 
ATOM      7 Cl   UNL d   1      -3.645   5.132  -0.524  0.00  0.00    -0.070 Cl
ATOM      8 Cl1  UNL d   1      -0.712   4.202  -1.585  0.00  0.00    -0.070 Cl
ENDROOT
TORSDOF 0
ENDMDL
