MODEL 1
REMARK minimizedAffinity -1.75914574
REMARK minimizedRMSD -1
REMARK  0 active torsions:
REMARK  status: ('A' for Active; 'I' for Inactive)
ROOT
ATOM      1  C   UNL d   1       4.081   1.909  -5.937  0.00  0.00     0.020 A 
ATOM      2  C1  UNL d   1       5.448   2.050  -5.702  0.00  0.00     0.020 A 
ATOM      3  C2  UNL d   1       6.000   3.321  -5.529  0.00  0.00     0.034 A 
ATOM      4  C3  UNL d   1       5.184   4.457  -5.592  0.00  0.00     0.017 A 
ATOM      5  C4  UNL d   1       3.812   4.315  -5.828  0.00  0.00     0.017 A 
ATOM      6  C5  UNL d   1       3.265   3.040  -6.000  0.00  0.00     0.034 A 
ATOM      7 Cl   UNL d   1       2.742   5.669  -5.919  0.00  0.00    -0.070 Cl
ATOM      8 Cl1  UNL d   1       5.934   5.998  -5.369  0.00  0.00    -0.070 Cl
ENDROOT
TORSDOF 0
ENDMDL
