MODEL 1
REMARK minimizedAffinity 3.44377303
REMARK minimizedRMSD -1
REMARK  0 active torsions:
REMARK  status: ('A' for Active; 'I' for Inactive)
ROOT
ATOM      1  C   UNL d   1       3.489   1.282   1.233  0.00  0.00     0.020 A 
ATOM      2  C1  UNL d   1       3.000   0.171   1.921  0.00  0.00     0.020 A 
ATOM      3  C2  UNL d   1       1.715   0.199   2.468  0.00  0.00     0.034 A 
ATOM      4  C3  UNL d   1       0.915   1.339   2.329  0.00  0.00     0.017 A 
ATOM      5  C4  UNL d   1       1.407   2.453   1.638  0.00  0.00     0.017 A 
ATOM      6  C5  UNL d   1       2.694   2.420   1.092  0.00  0.00     0.034 A 
ATOM      7 Cl   UNL d   1       0.478   3.895   1.425  0.00  0.00    -0.070 Cl
ATOM      8 Cl1  UNL d   1      -0.663   1.303   3.030  0.00  0.00    -0.070 Cl
ENDROOT
TORSDOF 0
ENDMDL
