MODEL 1
REMARK minimizedAffinity 5.9231267
REMARK minimizedRMSD -1
REMARK  0 active torsions:
REMARK  status: ('A' for Active; 'I' for Inactive)
ROOT
ATOM      1  C   UNL d   1       1.440   1.271  -0.057  0.00  0.00     0.020 A 
ATOM      2  C1  UNL d   1       1.626  -0.071   0.273  0.00  0.00     0.020 A 
ATOM      3  C2  UNL d   1       2.748  -0.461   1.006  0.00  0.00     0.034 A 
ATOM      4  C3  UNL d   1       3.690   0.492   1.412  0.00  0.00     0.017 A 
ATOM      5  C4  UNL d   1       3.503   1.838   1.081  0.00  0.00     0.017 A 
ATOM      6  C5  UNL d   1       2.377   2.224   0.346  0.00  0.00     0.034 A 
ATOM      7 Cl   UNL d   1       4.621   3.071   1.547  0.00  0.00    -0.070 Cl
ATOM      8 Cl1  UNL d   1       5.054  -0.062   2.317  0.00  0.00    -0.070 Cl
ENDROOT
TORSDOF 0
ENDMDL
