MODEL 1
REMARK minimizedAffinity 2.56602502
REMARK minimizedRMSD -1
REMARK  0 active torsions:
REMARK  status: ('A' for Active; 'I' for Inactive)
ROOT
ATOM      1  C   UNL d   1       0.278  -2.248   0.318  0.00  0.00     0.020 A 
ATOM      2  C1  UNL d   1      -0.847  -1.597   0.823  0.00  0.00     0.020 A 
ATOM      3  C2  UNL d   1      -0.699  -0.425   1.569  0.00  0.00     0.034 A 
ATOM      4  C3  UNL d   1       0.576   0.099   1.811  0.00  0.00     0.017 A 
ATOM      5  C4  UNL d   1       1.704  -0.556   1.304  0.00  0.00     0.017 A 
ATOM      6  C5  UNL d   1       1.551  -1.729   0.558  0.00  0.00     0.034 A 
ATOM      7 Cl   UNL d   1       3.310   0.030   1.561  0.00  0.00    -0.070 Cl
ATOM      8 Cl1  UNL d   1       0.684   1.551   2.741  0.00  0.00    -0.070 Cl
ENDROOT
TORSDOF 0
ENDMDL
