MODEL 1
REMARK minimizedAffinity 3.65743732
REMARK minimizedRMSD -1
REMARK  0 active torsions:
REMARK  status: ('A' for Active; 'I' for Inactive)
ROOT
ATOM      1  C   UNL d   1       2.895   1.041   0.740  0.00  0.00     0.020 A 
ATOM      2  C1  UNL d   1       1.887   1.032   1.703  0.00  0.00     0.020 A 
ATOM      3  C2  UNL d   1       2.140   0.510   2.974  0.00  0.00     0.034 A 
ATOM      4  C3  UNL d   1       3.404  -0.005   3.284  0.00  0.00     0.017 A 
ATOM      5  C4  UNL d   1       4.415   0.005   2.317  0.00  0.00     0.017 A 
ATOM      6  C5  UNL d   1       4.157   0.529   1.046  0.00  0.00     0.034 A 
ATOM      7 Cl   UNL d   1       6.000  -0.612   2.626  0.00  0.00    -0.070 Cl
ATOM      8 Cl1  UNL d   1       3.647  -0.634   4.875  0.00  0.00    -0.070 Cl
ENDROOT
TORSDOF 0
ENDMDL
