MODEL 1
REMARK minimizedAffinity -0.309939533
REMARK minimizedRMSD -1
REMARK  0 active torsions:
REMARK  status: ('A' for Active; 'I' for Inactive)
ROOT
ATOM      1  C   UNL d   1       4.607   5.164  -5.991  0.00  0.00     0.020 A 
ATOM      2  C1  UNL d   1       3.486   5.993  -5.988  0.00  0.00     0.020 A 
ATOM      3  C2  UNL d   1       2.206   5.436  -5.988  0.00  0.00     0.034 A 
ATOM      4  C3  UNL d   1       2.043   4.046  -5.991  0.00  0.00     0.017 A 
ATOM      5  C4  UNL d   1       3.169   3.215  -5.995  0.00  0.00     0.017 A 
ATOM      6  C5  UNL d   1       4.448   3.778  -5.995  0.00  0.00     0.034 A 
ATOM      7 Cl   UNL d   1       3.048   1.491  -5.999  0.00  0.00    -0.070 Cl
ATOM      8 Cl1  UNL d   1       0.430   3.426  -5.991  0.00  0.00    -0.070 Cl
ENDROOT
TORSDOF 0
ENDMDL
