MODEL 1
REMARK minimizedAffinity 14.8714895
REMARK minimizedRMSD -1
REMARK  0 active torsions:
REMARK  status: ('A' for Active; 'I' for Inactive)
ROOT
ATOM      1  C   UNL d   1      -2.124  -0.987  -2.316  0.00  0.00     0.020 A 
ATOM      2  C1  UNL d   1      -2.457  -1.964  -3.254  0.00  0.00     0.020 A 
ATOM      3  C2  UNL d   1      -1.930  -3.252  -3.137  0.00  0.00     0.034 A 
ATOM      4  C3  UNL d   1      -1.068  -3.567  -2.081  0.00  0.00     0.017 A 
ATOM      5  C4  UNL d   1      -0.735  -2.586  -1.140  0.00  0.00     0.017 A 
ATOM      6  C5  UNL d   1      -1.265  -1.298  -1.261  0.00  0.00     0.034 A 
ATOM      7 Cl   UNL d   1       0.323  -2.899   0.191  0.00  0.00    -0.070 Cl
ATOM      8 Cl1  UNL d   1      -0.455  -5.180  -1.998  0.00  0.00    -0.070 Cl
ENDROOT
TORSDOF 0
ENDMDL
