MODEL 1
REMARK minimizedAffinity 3.85108662
REMARK minimizedRMSD -1
REMARK  1 active torsions:
REMARK  status: ('A' for Active; 'I' for Inactive)
REMARK    1  A    between atoms: C1_2  and  C2_3 
ROOT
ATOM      1  C2  UNL d   1      -4.581   2.797  -5.308  0.00  0.00    -0.073 A 
ATOM      2  C3  UNL d   1      -3.345   2.740  -5.963  0.00  0.00    -0.002 A 
ATOM      3  C4  UNL d   1      -2.622   1.547  -6.000  0.00  0.00     0.004 A 
ATOM      4  C5  UNL d   1      -3.128   0.400  -5.389  0.00  0.00    -0.004 A 
ATOM      5  C6  UNL d   1      -4.366   0.434  -4.740  0.00  0.00    -0.075 A 
ATOM      6  C7  UNL d   1      -4.924  -0.791  -4.077  0.00  0.00     0.076 C 
ATOM      7  C8  UNL d   1      -5.086   1.636  -4.705  0.00  0.00     0.001 A 
ENDROOT
BRANCH   1   8
ATOM      8  C1  UNL d   1      -5.369   4.081  -5.271  0.00  0.00     0.053 C 
ATOM      9  C   UNL d   1      -4.498   5.274  -4.907  0.00  0.00     0.018 C 
ENDBRANCH   1   8
TORSDOF 1
ENDMDL
