MODEL 1
REMARK minimizedAffinity 0.777151525
REMARK minimizedRMSD -1
REMARK  1 active torsions:
REMARK  status: ('A' for Active; 'I' for Inactive)
REMARK    1  A    between atoms: C1_2  and  C2_3 
ROOT
ATOM      1  C2  UNL d   1       1.308  -1.303  -0.435  0.00  0.00    -0.073 A 
ATOM      2  C3  UNL d   1       2.602  -1.724  -0.110  0.00  0.00    -0.002 A 
ATOM      3  C4  UNL d   1       2.908  -2.120   1.193  0.00  0.00     0.004 A 
ATOM      4  C5  UNL d   1       1.923  -2.107   2.180  0.00  0.00    -0.004 A 
ATOM      5  C6  UNL d   1       0.621  -1.700   1.872  0.00  0.00    -0.075 A 
ATOM      6  C7  UNL d   1      -0.450  -1.678   2.923  0.00  0.00     0.076 C 
ATOM      7  C8  UNL d   1       0.322  -1.301   0.562  0.00  0.00     0.001 A 
ENDROOT
BRANCH   1   8
ATOM      8  C1  UNL d   1       0.972  -0.880  -1.842  0.00  0.00     0.053 C 
ATOM      9  C   UNL d   1       1.377   0.559  -2.117  0.00  0.00     0.018 C 
ENDBRANCH   1   8
TORSDOF 1
ENDMDL
