MODEL 1
REMARK minimizedAffinity 5.57941771
REMARK minimizedRMSD -1
REMARK  1 active torsions:
REMARK  status: ('A' for Active; 'I' for Inactive)
REMARK    1  A    between atoms: C1_2  and  C2_3 
ROOT
ATOM      1  C2  UNL d   1      -0.517   0.126   3.251  0.00  0.00    -0.073 A 
ATOM      2  C3  UNL d   1      -0.834  -0.465   2.023  0.00  0.00    -0.002 A 
ATOM      3  C4  UNL d   1       0.018  -1.414   1.456  0.00  0.00     0.004 A 
ATOM      4  C5  UNL d   1       1.191  -1.786   2.114  0.00  0.00    -0.004 A 
ATOM      5  C6  UNL d   1       1.519  -1.215   3.348  0.00  0.00    -0.075 A 
ATOM      6  C7  UNL d   1       2.777  -1.603   4.068  0.00  0.00     0.076 C 
ATOM      7  C8  UNL d   1       0.659  -0.261   3.909  0.00  0.00     0.001 A 
ENDROOT
BRANCH   1   8
ATOM      8  C1  UNL d   1      -1.437   1.147   3.870  0.00  0.00     0.053 C 
ATOM      9  C   UNL d   1      -2.759   1.248   3.125  0.00  0.00     0.018 C 
ENDBRANCH   1   8
TORSDOF 1
ENDMDL
