MODEL 1
REMARK minimizedAffinity 11.0628157
REMARK minimizedRMSD -1
REMARK  1 active torsions:
REMARK  status: ('A' for Active; 'I' for Inactive)
REMARK    1  A    between atoms: C1_2  and  C2_3 
ROOT
ATOM      1  C2  UNL d   1       0.740  -0.977   1.114  0.00  0.00    -0.073 A 
ATOM      2  C3  UNL d   1       1.202  -1.709   2.214  0.00  0.00    -0.002 A 
ATOM      3  C4  UNL d   1       0.537  -1.636   3.439  0.00  0.00     0.004 A 
ATOM      4  C5  UNL d   1      -0.599  -0.838   3.574  0.00  0.00    -0.004 A 
ATOM      5  C6  UNL d   1      -1.084  -0.109   2.484  0.00  0.00    -0.075 A 
ATOM      6  C7  UNL d   1      -2.303   0.755   2.614  0.00  0.00     0.076 C 
ATOM      7  C8  UNL d   1      -0.409  -0.185   1.258  0.00  0.00     0.001 A 
ENDROOT
BRANCH   1   8
ATOM      8  C1  UNL d   1       1.450  -1.057  -0.212  0.00  0.00     0.053 C 
ATOM      9  C   UNL d   1       2.813  -1.722  -0.089  0.00  0.00     0.018 C 
ENDBRANCH   1   8
TORSDOF 1
ENDMDL
