MODEL 1
REMARK minimizedAffinity 1.18753803
REMARK minimizedRMSD -1
REMARK  1 active torsions:
REMARK  status: ('A' for Active; 'I' for Inactive)
REMARK    1  A    between atoms: C1_2  and  C2_3 
ROOT
ATOM      1  C2  UNL d   1       1.271  -1.299   2.005  0.00  0.00    -0.073 A 
ATOM      2  C3  UNL d   1       2.303  -2.226   2.187  0.00  0.00    -0.002 A 
ATOM      3  C4  UNL d   1       3.107  -2.607   1.112  0.00  0.00     0.004 A 
ATOM      4  C5  UNL d   1       2.892  -2.060  -0.153  0.00  0.00    -0.004 A 
ATOM      5  C6  UNL d   1       1.873  -1.123  -0.353  0.00  0.00    -0.075 A 
ATOM      6  C7  UNL d   1       1.628  -0.527  -1.708  0.00  0.00     0.076 C 
ATOM      7  C8  UNL d   1       1.069  -0.748   0.731  0.00  0.00     0.001 A 
ENDROOT
BRANCH   1   8
ATOM      8  C1  UNL d   1       0.404  -0.880   3.164  0.00  0.00     0.053 C 
ATOM      9  C   UNL d   1      -0.961  -0.391   2.708  0.00  0.00     0.018 C 
ENDBRANCH   1   8
TORSDOF 1
ENDMDL
