MODEL 1
REMARK minimizedAffinity -0.674682558
REMARK minimizedRMSD -1
REMARK  1 active torsions:
REMARK  status: ('A' for Active; 'I' for Inactive)
REMARK    1  A    between atoms: C1_2  and  C2_3 
ROOT
ATOM      1  C2  UNL d   1       0.302  -0.756   1.296  0.00  0.00    -0.077 A 
ATOM      2  C3  UNL d   1      -0.894  -0.110   0.955  0.00  0.00     0.002 A 
ATOM      3  C4  UNL d   1      -1.114   0.323  -0.354  0.00  0.00     0.002 A 
ATOM      4  C5  UNL d   1      -0.145   0.111  -1.332  0.00  0.00    -0.004 A 
ATOM      5  C6  UNL d   1       1.049  -0.529  -1.002  0.00  0.00     0.002 A 
ATOM      6  C7  UNL d   1       1.271  -0.962   0.306  0.00  0.00     0.002 A 
ENDROOT
BRANCH   1   7
ATOM      7  C1  UNL d   1       0.521  -1.268   2.696  0.00  0.00     0.055 C 
ATOM      8  C   UNL d   1      -0.368  -2.467   2.993  0.00  0.00     0.019 C 
ENDBRANCH   1   7
TORSDOF 1
ENDMDL
