MODEL 1
REMARK minimizedAffinity 2.08500886
REMARK minimizedRMSD -1
REMARK  1 active torsions:
REMARK  status: ('A' for Active; 'I' for Inactive)
REMARK    1  A    between atoms: C1_2  and  C2_3 
ROOT
ATOM      1  C2  UNL d   1       5.289   0.872   0.367  0.00  0.00    -0.077 A 
ATOM      2  C3  UNL d   1       3.915   1.071   0.173  0.00  0.00     0.002 A 
ATOM      3  C4  UNL d   1       3.266   2.152   0.772  0.00  0.00     0.002 A 
ATOM      4  C5  UNL d   1       3.984   3.045   1.566  0.00  0.00    -0.004 A 
ATOM      5  C6  UNL d   1       5.350   2.854   1.767  0.00  0.00     0.002 A 
ATOM      6  C7  UNL d   1       6.000   1.773   1.170  0.00  0.00     0.002 A 
ENDROOT
BRANCH   1   7
ATOM      7  C1  UNL d   1       6.000  -0.266  -0.318  0.00  0.00     0.055 C 
ATOM      8  C   UNL d   1       5.969  -1.529   0.530  0.00  0.00     0.019 C 
ENDBRANCH   1   7
TORSDOF 1
ENDMDL
