MODEL 1
REMARK minimizedAffinity -0.943261206
REMARK minimizedRMSD -1
REMARK  1 active torsions:
REMARK  status: ('A' for Active; 'I' for Inactive)
REMARK    1  A    between atoms: C1_2  and  C2_3 
ROOT
ATOM      1  C2  UNL d   1       0.464  -1.853   0.984  0.00  0.00    -0.077 A 
ATOM      2  C3  UNL d   1      -0.326  -1.062   0.139  0.00  0.00     0.002 A 
ATOM      3  C4  UNL d   1      -1.441  -0.389   0.641  0.00  0.00     0.002 A 
ATOM      4  C5  UNL d   1      -1.775  -0.498   1.989  0.00  0.00    -0.004 A 
ATOM      5  C6  UNL d   1      -0.996  -1.285   2.837  0.00  0.00     0.002 A 
ATOM      6  C7  UNL d   1       0.119  -1.959   2.337  0.00  0.00     0.002 A 
ENDROOT
BRANCH   1   7
ATOM      7  C1  UNL d   1       1.697  -2.540   0.455  0.00  0.00     0.055 C 
ATOM      8  C   UNL d   1       2.083  -3.729   1.323  0.00  0.00     0.019 C 
ENDBRANCH   1   7
TORSDOF 1
ENDMDL
