MODEL 1
REMARK minimizedAffinity 4.0358243
REMARK minimizedRMSD -1
REMARK  1 active torsions:
REMARK  status: ('A' for Active; 'I' for Inactive)
REMARK    1  A    between atoms: C1_2  and  C2_3 
ROOT
ATOM      1  C2  UNL d   1       0.038  -1.047   0.936  0.00  0.00    -0.077 A 
ATOM      2  C3  UNL d   1      -0.174  -0.960   2.319  0.00  0.00     0.002 A 
ATOM      3  C4  UNL d   1      -1.367  -0.434   2.819  0.00  0.00     0.002 A 
ATOM      4  C5  UNL d   1      -2.358   0.006   1.943  0.00  0.00    -0.004 A 
ATOM      5  C6  UNL d   1      -2.155  -0.075   0.566  0.00  0.00     0.002 A 
ATOM      6  C7  UNL d   1      -0.964  -0.600   0.065  0.00  0.00     0.002 A 
ENDROOT
BRANCH   1   7
ATOM      7  C1  UNL d   1       1.303  -1.660   0.395  0.00  0.00     0.055 C 
ATOM      8  C   UNL d   1       1.669  -2.931   1.148  0.00  0.00     0.019 C 
ENDBRANCH   1   7
TORSDOF 1
ENDMDL
