MODEL 1
REMARK minimizedAffinity -0.9619385
REMARK minimizedRMSD -1
REMARK  1 active torsions:
REMARK  status: ('A' for Active; 'I' for Inactive)
REMARK    1  A    between atoms: C1_2  and  C2_3 
ROOT
ATOM      1  C2  UNL d   1      -0.116  -0.749   0.544  0.00  0.00    -0.077 A 
ATOM      2  C3  UNL d   1      -0.187  -1.479   1.739  0.00  0.00     0.002 A 
ATOM      3  C4  UNL d   1       0.697  -1.208   2.785  0.00  0.00     0.002 A 
ATOM      4  C5  UNL d   1       1.653  -0.204   2.649  0.00  0.00    -0.004 A 
ATOM      5  C6  UNL d   1       1.733   0.526   1.464  0.00  0.00     0.002 A 
ATOM      6  C7  UNL d   1       0.851   0.255   0.416  0.00  0.00     0.002 A 
ENDROOT
BRANCH   1   7
ATOM      7  C1  UNL d   1      -1.100  -1.007  -0.567  0.00  0.00     0.055 C 
ATOM      8  C   UNL d   1      -2.332  -1.741  -0.057  0.00  0.00     0.019 C 
ENDBRANCH   1   7
TORSDOF 1
ENDMDL
