MODEL 1
REMARK minimizedAffinity 4.97632885
REMARK minimizedRMSD -1
REMARK  0 active torsions:
REMARK  status: ('A' for Active; 'I' for Inactive)
ROOT
ATOM      1  O1  BZF d   1       0.253   1.490  -0.551  0.00  0.00    -0.204 OA
ATOM      2  C2  BZF d   1       1.305   0.601  -0.662  0.00  0.00     0.174 A 
ATOM      3  C3  BZF d   1       1.718   0.195   0.556  0.00  0.00    -0.012 A 
ATOM      4  C3A BZF d   1       0.812   0.801   1.483  0.00  0.00    -0.107 A 
ATOM      5  C4  BZF d   1       0.696   0.764   2.843  0.00  0.00     0.055 A 
ATOM      6  C5  BZF d   1      -0.253   1.527   3.446  0.00  0.00    -0.016 A 
ATOM      7  C6  BZF d   1      -1.097   2.343   2.721  0.00  0.00     0.022 A 
ATOM      8  C7  BZF d   1      -1.022   2.411   1.370  0.00  0.00     0.029 A 
ATOM      9  C7A BZF d   1      -0.086   1.615   0.755  0.00  0.00     0.058 A 
ENDROOT
TORSDOF 0
ENDMDL
