MODEL 1
REMARK minimizedAffinity 15.453434
REMARK minimizedRMSD -1
REMARK  0 active torsions:
REMARK  status: ('A' for Active; 'I' for Inactive)
ROOT
ATOM      1  O1  BZF d   1      -5.257   1.694  -0.436  0.00  0.00    -0.204 OA
ATOM      2  C2  BZF d   1      -5.258   0.314  -0.373  0.00  0.00     0.174 A 
ATOM      3  C3  BZF d   1      -5.545  -0.220  -1.578  0.00  0.00    -0.012 A 
ATOM      4  C3A BZF d   1      -5.645   0.894  -2.469  0.00  0.00    -0.107 A 
ATOM      5  C4  BZF d   1      -5.897   1.007  -3.807  0.00  0.00     0.055 A 
ATOM      6  C5  BZF d   1      -5.999   2.245  -4.357  0.00  0.00    -0.016 A 
ATOM      7  C6  BZF d   1      -5.861   3.390  -3.601  0.00  0.00     0.022 A 
ATOM      8  C7  BZF d   1      -5.605   3.329  -2.271  0.00  0.00     0.029 A 
ATOM      9  C7A BZF d   1      -5.469   2.079  -1.718  0.00  0.00     0.058 A 
ENDROOT
TORSDOF 0
ENDMDL
