MODEL 1
REMARK minimizedAffinity 9.40470123
REMARK minimizedRMSD -1
REMARK  0 active torsions:
REMARK  status: ('A' for Active; 'I' for Inactive)
ROOT
ATOM      1  O1  BZF d   1       3.209  -1.949   0.805  0.00  0.00    -0.204 OA
ATOM      2  C2  BZF d   1       2.202  -2.221  -0.101  0.00  0.00     0.174 A 
ATOM      3  C3  BZF d   1       2.176  -1.294  -1.080  0.00  0.00    -0.012 A 
ATOM      4  C3A BZF d   1       3.291  -0.437  -0.817  0.00  0.00    -0.107 A 
ATOM      5  C4  BZF d   1       3.800   0.662  -1.448  0.00  0.00     0.055 A 
ATOM      6  C5  BZF d   1       4.856   1.312  -0.893  0.00  0.00    -0.016 A 
ATOM      7  C6  BZF d   1       5.423   0.895   0.294  0.00  0.00     0.022 A 
ATOM      8  C7  BZF d   1       4.956  -0.192   0.954  0.00  0.00     0.029 A 
ATOM      9  C7A BZF d   1       3.910  -0.871   0.378  0.00  0.00     0.058 A 
ENDROOT
TORSDOF 0
ENDMDL
