MODEL 1
REMARK minimizedAffinity 8.94238663
REMARK minimizedRMSD -1
REMARK  0 active torsions:
REMARK  status: ('A' for Active; 'I' for Inactive)
ROOT
ATOM      1  O1  BZF d   1      -5.863   0.511  -2.496  0.00  0.00    -0.204 OA
ATOM      2  C2  BZF d   1      -6.000   0.384  -1.127  0.00  0.00     0.174 A 
ATOM      3  C3  BZF d   1      -5.997   1.594  -0.532  0.00  0.00    -0.012 A 
ATOM      4  C3A BZF d   1      -5.941   2.540  -1.604  0.00  0.00    -0.107 A 
ATOM      5  C4  BZF d   1      -5.927   3.905  -1.651  0.00  0.00     0.055 A 
ATOM      6  C5  BZF d   1      -5.794   4.523  -2.855  0.00  0.00    -0.016 A 
ATOM      7  C6  BZF d   1      -5.667   3.808  -4.028  0.00  0.00     0.022 A 
ATOM      8  C7  BZF d   1      -5.680   2.452  -4.031  0.00  0.00     0.029 A 
ATOM      9  C7A BZF d   1      -5.848   1.826  -2.820  0.00  0.00     0.058 A 
ENDROOT
TORSDOF 0
ENDMDL
