MODEL 1
REMARK minimizedAffinity 5.44895744
REMARK minimizedRMSD -1
REMARK  0 active torsions:
REMARK  status: ('A' for Active; 'I' for Inactive)
ROOT
ATOM      1  O1  BZF d   1       4.818   1.406   0.381  0.00  0.00    -0.204 OA
ATOM      2  C2  BZF d   1       5.819   2.142  -0.223  0.00  0.00     0.174 A 
ATOM      3  C3  BZF d   1       5.999   1.746  -1.500  0.00  0.00    -0.012 A 
ATOM      4  C3A BZF d   1       4.988   0.761  -1.735  0.00  0.00    -0.107 A 
ATOM      5  C4  BZF d   1       4.642   0.010  -2.822  0.00  0.00     0.055 A 
ATOM      6  C5  BZF d   1       3.653  -0.913  -2.700  0.00  0.00    -0.016 A 
ATOM      7  C6  BZF d   1       2.991  -1.115  -1.506  0.00  0.00     0.022 A 
ATOM      8  C7  BZF d   1       3.295  -0.390  -0.401  0.00  0.00     0.029 A 
ATOM      9  C7A BZF d   1       4.272   0.566  -0.530  0.00  0.00     0.058 A 
ENDROOT
TORSDOF 0
ENDMDL
