MODEL 1
REMARK minimizedAffinity 13.3220797
REMARK minimizedRMSD -1
REMARK  0 active torsions:
REMARK  status: ('A' for Active; 'I' for Inactive)
ROOT
ATOM      1  O1  BZF d   1       2.295   1.471  -0.721  0.00  0.00    -0.204 OA
ATOM      2  C2  BZF d   1       3.544   1.439  -0.130  0.00  0.00     0.174 A 
ATOM      3  C3  BZF d   1       3.440   1.516   1.212  0.00  0.00    -0.012 A 
ATOM      4  C3A BZF d   1       2.035   1.507   1.482  0.00  0.00    -0.107 A 
ATOM      5  C4  BZF d   1       1.300   1.546   2.632  0.00  0.00     0.055 A 
ATOM      6  C5  BZF d   1      -0.055   1.598   2.548  0.00  0.00    -0.016 A 
ATOM      7  C6  BZF d   1      -0.707   1.616   1.333  0.00  0.00     0.022 A 
ATOM      8  C7  BZF d   1      -0.021   1.574   0.165  0.00  0.00     0.029 A 
ATOM      9  C7A BZF d   1       1.347   1.488   0.247  0.00  0.00     0.058 A 
ENDROOT
TORSDOF 0
ENDMDL
