MODEL 1
REMARK minimizedAffinity 5.56903028
REMARK minimizedRMSD -1
REMARK  1 active torsions:
REMARK  status: ('A' for Active; 'I' for Inactive)
REMARK    1  A    between atoms: C1_2  and  C2_3 
ROOT
ATOM      1  C2  UNL d   1       0.444  -0.684   0.812  0.00  0.00    -0.081 A 
ATOM      2  C3  UNL d   1       0.788   0.581   0.319  0.00  0.00     0.006 A 
ATOM      3  C4  UNL d   1       1.941   0.751  -0.452  0.00  0.00     0.002 A 
ATOM      4  C5  UNL d   1       2.764  -0.340  -0.748  0.00  0.00    -0.080 A 
ATOM      5  C6  UNL d   1       3.988  -0.177  -1.599  0.00  0.00     0.076 C 
ATOM      6  C7  UNL d   1       2.430  -1.601  -0.241  0.00  0.00     0.002 A 
ATOM      7  C8  UNL d   1       1.278  -1.771   0.530  0.00  0.00     0.006 A 
ENDROOT
BRANCH   1   8
ATOM      8  C1  UNL d   1      -0.833  -0.882   1.588  0.00  0.00     0.054 C 
ATOM      9  C   UNL d   1      -1.772   0.304   1.422  0.00  0.00     0.018 C 
ENDBRANCH   1   8
TORSDOF 1
ENDMDL
