MODEL 1
REMARK minimizedAffinity 6.38702822
REMARK minimizedRMSD -1
REMARK  1 active torsions:
REMARK  status: ('A' for Active; 'I' for Inactive)
REMARK    1  A    between atoms: C1_2  and  C2_3 
ROOT
ATOM      1  C2  UNL d   1       1.523  -1.239   0.753  0.00  0.00    -0.081 A 
ATOM      2  C3  UNL d   1       1.992   0.046   0.457  0.00  0.00     0.006 A 
ATOM      3  C4  UNL d   1       2.877   0.250  -0.604  0.00  0.00     0.002 A 
ATOM      4  C5  UNL d   1       3.302  -0.826  -1.391  0.00  0.00    -0.080 A 
ATOM      5  C6  UNL d   1       4.228  -0.616  -2.552  0.00  0.00     0.076 C 
ATOM      6  C7  UNL d   1       2.847  -2.113  -1.085  0.00  0.00     0.002 A 
ATOM      7  C8  UNL d   1       1.962  -2.317  -0.023  0.00  0.00     0.006 A 
ENDROOT
BRANCH   1   8
ATOM      8  C1  UNL d   1       0.517  -1.453   1.856  0.00  0.00     0.054 C 
ATOM      9  C   UNL d   1      -0.851  -0.910   1.470  0.00  0.00     0.018 C 
ENDBRANCH   1   8
TORSDOF 1
ENDMDL
