MODEL 1
REMARK minimizedAffinity -0.0463006198
REMARK minimizedRMSD -1
REMARK  1 active torsions:
REMARK  status: ('A' for Active; 'I' for Inactive)
REMARK    1  A    between atoms: C1_2  and  C2_3 
ROOT
ATOM      1  C2  UNL d   1       2.660  -1.451   2.497  0.00  0.00    -0.081 A 
ATOM      2  C3  UNL d   1       3.748  -1.444   1.616  0.00  0.00     0.006 A 
ATOM      3  C4  UNL d   1       3.564  -1.141   0.265  0.00  0.00     0.002 A 
ATOM      4  C5  UNL d   1       2.291  -0.832  -0.226  0.00  0.00    -0.080 A 
ATOM      5  C6  UNL d   1       2.084  -0.475  -1.668  0.00  0.00     0.076 C 
ATOM      6  C7  UNL d   1       1.201  -0.856   0.650  0.00  0.00     0.002 A 
ATOM      7  C8  UNL d   1       1.384  -1.160   2.001  0.00  0.00     0.006 A 
ENDROOT
BRANCH   1   8
ATOM      8  C1  UNL d   1       2.865  -1.714   3.967  0.00  0.00     0.054 C 
ATOM      9  C   UNL d   1       1.537  -1.775   4.709  0.00  0.00     0.018 C 
ENDBRANCH   1   8
TORSDOF 1
ENDMDL
