MODEL 1
REMARK minimizedAffinity 2.07185936
REMARK minimizedRMSD -1
REMARK  1 active torsions:
REMARK  status: ('A' for Active; 'I' for Inactive)
REMARK    1  A    between atoms: C1_2  and  C2_3 
ROOT
ATOM      1  C2  UNL d   1      -2.996  -4.559   1.458  0.00  0.00    -0.081 A 
ATOM      2  C3  UNL d   1      -4.327  -4.965   1.618  0.00  0.00     0.006 A 
ATOM      3  C4  UNL d   1      -4.788  -5.404   2.861  0.00  0.00     0.002 A 
ATOM      4  C5  UNL d   1      -3.931  -5.438   3.965  0.00  0.00    -0.080 A 
ATOM      5  C6  UNL d   1      -4.422  -5.878   5.312  0.00  0.00     0.076 C 
ATOM      6  C7  UNL d   1      -2.597  -5.049   3.801  0.00  0.00     0.002 A 
ATOM      7  C8  UNL d   1      -2.134  -4.610   2.559  0.00  0.00     0.006 A 
ENDROOT
BRANCH   1   8
ATOM      8  C1  UNL d   1      -2.512  -4.024   0.134  0.00  0.00     0.054 C 
ATOM      9  C   UNL d   1      -2.197  -2.537   0.220  0.00  0.00     0.018 C 
ENDBRANCH   1   8
TORSDOF 1
ENDMDL
