MODEL 1
REMARK minimizedAffinity -1.81958556
REMARK minimizedRMSD -1
REMARK  1 active torsions:
REMARK  status: ('A' for Active; 'I' for Inactive)
REMARK    1  A    between atoms: C1_2  and  C2_3 
ROOT
ATOM      1  C2  UNL d   1      -3.721  -5.907  -0.922  0.00  0.00    -0.081 A 
ATOM      2  C3  UNL d   1      -2.388  -5.940  -1.349  0.00  0.00     0.006 A 
ATOM      3  C4  UNL d   1      -2.081  -5.983  -2.711  0.00  0.00     0.002 A 
ATOM      4  C5  UNL d   1      -3.102  -5.984  -3.668  0.00  0.00    -0.080 A 
ATOM      5  C6  UNL d   1      -2.786  -5.999  -5.134  0.00  0.00     0.076 C 
ATOM      6  C7  UNL d   1      -4.434  -5.968  -3.241  0.00  0.00     0.002 A 
ATOM      7  C8  UNL d   1      -4.741  -5.926  -1.880  0.00  0.00     0.006 A 
ENDROOT
BRANCH   1   8
ATOM      8  C1  UNL d   1      -4.054  -5.795   0.544  0.00  0.00     0.054 C 
ATOM      9  C   UNL d   1      -3.069  -4.889   1.268  0.00  0.00     0.018 C 
ENDBRANCH   1   8
TORSDOF 1
ENDMDL
