MODEL 1
REMARK minimizedAffinity 6.4769721
REMARK minimizedRMSD -1
REMARK  1 active torsions:
REMARK  status: ('A' for Active; 'I' for Inactive)
REMARK    1  A    between atoms: C1_2  and  C2_3 
ROOT
ATOM      1  C2  UNL d   1      -0.950  -2.807   0.423  0.00  0.00    -0.081 A 
ATOM      2  C3  UNL d   1       0.182  -3.258  -0.266  0.00  0.00     0.006 A 
ATOM      3  C4  UNL d   1       1.131  -2.350  -0.740  0.00  0.00     0.002 A 
ATOM      4  C5  UNL d   1       0.969  -0.977  -0.526  0.00  0.00    -0.080 A 
ATOM      5  C6  UNL d   1       1.996   0.007  -1.004  0.00  0.00     0.076 C 
ATOM      6  C7  UNL d   1      -0.171  -0.525   0.147  0.00  0.00     0.002 A 
ATOM      7  C8  UNL d   1      -1.121  -1.432   0.621  0.00  0.00     0.006 A 
ENDROOT
BRANCH   1   8
ATOM      8  C1  UNL d   1      -1.943  -3.788   0.992  0.00  0.00     0.054 C 
ATOM      9  C   UNL d   1      -2.768  -4.441  -0.107  0.00  0.00     0.018 C 
ENDBRANCH   1   8
TORSDOF 1
ENDMDL
