MODEL 1
REMARK minimizedAffinity 8.11897469
REMARK minimizedRMSD -1
REMARK  1 active torsions:
REMARK  status: ('A' for Active; 'I' for Inactive)
REMARK    1  A    between atoms: C1_2  and  C2_3 
ROOT
ATOM      1  C2  UNL d   1       2.261   1.474  -0.515  0.00  0.00    -0.081 A 
ATOM      2  C3  UNL d   1       1.287   2.054   0.307  0.00  0.00     0.006 A 
ATOM      3  C4  UNL d   1       0.134   1.343   0.648  0.00  0.00     0.002 A 
ATOM      4  C5  UNL d   1      -0.060   0.039   0.181  0.00  0.00    -0.080 A 
ATOM      5  C6  UNL d   1      -1.280  -0.746   0.564  0.00  0.00     0.076 C 
ATOM      6  C7  UNL d   1       0.904  -0.534  -0.655  0.00  0.00     0.002 A 
ATOM      7  C8  UNL d   1       2.057   0.176  -0.997  0.00  0.00     0.006 A 
ENDROOT
BRANCH   1   8
ATOM      8  C1  UNL d   1       3.536   2.213  -0.831  0.00  0.00     0.054 C 
ATOM      9  C   UNL d   1       4.625   1.900   0.185  0.00  0.00     0.018 C 
ENDBRANCH   1   8
TORSDOF 1
ENDMDL
