MODEL 1
REMARK minimizedAffinity 2.7487514
REMARK minimizedRMSD -1
REMARK  1 active torsions:
REMARK  status: ('A' for Active; 'I' for Inactive)
REMARK    1  A    between atoms: C1_2  and  C2_3 
ROOT
ATOM      1  C2  UNL d   1      -2.005   1.656  -1.296  0.00  0.00    -0.081 A 
ATOM      2  C3  UNL d   1      -1.691   1.776   0.064  0.00  0.00     0.006 A 
ATOM      3  C4  UNL d   1      -1.746   0.661   0.904  0.00  0.00     0.002 A 
ATOM      4  C5  UNL d   1      -2.107  -0.592   0.398  0.00  0.00    -0.080 A 
ATOM      5  C6  UNL d   1      -2.140  -1.802   1.283  0.00  0.00     0.076 C 
ATOM      6  C7  UNL d   1      -2.437  -0.709  -0.956  0.00  0.00     0.002 A 
ATOM      7  C8  UNL d   1      -2.383   0.405  -1.797  0.00  0.00     0.006 A 
ENDROOT
BRANCH   1   8
ATOM      8  C1  UNL d   1      -1.884   2.842  -2.218  0.00  0.00     0.054 C 
ATOM      9  C   UNL d   1      -0.615   2.766  -3.054  0.00  0.00     0.018 C 
ENDBRANCH   1   8
TORSDOF 1
ENDMDL
