MODEL 1
REMARK minimizedAffinity -2.14765811
REMARK minimizedRMSD -1
REMARK  0 active torsions:
REMARK  status: ('A' for Active; 'I' for Inactive)
ROOT
ATOM      1  C   UNL d   1      -4.503  -5.988  -1.914  0.00  0.00     0.078 C 
ATOM      2  C1  UNL d   1      -3.461  -5.998  -2.992  0.00  0.00    -0.077 A 
ATOM      3  C2  UNL d   1      -2.097  -6.000  -2.677  0.00  0.00    -0.001 A 
ATOM      4  C3  UNL d   1      -1.138  -6.000  -3.691  0.00  0.00     0.003 A 
ATOM      5  C4  UNL d   1      -1.533  -5.996  -5.027  0.00  0.00    -0.005 A 
ATOM      6  C5  UNL d   1      -2.888  -5.992  -5.351  0.00  0.00     0.003 A 
ATOM      7  C6  UNL d   1      -3.849  -5.992  -4.338  0.00  0.00    -0.001 A 
ENDROOT
TORSDOF 0
ENDMDL
