MODEL 1
REMARK minimizedAffinity -0.597019494
REMARK minimizedRMSD -1
REMARK  0 active torsions:
REMARK  status: ('A' for Active; 'I' for Inactive)
ROOT
ATOM      1  C   UNL d   1       0.012  -5.984  -5.981  0.00  0.00     0.078 C 
ATOM      2  C1  UNL d   1      -0.921  -5.996  -4.807  0.00  0.00    -0.077 A 
ATOM      3  C2  UNL d   1      -2.309  -5.994  -4.989  0.00  0.00    -0.001 A 
ATOM      4  C3  UNL d   1      -3.166  -5.996  -3.887  0.00  0.00     0.003 A 
ATOM      5  C4  UNL d   1      -2.644  -5.999  -2.595  0.00  0.00    -0.005 A 
ATOM      6  C5  UNL d   1      -1.264  -6.000  -2.404  0.00  0.00     0.003 A 
ATOM      7  C6  UNL d   1      -0.406  -5.998  -3.505  0.00  0.00    -0.001 A 
ENDROOT
TORSDOF 0
ENDMDL
