MODEL 1
REMARK minimizedAffinity -1.13480544
REMARK minimizedRMSD -1
REMARK  0 active torsions:
REMARK  status: ('A' for Active; 'I' for Inactive)
ROOT
ATOM      1  C   UNL d   1      -3.317  -5.994  -2.634  0.00  0.00     0.078 C 
ATOM      2  C1  UNL d   1      -2.226  -5.985  -3.662  0.00  0.00    -0.077 A 
ATOM      3  C2  UNL d   1      -2.524  -5.998  -5.030  0.00  0.00    -0.001 A 
ATOM      4  C3  UNL d   1      -1.497  -5.999  -5.976  0.00  0.00     0.003 A 
ATOM      5  C4  UNL d   1      -0.166  -5.990  -5.564  0.00  0.00    -0.005 A 
ATOM      6  C5  UNL d   1       0.140  -5.980  -4.205  0.00  0.00     0.003 A 
ATOM      7  C6  UNL d   1      -0.885  -5.978  -3.258  0.00  0.00    -0.001 A 
ENDROOT
TORSDOF 0
ENDMDL
