MODEL 1
REMARK minimizedAffinity 0.695124269
REMARK minimizedRMSD -1
REMARK  0 active torsions:
REMARK  status: ('A' for Active; 'I' for Inactive)
ROOT
ATOM      1  C   UNL d   1      -3.291  -5.987  -2.244  0.00  0.00     0.078 C 
ATOM      2  C1  UNL d   1      -2.003  -5.984  -3.012  0.00  0.00    -0.077 A 
ATOM      3  C2  UNL d   1      -1.997  -5.993  -4.412  0.00  0.00    -0.001 A 
ATOM      4  C3  UNL d   1      -0.791  -6.000  -5.113  0.00  0.00     0.003 A 
ATOM      5  C4  UNL d   1       0.420  -6.000  -4.423  0.00  0.00    -0.005 A 
ATOM      6  C5  UNL d   1       0.424  -5.993  -3.029  0.00  0.00     0.003 A 
ATOM      7  C6  UNL d   1      -0.781  -5.986  -2.326  0.00  0.00    -0.001 A 
ENDROOT
TORSDOF 0
ENDMDL
