MODEL 1
REMARK minimizedAffinity -1.14603066
REMARK minimizedRMSD -1
REMARK  0 active torsions:
REMARK  status: ('A' for Active; 'I' for Inactive)
ROOT
ATOM      1  C   UNL d   1      -3.237   1.628  -3.202  0.00  0.00     0.078 C 
ATOM      2  C1  UNL d   1      -2.010   2.446  -3.475  0.00  0.00    -0.077 A 
ATOM      3  C2  UNL d   1      -0.806   2.185  -2.810  0.00  0.00    -0.001 A 
ATOM      4  C3  UNL d   1       0.325   2.961  -3.067  0.00  0.00     0.003 A 
ATOM      5  C4  UNL d   1       0.264   4.004  -3.989  0.00  0.00    -0.005 A 
ATOM      6  C5  UNL d   1      -0.931   4.273  -4.655  0.00  0.00     0.003 A 
ATOM      7  C6  UNL d   1      -2.063   3.498  -4.399  0.00  0.00    -0.001 A 
ENDROOT
TORSDOF 0
ENDMDL
