MODEL 1
REMARK minimizedAffinity -3.46993303
REMARK minimizedRMSD -1
REMARK  0 active torsions:
REMARK  status: ('A' for Active; 'I' for Inactive)
ROOT
ATOM      1  C   UNL d   1      -2.994  -5.612  -1.705  0.00  0.00     0.078 C 
ATOM      2  C1  UNL d   1      -2.007  -5.626  -2.834  0.00  0.00    -0.077 A 
ATOM      3  C2  UNL d   1      -0.674  -5.999  -2.622  0.00  0.00    -0.001 A 
ATOM      4  C3  UNL d   1       0.236  -5.999  -3.681  0.00  0.00     0.003 A 
ATOM      5  C4  UNL d   1      -0.177  -5.625  -4.958  0.00  0.00    -0.005 A 
ATOM      6  C5  UNL d   1      -1.501  -5.250  -5.178  0.00  0.00     0.003 A 
ATOM      7  C6  UNL d   1      -2.412  -5.250  -4.121  0.00  0.00    -0.001 A 
ENDROOT
TORSDOF 0
ENDMDL
