MODEL 1
REMARK minimizedAffinity -0.278513491
REMARK minimizedRMSD -1
REMARK  0 active torsions:
REMARK  status: ('A' for Active; 'I' for Inactive)
ROOT
ATOM      1  C   UNL d   1      -0.531   3.587  -3.648  0.00  0.00     0.078 C 
ATOM      2  C1  UNL d   1      -0.194   3.001  -2.309  0.00  0.00    -0.077 A 
ATOM      3  C2  UNL d   1      -0.047   3.818  -1.181  0.00  0.00    -0.001 A 
ATOM      4  C3  UNL d   1       0.276   3.261   0.057  0.00  0.00     0.003 A 
ATOM      5  C4  UNL d   1       0.455   1.884   0.180  0.00  0.00    -0.005 A 
ATOM      6  C5  UNL d   1       0.312   1.064  -0.937  0.00  0.00     0.003 A 
ATOM      7  C6  UNL d   1      -0.010   1.619  -2.176  0.00  0.00    -0.001 A 
ENDROOT
TORSDOF 0
ENDMDL
