MODEL 1
REMARK minimizedAffinity -2.10215044
REMARK minimizedRMSD -1
REMARK  0 active torsions:
REMARK  status: ('A' for Active; 'I' for Inactive)
ROOT
ATOM      1  C   UNL d   1       1.124  -5.969  -5.631  0.00  0.00     0.078 C 
ATOM      2  C1  UNL d   1       0.045  -5.868  -4.595  0.00  0.00    -0.077 A 
ATOM      3  C2  UNL d   1      -1.286  -5.629  -4.960  0.00  0.00    -0.001 A 
ATOM      4  C3  UNL d   1      -2.279  -5.527  -3.985  0.00  0.00     0.003 A 
ATOM      5  C4  UNL d   1      -1.951  -5.661  -2.637  0.00  0.00    -0.005 A 
ATOM      6  C5  UNL d   1      -0.630  -5.897  -2.263  0.00  0.00     0.003 A 
ATOM      7  C6  UNL d   1       0.364  -6.000  -3.238  0.00  0.00    -0.001 A 
ENDROOT
TORSDOF 0
ENDMDL
