MODEL 1
REMARK minimizedAffinity 0.350117534
REMARK minimizedRMSD -1
REMARK  0 active torsions:
REMARK  status: ('A' for Active; 'I' for Inactive)
ROOT
ATOM      1  C   UNL d   1      -2.496  -4.991  -3.061  0.00  0.00     0.078 C 
ATOM      2  C1  UNL d   1      -1.207  -5.341  -3.743  0.00  0.00    -0.077 A 
ATOM      3  C2  UNL d   1      -0.069  -5.685  -3.003  0.00  0.00    -0.001 A 
ATOM      4  C3  UNL d   1       1.126  -5.999  -3.650  0.00  0.00     0.003 A 
ATOM      5  C4  UNL d   1       1.197  -5.971  -5.042  0.00  0.00    -0.005 A 
ATOM      6  C5  UNL d   1       0.071  -5.628  -5.787  0.00  0.00     0.003 A 
ATOM      7  C6  UNL d   1      -1.126  -5.313  -5.141  0.00  0.00    -0.001 A 
ENDROOT
TORSDOF 0
ENDMDL
