MODEL 1
REMARK minimizedAffinity -2.29537678
REMARK minimizedRMSD -1
REMARK  0 active torsions:
REMARK  status: ('A' for Active; 'I' for Inactive)
ROOT
ATOM      1  C   UNL d   1       0.002  -5.640  -5.998  0.00  0.00     0.078 C 
ATOM      2  C1  UNL d   1      -0.711  -5.636  -4.679  0.00  0.00    -0.077 A 
ATOM      3  C2  UNL d   1      -0.049  -5.999  -3.500  0.00  0.00    -0.001 A 
ATOM      4  C3  UNL d   1      -0.729  -6.000  -2.281  0.00  0.00     0.003 A 
ATOM      5  C4  UNL d   1      -2.074  -5.639  -2.229  0.00  0.00    -0.005 A 
ATOM      6  C5  UNL d   1      -2.741  -5.277  -3.397  0.00  0.00     0.003 A 
ATOM      7  C6  UNL d   1      -2.063  -5.276  -4.617  0.00  0.00    -0.001 A 
ENDROOT
TORSDOF 0
ENDMDL
