MODEL 1
REMARK minimizedAffinity -1.83404231
REMARK minimizedRMSD -1
REMARK  0 active torsions:
REMARK  status: ('A' for Active; 'I' for Inactive)
ROOT
ATOM      1  C   UNL d   1      -3.820  -5.992  -3.833  0.00  0.00     0.078 C 
ATOM      2  C1  UNL d   1      -2.374  -5.986  -4.231  0.00  0.00    -0.077 A 
ATOM      3  C2  UNL d   1      -1.360  -6.000  -3.266  0.00  0.00    -0.001 A 
ATOM      4  C3  UNL d   1      -0.018  -5.985  -3.651  0.00  0.00     0.003 A 
ATOM      5  C4  UNL d   1       0.322  -5.955  -5.002  0.00  0.00    -0.005 A 
ATOM      6  C5  UNL d   1      -0.680  -5.940  -5.970  0.00  0.00     0.003 A 
ATOM      7  C6  UNL d   1      -2.022  -5.955  -5.587  0.00  0.00    -0.001 A 
ENDROOT
TORSDOF 0
ENDMDL
