MODEL 1
REMARK minimizedAffinity -3.70033145
REMARK minimizedRMSD -1
REMARK  0 active torsions:
REMARK  status: ('A' for Active; 'I' for Inactive)
ROOT
ATOM      1  C   UNL d   1      -1.090  -6.000  -1.776  0.00  0.00     0.078 C 
ATOM      2  C1  UNL d   1      -1.519  -5.979  -3.213  0.00  0.00    -0.077 A 
ATOM      3  C2  UNL d   1      -0.576  -5.926  -4.247  0.00  0.00    -0.001 A 
ATOM      4  C3  UNL d   1      -0.990  -5.897  -5.579  0.00  0.00     0.003 A 
ATOM      5  C4  UNL d   1      -2.348  -5.919  -5.890  0.00  0.00    -0.005 A 
ATOM      6  C5  UNL d   1      -3.294  -5.970  -4.869  0.00  0.00     0.003 A 
ATOM      7  C6  UNL d   1      -2.881  -5.999  -3.535  0.00  0.00    -0.001 A 
ENDROOT
TORSDOF 0
ENDMDL
