MODEL 1
REMARK minimizedAffinity 0.0835875273
REMARK minimizedRMSD -1
REMARK  0 active torsions:
REMARK  status: ('A' for Active; 'I' for Inactive)
ROOT
ATOM      1  C   UNL d   1      -0.324  -5.752  -6.000  0.00  0.00     0.078 C 
ATOM      2  C1  UNL d   1      -1.369  -5.841  -4.927  0.00  0.00    -0.077 A 
ATOM      3  C2  UNL d   1      -2.732  -5.828  -5.245  0.00  0.00    -0.001 A 
ATOM      4  C3  UNL d   1      -3.693  -5.901  -4.236  0.00  0.00     0.003 A 
ATOM      5  C4  UNL d   1      -3.301  -5.988  -2.901  0.00  0.00    -0.005 A 
ATOM      6  C5  UNL d   1      -1.947  -5.999  -2.575  0.00  0.00     0.003 A 
ATOM      7  C6  UNL d   1      -0.984  -5.926  -3.583  0.00  0.00    -0.001 A 
ENDROOT
TORSDOF 0
ENDMDL
