MODEL 1
REMARK minimizedAffinity 8.38657761
REMARK minimizedRMSD -1
REMARK  0 active torsions:
REMARK  status: ('A' for Active; 'I' for Inactive)
ROOT
ATOM      1  C   UNL d   1      -5.998   3.805   0.048  0.00  0.00     0.020 A 
ATOM      2  C1  UNL d   1      -5.347   3.600   1.264  0.00  0.00     0.020 A 
ATOM      3  C2  UNL d   1      -4.129   2.917   1.296  0.00  0.00     0.034 A 
ATOM      4  C3  UNL d   1      -3.559   2.437   0.112  0.00  0.00     0.017 A 
ATOM      5  C4  UNL d   1      -4.213   2.644  -1.108  0.00  0.00     0.017 A 
ATOM      6  C5  UNL d   1      -5.432   3.329  -1.135  0.00  0.00     0.034 A 
ATOM      7 Cl   UNL d   1      -3.572   2.082  -2.611  0.00  0.00    -0.070 Cl
ATOM      8 Cl1  UNL d   1      -2.050   1.602   0.226  0.00  0.00    -0.070 Cl
ENDROOT
TORSDOF 0
ENDMDL
