MODEL 1
REMARK minimizedAffinity 6.70499134
REMARK minimizedRMSD -1
REMARK  0 active torsions:
REMARK  status: ('A' for Active; 'I' for Inactive)
ROOT
ATOM      1  C   UNL d   1       3.943  -3.569   5.108  0.00  0.00     0.020 A 
ATOM      2  C1  UNL d   1       4.907  -3.047   4.247  0.00  0.00     0.020 A 
ATOM      3  C2  UNL d   1       4.518  -2.398   3.074  0.00  0.00     0.034 A 
ATOM      4  C3  UNL d   1       3.161  -2.270   2.757  0.00  0.00     0.017 A 
ATOM      5  C4  UNL d   1       2.193  -2.795   3.622  0.00  0.00     0.017 A 
ATOM      6  C5  UNL d   1       2.588  -3.443   4.795  0.00  0.00     0.034 A 
ATOM      7 Cl   UNL d   1       0.499  -2.675   3.299  0.00  0.00    -0.070 Cl
ATOM      8 Cl1  UNL d   1       2.752  -1.455   1.290  0.00  0.00    -0.070 Cl
ENDROOT
TORSDOF 0
ENDMDL
