MODEL 1
REMARK minimizedAffinity 6.51397419
REMARK minimizedRMSD -1
REMARK  0 active torsions:
REMARK  status: ('A' for Active; 'I' for Inactive)
ROOT
ATOM      1  C   UNL d   1      -2.311   2.193  -0.505  0.00  0.00     0.020 A 
ATOM      2  C1  UNL d   1      -1.988   0.863  -0.242  0.00  0.00     0.020 A 
ATOM      3  C2  UNL d   1      -2.234  -0.119  -1.205  0.00  0.00     0.034 A 
ATOM      4  C3  UNL d   1      -2.804   0.229  -2.435  0.00  0.00     0.017 A 
ATOM      5  C4  UNL d   1      -3.128   1.565  -2.698  0.00  0.00     0.017 A 
ATOM      6  C5  UNL d   1      -2.880   2.543  -1.730  0.00  0.00     0.034 A 
ATOM      7 Cl   UNL d   1      -3.834   2.071  -4.192  0.00  0.00    -0.070 Cl
ATOM      8 Cl1  UNL d   1      -3.079  -1.036  -3.579  0.00  0.00    -0.070 Cl
ENDROOT
TORSDOF 0
ENDMDL
