MODEL 1
REMARK minimizedAffinity -2.8271091
REMARK minimizedRMSD -1
REMARK  0 active torsions:
REMARK  status: ('A' for Active; 'I' for Inactive)
ROOT
ATOM      1  C   UNL d   1       2.633   0.766  -0.245  0.00  0.00     0.020 A 
ATOM      2  C1  UNL d   1       3.120   1.077   1.024  0.00  0.00     0.020 A 
ATOM      3  C2  UNL d   1       2.704   0.336   2.132  0.00  0.00     0.034 A 
ATOM      4  C3  UNL d   1       1.798  -0.719   1.974  0.00  0.00     0.017 A 
ATOM      5  C4  UNL d   1       1.310  -1.030   0.700  0.00  0.00     0.017 A 
ATOM      6  C5  UNL d   1       1.730  -0.286  -0.407  0.00  0.00     0.034 A 
ATOM      7 Cl   UNL d   1       0.190  -2.318   0.425  0.00  0.00    -0.070 Cl
ATOM      8 Cl1  UNL d   1       1.326  -1.592   3.388  0.00  0.00    -0.070 Cl
ENDROOT
TORSDOF 0
ENDMDL
