MODEL 1
REMARK minimizedAffinity 4.45305204
REMARK minimizedRMSD -1
REMARK  0 active torsions:
REMARK  status: ('A' for Active; 'I' for Inactive)
ROOT
ATOM      1  C   UNL d   1       3.245  -5.989  -1.491  0.00  0.00     0.020 A 
ATOM      2  C1  UNL d   1       1.962  -5.989  -2.036  0.00  0.00     0.020 A 
ATOM      3  C2  UNL d   1       1.791  -5.992  -3.422  0.00  0.00     0.034 A 
ATOM      4  C3  UNL d   1       2.906  -5.996  -4.268  0.00  0.00     0.017 A 
ATOM      5  C4  UNL d   1       4.194  -5.996  -3.720  0.00  0.00     0.017 A 
ATOM      6  C5  UNL d   1       4.359  -5.992  -2.331  0.00  0.00     0.034 A 
ATOM      7 Cl   UNL d   1       5.618  -6.000  -4.699  0.00  0.00    -0.070 Cl
ATOM      8 Cl1  UNL d   1       2.622  -6.000  -5.972  0.00  0.00    -0.070 Cl
ENDROOT
TORSDOF 0
ENDMDL
