MODEL 1
REMARK minimizedAffinity 5.02910328
REMARK minimizedRMSD -1
REMARK  1 active torsions:
REMARK  status: ('A' for Active; 'I' for Inactive)
REMARK    1  A    between atoms: C1_2  and  C2_3 
ROOT
ATOM      1  C2  UNL d   1       1.497   5.099  -0.869  0.00  0.00    -0.077 A 
ATOM      2  C3  UNL d   1       0.116   5.243  -1.059  0.00  0.00     0.002 A 
ATOM      3  C4  UNL d   1      -0.782   4.438  -0.355  0.00  0.00     0.002 A 
ATOM      4  C5  UNL d   1      -0.308   3.486   0.545  0.00  0.00    -0.004 A 
ATOM      5  C6  UNL d   1       1.064   3.333   0.740  0.00  0.00     0.002 A 
ATOM      6  C7  UNL d   1       1.963   4.136   0.036  0.00  0.00     0.002 A 
ENDROOT
BRANCH   1   7
ATOM      7  C1  UNL d   1       2.465   6.000  -1.590  0.00  0.00     0.055 C 
ATOM      8  C   UNL d   1       2.209   6.000  -3.090  0.00  0.00     0.019 C 
ENDBRANCH   1   7
TORSDOF 1
ENDMDL
