MODEL 1
REMARK minimizedAffinity 5.15809441
REMARK minimizedRMSD -1
REMARK  1 active torsions:
REMARK  status: ('A' for Active; 'I' for Inactive)
REMARK    1  A    between atoms: C1_2  and  C2_3 
ROOT
ATOM      1  C2  UNL d   1       0.982   3.591   0.254  0.00  0.00    -0.077 A 
ATOM      2  C3  UNL d   1      -0.301   3.993  -0.143  0.00  0.00     0.002 A 
ATOM      3  C4  UNL d   1      -0.483   5.194  -0.832  0.00  0.00     0.002 A 
ATOM      4  C5  UNL d   1       0.613   6.000  -1.134  0.00  0.00    -0.004 A 
ATOM      5  C6  UNL d   1       1.893   5.610  -0.741  0.00  0.00     0.002 A 
ATOM      6  C7  UNL d   1       2.077   4.411  -0.051  0.00  0.00     0.002 A 
ENDROOT
BRANCH   1   7
ATOM      7  C1  UNL d   1       1.187   2.273   0.954  0.00  0.00     0.055 C 
ATOM      8  C   UNL d   1       1.274   1.126  -0.041  0.00  0.00     0.019 C 
ENDBRANCH   1   7
TORSDOF 1
ENDMDL
