MODEL 1
REMARK minimizedAffinity 3.77881718
REMARK minimizedRMSD -1
REMARK  1 active torsions:
REMARK  status: ('A' for Active; 'I' for Inactive)
REMARK    1  A    between atoms: C1_2  and  C2_3 
ROOT
ATOM      1  C2  UNL d   1       1.519   5.062  -0.926  0.00  0.00    -0.077 A 
ATOM      2  C3  UNL d   1       0.136   5.184  -1.124  0.00  0.00     0.002 A 
ATOM      3  C4  UNL d   1      -0.751   4.344  -0.447  0.00  0.00     0.002 A 
ATOM      4  C5  UNL d   1      -0.265   3.380   0.433  0.00  0.00    -0.004 A 
ATOM      5  C6  UNL d   1       1.108   3.250   0.635  0.00  0.00     0.002 A 
ATOM      6  C7  UNL d   1       1.996   4.088  -0.041  0.00  0.00     0.002 A 
ENDROOT
BRANCH   1   7
ATOM      7  C1  UNL d   1       2.474   6.000  -1.617  0.00  0.00     0.055 C 
ATOM      8  C   UNL d   1       2.258   5.999  -3.124  0.00  0.00     0.019 C 
ENDBRANCH   1   7
TORSDOF 1
ENDMDL
