MODEL 1
REMARK minimizedAffinity 3.95767069
REMARK minimizedRMSD -1
REMARK  1 active torsions:
REMARK  status: ('A' for Active; 'I' for Inactive)
REMARK    1  A    between atoms: C1_2  and  C2_3 
ROOT
ATOM      1  C2  UNL d   1       4.037  -1.879  -0.047  0.00  0.00    -0.077 A 
ATOM      2  C3  UNL d   1       4.265  -1.631  -1.408  0.00  0.00     0.002 A 
ATOM      3  C4  UNL d   1       5.068  -2.492  -2.158  0.00  0.00     0.002 A 
ATOM      4  C5  UNL d   1       5.647  -3.608  -1.558  0.00  0.00    -0.004 A 
ATOM      5  C6  UNL d   1       5.428  -3.863  -0.205  0.00  0.00     0.002 A 
ATOM      6  C7  UNL d   1       4.626  -3.003   0.547  0.00  0.00     0.002 A 
ENDROOT
BRANCH   1   7
ATOM      7  C1  UNL d   1       3.131  -0.980   0.753  0.00  0.00     0.055 C 
ATOM      8  C   UNL d   1       1.995  -0.438  -0.102  0.00  0.00     0.019 C 
ENDBRANCH   1   7
TORSDOF 1
ENDMDL
