MODEL 1
REMARK minimizedAffinity 7.243536
REMARK minimizedRMSD -1
REMARK  1 active torsions:
REMARK  status: ('A' for Active; 'I' for Inactive)
REMARK    1  A    between atoms: C1_2  and  C2_3 
ROOT
ATOM      1  C2  UNL d   1       0.433   2.678  -1.202  0.00  0.00    -0.077 A 
ATOM      2  C3  UNL d   1       1.072   3.882  -1.530  0.00  0.00     0.002 A 
ATOM      3  C4  UNL d   1       1.697   4.643  -0.540  0.00  0.00     0.002 A 
ATOM      4  C5  UNL d   1       1.692   4.207   0.783  0.00  0.00    -0.004 A 
ATOM      5  C6  UNL d   1       1.056   3.013   1.120  0.00  0.00     0.002 A 
ATOM      6  C7  UNL d   1       0.430   2.251   0.132  0.00  0.00     0.002 A 
ENDROOT
BRANCH   1   7
ATOM      7  C1  UNL d   1      -0.199   1.831  -2.275  0.00  0.00     0.055 C 
ATOM      8  C   UNL d   1      -1.643   2.242  -2.526  0.00  0.00     0.019 C 
ENDBRANCH   1   7
TORSDOF 1
ENDMDL
