MODEL 1
REMARK minimizedAffinity 3.77115798
REMARK minimizedRMSD -1
REMARK  1 active torsions:
REMARK  status: ('A' for Active; 'I' for Inactive)
REMARK    1  A    between atoms: C1_2  and  C2_3 
ROOT
ATOM      1  C2  UNL d   1      -4.896   2.875  -4.138  0.00  0.00    -0.077 A 
ATOM      2  C3  UNL d   1      -3.810   3.759  -4.069  0.00  0.00     0.002 A 
ATOM      3  C4  UNL d   1      -3.821   4.948  -4.801  0.00  0.00     0.002 A 
ATOM      4  C5  UNL d   1      -4.916   5.266  -5.602  0.00  0.00    -0.004 A 
ATOM      5  C6  UNL d   1      -6.000   4.391  -5.678  0.00  0.00     0.002 A 
ATOM      6  C7  UNL d   1      -5.990   3.202  -4.948  0.00  0.00     0.002 A 
ENDROOT
BRANCH   1   7
ATOM      7  C1  UNL d   1      -4.907   1.615  -3.311  0.00  0.00     0.055 C 
ATOM      8  C   UNL d   1      -3.535   1.330  -2.718  0.00  0.00     0.019 C 
ENDBRANCH   1   7
TORSDOF 1
ENDMDL
