MODEL 1
REMARK minimizedAffinity -2.52832532
REMARK minimizedRMSD -1
REMARK  0 active torsions:
REMARK  status: ('A' for Active; 'I' for Inactive)
ROOT
ATOM      1  N1  IND d   1       0.395  -1.267   0.405  0.00  0.00    -0.196 N 
ATOM      2  C2  IND d   1      -0.954  -1.446   0.538  0.00  0.00     0.054 A 
ATOM      3  C3  IND d   1      -1.577  -0.253   0.665  0.00  0.00    -0.031 A 
ATOM      4  C4  IND d   1      -0.591   2.123   0.581  0.00  0.00     0.051 A 
ATOM      5  C5  IND d   1       0.597   2.795   0.513  0.00  0.00    -0.031 A 
ATOM      6  C6  IND d   1       1.803   2.133   0.400  0.00  0.00     0.015 A 
ATOM      7  C7  IND d   1       1.865   0.770   0.340  0.00  0.00    -0.016 A 
ATOM      8  C8  IND d   1       0.661   0.085   0.416  0.00  0.00    -0.047 A 
ATOM      9  C9  IND d   1      -0.563   0.749   0.573  0.00  0.00    -0.096 A 
ATOM     10  HN1 IND d   1       0.979  -1.893   0.328  0.00  0.00     0.298 HD
ENDROOT
TORSDOF 0
ENDMDL
