MODEL 1
REMARK minimizedAffinity -1.59942484
REMARK minimizedRMSD -1
REMARK  0 active torsions:
REMARK  status: ('A' for Active; 'I' for Inactive)
ROOT
ATOM      1  N1  IND d   1      -0.141  -1.051   0.459  0.00  0.00    -0.196 N 
ATOM      2  C2  IND d   1       0.995  -1.425  -0.204  0.00  0.00     0.054 A 
ATOM      3  C3  IND d   1       1.637  -0.338  -0.687  0.00  0.00    -0.031 A 
ATOM      4  C4  IND d   1       1.057   2.156  -0.421  0.00  0.00     0.051 A 
ATOM      5  C5  IND d   1       0.094   2.992   0.072  0.00  0.00    -0.031 A 
ATOM      6  C6  IND d   1      -1.018   2.513   0.734  0.00  0.00     0.015 A 
ATOM      7  C7  IND d   1      -1.203   1.175   0.939  0.00  0.00    -0.016 A 
ATOM      8  C8  IND d   1      -0.231   0.323   0.435  0.00  0.00    -0.047 A 
ATOM      9  C9  IND d   1       0.878   0.801  -0.276  0.00  0.00    -0.096 A 
ATOM     10  HN1 IND d   1      -0.705  -1.585   0.828  0.00  0.00     0.298 HD
ENDROOT
TORSDOF 0
ENDMDL
