MODEL 1
REMARK minimizedAffinity -2.9191246
REMARK minimizedRMSD -1
REMARK  0 active torsions:
REMARK  status: ('A' for Active; 'I' for Inactive)
ROOT
ATOM      1  N1  IND d   1       1.289  -0.595   0.211  0.00  0.00    -0.196 N 
ATOM      2  C2  IND d   1      -0.005  -1.027   0.121  0.00  0.00     0.054 A 
ATOM      3  C3  IND d   1      -0.859   0.001   0.325  0.00  0.00    -0.031 A 
ATOM      4  C4  IND d   1      -0.353   2.494   0.722  0.00  0.00     0.051 A 
ATOM      5  C5  IND d   1       0.681   3.364   0.922  0.00  0.00    -0.031 A 
ATOM      6  C6  IND d   1       1.997   2.952   0.892  0.00  0.00     0.015 A 
ATOM      7  C7  IND d   1       2.331   1.650   0.648  0.00  0.00    -0.016 A 
ATOM      8  C8  IND d   1       1.283   0.761   0.452  0.00  0.00    -0.047 A 
ATOM      9  C9  IND d   1      -0.056   1.166   0.523  0.00  0.00    -0.096 A 
ATOM     10  HN1 IND d   1       1.989  -1.088   0.130  0.00  0.00     0.298 HD
ENDROOT
TORSDOF 0
ENDMDL
