MODEL 1
REMARK minimizedAffinity -3.74224591
REMARK minimizedRMSD -1
REMARK  0 active torsions:
REMARK  status: ('A' for Active; 'I' for Inactive)
ROOT
ATOM      1  N1  IND d   1      -0.750  -0.384   1.438  0.00  0.00    -0.196 N 
ATOM      2  C2  IND d   1      -0.164  -1.419   0.763  0.00  0.00     0.054 A 
ATOM      3  C3  IND d   1       0.601  -0.949  -0.247  0.00  0.00    -0.031 A 
ATOM      4  C4  IND d   1       1.117   1.484  -0.913  0.00  0.00     0.051 A 
ATOM      5  C5  IND d   1       0.785   2.776  -0.615  0.00  0.00    -0.031 A 
ATOM      6  C6  IND d   1      -0.091   3.087   0.404  0.00  0.00     0.015 A 
ATOM      7  C7  IND d   1      -0.662   2.114   1.175  0.00  0.00    -0.016 A 
ATOM      8  C8  IND d   1      -0.332   0.801   0.871  0.00  0.00    -0.047 A 
ATOM      9  C9  IND d   1       0.523   0.477  -0.190  0.00  0.00    -0.096 A 
ATOM     10  HN1 IND d   1      -1.288  -0.459   2.104  0.00  0.00     0.298 HD
ENDROOT
TORSDOF 0
ENDMDL
