MODEL 1
REMARK minimizedAffinity 0.476771086
REMARK minimizedRMSD -1
REMARK  0 active torsions:
REMARK  status: ('A' for Active; 'I' for Inactive)
ROOT
ATOM      1  N1  IND d   1       0.154  -2.124  -2.294  0.00  0.00    -0.196 N 
ATOM      2  C2  IND d   1      -0.396  -3.284  -1.823  0.00  0.00     0.054 A 
ATOM      3  C3  IND d   1      -0.957  -3.080  -0.610  0.00  0.00    -0.031 A 
ATOM      4  C4  IND d   1      -1.178  -0.901   0.743  0.00  0.00     0.051 A 
ATOM      5  C5  IND d   1      -0.800   0.412   0.740  0.00  0.00    -0.031 A 
ATOM      6  C6  IND d   1      -0.072   0.959  -0.297  0.00  0.00     0.015 A 
ATOM      7  C7  IND d   1       0.297   0.212  -1.379  0.00  0.00    -0.016 A 
ATOM      8  C8  IND d   1      -0.080  -1.124  -1.377  0.00  0.00    -0.047 A 
ATOM      9  C9  IND d   1      -0.782  -1.695  -0.307  0.00  0.00    -0.096 A 
ATOM     10  HN1 IND d   1       0.575  -2.035  -3.039  0.00  0.00     0.298 HD
ENDROOT
TORSDOF 0
ENDMDL
