MODEL 1
REMARK minimizedAffinity -6.05293036
REMARK minimizedRMSD -1
REMARK  0 active torsions:
REMARK  status: ('A' for Active; 'I' for Inactive)
ROOT
ATOM      1  N1  IND d   1      -2.398   1.211   2.772  0.00  0.00    -0.196 N 
ATOM      2  C2  IND d   1      -2.464   2.364   3.504  0.00  0.00     0.054 A 
ATOM      3  C3  IND d   1      -1.645   3.302   2.979  0.00  0.00    -0.031 A 
ATOM      4  C4  IND d   1      -0.183   3.197   0.863  0.00  0.00     0.051 A 
ATOM      5  C5  IND d   1       0.234   2.341  -0.117  0.00  0.00    -0.031 A 
ATOM      6  C6  IND d   1      -0.216   1.038  -0.187  0.00  0.00     0.015 A 
ATOM      7  C7  IND d   1      -1.113   0.545   0.718  0.00  0.00    -0.016 A 
ATOM      8  C8  IND d   1      -1.533   1.410   1.718  0.00  0.00    -0.047 A 
ATOM      9  C9  IND d   1      -1.047   2.720   1.819  0.00  0.00    -0.096 A 
ATOM     10  HN1 IND d   1      -2.825   0.484   2.941  0.00  0.00     0.298 HD
ENDROOT
TORSDOF 0
ENDMDL
