MODEL 1
REMARK minimizedAffinity -2.87020946
REMARK minimizedRMSD -1
REMARK  0 active torsions:
REMARK  status: ('A' for Active; 'I' for Inactive)
ROOT
ATOM      1  N1  IND d   1       0.513  -0.747  -0.427  0.00  0.00    -0.196 N 
ATOM      2  C2  IND d   1      -0.370  -1.433   0.359  0.00  0.00     0.054 A 
ATOM      3  C3  IND d   1      -1.148  -0.572   1.054  0.00  0.00    -0.031 A 
ATOM      4  C4  IND d   1      -1.211   2.000   0.979  0.00  0.00     0.051 A 
ATOM      5  C5  IND d   1      -0.569   3.078   0.438  0.00  0.00    -0.031 A 
ATOM      6  C6  IND d   1       0.487   2.933  -0.439  0.00  0.00     0.015 A 
ATOM      7  C7  IND d   1       0.934   1.699  -0.818  0.00  0.00    -0.016 A 
ATOM      8  C8  IND d   1       0.288   0.602  -0.265  0.00  0.00    -0.047 A 
ATOM      9  C9  IND d   1      -0.756   0.743   0.658  0.00  0.00    -0.096 A 
ATOM     10  HN1 IND d   1       1.109  -1.100  -0.937  0.00  0.00     0.298 HD
ENDROOT
TORSDOF 0
ENDMDL
