MODEL 1
REMARK minimizedAffinity -2.63321424
REMARK minimizedRMSD -1
REMARK  0 active torsions:
REMARK  status: ('A' for Active; 'I' for Inactive)
ROOT
ATOM      1  N1  IND d   1       1.185  -1.135  -1.118  0.00  0.00    -0.196 N 
ATOM      2  C2  IND d   1       0.951  -0.711   0.160  0.00  0.00     0.054 A 
ATOM      3  C3  IND d   1      -0.256  -1.145   0.587  0.00  0.00    -0.031 A 
ATOM      4  C4  IND d   1      -1.969  -2.649  -0.609  0.00  0.00     0.051 A 
ATOM      5  C5  IND d   1      -2.217  -3.258  -1.807  0.00  0.00    -0.031 A 
ATOM      6  C6  IND d   1      -1.324  -3.191  -2.858  0.00  0.00     0.015 A 
ATOM      7  C7  IND d   1      -0.140  -2.519  -2.744  0.00  0.00    -0.016 A 
ATOM      8  C8  IND d   1       0.112  -1.894  -1.531  0.00  0.00    -0.047 A 
ATOM      9  C9  IND d   1      -0.809  -1.923  -0.476  0.00  0.00    -0.096 A 
ATOM     10  HN1 IND d   1       1.884  -0.957  -1.586  0.00  0.00     0.298 HD
ENDROOT
TORSDOF 0
ENDMDL
