MODEL 1
REMARK minimizedAffinity -3.22785091
REMARK minimizedRMSD -1
REMARK  0 active torsions:
REMARK  status: ('A' for Active; 'I' for Inactive)
ROOT
ATOM      1  N1  IND d   1       0.621  -1.272  -0.833  0.00  0.00    -0.196 N 
ATOM      2  C2  IND d   1      -0.419  -2.105  -0.525  0.00  0.00     0.054 A 
ATOM      3  C3  IND d   1      -1.413  -1.414   0.076  0.00  0.00    -0.031 A 
ATOM      4  C4  IND d   1      -1.590   1.108   0.563  0.00  0.00     0.051 A 
ATOM      5  C5  IND d   1      -0.874   2.271   0.497  0.00  0.00    -0.031 A 
ATOM      6  C6  IND d   1       0.401   2.313  -0.029  0.00  0.00     0.015 A 
ATOM      7  C7  IND d   1       1.006   1.191  -0.521  0.00  0.00    -0.016 A 
ATOM      8  C8  IND d   1       0.285   0.008  -0.449  0.00  0.00    -0.047 A 
ATOM      9  C9  IND d   1      -0.993  -0.049   0.122  0.00  0.00    -0.096 A 
ATOM     10  HN1 IND d   1       1.359  -1.508  -1.204  0.00  0.00     0.298 HD
ENDROOT
TORSDOF 0
ENDMDL
