MODEL 1
REMARK minimizedAffinity 7.766366
REMARK minimizedRMSD -1
REMARK  0 active torsions:
REMARK  status: ('A' for Active; 'I' for Inactive)
ROOT
ATOM      1  N1  IND d   1      -2.232   0.213   2.804  0.00  0.00    -0.196 N 
ATOM      2  C2  IND d   1      -1.862  -1.103   2.787  0.00  0.00     0.054 A 
ATOM      3  C3  IND d   1      -0.783  -1.278   1.991  0.00  0.00    -0.031 A 
ATOM      4  C4  IND d   1       0.598   0.470   0.700  0.00  0.00     0.051 A 
ATOM      5  C5  IND d   1       0.625   1.798   0.380  0.00  0.00    -0.031 A 
ATOM      6  C6  IND d   1      -0.316   2.684   0.863  0.00  0.00     0.015 A 
ATOM      7  C7  IND d   1      -1.317   2.275   1.698  0.00  0.00    -0.016 A 
ATOM      8  C8  IND d   1      -1.352   0.926   2.019  0.00  0.00    -0.047 A 
ATOM      9  C9  IND d   1      -0.425   0.014   1.498  0.00  0.00    -0.096 A 
ATOM     10  HN1 IND d   1      -2.902   0.540   3.233  0.00  0.00     0.298 HD
ENDROOT
TORSDOF 0
ENDMDL
