MODEL 1
REMARK minimizedAffinity -2.58538008
REMARK minimizedRMSD -1
REMARK  0 active torsions:
REMARK  status: ('A' for Active; 'I' for Inactive)
ROOT
ATOM      1  N1  IND d   1       2.677   0.357   0.887  0.00  0.00    -0.196 N 
ATOM      2  C2  IND d   1       3.212   1.554   1.275  0.00  0.00     0.054 A 
ATOM      3  C3  IND d   1       2.245   2.495   1.362  0.00  0.00    -0.031 A 
ATOM      4  C4  IND d   1      -0.295   2.268   1.009  0.00  0.00     0.051 A 
ATOM      5  C5  IND d   1      -1.251   1.378   0.609  0.00  0.00    -0.031 A 
ATOM      6  C6  IND d   1      -0.942   0.075   0.277  0.00  0.00     0.015 A 
ATOM      7  C7  IND d   1       0.341  -0.391   0.343  0.00  0.00    -0.016 A 
ATOM      8  C8  IND d   1       1.316   0.512   0.743  0.00  0.00    -0.047 A 
ATOM      9  C9  IND d   1       1.014   1.847   1.040  0.00  0.00    -0.096 A 
ATOM     10  HN1 IND d   1       3.117  -0.369   0.754  0.00  0.00     0.298 HD
ENDROOT
TORSDOF 0
ENDMDL
