MODEL 1
REMARK minimizedAffinity 4.02711058
REMARK minimizedRMSD -1
REMARK  0 active torsions:
REMARK  status: ('A' for Active; 'I' for Inactive)
ROOT
ATOM      1  N1  IND d   1      -2.410   2.848  -0.702  0.00  0.00    -0.196 N 
ATOM      2  C2  IND d   1      -3.039   1.996   0.162  0.00  0.00     0.054 A 
ATOM      3  C3  IND d   1      -2.131   1.347   0.926  0.00  0.00    -0.031 A 
ATOM      4  C4  IND d   1       0.429   1.604   0.997  0.00  0.00     0.051 A 
ATOM      5  C5  IND d   1       1.466   2.235   0.369  0.00  0.00    -0.031 A 
ATOM      6  C6  IND d   1       1.260   3.123  -0.667  0.00  0.00     0.015 A 
ATOM      7  C7  IND d   1       0.002   3.422  -1.108  0.00  0.00    -0.016 A 
ATOM      8  C8  IND d   1      -1.053   2.778  -0.478  0.00  0.00    -0.047 A 
ATOM      9  C9  IND d   1      -0.847   1.845   0.546  0.00  0.00    -0.096 A 
ATOM     10  HN1 IND d   1      -2.798   3.345  -1.288  0.00  0.00     0.298 HD
ENDROOT
TORSDOF 0
ENDMDL
