MODEL 1
REMARK minimizedAffinity 3.74381995
REMARK minimizedRMSD -1
REMARK  0 active torsions:
REMARK  status: ('A' for Active; 'I' for Inactive)
ROOT
ATOM      1  N1  IND d   1      -2.063   3.160  -0.876  0.00  0.00    -0.196 N 
ATOM      2  C2  IND d   1      -2.806   2.301  -0.115  0.00  0.00     0.054 A 
ATOM      3  C3  IND d   1      -1.999   1.537   0.654  0.00  0.00    -0.031 A 
ATOM      4  C4  IND d   1       0.562   1.598   0.902  0.00  0.00     0.051 A 
ATOM      5  C5  IND d   1       1.681   2.190   0.386  0.00  0.00    -0.031 A 
ATOM      6  C6  IND d   1       1.606   3.158  -0.595  0.00  0.00     0.015 A 
ATOM      7  C7  IND d   1       0.405   3.579  -1.091  0.00  0.00    -0.016 A 
ATOM      8  C8  IND d   1      -0.732   2.975  -0.574  0.00  0.00    -0.047 A 
ATOM      9  C9  IND d   1      -0.661   1.962   0.391  0.00  0.00    -0.096 A 
ATOM     10  HN1 IND d   1      -2.375   3.722  -1.447  0.00  0.00     0.298 HD
ENDROOT
TORSDOF 0
ENDMDL
