MODEL 1
REMARK minimizedAffinity -4.14666033
REMARK minimizedRMSD -1
REMARK  0 active torsions:
REMARK  status: ('A' for Active; 'I' for Inactive)
ROOT
ATOM      1  N1  IND d   1      -1.356   1.003   0.434  0.00  0.00    -0.196 N 
ATOM      2  C2  IND d   1      -1.038   2.330   0.354  0.00  0.00     0.054 A 
ATOM      3  C3  IND d   1       0.293   2.486   0.177  0.00  0.00    -0.031 A 
ATOM      4  C4  IND d   1       2.124   0.700  -0.113  0.00  0.00     0.051 A 
ATOM      5  C5  IND d   1       2.326  -0.652  -0.078  0.00  0.00    -0.031 A 
ATOM      6  C6  IND d   1       1.289  -1.539   0.131  0.00  0.00     0.015 A 
ATOM      7  C7  IND d   1       0.005  -1.106   0.302  0.00  0.00    -0.016 A 
ATOM      8  C8  IND d   1      -0.203   0.266   0.274  0.00  0.00    -0.047 A 
ATOM      9  C9  IND d   1       0.852   1.173   0.105  0.00  0.00    -0.096 A 
ATOM     10  HN1 IND d   1      -2.143   0.682   0.562  0.00  0.00     0.298 HD
ENDROOT
TORSDOF 0
ENDMDL
