MODEL 1
REMARK minimizedAffinity -5.27873993
REMARK minimizedRMSD -1
REMARK  0 active torsions:
REMARK  status: ('A' for Active; 'I' for Inactive)
ROOT
ATOM      1  N1  IND d   1      -0.528   0.713   0.742  0.00  0.00    -0.196 N 
ATOM      2  C2  IND d   1      -0.505   1.486  -0.385  0.00  0.00     0.054 A 
ATOM      3  C3  IND d   1      -0.597   0.710  -1.489  0.00  0.00    -0.031 A 
ATOM      4  C4  IND d   1      -0.896  -1.840  -1.676  0.00  0.00     0.051 A 
ATOM      5  C5  IND d   1      -0.936  -2.978  -0.921  0.00  0.00    -0.031 A 
ATOM      6  C6  IND d   1      -0.842  -2.943   0.456  0.00  0.00     0.015 A 
ATOM      7  C7  IND d   1      -0.717  -1.763   1.132  0.00  0.00    -0.016 A 
ATOM      8  C8  IND d   1      -0.669  -0.605   0.367  0.00  0.00    -0.047 A 
ATOM      9  C9  IND d   1      -0.720  -0.638  -1.032  0.00  0.00    -0.096 A 
ATOM     10  HN1 IND d   1      -0.465   1.001   1.550  0.00  0.00     0.298 HD
ENDROOT
TORSDOF 0
ENDMDL
