MODEL 1
REMARK minimizedAffinity -4.16760588
REMARK minimizedRMSD -1
REMARK  0 active torsions:
REMARK  status: ('A' for Active; 'I' for Inactive)
ROOT
ATOM      1  N1  IND d   1       1.492  -0.309   0.290  0.00  0.00    -0.196 N 
ATOM      2  C2  IND d   1       0.228  -0.822   0.380  0.00  0.00     0.054 A 
ATOM      3  C3  IND d   1      -0.686   0.174   0.369  0.00  0.00    -0.031 A 
ATOM      4  C4  IND d   1      -0.337   2.711   0.107  0.00  0.00     0.051 A 
ATOM      5  C5  IND d   1       0.643   3.661   0.028  0.00  0.00    -0.031 A 
ATOM      6  C6  IND d   1       1.982   3.330   0.030  0.00  0.00     0.015 A 
ATOM      7  C7  IND d   1       2.394   2.029   0.099  0.00  0.00    -0.016 A 
ATOM      8  C8  IND d   1       1.402   1.062   0.186  0.00  0.00    -0.047 A 
ATOM      9  C9  IND d   1       0.042   1.395   0.228  0.00  0.00    -0.096 A 
ATOM     10  HN1 IND d   1       2.220  -0.766   0.296  0.00  0.00     0.298 HD
ENDROOT
TORSDOF 0
ENDMDL
