MODEL 1
REMARK minimizedAffinity -1.22726548
REMARK minimizedRMSD -1
REMARK  0 active torsions:
REMARK  status: ('A' for Active; 'I' for Inactive)
ROOT
ATOM      1  N1  IND d   1       1.596   2.417   0.344  0.00  0.00    -0.196 N 
ATOM      2  C2  IND d   1       0.367   3.016   0.344  0.00  0.00     0.054 A 
ATOM      3  C3  IND d   1      -0.611   2.085   0.401  0.00  0.00    -0.031 A 
ATOM      4  C4  IND d   1      -0.422  -0.474   0.605  0.00  0.00     0.051 A 
ATOM      5  C5  IND d   1       0.492  -1.490   0.606  0.00  0.00    -0.031 A 
ATOM      6  C6  IND d   1       1.849  -1.251   0.521  0.00  0.00     0.015 A 
ATOM      7  C7  IND d   1       2.344   0.020   0.443  0.00  0.00    -0.016 A 
ATOM      8  C8  IND d   1       1.418   1.054   0.434  0.00  0.00    -0.047 A 
ATOM      9  C9  IND d   1       0.039   0.815   0.477  0.00  0.00    -0.096 A 
ATOM     10  HN1 IND d   1       2.352   2.823   0.295  0.00  0.00     0.298 HD
ENDROOT
TORSDOF 0
ENDMDL
