MODEL 1
REMARK minimizedAffinity -1.44241977
REMARK minimizedRMSD -1
REMARK  0 active torsions:
REMARK  status: ('A' for Active; 'I' for Inactive)
ROOT
ATOM      1  C   UNL d   1       1.243  -1.467  -0.546  0.00  0.00     0.023 A 
ATOM      2  C1  UNL d   1      -0.051  -1.035  -0.835  0.00  0.00     0.003 A 
ATOM      3  C2  UNL d   1      -0.686  -0.118   0.005  0.00  0.00     0.048 A 
ATOM      4  C3  UNL d   1      -0.021   0.363   1.133  0.00  0.00     0.023 A 
ATOM      5  C4  UNL d   1       1.275  -0.066   1.425  0.00  0.00     0.048 A 
ATOM      6  C5  UNL d   1       1.905  -0.984   0.583  0.00  0.00     0.003 A 
ATOM      7  I   UNL d   1      -0.964   1.728   2.385  0.00  0.00    -0.146 I 
ENDROOT
TORSDOF 0
ENDMDL
