MODEL 1
REMARK minimizedAffinity 1.65704107
REMARK minimizedRMSD -1
REMARK  0 active torsions:
REMARK  status: ('A' for Active; 'I' for Inactive)
ROOT
ATOM      1  C   UNL d   1      -0.641   0.047   0.870  0.00  0.00     0.023 A 
ATOM      2  C1  UNL d   1      -0.106   1.294   0.547  0.00  0.00     0.003 A 
ATOM      3  C2  UNL d   1       0.404   1.527  -0.732  0.00  0.00     0.048 A 
ATOM      4  C3  UNL d   1       0.376   0.508  -1.683  0.00  0.00     0.023 A 
ATOM      5  C4  UNL d   1      -0.159  -0.741  -1.365  0.00  0.00     0.048 A 
ATOM      6  C5  UNL d   1      -0.667  -0.970  -0.085  0.00  0.00     0.003 A 
ATOM      7  I   UNL d   1       1.134   0.852  -3.588  0.00  0.00    -0.146 I 
ENDROOT
TORSDOF 0
ENDMDL
