MODEL 1
REMARK minimizedAffinity -4.33056259
REMARK minimizedRMSD -1
REMARK  0 active torsions:
REMARK  status: ('A' for Active; 'I' for Inactive)
ROOT
ATOM      1  C   UNL d   1      -0.758   1.246   2.551  0.00  0.00     0.023 A 
ATOM      2  C1  UNL d   1      -1.718   0.787   1.649  0.00  0.00     0.003 A 
ATOM      3  C2  UNL d   1      -1.324   0.256   0.419  0.00  0.00     0.048 A 
ATOM      4  C3  UNL d   1       0.031   0.186   0.097  0.00  0.00     0.023 A 
ATOM      5  C4  UNL d   1       0.995   0.643   0.997  0.00  0.00     0.048 A 
ATOM      6  C5  UNL d   1       0.597   1.174   2.226  0.00  0.00     0.003 A 
ATOM      7  I   UNL d   1       0.619  -0.604  -1.733  0.00  0.00    -0.146 I 
ENDROOT
TORSDOF 0
ENDMDL
