MODEL 1
REMARK minimizedAffinity -3.20149422
REMARK minimizedRMSD -1
REMARK  0 active torsions:
REMARK  status: ('A' for Active; 'I' for Inactive)
ROOT
ATOM      1  C   UNL d   1      -1.574   0.975   2.119  0.00  0.00     0.023 A 
ATOM      2  C1  UNL d   1      -2.181   0.019   1.304  0.00  0.00     0.003 A 
ATOM      3  C2  UNL d   1      -1.487  -0.516   0.217  0.00  0.00     0.048 A 
ATOM      4  C3  UNL d   1      -0.185  -0.091  -0.049  0.00  0.00     0.023 A 
ATOM      5  C4  UNL d   1       0.426   0.864   0.764  0.00  0.00     0.048 A 
ATOM      6  C5  UNL d   1      -0.272   1.397   1.849  0.00  0.00     0.003 A 
ATOM      7  I   UNL d   1       0.850  -0.886  -1.666  0.00  0.00    -0.146 I 
ENDROOT
TORSDOF 0
ENDMDL
