MODEL 1
REMARK minimizedAffinity 0.093829684
REMARK minimizedRMSD -1
REMARK  0 active torsions:
REMARK  status: ('A' for Active; 'I' for Inactive)
ROOT
ATOM      1  C   UNL d   1       1.142  -0.677  -0.861  0.00  0.00     0.023 A 
ATOM      2  C1  UNL d   1       2.111  -0.655   0.142  0.00  0.00     0.003 A 
ATOM      3  C2  UNL d   1       1.754  -0.334   1.453  0.00  0.00     0.048 A 
ATOM      4  C3  UNL d   1       0.426  -0.037   1.755  0.00  0.00     0.023 A 
ATOM      5  C4  UNL d   1      -0.548  -0.058   0.755  0.00  0.00     0.048 A 
ATOM      6  C5  UNL d   1      -0.186  -0.379  -0.555  0.00  0.00     0.003 A 
ATOM      7  I   UNL d   1      -0.108   0.440   3.706  0.00  0.00    -0.146 I 
ENDROOT
TORSDOF 0
ENDMDL
