MODEL 1
REMARK minimizedAffinity -4.45325041
REMARK minimizedRMSD -1
REMARK  0 active torsions:
REMARK  status: ('A' for Active; 'I' for Inactive)
ROOT
ATOM      1  C   UNL d   1      -0.854   1.422   2.909  0.00  0.00     0.023 A 
ATOM      2  C1  UNL d   1       0.423   1.661   2.403  0.00  0.00     0.003 A 
ATOM      3  C2  UNL d   1       0.839   1.031   1.228  0.00  0.00     0.048 A 
ATOM      4  C3  UNL d   1      -0.028   0.164   0.564  0.00  0.00     0.023 A 
ATOM      5  C4  UNL d   1      -1.308  -0.078   1.067  0.00  0.00     0.048 A 
ATOM      6  C5  UNL d   1      -1.719   0.554   2.242  0.00  0.00     0.003 A 
ATOM      7  I   UNL d   1       0.588  -0.775  -1.184  0.00  0.00    -0.146 I 
ENDROOT
TORSDOF 0
ENDMDL
