MODEL 1
REMARK minimizedAffinity -1.46663415
REMARK minimizedRMSD -1
REMARK  0 active torsions:
REMARK  status: ('A' for Active; 'I' for Inactive)
ROOT
ATOM      1  C   UNL d   1      -1.210   2.046   2.616  0.00  0.00     0.023 A 
ATOM      2  C1  UNL d   1      -0.276   2.598   1.739  0.00  0.00     0.003 A 
ATOM      3  C2  UNL d   1       0.148   1.874   0.623  0.00  0.00     0.048 A 
ATOM      4  C3  UNL d   1      -0.366   0.599   0.389  0.00  0.00     0.023 A 
ATOM      5  C4  UNL d   1      -1.302   0.043   1.263  0.00  0.00     0.048 A 
ATOM      6  C5  UNL d   1      -1.723   0.770   2.378  0.00  0.00     0.003 A 
ATOM      7  I   UNL d   1       0.264  -0.480  -1.272  0.00  0.00    -0.146 I 
ENDROOT
TORSDOF 0
ENDMDL
