MODEL 1
REMARK minimizedAffinity -3.03386664
REMARK minimizedRMSD -1
REMARK  0 active torsions:
REMARK  status: ('A' for Active; 'I' for Inactive)
ROOT
ATOM      1  C   UNL d   1      -0.933   0.955   1.984  0.00  0.00     0.023 A 
ATOM      2  C1  UNL d   1      -1.139  -0.176   1.193  0.00  0.00     0.003 A 
ATOM      3  C2  UNL d   1      -0.668  -0.206  -0.121  0.00  0.00     0.048 A 
ATOM      4  C3  UNL d   1       0.011   0.898  -0.638  0.00  0.00     0.023 A 
ATOM      5  C4  UNL d   1       0.220   2.031   0.150  0.00  0.00     0.048 A 
ATOM      6  C5  UNL d   1      -0.254   2.057   1.463  0.00  0.00     0.003 A 
ATOM      7  I   UNL d   1       0.714   0.855  -2.593  0.00  0.00    -0.146 I 
ENDROOT
TORSDOF 0
ENDMDL
