MODEL 1
REMARK minimizedAffinity -1.11428022
REMARK minimizedRMSD -1
REMARK  0 active torsions:
REMARK  status: ('A' for Active; 'I' for Inactive)
ROOT
ATOM      1  C   UNL d   1      -0.354  -1.028  -1.017  0.00  0.00     0.023 A 
ATOM      2  C1  UNL d   1      -1.600  -0.645  -0.522  0.00  0.00     0.003 A 
ATOM      3  C2  UNL d   1      -1.683   0.176   0.605  0.00  0.00     0.048 A 
ATOM      4  C3  UNL d   1      -0.515   0.612   1.230  0.00  0.00     0.023 A 
ATOM      5  C4  UNL d   1       0.734   0.232   0.737  0.00  0.00     0.048 A 
ATOM      6  C5  UNL d   1       0.812  -0.590  -0.389  0.00  0.00     0.003 A 
ATOM      7  I   UNL d   1      -0.636   1.835   2.906  0.00  0.00    -0.146 I 
ENDROOT
TORSDOF 0
ENDMDL
