MODEL 1
REMARK minimizedAffinity -0.290004104
REMARK minimizedRMSD -1
REMARK  1 active torsions:
REMARK  status: ('A' for Active; 'I' for Inactive)
REMARK    1  A    between atoms: C3_4  and  O_7 
ROOT
ATOM      1  C   UNL d   1       0.345   0.603   1.585  0.00  0.00    -0.033 A 
ATOM      2  C1  UNL d   1       0.310   0.546   0.190  0.00  0.00     0.039 A 
ATOM      3  C2  UNL d   1       0.362   1.722  -0.560  0.00  0.00    -0.080 A 
ATOM      4  C3  UNL d   1       0.449   2.947   0.095  0.00  0.00     0.150 A 
ATOM      5  C4  UNL d   1       0.488   3.012   1.484  0.00  0.00    -0.007 A 
ATOM      6  C5  UNL d   1       0.435   1.836   2.232  0.00  0.00     0.039 A 
ENDROOT
BRANCH   4   7
ATOM      7  O   UNL d   1       0.497   4.123  -0.594  0.00  0.00    -0.526 OA
ATOM      8  H5  UNL d   1       0.433   3.925  -1.544  0.00  0.00     0.418 HD
ENDBRANCH   4   7
TORSDOF 1
ENDMDL
