MODEL 1
REMARK minimizedAffinity 0.138038814
REMARK minimizedRMSD -1
REMARK  1 active torsions:
REMARK  status: ('A' for Active; 'I' for Inactive)
REMARK    1  A    between atoms: C3_4  and  O_7 
ROOT
ATOM      1  C   UNL d   1      -5.997  -0.497   3.636  0.00  0.00    -0.033 A 
ATOM      2  C1  UNL d   1      -6.000  -1.655   2.856  0.00  0.00     0.039 A 
ATOM      3  C2  UNL d   1      -5.992  -2.911   3.466  0.00  0.00    -0.080 A 
ATOM      4  C3  UNL d   1      -5.982  -2.995   4.856  0.00  0.00     0.150 A 
ATOM      5  C4  UNL d   1      -5.983  -1.846   5.639  0.00  0.00    -0.007 A 
ATOM      6  C5  UNL d   1      -5.990  -0.593   5.028  0.00  0.00     0.039 A 
ENDROOT
BRANCH   4   7
ATOM      7  O   UNL d   1      -5.969  -4.198   5.497  0.00  0.00    -0.526 OA
ATOM      8  H5  UNL d   1      -5.941  -4.903   4.828  0.00  0.00     0.418 HD
ENDBRANCH   4   7
TORSDOF 1
ENDMDL
