MODEL 1
REMARK minimizedAffinity 1.23977876
REMARK minimizedRMSD -1
REMARK  1 active torsions:
REMARK  status: ('A' for Active; 'I' for Inactive)
REMARK    1  A    between atoms: C3_4  and  O_7 
ROOT
ATOM      1  C   UNL d   1       1.066   5.454  -1.083  0.00  0.00    -0.033 A 
ATOM      2  C1  UNL d   1       1.107   4.600   0.021  0.00  0.00     0.039 A 
ATOM      3  C2  UNL d   1       0.607   3.300  -0.081  0.00  0.00    -0.080 A 
ATOM      4  C3  UNL d   1       0.072   2.867  -1.291  0.00  0.00     0.150 A 
ATOM      5  C4  UNL d   1       0.032   3.711  -2.396  0.00  0.00    -0.007 A 
ATOM      6  C5  UNL d   1       0.530   5.009  -2.292  0.00  0.00     0.039 A 
ENDROOT
BRANCH   4   7
ATOM      7  O   UNL d   1      -0.431   1.609  -1.438  0.00  0.00    -0.526 OA
ATOM      8  H5  UNL d   1      -0.363   1.149  -0.584  0.00  0.00     0.418 HD
ENDBRANCH   4   7
TORSDOF 1
ENDMDL
