MODEL 1
REMARK minimizedAffinity 0.335616916
REMARK minimizedRMSD -1
REMARK  1 active torsions:
REMARK  status: ('A' for Active; 'I' for Inactive)
REMARK    1  A    between atoms: C3_4  and  O_7 
ROOT
ATOM      1  C   UNL d   1       0.692   1.093   2.619  0.00  0.00    -0.033 A 
ATOM      2  C1  UNL d   1       0.951  -0.140   2.017  0.00  0.00     0.039 A 
ATOM      3  C2  UNL d   1       0.796  -0.293   0.638  0.00  0.00    -0.080 A 
ATOM      4  C3  UNL d   1       0.382   0.794  -0.127  0.00  0.00     0.150 A 
ATOM      5  C4  UNL d   1       0.126   2.026   0.465  0.00  0.00    -0.007 A 
ATOM      6  C5  UNL d   1       0.281   2.177   1.842  0.00  0.00     0.039 A 
ENDROOT
BRANCH   4   7
ATOM      7  O   UNL d   1       0.212   0.692  -1.476  0.00  0.00    -0.526 OA
ATOM      8  H5  UNL d   1       0.397  -0.224  -1.741  0.00  0.00     0.418 HD
ENDBRANCH   4   7
TORSDOF 1
ENDMDL
