MODEL 1
REMARK minimizedAffinity 3.0914762
REMARK minimizedRMSD -1
REMARK  1 active torsions:
REMARK  status: ('A' for Active; 'I' for Inactive)
REMARK    1  A    between atoms: C3_4  and  O_7 
ROOT
ATOM      1  C   UNL d   1      -5.083  -0.296   4.200  0.00  0.00    -0.033 A 
ATOM      2  C1  UNL d   1      -4.766  -0.638   5.517  0.00  0.00     0.039 A 
ATOM      3  C2  UNL d   1      -5.066  -1.913   6.000  0.00  0.00    -0.080 A 
ATOM      4  C3  UNL d   1      -5.681  -2.835   5.158  0.00  0.00     0.150 A 
ATOM      5  C4  UNL d   1      -5.996  -2.503   3.845  0.00  0.00    -0.007 A 
ATOM      6  C5  UNL d   1      -5.696  -1.229   3.364  0.00  0.00     0.039 A 
ENDROOT
BRANCH   4   7
ATOM      7  O   UNL d   1      -5.998  -4.090   5.586  0.00  0.00    -0.526 OA
ATOM      8  H5  UNL d   1      -5.748  -4.168   6.522  0.00  0.00     0.418 HD
ENDBRANCH   4   7
TORSDOF 1
ENDMDL
