MODEL 1
REMARK minimizedAffinity -2.46166229
REMARK minimizedRMSD -1
REMARK  1 active torsions:
REMARK  status: ('A' for Active; 'I' for Inactive)
REMARK    1  A    between atoms: C3_4  and  O_7 
ROOT
ATOM      1  C   UNL d   1       0.912   5.319  -0.487  0.00  0.00    -0.033 A 
ATOM      2  C1  UNL d   1       1.171   4.378   0.511  0.00  0.00     0.039 A 
ATOM      3  C2  UNL d   1       0.835   3.037   0.313  0.00  0.00    -0.080 A 
ATOM      4  C3  UNL d   1       0.243   2.652  -0.887  0.00  0.00     0.150 A 
ATOM      5  C4  UNL d   1      -0.013   3.583  -1.887  0.00  0.00    -0.007 A 
ATOM      6  C5  UNL d   1       0.322   4.922  -1.687  0.00  0.00     0.039 A 
ENDROOT
BRANCH   4   7
ATOM      7  O   UNL d   1      -0.106   1.355  -1.125  0.00  0.00    -0.526 OA
ATOM      8  H5  UNL d   1       0.104   0.830  -0.335  0.00  0.00     0.418 HD
ENDBRANCH   4   7
TORSDOF 1
ENDMDL
