MODEL 1
REMARK minimizedAffinity -1.01979041
REMARK minimizedRMSD -1
REMARK  0 active torsions:
REMARK  status: ('A' for Active; 'I' for Inactive)
ROOT
ATOM      1  C1  DEN d   1       0.436  -1.773   0.477  0.00  0.00     0.130 A 
ATOM      2  C2  DEN d   1       0.762  -1.659  -0.942  0.00  0.00    -0.031 A 
ATOM      3  C3  DEN d   1       0.405  -0.296  -1.384  0.00  0.00     0.027 A 
ATOM      4  C4  DEN d   1      -0.612   1.639  -0.016  0.00  0.00     0.027 A 
ATOM      5  C5  DEN d   1      -1.074   2.014   1.226  0.00  0.00    -0.003 A 
ATOM      6  C6  DEN d   1      -1.096   1.150   2.289  0.00  0.00     0.001 A 
ATOM      7  C7  DEN d   1      -0.607  -0.121   2.140  0.00  0.00     0.017 A 
ATOM      8  C8  DEN d   1      -0.146  -0.508   0.889  0.00  0.00    -0.094 A 
ATOM      9  C9  DEN d   1      -0.120   0.384  -0.170  0.00  0.00    -0.072 A 
ENDROOT
TORSDOF 0
ENDMDL
