MODEL 1
REMARK minimizedAffinity -3.5477097
REMARK minimizedRMSD -1
REMARK  0 active torsions:
REMARK  status: ('A' for Active; 'I' for Inactive)
ROOT
ATOM      1  C1  DEN d   1      -1.601  -0.207   0.549  0.00  0.00     0.130 A 
ATOM      2  C2  DEN d   1      -0.694   0.276   1.586  0.00  0.00    -0.031 A 
ATOM      3  C3  DEN d   1       0.678  -0.127   1.217  0.00  0.00     0.027 A 
ATOM      4  C4  DEN d   1       1.482  -1.442  -0.851  0.00  0.00     0.027 A 
ATOM      5  C5  DEN d   1       1.078  -2.075  -2.005  0.00  0.00    -0.003 A 
ATOM      6  C6  DEN d   1      -0.240  -2.159  -2.369  0.00  0.00     0.001 A 
ATOM      7  C7  DEN d   1      -1.197  -1.561  -1.593  0.00  0.00     0.017 A 
ATOM      8  C8  DEN d   1      -0.798  -0.927  -0.424  0.00  0.00    -0.094 A 
ATOM      9  C9  DEN d   1       0.540  -0.842  -0.080  0.00  0.00    -0.072 A 
ENDROOT
TORSDOF 0
ENDMDL
