MODEL 1
REMARK minimizedAffinity -1.15227282
REMARK minimizedRMSD -1
REMARK  0 active torsions:
REMARK  status: ('A' for Active; 'I' for Inactive)
ROOT
ATOM      1  C1  DEN d   1      -0.814  -3.474  -1.306  0.00  0.00     0.130 A 
ATOM      2  C2  DEN d   1      -0.015  -3.676  -2.511  0.00  0.00    -0.031 A 
ATOM      3  C3  DEN d   1       0.811  -2.469  -2.719  0.00  0.00     0.027 A 
ATOM      4  C4  DEN d   1       0.934  -0.322  -1.296  0.00  0.00     0.027 A 
ATOM      5  C5  DEN d   1       0.433   0.318  -0.184  0.00  0.00    -0.003 A 
ATOM      6  C6  DEN d   1      -0.535  -0.243   0.607  0.00  0.00     0.001 A 
ATOM      7  C7  DEN d   1      -1.001  -1.499   0.322  0.00  0.00     0.017 A 
ATOM      8  C8  DEN d   1      -0.506  -2.147  -0.802  0.00  0.00    -0.094 A 
ATOM      9  C9  DEN d   1       0.481  -1.569  -1.582  0.00  0.00    -0.072 A 
ENDROOT
TORSDOF 0
ENDMDL
