MODEL 1
REMARK minimizedAffinity -3.8335259
REMARK minimizedRMSD -1
REMARK  0 active torsions:
REMARK  status: ('A' for Active; 'I' for Inactive)
ROOT
ATOM      1  C1  DEN d   1       1.048  -2.589  -2.435  0.00  0.00     0.130 A 
ATOM      2  C2  DEN d   1      -0.079  -3.459  -2.758  0.00  0.00    -0.031 A 
ATOM      3  C3  DEN d   1      -1.185  -3.137  -1.833  0.00  0.00     0.027 A 
ATOM      4  C4  DEN d   1      -1.261  -1.381   0.054  0.00  0.00     0.027 A 
ATOM      5  C5  DEN d   1      -0.541  -0.410   0.714  0.00  0.00    -0.003 A 
ATOM      6  C6  DEN d   1       0.760  -0.123   0.396  0.00  0.00     0.001 A 
ATOM      7  C7  DEN d   1       1.367  -0.784  -0.640  0.00  0.00     0.017 A 
ATOM      8  C8  DEN d   1       0.649  -1.769  -1.305  0.00  0.00    -0.094 A 
ATOM      9  C9  DEN d   1      -0.669  -2.036  -0.976  0.00  0.00    -0.072 A 
ENDROOT
TORSDOF 0
ENDMDL
