MODEL 1
REMARK minimizedAffinity 0.951679826
REMARK minimizedRMSD -1
REMARK  0 active torsions:
REMARK  status: ('A' for Active; 'I' for Inactive)
ROOT
ATOM      1  C1  DEN d   1      -0.774  -0.219   2.108  0.00  0.00     0.130 A 
ATOM      2  C2  DEN d   1      -1.504   0.914   2.669  0.00  0.00    -0.031 A 
ATOM      3  C3  DEN d   1      -1.415   2.034   1.711  0.00  0.00     0.027 A 
ATOM      4  C4  DEN d   1      -0.229   2.121  -0.578  0.00  0.00     0.027 A 
ATOM      5  C5  DEN d   1       0.534   1.406  -1.475  0.00  0.00    -0.003 A 
ATOM      6  C6  DEN d   1       0.940   0.122  -1.227  0.00  0.00     0.001 A 
ATOM      7  C7  DEN d   1       0.547  -0.504  -0.074  0.00  0.00     0.017 A 
ATOM      8  C8  DEN d   1      -0.217   0.213   0.839  0.00  0.00    -0.094 A 
ATOM      9  C9  DEN d   1      -0.628   1.506   0.564  0.00  0.00    -0.072 A 
ENDROOT
TORSDOF 0
ENDMDL
