MODEL 1
REMARK minimizedAffinity -4.51634169
REMARK minimizedRMSD -1
REMARK  0 active torsions:
REMARK  status: ('A' for Active; 'I' for Inactive)
ROOT
ATOM      1  C1  DEN d   1      -1.820   1.962  -0.140  0.00  0.00     0.130 A 
ATOM      2  C2  DEN d   1      -2.182   2.105   1.267  0.00  0.00    -0.031 A 
ATOM      3  C3  DEN d   1      -1.491   1.043   2.026  0.00  0.00     0.027 A 
ATOM      4  C4  DEN d   1       0.097  -0.797   1.163  0.00  0.00     0.027 A 
ATOM      5  C5  DEN d   1       0.695  -1.329   0.042  0.00  0.00    -0.003 A 
ATOM      6  C6  DEN d   1       0.472  -0.826  -1.212  0.00  0.00     0.001 A 
ATOM      7  C7  DEN d   1      -0.336   0.269  -1.371  0.00  0.00     0.017 A 
ATOM      8  C8  DEN d   1      -0.948   0.806  -0.246  0.00  0.00    -0.094 A 
ATOM      9  C9  DEN d   1      -0.700   0.291   1.015  0.00  0.00    -0.072 A 
ENDROOT
TORSDOF 0
ENDMDL
