MODEL 1
REMARK minimizedAffinity -3.89412665
REMARK minimizedRMSD -1
REMARK  0 active torsions:
REMARK  status: ('A' for Active; 'I' for Inactive)
ROOT
ATOM      1  C1  DEN d   1      -0.030   0.477   0.726  0.00  0.00     0.130 A 
ATOM      2  C2  DEN d   1       0.142  -0.646   1.644  0.00  0.00    -0.031 A 
ATOM      3  C3  DEN d   1       0.476  -1.842   0.845  0.00  0.00     0.027 A 
ATOM      4  C4  DEN d   1       0.745  -2.062  -1.711  0.00  0.00     0.027 A 
ATOM      5  C5  DEN d   1       0.683  -1.385  -2.908  0.00  0.00    -0.003 A 
ATOM      6  C6  DEN d   1       0.349  -0.058  -2.981  0.00  0.00     0.001 A 
ATOM      7  C7  DEN d   1       0.108   0.645  -1.830  0.00  0.00     0.017 A 
ATOM      8  C8  DEN d   1       0.160  -0.033  -0.619  0.00  0.00    -0.094 A 
ATOM      9  C9  DEN d   1       0.512  -1.371  -0.566  0.00  0.00    -0.072 A 
ENDROOT
TORSDOF 0
ENDMDL
