MODEL 1
REMARK minimizedAffinity -3.41741991
REMARK minimizedRMSD -1
REMARK  0 active torsions:
REMARK  status: ('A' for Active; 'I' for Inactive)
ROOT
ATOM      1  C1  DEN d   1       0.078   2.468  -0.756  0.00  0.00     0.130 A 
ATOM      2  C2  DEN d   1      -0.035   3.826  -0.231  0.00  0.00    -0.031 A 
ATOM      3  C3  DEN d   1      -0.591   3.742   1.135  0.00  0.00     0.027 A 
ATOM      4  C4  DEN d   1      -1.281   1.652   2.480  0.00  0.00     0.027 A 
ATOM      5  C5  DEN d   1      -1.380   0.278   2.448  0.00  0.00    -0.003 A 
ATOM      6  C6  DEN d   1      -1.034  -0.453   1.342  0.00  0.00     0.001 A 
ATOM      7  C7  DEN d   1      -0.531   0.183   0.238  0.00  0.00     0.017 A 
ATOM      8  C8  DEN d   1      -0.435   1.568   0.260  0.00  0.00    -0.094 A 
ATOM      9  C9  DEN d   1      -0.778   2.288   1.392  0.00  0.00    -0.072 A 
ENDROOT
TORSDOF 0
ENDMDL
