MODEL 1
REMARK minimizedAffinity -5.81237936
REMARK minimizedRMSD -1
REMARK  0 active torsions:
REMARK  status: ('A' for Active; 'I' for Inactive)
ROOT
ATOM      1  C1  DEN d   1       0.780   2.530  -0.909  0.00  0.00     0.130 A 
ATOM      2  C2  DEN d   1       0.180   3.683  -0.244  0.00  0.00    -0.031 A 
ATOM      3  C3  DEN d   1      -0.517   3.201   0.966  0.00  0.00     0.027 A 
ATOM      4  C4  DEN d   1      -0.719   0.794   1.871  0.00  0.00     0.027 A 
ATOM      5  C5  DEN d   1      -0.385  -0.522   1.643  0.00  0.00    -0.003 A 
ATOM      6  C6  DEN d   1       0.326  -0.915   0.540  0.00  0.00     0.001 A 
ATOM      7  C7  DEN d   1       0.765   0.025  -0.354  0.00  0.00     0.017 A 
ATOM      8  C8  DEN d   1       0.426   1.354  -0.135  0.00  0.00    -0.094 A 
ATOM      9  C9  DEN d   1      -0.283   1.732   0.992  0.00  0.00    -0.072 A 
ENDROOT
TORSDOF 0
ENDMDL
