MODEL 1
REMARK minimizedAffinity -3.14419031
REMARK minimizedRMSD -1
REMARK  0 active torsions:
REMARK  status: ('A' for Active; 'I' for Inactive)
ROOT
ATOM      1  C1  DEN d   1       1.170  -1.120   0.453  0.00  0.00     0.130 A 
ATOM      2  C2  DEN d   1       0.299   0.042   0.295  0.00  0.00    -0.031 A 
ATOM      3  C3  DEN d   1      -0.480  -0.137  -0.947  0.00  0.00     0.027 A 
ATOM      4  C4  DEN d   1      -0.427  -2.091  -2.629  0.00  0.00     0.027 A 
ATOM      5  C5  DEN d   1       0.161  -3.301  -2.926  0.00  0.00    -0.003 A 
ATOM      6  C6  DEN d   1       1.143  -3.847  -2.143  0.00  0.00     0.001 A 
ATOM      7  C7  DEN d   1       1.535  -3.205  -0.998  0.00  0.00     0.017 A 
ATOM      8  C8  DEN d   1       0.951  -1.981  -0.696  0.00  0.00    -0.094 A 
ATOM      9  C9  DEN d   1      -0.048  -1.451  -1.493  0.00  0.00    -0.072 A 
ENDROOT
TORSDOF 0
ENDMDL
