MODEL 1
REMARK minimizedAffinity -6.49864531
REMARK minimizedRMSD -1
REMARK  0 active torsions:
REMARK  status: ('A' for Active; 'I' for Inactive)
ROOT
ATOM      1  C1  DEN d   1       0.849   0.771  -0.942  0.00  0.00     0.130 A 
ATOM      2  C2  DEN d   1       0.528  -0.543  -0.390  0.00  0.00    -0.031 A 
ATOM      3  C3  DEN d   1      -0.409  -0.349   0.734  0.00  0.00     0.027 A 
ATOM      4  C4  DEN d   1      -1.395   1.845   1.666  0.00  0.00     0.027 A 
ATOM      5  C5  DEN d   1      -1.407   3.216   1.532  0.00  0.00    -0.003 A 
ATOM      6  C6  DEN d   1      -0.649   3.865   0.594  0.00  0.00     0.001 A 
ATOM      7  C7  DEN d   1       0.120   3.139  -0.277  0.00  0.00     0.017 A 
ATOM      8  C8  DEN d   1       0.144   1.757  -0.144  0.00  0.00    -0.094 A 
ATOM      9  C9  DEN d   1      -0.639   1.119   0.803  0.00  0.00    -0.072 A 
ENDROOT
TORSDOF 0
ENDMDL
