MODEL 1
REMARK minimizedAffinity -5.83829451
REMARK minimizedRMSD -1
REMARK  0 active torsions:
REMARK  status: ('A' for Active; 'I' for Inactive)
ROOT
ATOM      1  C1  DEN d   1      -0.675   3.637   0.251  0.00  0.00     0.130 A 
ATOM      2  C2  DEN d   1       0.034   3.601  -1.025  0.00  0.00    -0.031 A 
ATOM      3  C3  DEN d   1       0.486   2.214  -1.257  0.00  0.00     0.027 A 
ATOM      4  C4  DEN d   1       0.153   0.130   0.226  0.00  0.00     0.027 A 
ATOM      5  C5  DEN d   1      -0.376  -0.332   1.411  0.00  0.00    -0.003 A 
ATOM      6  C6  DEN d   1      -1.007   0.497   2.301  0.00  0.00     0.001 A 
ATOM      7  C7  DEN d   1      -1.165   1.823   1.998  0.00  0.00     0.017 A 
ATOM      8  C8  DEN d   1      -0.627   2.298   0.809  0.00  0.00    -0.094 A 
ATOM      9  C9  DEN d   1      -0.004   1.442  -0.083  0.00  0.00    -0.072 A 
ENDROOT
TORSDOF 0
ENDMDL
