MODEL 1
REMARK minimizedAffinity -3.55629325
REMARK minimizedRMSD -1
REMARK  0 active torsions:
REMARK  status: ('A' for Active; 'I' for Inactive)
ROOT
ATOM      1  C1  DEN d   1      -0.969  -0.370   1.595  0.00  0.00     0.130 A 
ATOM      2  C2  DEN d   1      -1.440   0.857   2.231  0.00  0.00    -0.031 A 
ATOM      3  C3  DEN d   1      -0.910   2.002   1.463  0.00  0.00     0.027 A 
ATOM      4  C4  DEN d   1       0.582   1.993  -0.640  0.00  0.00     0.027 A 
ATOM      5  C5  DEN d   1       1.249   1.191  -1.540  0.00  0.00    -0.003 A 
ATOM      6  C6  DEN d   1       1.251  -0.175  -1.439  0.00  0.00     0.001 A 
ATOM      7  C7  DEN d   1       0.535  -0.783  -0.442  0.00  0.00     0.017 A 
ATOM      8  C8  DEN d   1      -0.133   0.019   0.474  0.00  0.00    -0.094 A 
ATOM      9  C9  DEN d   1      -0.133   1.398   0.348  0.00  0.00    -0.072 A 
ENDROOT
TORSDOF 0
ENDMDL
