MODEL 1
REMARK minimizedAffinity -2.13473248
REMARK minimizedRMSD -1
REMARK  0 active torsions:
REMARK  status: ('A' for Active; 'I' for Inactive)
ROOT
ATOM      1  C1  DEN d   1      -0.236  -0.044  -1.432  0.00  0.00     0.130 A 
ATOM      2  C2  DEN d   1       0.509   0.392  -0.254  0.00  0.00    -0.031 A 
ATOM      3  C3  DEN d   1       1.278  -0.762   0.253  0.00  0.00     0.027 A 
ATOM      4  C4  DEN d   1       1.391  -3.168  -0.669  0.00  0.00     0.027 A 
ATOM      5  C5  DEN d   1       0.923  -4.019  -1.646  0.00  0.00    -0.003 A 
ATOM      6  C6  DEN d   1       0.017  -3.617  -2.591  0.00  0.00     0.001 A 
ATOM      7  C7  DEN d   1      -0.415  -2.317  -2.608  0.00  0.00     0.017 A 
ATOM      8  C8  DEN d   1       0.047  -1.455  -1.622  0.00  0.00    -0.094 A 
ATOM      9  C9  DEN d   1       0.972  -1.878  -0.682  0.00  0.00    -0.072 A 
ENDROOT
TORSDOF 0
ENDMDL
