MODEL 1
REMARK minimizedAffinity 6.36562872
REMARK minimizedRMSD -1
REMARK  0 active torsions:
REMARK  status: ('A' for Active; 'I' for Inactive)
ROOT
ATOM      1  C   UNL d   1      -6.000   0.375  -4.109  0.00  0.00     0.172 C 
ATOM      2  N   UNL d   1      -5.345   0.371  -2.822  0.00  0.00    -0.070 N 
ATOM      3  C1  UNL d   1      -3.992   0.370  -2.614  0.00  0.00    -0.004 A 
ATOM      4  C2  UNL d   1      -3.774   0.366  -1.254  0.00  0.00    -0.047 A 
ATOM      5  C3  UNL d   1      -5.040   0.363  -0.622  0.00  0.00    -0.047 A 
ATOM      6  C4  UNL d   1      -5.995   0.366  -1.616  0.00  0.00    -0.004 A 
ENDROOT
TORSDOF 0
ENDMDL
