MODEL 1
REMARK minimizedAffinity 4.24226999
REMARK minimizedRMSD -1
REMARK  0 active torsions:
REMARK  status: ('A' for Active; 'I' for Inactive)
ROOT
ATOM      1  C   UNL d   1       4.203   3.413   1.348  0.00  0.00     0.172 C 
ATOM      2  N   UNL d   1       3.858   2.652   0.170  0.00  0.00    -0.070 N 
ATOM      3  C1  UNL d   1       3.430   1.351   0.158  0.00  0.00    -0.004 A 
ATOM      4  C2  UNL d   1       3.205   0.994  -1.154  0.00  0.00    -0.047 A 
ATOM      5  C3  UNL d   1       3.510   2.118  -1.958  0.00  0.00    -0.047 A 
ATOM      6  C4  UNL d   1       3.912   3.130  -1.112  0.00  0.00    -0.004 A 
ENDROOT
TORSDOF 0
ENDMDL
