MODEL 1
REMARK minimizedAffinity 10.2167654
REMARK minimizedRMSD -1
REMARK  0 active torsions:
REMARK  status: ('A' for Active; 'I' for Inactive)
ROOT
ATOM      1  C   UNL d   1      -3.365   3.104   0.518  0.00  0.00     0.172 C 
ATOM      2  N   UNL d   1      -3.436   1.898  -0.273  0.00  0.00    -0.070 N 
ATOM      3  C1  UNL d   1      -2.532   1.514  -1.228  0.00  0.00    -0.004 A 
ATOM      4  C2  UNL d   1      -2.955   0.311  -1.749  0.00  0.00    -0.047 A 
ATOM      5  C3  UNL d   1      -4.154  -0.041  -1.086  0.00  0.00    -0.047 A 
ATOM      6  C4  UNL d   1      -4.429   0.959  -0.177  0.00  0.00    -0.004 A 
ENDROOT
TORSDOF 0
ENDMDL
