MODEL 1
REMARK minimizedAffinity 7.2264781
REMARK minimizedRMSD -1
REMARK  0 active torsions:
REMARK  status: ('A' for Active; 'I' for Inactive)
ROOT
ATOM      1  C   UNL d   1       3.382   2.628  -1.517  0.00  0.00     0.172 C 
ATOM      2  N   UNL d   1       4.447   3.223  -2.290  0.00  0.00    -0.070 N 
ATOM      3  C1  UNL d   1       5.030   4.437  -2.044  0.00  0.00    -0.004 A 
ATOM      4  C2  UNL d   1       6.000   4.641  -3.001  0.00  0.00    -0.047 A 
ATOM      5  C3  UNL d   1       5.999   3.511  -3.853  0.00  0.00    -0.047 A 
ATOM      6  C4  UNL d   1       5.028   2.649  -3.390  0.00  0.00    -0.004 A 
ENDROOT
TORSDOF 0
ENDMDL
