MODEL 1
REMARK minimizedAffinity 0.419442117
REMARK minimizedRMSD -1
REMARK  0 active torsions:
REMARK  status: ('A' for Active; 'I' for Inactive)
ROOT
ATOM      1  C   UNL d   1      -4.292   4.131   2.524  0.00  0.00     0.172 C 
ATOM      2  N   UNL d   1      -4.704   4.488   3.861  0.00  0.00    -0.070 N 
ATOM      3  C1  UNL d   1      -3.872   4.881   4.875  0.00  0.00    -0.004 A 
ATOM      4  C2  UNL d   1      -4.649   5.131   5.986  0.00  0.00    -0.047 A 
ATOM      5  C3  UNL d   1      -5.994   4.878   5.627  0.00  0.00    -0.047 A 
ATOM      6  C4  UNL d   1      -6.000   4.481   4.307  0.00  0.00    -0.004 A 
ENDROOT
TORSDOF 0
ENDMDL
