MODEL 1
REMARK minimizedAffinity -4.44748926
REMARK minimizedRMSD -1
REMARK  0 active torsions:
REMARK  status: ('A' for Active; 'I' for Inactive)
ROOT
ATOM      1  C1  BNZ d   1      -0.570   0.723   1.024  0.00  0.00     0.000 A 
ATOM      2  C2  BNZ d   1      -0.611   0.937  -0.328  0.00  0.00     0.000 A 
ATOM      3  C3  BNZ d   1      -0.839   2.187  -0.832  0.00  0.00     0.000 A 
ATOM      4  C4  BNZ d   1      -1.065   3.213   0.015  0.00  0.00     0.000 A 
ATOM      5  C5  BNZ d   1      -1.036   3.011   1.380  0.00  0.00     0.000 A 
ATOM      6  C6  BNZ d   1      -0.768   1.759   1.884  0.00  0.00     0.000 A 
ENDROOT
TORSDOF 0
ENDMDL
