MODEL 1
REMARK minimizedAffinity -4.37776279
REMARK minimizedRMSD -1
REMARK  0 active torsions:
REMARK  status: ('A' for Active; 'I' for Inactive)
ROOT
ATOM      1  C1  BNZ d   1      -0.861   1.064   1.038  0.00  0.00     0.000 A 
ATOM      2  C2  BNZ d   1      -1.488   2.276   1.163  0.00  0.00     0.000 A 
ATOM      3  C3  BNZ d   1      -1.466   3.183   0.141  0.00  0.00     0.000 A 
ATOM      4  C4  BNZ d   1      -0.786   2.896  -0.987  0.00  0.00     0.000 A 
ATOM      5  C5  BNZ d   1      -0.141   1.683  -1.125  0.00  0.00     0.000 A 
ATOM      6  C6  BNZ d   1      -0.197   0.756  -0.109  0.00  0.00     0.000 A 
ENDROOT
TORSDOF 0
ENDMDL
