MODEL 1
REMARK minimizedAffinity -3.94317937
REMARK minimizedRMSD -1
REMARK  0 active torsions:
REMARK  status: ('A' for Active; 'I' for Inactive)
ROOT
ATOM      1  C1  BNZ d   1      -1.298   1.528   0.048  0.00  0.00     0.000 A 
ATOM      2  C2  BNZ d   1      -0.531   0.579  -0.574  0.00  0.00     0.000 A 
ATOM      3  C3  BNZ d   1       0.523  -0.003   0.073  0.00  0.00     0.000 A 
ATOM      4  C4  BNZ d   1       0.833   0.392   1.324  0.00  0.00     0.000 A 
ATOM      5  C5  BNZ d   1       0.075   1.354   1.962  0.00  0.00     0.000 A 
ATOM      6  C6  BNZ d   1      -1.009   1.910   1.322  0.00  0.00     0.000 A 
ENDROOT
TORSDOF 0
ENDMDL
