MODEL 1
REMARK minimizedAffinity -4.12570333
REMARK minimizedRMSD -1
REMARK  0 active torsions:
REMARK  status: ('A' for Active; 'I' for Inactive)
ROOT
ATOM      1  C1  BNZ d   1      -1.039   2.919   0.204  0.00  0.00     0.000 A 
ATOM      2  C2  BNZ d   1      -1.019   1.708  -0.435  0.00  0.00     0.000 A 
ATOM      3  C3  BNZ d   1      -0.665   0.570   0.235  0.00  0.00     0.000 A 
ATOM      4  C4  BNZ d   1      -0.294   0.650   1.529  0.00  0.00     0.000 A 
ATOM      5  C5  BNZ d   1      -0.300   1.865   2.184  0.00  0.00     0.000 A 
ATOM      6  C6  BNZ d   1      -0.694   3.003   1.517  0.00  0.00     0.000 A 
ENDROOT
TORSDOF 0
ENDMDL
