MODEL 1
REMARK minimizedAffinity -3.82422876
REMARK minimizedRMSD -1
REMARK  0 active torsions:
REMARK  status: ('A' for Active; 'I' for Inactive)
ROOT
ATOM      1  C1  BNZ d   1      -0.723   3.013  -0.226  0.00  0.00     0.000 A 
ATOM      2  C2  BNZ d   1      -0.676   2.928   1.140  0.00  0.00     0.000 A 
ATOM      3  C3  BNZ d   1      -0.387   1.743   1.758  0.00  0.00     0.000 A 
ATOM      4  C4  BNZ d   1      -0.186   0.638   1.012  0.00  0.00     0.000 A 
ATOM      5  C5  BNZ d   1      -0.239   0.705  -0.366  0.00  0.00     0.000 A 
ATOM      6  C6  BNZ d   1      -0.491   1.908  -0.986  0.00  0.00     0.000 A 
ENDROOT
TORSDOF 0
ENDMDL
