MODEL 1
REMARK minimizedAffinity -4.07852077
REMARK minimizedRMSD -1
REMARK  0 active torsions:
REMARK  status: ('A' for Active; 'I' for Inactive)
ROOT
ATOM      1  C1  BNZ d   1      -0.813   2.920   1.268  0.00  0.00     0.000 A 
ATOM      2  C2  BNZ d   1      -0.730   1.735   1.950  0.00  0.00     0.000 A 
ATOM      3  C3  BNZ d   1      -0.293   0.599   1.329  0.00  0.00     0.000 A 
ATOM      4  C4  BNZ d   1       0.023   0.639   0.019  0.00  0.00     0.000 A 
ATOM      5  C5  BNZ d   1      -0.064   1.823  -0.686  0.00  0.00     0.000 A 
ATOM      6  C6  BNZ d   1      -0.467   2.974  -0.048  0.00  0.00     0.000 A 
ENDROOT
TORSDOF 0
ENDMDL
