MODEL 1
REMARK minimizedAffinity -5.30042934
REMARK minimizedRMSD -1
REMARK  0 active torsions:
REMARK  status: ('A' for Active; 'I' for Inactive)
ROOT
ATOM      1  C1  BNZ d   1      -0.691   3.096  -0.472  0.00  0.00     0.000 A 
ATOM      2  C2  BNZ d   1      -0.769   3.113   0.896  0.00  0.00     0.000 A 
ATOM      3  C3  BNZ d   1      -0.638   1.961   1.619  0.00  0.00     0.000 A 
ATOM      4  C4  BNZ d   1      -0.469   0.789   0.973  0.00  0.00     0.000 A 
ATOM      5  C5  BNZ d   1      -0.398   0.753  -0.405  0.00  0.00     0.000 A 
ATOM      6  C6  BNZ d   1      -0.491   1.921  -1.128  0.00  0.00     0.000 A 
ENDROOT
TORSDOF 0
ENDMDL
