MODEL 1
REMARK minimizedAffinity -4.74858856
REMARK minimizedRMSD -1
REMARK  0 active torsions:
REMARK  status: ('A' for Active; 'I' for Inactive)
ROOT
ATOM      1  C1  BNZ d   1      -0.465   0.975  -0.127  0.00  0.00     0.000 A 
ATOM      2  C2  BNZ d   1      -0.418   2.104  -0.901  0.00  0.00     0.000 A 
ATOM      3  C3  BNZ d   1      -0.856   3.304  -0.415  0.00  0.00     0.000 A 
ATOM      4  C4  BNZ d   1      -1.378   3.365   0.827  0.00  0.00     0.000 A 
ATOM      5  C5  BNZ d   1      -1.441   2.234   1.616  0.00  0.00     0.000 A 
ATOM      6  C6  BNZ d   1      -0.963   1.036   1.138  0.00  0.00     0.000 A 
ENDROOT
TORSDOF 0
ENDMDL
