MODEL 1
REMARK minimizedAffinity -5.08037663
REMARK minimizedRMSD -1
REMARK  0 active torsions:
REMARK  status: ('A' for Active; 'I' for Inactive)
ROOT
ATOM      1  C   UNL d   1      -1.256   3.412   0.734  0.00  0.00     0.023 A 
ATOM      2  C1  UNL d   1      -0.433   3.283  -0.385  0.00  0.00     0.003 A 
ATOM      3  C2  UNL d   1       0.013   2.021  -0.783  0.00  0.00     0.048 A 
ATOM      4  C3  UNL d   1      -0.368   0.892  -0.058  0.00  0.00     0.023 A 
ATOM      5  C4  UNL d   1      -1.191   1.017   1.062  0.00  0.00     0.048 A 
ATOM      6  C5  UNL d   1      -1.634   2.281   1.457  0.00  0.00     0.003 A 
ATOM      7  I   UNL d   1       0.294  -0.987  -0.649  0.00  0.00    -0.146 I 
ENDROOT
TORSDOF 0
ENDMDL
