MODEL 1
REMARK minimizedAffinity -4.05366993
REMARK minimizedRMSD -1
REMARK  0 active torsions:
REMARK  status: ('A' for Active; 'I' for Inactive)
ROOT
ATOM      1  C   UNL d   1      -1.415   2.277   1.426  0.00  0.00     0.023 A 
ATOM      2  C1  UNL d   1      -1.220   1.027   2.015  0.00  0.00     0.003 A 
ATOM      3  C2  UNL d   1      -0.689  -0.024   1.265  0.00  0.00     0.048 A 
ATOM      4  C3  UNL d   1      -0.353   0.182  -0.073  0.00  0.00     0.023 A 
ATOM      5  C4  UNL d   1      -0.546   1.431  -0.666  0.00  0.00     0.048 A 
ATOM      6  C5  UNL d   1      -1.078   2.478   0.088  0.00  0.00     0.003 A 
ATOM      7  I   UNL d   1       0.438  -1.381  -1.192  0.00  0.00    -0.146 I 
ENDROOT
TORSDOF 0
ENDMDL
