MODEL 1
REMARK minimizedAffinity -3.15368128
REMARK minimizedRMSD -1
REMARK  0 active torsions:
REMARK  status: ('A' for Active; 'I' for Inactive)
ROOT
ATOM      1  C   UNL d   1      -1.509   1.613   1.282  0.00  0.00     0.023 A 
ATOM      2  C1  UNL d   1      -1.233   1.972  -0.038  0.00  0.00     0.003 A 
ATOM      3  C2  UNL d   1      -0.501   1.111  -0.859  0.00  0.00     0.048 A 
ATOM      4  C3  UNL d   1      -0.050  -0.107  -0.354  0.00  0.00     0.023 A 
ATOM      5  C4  UNL d   1      -0.324  -0.471   0.965  0.00  0.00     0.048 A 
ATOM      6  C5  UNL d   1      -1.055   0.393   1.783  0.00  0.00     0.003 A 
ATOM      7  I   UNL d   1       1.039  -1.390  -1.574  0.00  0.00    -0.146 I 
ENDROOT
TORSDOF 0
ENDMDL
