MODEL 1
REMARK minimizedAffinity -0.112823792
REMARK minimizedRMSD -1
REMARK  0 active torsions:
REMARK  status: ('A' for Active; 'I' for Inactive)
ROOT
ATOM      1  C   UNL d   1      -0.664   0.872   0.885  0.00  0.00     0.023 A 
ATOM      2  C1  UNL d   1      -0.569  -0.416   1.411  0.00  0.00     0.003 A 
ATOM      3  C2  UNL d   1      -0.069  -1.457   0.625  0.00  0.00     0.048 A 
ATOM      4  C3  UNL d   1       0.335  -1.202  -0.685  0.00  0.00     0.023 A 
ATOM      5  C4  UNL d   1       0.243   0.086  -1.215  0.00  0.00     0.048 A 
ATOM      6  C5  UNL d   1      -0.259   1.123  -0.426  0.00  0.00     0.003 A 
ATOM      7  I   UNL d   1       1.080  -2.749  -1.855  0.00  0.00    -0.146 I 
ENDROOT
TORSDOF 0
ENDMDL
