MODEL 1
REMARK minimizedAffinity -3.36838603
REMARK minimizedRMSD -1
REMARK  0 active torsions:
REMARK  status: ('A' for Active; 'I' for Inactive)
ROOT
ATOM      1  C   UNL d   1      -1.451   1.807   1.814  0.00  0.00     0.023 A 
ATOM      2  C1  UNL d   1      -0.900   0.709   2.474  0.00  0.00     0.003 A 
ATOM      3  C2  UNL d   1      -0.286  -0.311   1.743  0.00  0.00     0.048 A 
ATOM      4  C3  UNL d   1      -0.227  -0.225   0.353  0.00  0.00     0.023 A 
ATOM      5  C4  UNL d   1      -0.776   0.872  -0.312  0.00  0.00     0.048 A 
ATOM      6  C5  UNL d   1      -1.390   1.889   0.423  0.00  0.00     0.003 A 
ATOM      7  I   UNL d   1       0.686  -1.741  -0.737  0.00  0.00    -0.146 I 
ENDROOT
TORSDOF 0
ENDMDL
