MODEL 1
REMARK minimizedAffinity -3.66576409
REMARK minimizedRMSD -1
REMARK  0 active torsions:
REMARK  status: ('A' for Active; 'I' for Inactive)
ROOT
ATOM      1  C   UNL d   1      -1.532   3.451   0.398  0.00  0.00     0.023 A 
ATOM      2  C1  UNL d   1      -1.837   2.295   1.117  0.00  0.00     0.003 A 
ATOM      3  C2  UNL d   1      -1.202   1.091   0.807  0.00  0.00     0.048 A 
ATOM      4  C3  UNL d   1      -0.262   1.050  -0.223  0.00  0.00     0.023 A 
ATOM      5  C4  UNL d   1       0.047   2.204  -0.944  0.00  0.00     0.048 A 
ATOM      6  C5  UNL d   1      -0.591   3.406  -0.631  0.00  0.00     0.003 A 
ATOM      7  I   UNL d   1       0.685  -0.742  -0.685  0.00  0.00    -0.146 I 
ENDROOT
TORSDOF 0
ENDMDL
