MODEL 1
REMARK minimizedAffinity -1.99478185
REMARK minimizedRMSD -1
REMARK  0 active torsions:
REMARK  status: ('A' for Active; 'I' for Inactive)
ROOT
ATOM      1  C   UNL d   1      -1.843   1.917   1.439  0.00  0.00     0.023 A 
ATOM      2  C1  UNL d   1      -1.279   2.157   0.186  0.00  0.00     0.003 A 
ATOM      3  C2  UNL d   1      -0.537   1.159  -0.450  0.00  0.00     0.048 A 
ATOM      4  C3  UNL d   1      -0.364  -0.076   0.172  0.00  0.00     0.023 A 
ATOM      5  C4  UNL d   1      -0.927  -0.321   1.426  0.00  0.00     0.048 A 
ATOM      6  C5  UNL d   1      -1.667   0.680   2.058  0.00  0.00     0.003 A 
ATOM      7  I   UNL d   1       0.739  -1.563  -0.772  0.00  0.00    -0.146 I 
ENDROOT
TORSDOF 0
ENDMDL
