MODEL 1
REMARK minimizedAffinity -2.07250667
REMARK minimizedRMSD -1
REMARK  0 active torsions:
REMARK  status: ('A' for Active; 'I' for Inactive)
ROOT
ATOM      1  C   UNL d   1      -1.095   2.254   1.505  0.00  0.00     0.023 A 
ATOM      2  C1  UNL d   1      -0.617   2.479   0.214  0.00  0.00     0.003 A 
ATOM      3  C2  UNL d   1      -0.104   1.419  -0.537  0.00  0.00     0.048 A 
ATOM      4  C3  UNL d   1      -0.072   0.137   0.010  0.00  0.00     0.023 A 
ATOM      5  C4  UNL d   1      -0.550  -0.093   1.301  0.00  0.00     0.048 A 
ATOM      6  C5  UNL d   1      -1.061   0.970   2.048  0.00  0.00     0.003 A 
ATOM      7  I   UNL d   1       0.690  -1.443  -1.105  0.00  0.00    -0.146 I 
ENDROOT
TORSDOF 0
ENDMDL
