MODEL 1
REMARK minimizedAffinity -2.93259835
REMARK minimizedRMSD -1
REMARK  0 active torsions:
REMARK  status: ('A' for Active; 'I' for Inactive)
ROOT
ATOM      1  C   UNL d   1      -2.209   1.697   1.478  0.00  0.00     0.023 A 
ATOM      2  C1  UNL d   1      -1.236   1.025   2.218  0.00  0.00     0.003 A 
ATOM      3  C2  UNL d   1      -0.219   0.327   1.565  0.00  0.00     0.048 A 
ATOM      4  C3  UNL d   1      -0.179   0.305   0.171  0.00  0.00     0.023 A 
ATOM      5  C4  UNL d   1      -1.150   0.977  -0.574  0.00  0.00     0.048 A 
ATOM      6  C5  UNL d   1      -2.166   1.673   0.084  0.00  0.00     0.003 A 
ATOM      7  I   UNL d   1       1.335  -0.733  -0.803  0.00  0.00    -0.146 I 
ENDROOT
TORSDOF 0
ENDMDL
