MODEL 1
REMARK minimizedAffinity -4.09333801
REMARK minimizedRMSD -1
REMARK  0 active torsions:
REMARK  status: ('A' for Active; 'I' for Inactive)
ROOT
ATOM      1  C   UNL d   1      -1.288   2.399   1.382  0.00  0.00     0.023 A 
ATOM      2  C1  UNL d   1      -0.837   2.569   0.073  0.00  0.00     0.003 A 
ATOM      3  C2  UNL d   1      -0.114   1.553  -0.555  0.00  0.00     0.048 A 
ATOM      4  C3  UNL d   1       0.153   0.368   0.131  0.00  0.00     0.023 A 
ATOM      5  C4  UNL d   1      -0.298   0.193   1.440  0.00  0.00     0.048 A 
ATOM      6  C5  UNL d   1      -1.019   1.213   2.065  0.00  0.00     0.003 A 
ATOM      7  I   UNL d   1       1.228  -1.146  -0.802  0.00  0.00    -0.146 I 
ENDROOT
TORSDOF 0
ENDMDL
