MODEL 1
REMARK minimizedAffinity -4.6216321
REMARK minimizedRMSD -1
REMARK  0 active torsions:
REMARK  status: ('A' for Active; 'I' for Inactive)
ROOT
ATOM      1  C   UNL d   1      -1.688   1.776   1.653  0.00  0.00     0.023 A 
ATOM      2  C1  UNL d   1      -1.624   0.472   2.143  0.00  0.00     0.003 A 
ATOM      3  C2  UNL d   1      -0.997  -0.527   1.395  0.00  0.00     0.048 A 
ATOM      4  C3  UNL d   1      -0.435  -0.213   0.158  0.00  0.00     0.023 A 
ATOM      5  C4  UNL d   1      -0.496   1.091  -0.336  0.00  0.00     0.048 A 
ATOM      6  C5  UNL d   1      -1.125   2.085   0.415  0.00  0.00     0.003 A 
ATOM      7  I   UNL d   1       0.499  -1.698  -0.958  0.00  0.00    -0.146 I 
ENDROOT
TORSDOF 0
ENDMDL
