MODEL 1
REMARK minimizedAffinity -3.46497846
REMARK minimizedRMSD -1
REMARK  0 active torsions:
REMARK  status: ('A' for Active; 'I' for Inactive)
ROOT
ATOM      1  C   UNL d   1      -0.782   1.194   0.948  0.00  0.00     0.023 A 
ATOM      2  C1  UNL d   1      -1.530   0.018   1.010  0.00  0.00     0.003 A 
ATOM      3  C2  UNL d   1      -1.067  -1.140   0.384  0.00  0.00     0.048 A 
ATOM      4  C3  UNL d   1       0.147  -1.117  -0.302  0.00  0.00     0.023 A 
ATOM      5  C4  UNL d   1       0.899   0.057  -0.367  0.00  0.00     0.048 A 
ATOM      6  C5  UNL d   1       0.431   1.213   0.260  0.00  0.00     0.003 A 
ATOM      7  I   UNL d   1       0.840  -2.840  -1.235  0.00  0.00    -0.146 I 
ENDROOT
TORSDOF 0
ENDMDL
