MODEL 1
REMARK minimizedAffinity -1.625646
REMARK minimizedRMSD -1
REMARK  0 active torsions:
REMARK  status: ('A' for Active; 'I' for Inactive)
ROOT
ATOM      1  C   UNL d   1      -1.137   1.063   0.756  0.00  0.00     0.023 A 
ATOM      2  C1  UNL d   1      -0.689  -0.120   1.343  0.00  0.00     0.003 A 
ATOM      3  C2  UNL d   1      -0.061  -1.093   0.563  0.00  0.00     0.048 A 
ATOM      4  C3  UNL d   1       0.117  -0.876  -0.803  0.00  0.00     0.023 A 
ATOM      5  C4  UNL d   1      -0.329   0.307  -1.394  0.00  0.00     0.048 A 
ATOM      6  C5  UNL d   1      -0.957   1.277  -0.610  0.00  0.00     0.003 A 
ATOM      7  I   UNL d   1       1.052  -2.323  -1.966  0.00  0.00    -0.146 I 
ENDROOT
TORSDOF 0
ENDMDL
