MODEL 1
REMARK minimizedAffinity -3.57432127
REMARK minimizedRMSD -1
REMARK  0 active torsions:
REMARK  status: ('A' for Active; 'I' for Inactive)
ROOT
ATOM      1  C   UNL d   1      -0.577   2.211  -1.980  0.00  0.00     0.023 A 
ATOM      2  C1  UNL d   1      -0.200   2.773  -0.760  0.00  0.00     0.003 A 
ATOM      3  C2  UNL d   1      -0.054   1.962   0.367  0.00  0.00     0.048 A 
ATOM      4  C3  UNL d   1      -0.286   0.591   0.268  0.00  0.00     0.023 A 
ATOM      5  C4  UNL d   1      -0.663   0.024  -0.951  0.00  0.00     0.048 A 
ATOM      6  C5  UNL d   1      -0.809   0.839  -2.075  0.00  0.00     0.003 A 
ATOM      7  I   UNL d   1      -0.070  -0.618   1.945  0.00  0.00    -0.146 I 
ENDROOT
TORSDOF 0
ENDMDL
