MODEL 1
REMARK minimizedAffinity -4.28373575
REMARK minimizedRMSD -1
REMARK  0 active torsions:
REMARK  status: ('A' for Active; 'I' for Inactive)
ROOT
ATOM      1  C   UNL d   1      -0.041  -0.537   2.158  0.00  0.00     0.023 A 
ATOM      2  C1  UNL d   1      -1.405  -0.597   1.876  0.00  0.00     0.003 A 
ATOM      3  C2  UNL d   1      -1.894  -0.085   0.672  0.00  0.00     0.048 A 
ATOM      4  C3  UNL d   1      -1.013   0.487  -0.245  0.00  0.00     0.023 A 
ATOM      5  C4  UNL d   1       0.354   0.549   0.033  0.00  0.00     0.048 A 
ATOM      6  C5  UNL d   1       0.838   0.036   1.238  0.00  0.00     0.003 A 
ATOM      7  I   UNL d   1      -1.738   1.250  -2.037  0.00  0.00    -0.146 I 
ENDROOT
TORSDOF 0
ENDMDL
