MODEL 1
REMARK minimizedAffinity -2.10103011
REMARK minimizedRMSD -1
REMARK  0 active torsions:
REMARK  status: ('A' for Active; 'I' for Inactive)
ROOT
ATOM      1  C   UNL d   1      -1.257   4.188  -2.698  0.00  0.00     0.023 A 
ATOM      2  C1  UNL d   1      -2.271   3.235  -2.599  0.00  0.00     0.003 A 
ATOM      3  C2  UNL d   1      -1.977   1.945  -2.151  0.00  0.00     0.048 A 
ATOM      4  C3  UNL d   1      -0.667   1.616  -1.803  0.00  0.00     0.023 A 
ATOM      5  C4  UNL d   1       0.350   2.566  -1.900  0.00  0.00     0.048 A 
ATOM      6  C5  UNL d   1       0.052   3.854  -2.349  0.00  0.00     0.003 A 
ATOM      7  I   UNL d   1      -0.228  -0.303  -1.135  0.00  0.00    -0.146 I 
ENDROOT
TORSDOF 0
ENDMDL
