MODEL 1
REMARK minimizedAffinity -4.44003296
REMARK minimizedRMSD -1
REMARK  0 active torsions:
REMARK  status: ('A' for Active; 'I' for Inactive)
ROOT
ATOM      1  C   UNL d   1       1.361  -0.972   2.814  0.00  0.00     0.023 A 
ATOM      2  C1  UNL d   1       2.053  -0.114   1.960  0.00  0.00     0.003 A 
ATOM      3  C2  UNL d   1       1.407   0.448   0.857  0.00  0.00     0.048 A 
ATOM      4  C3  UNL d   1       0.067   0.147   0.614  0.00  0.00     0.023 A 
ATOM      5  C4  UNL d   1      -0.630  -0.711   1.466  0.00  0.00     0.048 A 
ATOM      6  C5  UNL d   1       0.021  -1.271   2.567  0.00  0.00     0.003 A 
ATOM      7  I   UNL d   1      -0.898   0.981  -1.027  0.00  0.00    -0.146 I 
ENDROOT
TORSDOF 0
ENDMDL
