MODEL 1
REMARK minimizedAffinity -3.99118185
REMARK minimizedRMSD -1
REMARK  0 active torsions:
REMARK  status: ('A' for Active; 'I' for Inactive)
ROOT
ATOM      1  C   UNL d   1       1.567  -1.446   2.442  0.00  0.00     0.023 A 
ATOM      2  C1  UNL d   1       0.370  -0.774   2.689  0.00  0.00     0.003 A 
ATOM      3  C2  UNL d   1      -0.264  -0.073   1.661  0.00  0.00     0.048 A 
ATOM      4  C3  UNL d   1       0.303  -0.051   0.387  0.00  0.00     0.023 A 
ATOM      5  C4  UNL d   1       1.500  -0.723   0.135  0.00  0.00     0.048 A 
ATOM      6  C5  UNL d   1       2.131  -1.421   1.166  0.00  0.00     0.003 A 
ATOM      7  I   UNL d   1      -0.639   0.991  -1.145  0.00  0.00    -0.146 I 
ENDROOT
TORSDOF 0
ENDMDL
