MODEL 1
REMARK minimizedAffinity 1.64988363
REMARK minimizedRMSD -1
REMARK  0 active torsions:
REMARK  status: ('A' for Active; 'I' for Inactive)
ROOT
ATOM      1  C   UNL d   1      -2.268  -0.284   1.104  0.00  0.00     0.023 A 
ATOM      2  C1  UNL d   1      -1.252  -0.889   0.362  0.00  0.00     0.003 A 
ATOM      3  C2  UNL d   1       0.026  -1.024   0.907  0.00  0.00     0.048 A 
ATOM      4  C3  UNL d   1       0.282  -0.555   2.195  0.00  0.00     0.023 A 
ATOM      5  C4  UNL d   1      -0.731   0.050   2.941  0.00  0.00     0.048 A 
ATOM      6  C5  UNL d   1      -2.007   0.184   2.392  0.00  0.00     0.003 A 
ATOM      7  I   UNL d   1       2.184  -0.756   3.008  0.00  0.00    -0.146 I 
ENDROOT
TORSDOF 0
ENDMDL
