MODEL 1
REMARK minimizedAffinity -1.31503832
REMARK minimizedRMSD -1
REMARK  0 active torsions:
REMARK  status: ('A' for Active; 'I' for Inactive)
ROOT
ATOM      1  C   UNL d   1       1.552  -0.883   2.961  0.00  0.00     0.023 A 
ATOM      2  C1  UNL d   1       0.909   0.097   3.718  0.00  0.00     0.003 A 
ATOM      3  C2  UNL d   1      -0.404   0.465   3.417  0.00  0.00     0.048 A 
ATOM      4  C3  UNL d   1      -1.068  -0.151   2.357  0.00  0.00     0.023 A 
ATOM      5  C4  UNL d   1      -0.429  -1.132   1.597  0.00  0.00     0.048 A 
ATOM      6  C5  UNL d   1       0.884  -1.496   1.902  0.00  0.00     0.003 A 
ATOM      7  I   UNL d   1      -3.022   0.395   1.906  0.00  0.00    -0.146 I 
ENDROOT
TORSDOF 0
ENDMDL
