MODEL 1
REMARK minimizedAffinity -0.106787913
REMARK minimizedRMSD -1
REMARK  0 active torsions:
REMARK  status: ('A' for Active; 'I' for Inactive)
ROOT
ATOM      1  C4' PXY d   1      -3.390   3.171  -3.379  0.00  0.00     0.077 C 
ATOM      2  C1' PXY d   1      -2.828  -2.065  -5.763  0.00  0.00     0.077 C 
ATOM      3  C1  PXY d   1      -2.983  -0.697  -5.129  0.00  0.00    -0.082 A 
ATOM      4  C2  PXY d   1      -2.761   0.389  -5.852  0.00  0.00     0.003 A 
ATOM      5  C3  PXY d   1      -2.866   1.633  -5.286  0.00  0.00     0.003 A 
ATOM      6  C4  PXY d   1      -3.254   1.769  -3.980  0.00  0.00    -0.082 A 
ATOM      7  C5  PXY d   1      -3.494   0.667  -3.238  0.00  0.00     0.003 A 
ATOM      8  C6  PXY d   1      -3.342  -0.588  -3.821  0.00  0.00     0.003 A 
ENDROOT
TORSDOF 0
ENDMDL
