MODEL 1
REMARK minimizedAffinity 9.17834759
REMARK minimizedRMSD -1
REMARK  0 active torsions:
REMARK  status: ('A' for Active; 'I' for Inactive)
ROOT
ATOM      1  C4' PXY d   1      -2.870   3.781  -3.501  0.00  0.00     0.077 C 
ATOM      2  C1' PXY d   1      -4.529  -1.702  -4.274  0.00  0.00     0.077 C 
ATOM      3  C1  PXY d   1      -4.089  -0.264  -4.083  0.00  0.00    -0.082 A 
ATOM      4  C2  PXY d   1      -3.859   0.193  -2.863  0.00  0.00     0.003 A 
ATOM      5  C3  PXY d   1      -3.492   1.500  -2.670  0.00  0.00     0.003 A 
ATOM      6  C4  PXY d   1      -3.306   2.333  -3.741  0.00  0.00    -0.082 A 
ATOM      7  C5  PXY d   1      -3.529   1.871  -4.990  0.00  0.00     0.003 A 
ATOM      8  C6  PXY d   1      -3.941   0.552  -5.161  0.00  0.00     0.003 A 
ENDROOT
TORSDOF 0
ENDMDL
