MODEL 1
REMARK minimizedAffinity 3.28518438
REMARK minimizedRMSD -1
REMARK  0 active torsions:
REMARK  status: ('A' for Active; 'I' for Inactive)
ROOT
ATOM      1  C4' PXY d   1      -5.996   1.653  -5.274  0.00  0.00     0.077 C 
ATOM      2  C1' PXY d   1      -1.484  -1.854  -4.401  0.00  0.00     0.077 C 
ATOM      3  C1  PXY d   1      -2.675  -0.943  -4.624  0.00  0.00    -0.082 A 
ATOM      4  C2  PXY d   1      -2.647  -0.058  -5.607  0.00  0.00     0.003 A 
ATOM      5  C3  PXY d   1      -3.702   0.795  -5.803  0.00  0.00     0.003 A 
ATOM      6  C4  PXY d   1      -4.820   0.706  -5.018  0.00  0.00    -0.082 A 
ATOM      7  C5  PXY d   1      -4.861  -0.201  -4.019  0.00  0.00     0.003 A 
ATOM      8  C6  PXY d   1      -3.763  -1.030  -3.811  0.00  0.00     0.003 A 
ENDROOT
TORSDOF 0
ENDMDL
