MODEL 1
REMARK minimizedAffinity -1.42671108
REMARK minimizedRMSD -1
REMARK  0 active torsions:
REMARK  status: ('A' for Active; 'I' for Inactive)
ROOT
ATOM      1  C4' PXY d   1      -2.623  -0.747  -0.530  0.00  0.00     0.077 C 
ATOM      2  C1' PXY d   1      -4.040   0.479  -5.998  0.00  0.00     0.077 C 
ATOM      3  C1  PXY d   1      -3.661   0.169  -4.563  0.00  0.00    -0.082 A 
ATOM      4  C2  PXY d   1      -3.677  -1.084  -4.139  0.00  0.00     0.003 A 
ATOM      5  C3  PXY d   1      -3.368  -1.380  -2.836  0.00  0.00     0.003 A 
ATOM      6  C4  PXY d   1      -2.989  -0.388  -1.972  0.00  0.00    -0.082 A 
ATOM      7  C5  PXY d   1      -2.960   0.892  -2.400  0.00  0.00     0.003 A 
ATOM      8  C6  PXY d   1      -3.317   1.176  -3.716  0.00  0.00     0.003 A 
ENDROOT
TORSDOF 0
ENDMDL
