MODEL 1
REMARK minimizedAffinity 3.72749329
REMARK minimizedRMSD -1
REMARK  0 active torsions:
REMARK  status: ('A' for Active; 'I' for Inactive)
ROOT
ATOM      1  C4' PXY d   1      -5.999   1.600  -4.942  0.00  0.00     0.077 C 
ATOM      2  C1' PXY d   1      -1.477  -1.995  -4.728  0.00  0.00     0.077 C 
ATOM      3  C1  PXY d   1      -2.666  -1.055  -4.772  0.00  0.00    -0.082 A 
ATOM      4  C2  PXY d   1      -3.184  -0.710  -5.940  0.00  0.00     0.003 A 
ATOM      5  C3  PXY d   1      -4.239   0.163  -5.999  0.00  0.00     0.003 A 
ATOM      6  C4  PXY d   1      -4.804   0.647  -4.850  0.00  0.00    -0.082 A 
ATOM      7  C5  PXY d   1      -4.288   0.291  -3.654  0.00  0.00     0.003 A 
ATOM      8  C6  PXY d   1      -3.191  -0.565  -3.617  0.00  0.00     0.003 A 
ENDROOT
TORSDOF 0
ENDMDL
