MODEL 1
REMARK minimizedAffinity 4.80469227
REMARK minimizedRMSD -1
REMARK  0 active torsions:
REMARK  status: ('A' for Active; 'I' for Inactive)
ROOT
ATOM      1  C4' PXY d   1      -1.098  -1.724  -4.860  0.00  0.00     0.077 C 
ATOM      2  C1' PXY d   1      -6.000   1.339  -4.908  0.00  0.00     0.077 C 
ATOM      3  C1  PXY d   1      -4.713   0.538  -4.883  0.00  0.00    -0.082 A 
ATOM      4  C2  PXY d   1      -4.019   0.380  -5.998  0.00  0.00     0.003 A 
ATOM      5  C3  PXY d   1      -2.870  -0.368  -6.000  0.00  0.00     0.003 A 
ATOM      6  C4  PXY d   1      -2.398  -0.916  -4.837  0.00  0.00    -0.082 A 
ATOM      7  C5  PXY d   1      -3.094  -0.749  -3.693  0.00  0.00     0.003 A 
ATOM      8  C6  PXY d   1      -4.280  -0.021  -3.720  0.00  0.00     0.003 A 
ENDROOT
TORSDOF 0
ENDMDL
