MODEL 1
REMARK minimizedAffinity -0.0163561068
REMARK minimizedRMSD -1
REMARK  0 active torsions:
REMARK  status: ('A' for Active; 'I' for Inactive)
ROOT
ATOM      1  C4' PXY d   1      -5.997   0.747  -6.000  0.00  0.00     0.077 C 
ATOM      2  C1' PXY d   1      -1.466  -1.220  -2.997  0.00  0.00     0.077 C 
ATOM      3  C1  PXY d   1      -2.648  -0.694  -3.788  0.00  0.00    -0.082 A 
ATOM      4  C2  PXY d   1      -3.868  -1.117  -3.500  0.00  0.00     0.003 A 
ATOM      5  C3  PXY d   1      -4.944  -0.676  -4.226  0.00  0.00     0.003 A 
ATOM      6  C4  PXY d   1      -4.776   0.249  -5.222  0.00  0.00    -0.082 A 
ATOM      7  C5  PXY d   1      -3.536   0.694  -5.514  0.00  0.00     0.003 A 
ATOM      8  C6  PXY d   1      -2.451   0.202  -4.792  0.00  0.00     0.003 A 
ENDROOT
TORSDOF 0
ENDMDL
