MODEL 1
REMARK minimizedAffinity 1.5471648
REMARK minimizedRMSD -1
REMARK  0 active torsions:
REMARK  status: ('A' for Active; 'I' for Inactive)
ROOT
ATOM      1  C4' PXY d   1       2.916   0.680  -0.213  0.00  0.00     0.077 C 
ATOM      2  C1' PXY d   1       5.637  -4.254   1.076  0.00  0.00     0.077 C 
ATOM      3  C1  PXY d   1       4.913  -2.967   0.733  0.00  0.00    -0.082 A 
ATOM      4  C2  PXY d   1       5.609  -1.862   0.521  0.00  0.00     0.003 A 
ATOM      5  C3  PXY d   1       4.969  -0.682   0.242  0.00  0.00     0.003 A 
ATOM      6  C4  PXY d   1       3.605  -0.645   0.126  0.00  0.00    -0.082 A 
ATOM      7  C5  PXY d   1       2.889  -1.770   0.331  0.00  0.00     0.003 A 
ATOM      8  C6  PXY d   1       3.555  -2.949   0.654  0.00  0.00     0.003 A 
ENDROOT
TORSDOF 0
ENDMDL
