MODEL 1
REMARK minimizedAffinity 3.01090097
REMARK minimizedRMSD -1
REMARK  0 active torsions:
REMARK  status: ('A' for Active; 'I' for Inactive)
ROOT
ATOM      1  C4' PXY d   1      -2.302   1.736  -5.999  0.00  0.00     0.077 C 
ATOM      2  C1' PXY d   1      -4.792  -2.668  -3.202  0.00  0.00     0.077 C 
ATOM      3  C1  PXY d   1      -4.150  -1.507  -3.937  0.00  0.00    -0.082 A 
ATOM      4  C2  PXY d   1      -2.996  -1.684  -4.558  0.00  0.00     0.003 A 
ATOM      5  C3  PXY d   1      -2.386  -0.637  -5.201  0.00  0.00     0.003 A 
ATOM      6  C4  PXY d   1      -2.991   0.590  -5.253  0.00  0.00    -0.082 A 
ATOM      7  C5  PXY d   1      -4.174   0.776  -4.630  0.00  0.00     0.003 A 
ATOM      8  C6  PXY d   1      -4.756  -0.289  -3.948  0.00  0.00     0.003 A 
ENDROOT
TORSDOF 0
ENDMDL
