MODEL 1
REMARK minimizedAffinity 10.8047495
REMARK minimizedRMSD -1
REMARK  2 active torsions:
REMARK  status: ('A' for Active; 'I' for Inactive)
REMARK    1  A    between atoms: C2'_3  and  C1'_4 
REMARK    2  A    between atoms: C1'_4  and  C1_5 
ROOT
ATOM      1  C1  I4B d   1      -1.128   0.107  -1.082  0.00  0.00    -0.075 A 
ATOM      2  C2  I4B d   1      -1.164  -1.248  -0.869  0.00  0.00     0.003 A 
ATOM      3  C3  I4B d   1      -0.755  -1.785   0.376  0.00  0.00     0.002 A 
ATOM      4  C4  I4B d   1      -0.273  -0.941   1.355  0.00  0.00    -0.004 A 
ATOM      5  C5  I4B d   1      -0.258   0.435   1.146  0.00  0.00     0.002 A 
ATOM      6  C6  I4B d   1      -0.700   0.964  -0.076  0.00  0.00     0.003 A 
ENDROOT
BRANCH   1   7
ATOM      7  C1' I4B d   1      -1.536   0.638  -2.419  0.00  0.00     0.060 C 
BRANCH   7   8
ATOM      8  C2' I4B d   1      -3.042   0.809  -2.414  0.00  0.00    -0.013 C 
ATOM      9  C4' I4B d   1      -3.433   2.209  -2.805  0.00  0.00     0.013 C 
ATOM     10  C3' I4B d   1      -3.625  -0.200  -3.359  0.00  0.00     0.013 C 
ENDBRANCH   7   8
ENDBRANCH   1   7
TORSDOF 2
ENDMDL
