MODEL 1
REMARK minimizedAffinity 8.40785313
REMARK minimizedRMSD -1
REMARK  2 active torsions:
REMARK  status: ('A' for Active; 'I' for Inactive)
REMARK    1  A    between atoms: C2'_3  and  C1'_4 
REMARK    2  A    between atoms: C1'_4  and  C1_5 
ROOT
ATOM      1  C1  I4B d   1       3.982  -3.666  -4.997  0.00  0.00    -0.075 A 
ATOM      2  C2  I4B d   1       3.697  -4.910  -4.491  0.00  0.00     0.003 A 
ATOM      3  C3  I4B d   1       4.577  -5.994  -4.725  0.00  0.00     0.002 A 
ATOM      4  C4  I4B d   1       5.698  -5.803  -5.507  0.00  0.00    -0.004 A 
ATOM      5  C5  I4B d   1       5.998  -4.536  -6.000  0.00  0.00     0.002 A 
ATOM      6  C6  I4B d   1       5.141  -3.458  -5.733  0.00  0.00     0.003 A 
ENDROOT
BRANCH   1   7
ATOM      7  C1' I4B d   1       3.014  -2.551  -4.759  0.00  0.00     0.060 C 
BRANCH   7   8
ATOM      8  C2' I4B d   1       2.657  -2.549  -3.287  0.00  0.00    -0.013 C 
ATOM      9  C4' I4B d   1       3.459  -1.520  -2.533  0.00  0.00     0.013 C 
ATOM     10  C3' I4B d   1       1.186  -2.284  -3.167  0.00  0.00     0.013 C 
ENDBRANCH   7   8
ENDBRANCH   1   7
TORSDOF 2
ENDMDL
