MODEL 1
REMARK minimizedAffinity 6.2938633
REMARK minimizedRMSD -1
REMARK  2 active torsions:
REMARK  status: ('A' for Active; 'I' for Inactive)
REMARK    1  A    between atoms: C2'_3  and  C1'_4 
REMARK    2  A    between atoms: C1'_4  and  C1_5 
ROOT
ATOM      1  C1  I4B d   1      -4.409  -0.140  -2.953  0.00  0.00    -0.075 A 
ATOM      2  C2  I4B d   1      -4.536   1.174  -2.577  0.00  0.00     0.003 A 
ATOM      3  C3  I4B d   1      -3.388   1.941  -2.265  0.00  0.00     0.002 A 
ATOM      4  C4  I4B d   1      -2.144   1.344  -2.292  0.00  0.00    -0.004 A 
ATOM      5  C5  I4B d   1      -2.014   0.018  -2.696  0.00  0.00     0.002 A 
ATOM      6  C6  I4B d   1      -3.152  -0.725  -3.041  0.00  0.00     0.003 A 
ENDROOT
BRANCH   1   7
ATOM      7  C1' I4B d   1      -5.645  -0.930  -3.244  0.00  0.00     0.060 C 
BRANCH   7   8
ATOM      8  C2' I4B d   1      -5.365  -1.810  -4.446  0.00  0.00    -0.013 C 
ATOM      9  C4' I4B d   1      -5.910  -3.199  -4.243  0.00  0.00     0.013 C 
ATOM     10  C3' I4B d   1      -5.978  -1.158  -5.649  0.00  0.00     0.013 C 
ENDBRANCH   7   8
ENDBRANCH   1   7
TORSDOF 2
ENDMDL
