MODEL 1
REMARK minimizedAffinity -1.2542752
REMARK minimizedRMSD -1
REMARK  2 active torsions:
REMARK  status: ('A' for Active; 'I' for Inactive)
REMARK    1  A    between atoms: C2'_3  and  C1'_4 
REMARK    2  A    between atoms: C1'_4  and  C1_5 
ROOT
ATOM      1  C1  I4B d   1       6.000  -3.247  -4.438  0.00  0.00    -0.075 A 
ATOM      2  C2  I4B d   1       5.999  -4.135  -3.391  0.00  0.00     0.003 A 
ATOM      3  C3  I4B d   1       5.975  -5.529  -3.639  0.00  0.00     0.002 A 
ATOM      4  C4  I4B d   1       5.903  -5.987  -4.939  0.00  0.00    -0.004 A 
ATOM      5  C5  I4B d   1       5.927  -5.086  -5.999  0.00  0.00     0.002 A 
ATOM      6  C6  I4B d   1       5.989  -3.708  -5.748  0.00  0.00     0.003 A 
ENDROOT
BRANCH   1   7
ATOM      7  C1' I4B d   1       5.992  -1.781  -4.140  0.00  0.00     0.060 C 
BRANCH   7   8
ATOM      8  C2' I4B d   1       5.037  -1.113  -5.108  0.00  0.00    -0.013 C 
ATOM      9  C4' I4B d   1       3.695  -0.869  -4.469  0.00  0.00     0.013 C 
ATOM     10  C3' I4B d   1       5.662   0.172  -5.562  0.00  0.00     0.013 C 
ENDBRANCH   7   8
ENDBRANCH   1   7
TORSDOF 2
ENDMDL
