MODEL 1
REMARK minimizedAffinity -3.3697927
REMARK minimizedRMSD -1
REMARK  0 active torsions:
REMARK  status: ('A' for Active; 'I' for Inactive)
ROOT
ATOM      1  C1  DEN d   1       1.071   0.830   0.906  0.00  0.00     0.130 A 
ATOM      2  C2  DEN d   1      -0.082   0.189   1.534  0.00  0.00    -0.031 A 
ATOM      3  C3  DEN d   1      -0.747  -0.650   0.517  0.00  0.00     0.027 A 
ATOM      4  C4  DEN d   1      -0.106  -1.021  -1.953  0.00  0.00     0.027 A 
ATOM      5  C5  DEN d   1       0.789  -0.681  -2.944  0.00  0.00    -0.003 A 
ATOM      6  C6  DEN d   1       1.811   0.205  -2.732  0.00  0.00     0.001 A 
ATOM      7  C7  DEN d   1       1.992   0.748  -1.487  0.00  0.00     0.017 A 
ATOM      8  C8  DEN d   1       1.090   0.416  -0.485  0.00  0.00    -0.094 A 
ATOM      9  C9  DEN d   1       0.070  -0.492  -0.716  0.00  0.00    -0.072 A 
ENDROOT
TORSDOF 0
ENDMDL
