MODEL 1
REMARK minimizedAffinity -2.80778646
REMARK minimizedRMSD -1
REMARK  0 active torsions:
REMARK  status: ('A' for Active; 'I' for Inactive)
ROOT
ATOM      1  C1  DEN d   1      -2.199   1.304   2.021  0.00  0.00     0.130 A 
ATOM      2  C2  DEN d   1      -3.127   0.181   2.124  0.00  0.00    -0.031 A 
ATOM      3  C3  DEN d   1      -2.562  -0.950   1.359  0.00  0.00     0.027 A 
ATOM      4  C4  DEN d   1      -0.351  -1.071   0.038  0.00  0.00     0.027 A 
ATOM      5  C5  DEN d   1       0.767  -0.364  -0.348  0.00  0.00    -0.003 A 
ATOM      6  C6  DEN d   1       0.956   0.948  -0.003  0.00  0.00     0.001 A 
ATOM      7  C7  DEN d   1       0.034   1.581   0.788  0.00  0.00     0.017 A 
ATOM      8  C8  DEN d   1      -1.098   0.877   1.176  0.00  0.00    -0.094 A 
ATOM      9  C9  DEN d   1      -1.265  -0.452   0.827  0.00  0.00    -0.072 A 
ENDROOT
TORSDOF 0
ENDMDL
