MODEL 1
REMARK minimizedAffinity -3.93579197
REMARK minimizedRMSD -1
REMARK  0 active torsions:
REMARK  status: ('A' for Active; 'I' for Inactive)
ROOT
ATOM      1  C1  DEN d   1      -1.144  -0.467  -0.611  0.00  0.00     0.130 A 
ATOM      2  C2  DEN d   1      -1.239   0.025   0.760  0.00  0.00    -0.031 A 
ATOM      3  C3  DEN d   1       0.037   0.688   1.097  0.00  0.00     0.027 A 
ATOM      4  C4  DEN d   1       2.137   1.003  -0.366  0.00  0.00     0.027 A 
ATOM      5  C5  DEN d   1       2.696   0.746  -1.598  0.00  0.00    -0.003 A 
ATOM      6  C6  DEN d   1       2.032   0.042  -2.568  0.00  0.00     0.001 A 
ATOM      7  C7  DEN d   1       0.753  -0.390  -2.338  0.00  0.00     0.017 A 
ATOM      8  C8  DEN d   1       0.186  -0.140  -1.095  0.00  0.00    -0.094 A 
ATOM      9  C9  DEN d   1       0.868   0.583  -0.132  0.00  0.00    -0.072 A 
ENDROOT
TORSDOF 0
ENDMDL
