MODEL 1
REMARK minimizedAffinity -3.21248937
REMARK minimizedRMSD -1
REMARK  0 active torsions:
REMARK  status: ('A' for Active; 'I' for Inactive)
ROOT
ATOM      1  C1  DEN d   1       0.428   1.571  -1.454  0.00  0.00     0.130 A 
ATOM      2  C2  DEN d   1       1.376   0.860  -2.306  0.00  0.00    -0.031 A 
ATOM      3  C3  DEN d   1       1.569  -0.493  -1.746  0.00  0.00     0.027 A 
ATOM      4  C4  DEN d   1       0.492  -1.551   0.346  0.00  0.00     0.027 A 
ATOM      5  C5  DEN d   1      -0.369  -1.331   1.398  0.00  0.00    -0.003 A 
ATOM      6  C6  DEN d   1      -0.994  -0.127   1.591  0.00  0.00     0.001 A 
ATOM      7  C7  DEN d   1      -0.801   0.889   0.693  0.00  0.00     0.017 A 
ATOM      8  C8  DEN d   1       0.071   0.677  -0.366  0.00  0.00    -0.094 A 
ATOM      9  C9  DEN d   1       0.684  -0.550  -0.551  0.00  0.00    -0.072 A 
ENDROOT
TORSDOF 0
ENDMDL
