MODEL 1
REMARK minimizedAffinity -5.45433092
REMARK minimizedRMSD -1
REMARK  0 active torsions:
REMARK  status: ('A' for Active; 'I' for Inactive)
ROOT
ATOM      1  C1  DEN d   1       0.277   1.205   0.406  0.00  0.00     0.130 A 
ATOM      2  C2  DEN d   1      -0.366   0.400   1.441  0.00  0.00    -0.031 A 
ATOM      3  C3  DEN d   1      -0.286  -1.017   1.034  0.00  0.00     0.027 A 
ATOM      4  C4  DEN d   1       0.770  -2.039  -1.085  0.00  0.00     0.027 A 
ATOM      5  C5  DEN d   1       1.426  -1.753  -2.263  0.00  0.00    -0.003 A 
ATOM      6  C6  DEN d   1       1.712  -0.469  -2.646  0.00  0.00     0.001 A 
ATOM      7  C7  DEN d   1       1.381   0.575  -1.822  0.00  0.00     0.017 A 
ATOM      8  C8  DEN d   1       0.713   0.295  -0.638  0.00  0.00    -0.094 A 
ATOM      9  C9  DEN d   1       0.444  -1.010  -0.262  0.00  0.00    -0.072 A 
ENDROOT
TORSDOF 0
ENDMDL
