MODEL 1
REMARK minimizedAffinity -3.82958102
REMARK minimizedRMSD -1
REMARK  0 active torsions:
REMARK  status: ('A' for Active; 'I' for Inactive)
ROOT
ATOM      1  C1  DEN d   1       1.782   1.234  -0.519  0.00  0.00     0.130 A 
ATOM      2  C2  DEN d   1       1.198   1.340   0.816  0.00  0.00    -0.031 A 
ATOM      3  C3  DEN d   1       0.363   0.143   1.045  0.00  0.00     0.027 A 
ATOM      4  C4  DEN d   1      -0.075  -1.855  -0.526  0.00  0.00     0.027 A 
ATOM      5  C5  DEN d   1       0.193  -2.386  -1.768  0.00  0.00    -0.003 A 
ATOM      6  C6  DEN d   1       0.976  -1.737  -2.686  0.00  0.00     0.001 A 
ATOM      7  C7  DEN d   1       1.555  -0.539  -2.359  0.00  0.00     0.017 A 
ATOM      8  C8  DEN d   1       1.283   0.006  -1.111  0.00  0.00    -0.094 A 
ATOM      9  C9  DEN d   1       0.499  -0.671  -0.192  0.00  0.00    -0.072 A 
ENDROOT
TORSDOF 0
ENDMDL
