MODEL 1
REMARK minimizedAffinity -2.14074421
REMARK minimizedRMSD -1
REMARK  0 active torsions:
REMARK  status: ('A' for Active; 'I' for Inactive)
ROOT
ATOM      1  C1  DEN d   1      -0.349   0.727   1.095  0.00  0.00     0.130 A 
ATOM      2  C2  DEN d   1      -1.618   0.147   0.664  0.00  0.00    -0.031 A 
ATOM      3  C3  DEN d   1      -1.449  -0.344  -0.719  0.00  0.00     0.027 A 
ATOM      4  C4  DEN d   1       0.644  -0.267  -2.224  0.00  0.00     0.027 A 
ATOM      5  C5  DEN d   1       1.957   0.140  -2.300  0.00  0.00    -0.003 A 
ATOM      6  C6  DEN d   1       2.579   0.795  -1.271  0.00  0.00     0.001 A 
ATOM      7  C7  DEN d   1       1.901   1.024  -0.103  0.00  0.00     0.017 A 
ATOM      8  C8  DEN d   1       0.573   0.623  -0.022  0.00  0.00    -0.094 A 
ATOM      9  C9  DEN d   1      -0.034  -0.049  -1.069  0.00  0.00    -0.072 A 
ENDROOT
TORSDOF 0
ENDMDL
