MODEL 1
REMARK minimizedAffinity -5.79608488
REMARK minimizedRMSD -1
REMARK  0 active torsions:
REMARK  status: ('A' for Active; 'I' for Inactive)
ROOT
ATOM      1  C1  DEN d   1      -0.430  -0.838   0.465  0.00  0.00     0.130 A 
ATOM      2  C2  DEN d   1      -0.373   0.513   1.017  0.00  0.00    -0.031 A 
ATOM      3  C3  DEN d   1       0.566   1.302   0.196  0.00  0.00     0.027 A 
ATOM      4  C4  DEN d   1       1.928   0.569  -1.869  0.00  0.00     0.027 A 
ATOM      5  C5  DEN d   1       2.219  -0.487  -2.704  0.00  0.00    -0.003 A 
ATOM      6  C6  DEN d   1       1.678  -1.732  -2.523  0.00  0.00     0.001 A 
ATOM      7  C7  DEN d   1       0.782  -1.942  -1.509  0.00  0.00     0.017 A 
ATOM      8  C8  DEN d   1       0.489  -0.884  -0.657  0.00  0.00    -0.094 A 
ATOM      9  C9  DEN d   1       1.037   0.370  -0.864  0.00  0.00    -0.072 A 
ENDROOT
TORSDOF 0
ENDMDL
