MODEL 1
REMARK minimizedAffinity -4.99870491
REMARK minimizedRMSD -1
REMARK  0 active torsions:
REMARK  status: ('A' for Active; 'I' for Inactive)
ROOT
ATOM      1  C1  DEN d   1       0.750  -0.561  -2.463  0.00  0.00     0.130 A 
ATOM      2  C2  DEN d   1       1.692   0.505  -2.796  0.00  0.00    -0.031 A 
ATOM      3  C3  DEN d   1       1.828   1.379  -1.614  0.00  0.00     0.027 A 
ATOM      4  C4  DEN d   1       0.684   1.185   0.690  0.00  0.00     0.027 A 
ATOM      5  C5  DEN d   1      -0.207   0.451   1.442  0.00  0.00    -0.003 A 
ATOM      6  C6  DEN d   1      -0.861  -0.642   0.939  0.00  0.00     0.001 A 
ATOM      7  C7  DEN d   1      -0.600  -1.060  -0.339  0.00  0.00     0.017 A 
ATOM      8  C8  DEN d   1       0.291  -0.322  -1.107  0.00  0.00    -0.094 A 
ATOM      9  C9  DEN d   1       0.951   0.773  -0.576  0.00  0.00    -0.072 A 
ENDROOT
TORSDOF 0
ENDMDL
