MODEL 1
REMARK minimizedAffinity -3.57786107
REMARK minimizedRMSD -1
REMARK  0 active torsions:
REMARK  status: ('A' for Active; 'I' for Inactive)
ROOT
ATOM      1  C1  DEN d   1      -0.266  -0.962   0.925  0.00  0.00     0.130 A 
ATOM      2  C2  DEN d   1      -0.425   0.462   1.205  0.00  0.00    -0.031 A 
ATOM      3  C3  DEN d   1       0.430   1.210   0.262  0.00  0.00     0.027 A 
ATOM      4  C4  DEN d   1       1.972   0.307  -1.598  0.00  0.00     0.027 A 
ATOM      5  C5  DEN d   1       2.445  -0.834  -2.208  0.00  0.00    -0.003 A 
ATOM      6  C6  DEN d   1       2.077  -2.088  -1.798  0.00  0.00     0.001 A 
ATOM      7  C7  DEN d   1       1.176  -2.231  -0.776  0.00  0.00     0.017 A 
ATOM      8  C8  DEN d   1       0.699  -1.085  -0.152  0.00  0.00    -0.094 A 
ATOM      9  C9  DEN d   1       1.074   0.174  -0.589  0.00  0.00    -0.072 A 
ENDROOT
TORSDOF 0
ENDMDL
