MODEL 1
REMARK minimizedAffinity -1.78878617
REMARK minimizedRMSD -1
REMARK  0 active torsions:
REMARK  status: ('A' for Active; 'I' for Inactive)
ROOT
ATOM      1  C1  DEN d   1       0.152  -0.592   0.288  0.00  0.00     0.130 A 
ATOM      2  C2  DEN d   1       1.258   0.333   0.060  0.00  0.00    -0.031 A 
ATOM      3  C3  DEN d   1       0.957   1.591   0.773  0.00  0.00     0.027 A 
ATOM      4  C4  DEN d   1      -1.104   2.191   2.204  0.00  0.00     0.027 A 
ATOM      5  C5  DEN d   1      -2.313   1.733   2.677  0.00  0.00    -0.003 A 
ATOM      6  C6  DEN d   1      -2.798   0.491   2.363  0.00  0.00     0.001 A 
ATOM      7  C7  DEN d   1      -2.048  -0.354   1.588  0.00  0.00     0.017 A 
ATOM      8  C8  DEN d   1      -0.831   0.103   1.101  0.00  0.00    -0.094 A 
ATOM      9  C9  DEN d   1      -0.352   1.358   1.440  0.00  0.00    -0.072 A 
ENDROOT
TORSDOF 0
ENDMDL
