MODEL 1
REMARK minimizedAffinity -3.97440577
REMARK minimizedRMSD -1
REMARK  0 active torsions:
REMARK  status: ('A' for Active; 'I' for Inactive)
ROOT
ATOM      1  C1  DEN d   1       0.667  -2.439  -0.024  0.00  0.00     0.130 A 
ATOM      2  C2  DEN d   1      -0.182  -1.719   0.921  0.00  0.00    -0.031 A 
ATOM      3  C3  DEN d   1      -0.028  -0.273   0.664  0.00  0.00     0.027 A 
ATOM      4  C4  DEN d   1       1.432   0.915  -1.099  0.00  0.00     0.027 A 
ATOM      5  C5  DEN d   1       2.337   0.725  -2.120  0.00  0.00    -0.003 A 
ATOM      6  C6  DEN d   1       2.771  -0.521  -2.488  0.00  0.00     0.001 A 
ATOM      7  C7  DEN d   1       2.265  -1.629  -1.860  0.00  0.00     0.017 A 
ATOM      8  C8  DEN d   1       1.358  -1.445  -0.825  0.00  0.00    -0.094 A 
ATOM      9  C9  DEN d   1       0.923  -0.178  -0.476  0.00  0.00    -0.072 A 
ENDROOT
TORSDOF 0
ENDMDL
