MODEL 1
REMARK minimizedAffinity 0.116494209
REMARK minimizedRMSD -1
REMARK  0 active torsions:
REMARK  status: ('A' for Active; 'I' for Inactive)
ROOT
ATOM      1  C1  DEN d   1      -2.706   2.009   1.637  0.00  0.00     0.130 A 
ATOM      2  C2  DEN d   1      -3.729   0.977   1.777  0.00  0.00    -0.031 A 
ATOM      3  C3  DEN d   1      -3.123  -0.319   1.410  0.00  0.00     0.027 A 
ATOM      4  C4  DEN d   1      -0.712  -0.825   0.649  0.00  0.00     0.027 A 
ATOM      5  C5  DEN d   1       0.517  -0.269   0.368  0.00  0.00    -0.003 A 
ATOM      6  C6  DEN d   1       0.746   1.079   0.456  0.00  0.00     0.001 A 
ATOM      7  C7  DEN d   1      -0.257   1.911   0.879  0.00  0.00     0.017 A 
ATOM      8  C8  DEN d   1      -1.500   1.359   1.157  0.00  0.00    -0.094 A 
ATOM      9  C9  DEN d   1      -1.708  -0.007   1.073  0.00  0.00    -0.072 A 
ENDROOT
TORSDOF 0
ENDMDL
