MODEL 1
REMARK minimizedAffinity -6.76714039
REMARK minimizedRMSD -1
REMARK  0 active torsions:
REMARK  status: ('A' for Active; 'I' for Inactive)
ROOT
ATOM      1  C1  DEN d   1      -0.467  -0.994   0.603  0.00  0.00     0.130 A 
ATOM      2  C2  DEN d   1      -0.717   0.433   0.790  0.00  0.00    -0.031 A 
ATOM      3  C3  DEN d   1      -0.024   1.163  -0.291  0.00  0.00     0.027 A 
ATOM      4  C4  DEN d   1       1.399   0.227  -2.228  0.00  0.00     0.027 A 
ATOM      5  C5  DEN d   1       1.905  -0.921  -2.796  0.00  0.00    -0.003 A 
ATOM      6  C6  DEN d   1       1.685  -2.161  -2.257  0.00  0.00     0.001 A 
ATOM      7  C7  DEN d   1       0.903  -2.286  -1.140  0.00  0.00     0.017 A 
ATOM      8  C8  DEN d   1       0.396  -1.132  -0.556  0.00  0.00    -0.094 A 
ATOM      9  C9  DEN d   1       0.618   0.111  -1.124  0.00  0.00    -0.072 A 
ENDROOT
TORSDOF 0
ENDMDL
