MODEL 1
REMARK minimizedAffinity -1.64083374
REMARK minimizedRMSD -1
REMARK  0 active torsions:
REMARK  status: ('A' for Active; 'I' for Inactive)
ROOT
ATOM      1  N1  IND d   1       1.194  -0.973  -1.956  0.00  0.00    -0.196 N 
ATOM      2  C2  IND d   1       2.381  -1.234  -1.329  0.00  0.00     0.054 A 
ATOM      3  C3  IND d   1       2.249  -1.085   0.008  0.00  0.00    -0.031 A 
ATOM      4  C4  IND d   1       0.155  -0.516   1.392  0.00  0.00     0.051 A 
ATOM      5  C5  IND d   1      -1.157  -0.155   1.262  0.00  0.00    -0.031 A 
ATOM      6  C6  IND d   1      -1.765  -0.049   0.028  0.00  0.00     0.015 A 
ATOM      7  C7  IND d   1      -1.084  -0.312  -1.127  0.00  0.00    -0.016 A 
ATOM      8  C8  IND d   1       0.250  -0.672  -0.999  0.00  0.00    -0.047 A 
ATOM      9  C9  IND d   1       0.884  -0.739   0.248  0.00  0.00    -0.096 A 
ATOM     10  HN1 IND d   1       1.060  -0.993  -2.805  0.00  0.00     0.298 HD
ENDROOT
TORSDOF 0
ENDMDL
