MODEL 1
REMARK minimizedAffinity -2.77047372
REMARK minimizedRMSD -1
REMARK  0 active torsions:
REMARK  status: ('A' for Active; 'I' for Inactive)
ROOT
ATOM      1  N1  IND d   1      -1.242   0.118  -0.705  0.00  0.00    -0.196 N 
ATOM      2  C2  IND d   1      -0.343   0.286  -1.721  0.00  0.00     0.054 A 
ATOM      3  C3  IND d   1       0.920   0.256  -1.242  0.00  0.00    -0.031 A 
ATOM      4  C4  IND d   1       1.749  -0.160   1.160  0.00  0.00     0.051 A 
ATOM      5  C5  IND d   1       1.301  -0.330   2.440  0.00  0.00    -0.031 A 
ATOM      6  C6  IND d   1      -0.045  -0.363   2.742  0.00  0.00     0.015 A 
ATOM      7  C7  IND d   1      -0.997  -0.238   1.771  0.00  0.00    -0.016 A 
ATOM      8  C8  IND d   1      -0.546  -0.058   0.471  0.00  0.00    -0.047 A 
ATOM      9  C9  IND d   1       0.819   0.019   0.163  0.00  0.00    -0.096 A 
ATOM     10  HN1 IND d   1      -2.098   0.121  -0.786  0.00  0.00     0.298 HD
ENDROOT
TORSDOF 0
ENDMDL
