MODEL 1
REMARK minimizedAffinity -5.17015457
REMARK minimizedRMSD -1
REMARK  0 active torsions:
REMARK  status: ('A' for Active; 'I' for Inactive)
ROOT
ATOM      1  N1  IND d   1       0.902   0.865  -0.554  0.00  0.00    -0.196 N 
ATOM      2  C2  IND d   1      -0.183   0.978  -1.378  0.00  0.00     0.054 A 
ATOM      3  C3  IND d   1      -1.263   0.389  -0.818  0.00  0.00    -0.031 A 
ATOM      4  C4  IND d   1      -1.503  -0.733   1.487  0.00  0.00     0.051 A 
ATOM      5  C5  IND d   1      -0.778  -1.110   2.582  0.00  0.00    -0.031 A 
ATOM      6  C6  IND d   1       0.571  -0.841   2.691  0.00  0.00     0.015 A 
ATOM      7  C7  IND d   1       1.245  -0.170   1.710  0.00  0.00    -0.016 A 
ATOM      8  C8  IND d   1       0.514   0.208   0.593  0.00  0.00    -0.047 A 
ATOM      9  C9  IND d   1      -0.846  -0.100   0.458  0.00  0.00    -0.096 A 
ATOM     10  HN1 IND d   1       1.693   1.156  -0.723  0.00  0.00     0.298 HD
ENDROOT
TORSDOF 0
ENDMDL
