MODEL 1
REMARK minimizedAffinity -3.38875389
REMARK minimizedRMSD -1
REMARK  0 active torsions:
REMARK  status: ('A' for Active; 'I' for Inactive)
ROOT
ATOM      1  N1  IND d   1      -1.834  -0.467   2.355  0.00  0.00    -0.196 N 
ATOM      2  C2  IND d   1      -2.371  -0.158   1.137  0.00  0.00     0.054 A 
ATOM      3  C3  IND d   1      -1.393   0.003   0.217  0.00  0.00    -0.031 A 
ATOM      4  C4  IND d   1       1.152  -0.294   0.469  0.00  0.00     0.051 A 
ATOM      5  C5  IND d   1       2.121  -0.538   1.401  0.00  0.00    -0.031 A 
ATOM      6  C6  IND d   1       1.815  -0.778   2.725  0.00  0.00     0.015 A 
ATOM      7  C7  IND d   1       0.522  -0.794   3.166  0.00  0.00    -0.016 A 
ATOM      8  C8  IND d   1      -0.464  -0.540   2.223  0.00  0.00    -0.047 A 
ATOM      9  C9  IND d   1      -0.157  -0.254   0.887  0.00  0.00    -0.096 A 
ATOM     10  HN1 IND d   1      -2.276  -0.594   3.081  0.00  0.00     0.298 HD
ENDROOT
TORSDOF 0
ENDMDL
