MODEL 1
REMARK minimizedAffinity -4.15326357
REMARK minimizedRMSD -1
REMARK  0 active torsions:
REMARK  status: ('A' for Active; 'I' for Inactive)
ROOT
ATOM      1  N1  IND d   1       1.046   0.682  -0.901  0.00  0.00    -0.196 N 
ATOM      2  C2  IND d   1      -0.123   0.588  -1.603  0.00  0.00     0.054 A 
ATOM      3  C3  IND d   1      -1.088   0.028  -0.839  0.00  0.00    -0.031 A 
ATOM      4  C4  IND d   1      -0.997  -0.715   1.624  0.00  0.00     0.051 A 
ATOM      5  C5  IND d   1      -0.134  -0.860   2.674  0.00  0.00    -0.031 A 
ATOM      6  C6  IND d   1       1.192  -0.489   2.585  0.00  0.00     0.015 A 
ATOM      7  C7  IND d   1       1.704   0.054   1.442  0.00  0.00    -0.016 A 
ATOM      8  C8  IND d   1       0.833   0.197   0.371  0.00  0.00    -0.047 A 
ATOM      9  C9  IND d   1      -0.503  -0.217   0.441  0.00  0.00    -0.096 A 
ATOM     10  HN1 IND d   1       1.789   0.992  -1.203  0.00  0.00     0.298 HD
ENDROOT
TORSDOF 0
ENDMDL
