MODEL 1
REMARK minimizedAffinity -4.31855774
REMARK minimizedRMSD -1
REMARK  0 active torsions:
REMARK  status: ('A' for Active; 'I' for Inactive)
ROOT
ATOM      1  N1  IND d   1       1.436   0.753  -0.047  0.00  0.00    -0.196 N 
ATOM      2  C2  IND d   1       0.504   0.662  -1.043  0.00  0.00     0.054 A 
ATOM      3  C3  IND d   1      -0.530  -0.115  -0.650  0.00  0.00    -0.031 A 
ATOM      4  C4  IND d   1      -0.949  -1.256   1.620  0.00  0.00     0.051 A 
ATOM      5  C5  IND d   1      -0.362  -1.490   2.832  0.00  0.00    -0.031 A 
ATOM      6  C6  IND d   1       0.877  -0.976   3.153  0.00  0.00     0.015 A 
ATOM      7  C7  IND d   1       1.575  -0.196   2.275  0.00  0.00    -0.016 A 
ATOM      8  C8  IND d   1       0.986   0.038   1.041  0.00  0.00    -0.047 A 
ATOM      9  C9  IND d   1      -0.253  -0.515   0.693  0.00  0.00    -0.096 A 
ATOM     10  HN1 IND d   1       2.178   1.184  -0.093  0.00  0.00     0.298 HD
ENDROOT
TORSDOF 0
ENDMDL
