MODEL 1
REMARK minimizedAffinity -2.45810938
REMARK minimizedRMSD -1
REMARK  0 active torsions:
REMARK  status: ('A' for Active; 'I' for Inactive)
ROOT
ATOM      1  N1  IND d   1       0.898  -0.142  -1.092  0.00  0.00    -0.196 N 
ATOM      2  C2  IND d   1      -0.012  -0.550  -0.158  0.00  0.00     0.054 A 
ATOM      3  C3  IND d   1      -1.226  -0.015  -0.418  0.00  0.00    -0.031 A 
ATOM      4  C4  IND d   1      -1.969   1.476  -2.381  0.00  0.00     0.051 A 
ATOM      5  C5  IND d   1      -1.484   2.145  -3.469  0.00  0.00    -0.031 A 
ATOM      6  C6  IND d   1      -0.153   2.082  -3.830  0.00  0.00     0.015 A 
ATOM      7  C7  IND d   1       0.743   1.336  -3.119  0.00  0.00    -0.016 A 
ATOM      8  C8  IND d   1       0.255   0.661  -2.009  0.00  0.00    -0.047 A 
ATOM      9  C9  IND d   1      -1.085   0.755  -1.613  0.00  0.00    -0.096 A 
ATOM     10  HN1 IND d   1       1.732  -0.351  -1.105  0.00  0.00     0.298 HD
ENDROOT
TORSDOF 0
ENDMDL
