MODEL 1
REMARK minimizedAffinity -2.63479638
REMARK minimizedRMSD -1
REMARK  0 active torsions:
REMARK  status: ('A' for Active; 'I' for Inactive)
ROOT
ATOM      1  N1  IND d   1      -1.715  -0.779   0.286  0.00  0.00    -0.196 N 
ATOM      2  C2  IND d   1      -1.302  -0.488  -0.984  0.00  0.00     0.054 A 
ATOM      3  C3  IND d   1       0.014  -0.179  -0.992  0.00  0.00    -0.031 A 
ATOM      4  C4  IND d   1       1.706  -0.184   0.949  0.00  0.00     0.051 A 
ATOM      5  C5  IND d   1       1.792  -0.347   2.303  0.00  0.00    -0.031 A 
ATOM      6  C6  IND d   1       0.691  -0.672   3.069  0.00  0.00     0.015 A 
ATOM      7  C7  IND d   1      -0.539  -0.858   2.505  0.00  0.00    -0.016 A 
ATOM      8  C8  IND d   1      -0.631  -0.686   1.132  0.00  0.00    -0.047 A 
ATOM      9  C9  IND d   1       0.473  -0.314   0.354  0.00  0.00    -0.096 A 
ATOM     10  HN1 IND d   1      -2.517  -0.985   0.518  0.00  0.00     0.298 HD
ENDROOT
TORSDOF 0
ENDMDL
