MODEL 1
REMARK minimizedAffinity -3.74922037
REMARK minimizedRMSD -1
REMARK  0 active torsions:
REMARK  status: ('A' for Active; 'I' for Inactive)
ROOT
ATOM      1  N1  IND d   1       0.823   0.616  -0.979  0.00  0.00    -0.196 N 
ATOM      2  C2  IND d   1       0.066  -0.407  -0.481  0.00  0.00     0.054 A 
ATOM      3  C3  IND d   1      -1.221  -0.273  -0.872  0.00  0.00    -0.031 A 
ATOM      4  C4  IND d   1      -2.287   1.491  -2.415  0.00  0.00     0.051 A 
ATOM      5  C5  IND d   1      -2.003   2.647  -3.086  0.00  0.00    -0.031 A 
ATOM      6  C6  IND d   1      -0.737   3.196  -3.091  0.00  0.00     0.015 A 
ATOM      7  C7  IND d   1       0.300   2.599  -2.432  0.00  0.00    -0.016 A 
ATOM      8  C8  IND d   1       0.015   1.428  -1.744  0.00  0.00    -0.047 A 
ATOM      9  C9  IND d   1      -1.278   0.890  -1.700  0.00  0.00    -0.096 A 
ATOM     10  HN1 IND d   1       1.663   0.733  -0.838  0.00  0.00     0.298 HD
ENDROOT
TORSDOF 0
ENDMDL
