MODEL 1
REMARK minimizedAffinity -3.1673038
REMARK minimizedRMSD -1
REMARK  0 active torsions:
REMARK  status: ('A' for Active; 'I' for Inactive)
ROOT
ATOM      1  N1  IND d   1       1.275  -0.247  -0.256  0.00  0.00    -0.196 N 
ATOM      2  C2  IND d   1       0.596   0.086  -1.395  0.00  0.00     0.054 A 
ATOM      3  C3  IND d   1      -0.730   0.169  -1.145  0.00  0.00    -0.031 A 
ATOM      4  C4  IND d   1      -1.994  -0.101   1.081  0.00  0.00     0.051 A 
ATOM      5  C5  IND d   1      -1.808  -0.444   2.391  0.00  0.00    -0.031 A 
ATOM      6  C6  IND d   1      -0.559  -0.742   2.896  0.00  0.00     0.015 A 
ATOM      7  C7  IND d   1       0.557  -0.697   2.110  0.00  0.00    -0.016 A 
ATOM      8  C8  IND d   1       0.371  -0.356   0.777  0.00  0.00    -0.047 A 
ATOM      9  C9  IND d   1      -0.900  -0.094   0.249  0.00  0.00    -0.096 A 
ATOM     10  HN1 IND d   1       2.124  -0.368  -0.195  0.00  0.00     0.298 HD
ENDROOT
TORSDOF 0
ENDMDL
