MODEL 1
REMARK minimizedAffinity -4.02419472
REMARK minimizedRMSD -1
REMARK  0 active torsions:
REMARK  status: ('A' for Active; 'I' for Inactive)
ROOT
ATOM      1  C   UNL d   1       1.740  -1.617   1.739  0.00  0.00     0.124 A 
ATOM      2  C1  UNL d   1       0.805  -0.636   2.037  0.00  0.00     0.062 A 
ATOM      3  C2  UNL d   1       0.195   0.084   1.014  0.00  0.00     0.162 A 
ATOM      4  C3  UNL d   1       0.517  -0.176  -0.318  0.00  0.00    -0.034 A 
ATOM      5  C4  UNL d   1       1.460  -1.163  -0.610  0.00  0.00     0.162 A 
ATOM      6  C5  UNL d   1       2.067  -1.880   0.416  0.00  0.00     0.062 A 
ATOM      7  F   UNL d   1       2.970  -2.827   0.126  0.00  0.00    -0.097 F 
ATOM      8  F1  UNL d   1       1.793  -1.439  -1.880  0.00  0.00    -0.096 F 
ATOM      9  I   UNL d   1      -0.393   0.898  -1.851  0.00  0.00    -0.060 I 
ATOM     10  F2  UNL d   1      -0.706   1.026   1.331  0.00  0.00    -0.096 F 
ATOM     11  F3  UNL d   1       0.488  -0.379   3.315  0.00  0.00    -0.097 F 
ATOM     12  F4  UNL d   1       2.327  -2.307   2.726  0.00  0.00    -0.092 F 
ENDROOT
TORSDOF 0
ENDMDL
