MODEL 1
REMARK minimizedAffinity -3.66101766
REMARK minimizedRMSD -1
REMARK  0 active torsions:
REMARK  status: ('A' for Active; 'I' for Inactive)
ROOT
ATOM      1  C   UNL d   1       1.062  -1.522   2.031  0.00  0.00     0.124 A 
ATOM      2  C1  UNL d   1      -0.136  -0.845   2.212  0.00  0.00     0.062 A 
ATOM      3  C2  UNL d   1      -0.693  -0.117   1.165  0.00  0.00     0.162 A 
ATOM      4  C3  UNL d   1      -0.053  -0.062  -0.073  0.00  0.00    -0.034 A 
ATOM      5  C4  UNL d   1       1.152  -0.745  -0.247  0.00  0.00     0.162 A 
ATOM      6  C5  UNL d   1       1.705  -1.471   0.803  0.00  0.00     0.062 A 
ATOM      7  F   UNL d   1       2.863  -2.124   0.626  0.00  0.00    -0.097 F 
ATOM      8  F1  UNL d   1       1.794  -0.713  -1.424  0.00  0.00    -0.096 F 
ATOM      9  I   UNL d   1      -0.883   1.026  -1.641  0.00  0.00    -0.060 I 
ATOM     10  F2  UNL d   1      -1.852   0.527   1.368  0.00  0.00    -0.096 F 
ATOM     11  F3  UNL d   1      -0.759  -0.892   3.399  0.00  0.00    -0.097 F 
ATOM     12  F4  UNL d   1       1.597  -2.222   3.041  0.00  0.00    -0.092 F 
ENDROOT
TORSDOF 0
ENDMDL
