MODEL 1
REMARK minimizedAffinity -2.76481462
REMARK minimizedRMSD -1
REMARK  0 active torsions:
REMARK  status: ('A' for Active; 'I' for Inactive)
ROOT
ATOM      1  C   UNL d   1       2.768  -1.947   0.520  0.00  0.00     0.124 A 
ATOM      2  C1  UNL d   1       1.973  -1.613  -0.567  0.00  0.00     0.062 A 
ATOM      3  C2  UNL d   1       0.787  -0.909  -0.377  0.00  0.00     0.162 A 
ATOM      4  C3  UNL d   1       0.389  -0.533   0.906  0.00  0.00    -0.034 A 
ATOM      5  C4  UNL d   1       1.194  -0.873   1.995  0.00  0.00     0.162 A 
ATOM      6  C5  UNL d   1       2.378  -1.577   1.800  0.00  0.00     0.062 A 
ATOM      7  F   UNL d   1       3.145  -1.898   2.852  0.00  0.00    -0.097 F 
ATOM      8  F1  UNL d   1       0.842  -0.527   3.242  0.00  0.00    -0.096 F 
ATOM      9  I   UNL d   1      -1.383   0.520   1.194  0.00  0.00    -0.060 I 
ATOM     10  F2  UNL d   1       0.038  -0.600  -1.446  0.00  0.00    -0.096 F 
ATOM     11  F3  UNL d   1       2.346  -1.971  -1.804  0.00  0.00    -0.097 F 
ATOM     12  F4  UNL d   1       3.908  -2.625   0.335  0.00  0.00    -0.092 F 
ENDROOT
TORSDOF 0
ENDMDL
