MODEL 1
REMARK minimizedAffinity -1.6143117
REMARK minimizedRMSD -1
REMARK  0 active torsions:
REMARK  status: ('A' for Active; 'I' for Inactive)
ROOT
ATOM      1  C   UNL d   1       0.982  -1.178   1.655  0.00  0.00     0.124 A 
ATOM      2  C1  UNL d   1      -0.236  -0.573   1.934  0.00  0.00     0.062 A 
ATOM      3  C2  UNL d   1      -0.937   0.086   0.928  0.00  0.00     0.162 A 
ATOM      4  C3  UNL d   1      -0.423   0.142  -0.368  0.00  0.00    -0.034 A 
ATOM      5  C4  UNL d   1       0.803  -0.468  -0.641  0.00  0.00     0.162 A 
ATOM      6  C5  UNL d   1       1.500  -1.125   0.368  0.00  0.00     0.062 A 
ATOM      7  F   UNL d   1       2.676  -1.709   0.097  0.00  0.00    -0.097 F 
ATOM      8  F1  UNL d   1       1.326  -0.434  -1.875  0.00  0.00    -0.096 F 
ATOM      9  I   UNL d   1      -1.468   1.125  -1.875  0.00  0.00    -0.060 I 
ATOM     10  F2  UNL d   1      -2.111   0.661   1.226  0.00  0.00    -0.096 F 
ATOM     11  F3  UNL d   1      -0.738  -0.621   3.176  0.00  0.00    -0.097 F 
ATOM     12  F4  UNL d   1       1.655  -1.809   2.625  0.00  0.00    -0.092 F 
ENDROOT
TORSDOF 0
ENDMDL
