MODEL 1
REMARK minimizedAffinity -2.97086549
REMARK minimizedRMSD -1
REMARK  0 active torsions:
REMARK  status: ('A' for Active; 'I' for Inactive)
ROOT
ATOM      1  C   UNL d   1       1.205  -1.290   2.775  0.00  0.00     0.124 A 
ATOM      2  C1  UNL d   1       2.120  -1.176   1.738  0.00  0.00     0.062 A 
ATOM      3  C2  UNL d   1       1.708  -0.724   0.488  0.00  0.00     0.162 A 
ATOM      4  C3  UNL d   1       0.374  -0.381   0.268  0.00  0.00    -0.034 A 
ATOM      5  C4  UNL d   1      -0.541  -0.499   1.316  0.00  0.00     0.162 A 
ATOM      6  C5  UNL d   1      -0.124  -0.951   2.564  0.00  0.00     0.062 A 
ATOM      7  F   UNL d   1      -1.010  -1.061   3.565  0.00  0.00    -0.097 F 
ATOM      8  F1  UNL d   1      -1.831  -0.177   1.140  0.00  0.00    -0.096 F 
ATOM      9  I   UNL d   1      -0.247   0.297  -1.600  0.00  0.00    -0.060 I 
ATOM     10  F2  UNL d   1       2.613  -0.624  -0.497  0.00  0.00    -0.096 F 
ATOM     11  F3  UNL d   1       3.404  -1.504   1.939  0.00  0.00    -0.097 F 
ATOM     12  F4  UNL d   1       1.604  -1.727   3.977  0.00  0.00    -0.092 F 
ENDROOT
TORSDOF 0
ENDMDL
