MODEL 1
REMARK minimizedAffinity -4.68439102
REMARK minimizedRMSD -1
REMARK  0 active torsions:
REMARK  status: ('A' for Active; 'I' for Inactive)
ROOT
ATOM      1  C   UNL d   1       1.157  -1.645   2.535  0.00  0.00     0.124 A 
ATOM      2  C1  UNL d   1      -0.198  -1.397   2.368  0.00  0.00     0.062 A 
ATOM      3  C2  UNL d   1      -0.663  -0.811   1.194  0.00  0.00     0.162 A 
ATOM      4  C3  UNL d   1       0.228  -0.470   0.177  0.00  0.00    -0.034 A 
ATOM      5  C4  UNL d   1       1.590  -0.721   0.352  0.00  0.00     0.162 A 
ATOM      6  C5  UNL d   1       2.049  -1.307   1.527  0.00  0.00     0.062 A 
ATOM      7  F   UNL d   1       3.359  -1.547   1.687  0.00  0.00    -0.097 F 
ATOM      8  F1  UNL d   1       2.474  -0.406  -0.605  0.00  0.00    -0.096 F 
ATOM      9  I   UNL d   1      -0.463   0.407  -1.579  0.00  0.00    -0.060 I 
ATOM     10  F2  UNL d   1      -1.978  -0.582   1.060  0.00  0.00    -0.096 F 
ATOM     11  F3  UNL d   1      -1.063  -1.721   3.340  0.00  0.00    -0.097 F 
ATOM     12  F4  UNL d   1       1.602  -2.208   3.666  0.00  0.00    -0.092 F 
ENDROOT
TORSDOF 0
ENDMDL
