MODEL 1
REMARK minimizedAffinity -4.30823278
REMARK minimizedRMSD -1
REMARK  0 active torsions:
REMARK  status: ('A' for Active; 'I' for Inactive)
ROOT
ATOM      1  C   UNL d   1       2.478  -1.964   0.715  0.00  0.00     0.124 A 
ATOM      2  C1  UNL d   1       2.087  -1.468   1.951  0.00  0.00     0.062 A 
ATOM      3  C2  UNL d   1       0.898  -0.756   2.076  0.00  0.00     0.162 A 
ATOM      4  C3  UNL d   1       0.090  -0.536   0.961  0.00  0.00    -0.034 A 
ATOM      5  C4  UNL d   1       0.490  -1.036  -0.280  0.00  0.00     0.162 A 
ATOM      6  C5  UNL d   1       1.679  -1.748  -0.399  0.00  0.00     0.062 A 
ATOM      7  F   UNL d   1       2.055  -2.226  -1.594  0.00  0.00    -0.097 F 
ATOM      8  F1  UNL d   1      -0.264  -0.843  -1.372  0.00  0.00    -0.096 F 
ATOM      9  I   UNL d   1      -1.689   0.529   1.142  0.00  0.00    -0.060 I 
ATOM     10  F2  UNL d   1       0.545  -0.288   3.283  0.00  0.00    -0.096 F 
ATOM     11  F3  UNL d   1       2.858  -1.675   3.029  0.00  0.00    -0.097 F 
ATOM     12  F4  UNL d   1       3.623  -2.648   0.598  0.00  0.00    -0.092 F 
ENDROOT
TORSDOF 0
ENDMDL
