MODEL 1
REMARK minimizedAffinity -5.55037403
REMARK minimizedRMSD -1
REMARK  0 active torsions:
REMARK  status: ('A' for Active; 'I' for Inactive)
ROOT
ATOM      1  C   UNL d   1       1.735  -1.562   2.032  0.00  0.00     0.124 A 
ATOM      2  C1  UNL d   1       1.978  -1.855   0.698  0.00  0.00     0.062 A 
ATOM      3  C2  UNL d   1       1.296  -1.171  -0.305  0.00  0.00     0.162 A 
ATOM      4  C3  UNL d   1       0.364  -0.187   0.024  0.00  0.00    -0.034 A 
ATOM      5  C4  UNL d   1       0.123   0.101   1.369  0.00  0.00     0.162 A 
ATOM      6  C5  UNL d   1       0.808  -0.585   2.367  0.00  0.00     0.062 A 
ATOM      7  F   UNL d   1       0.571  -0.301   3.656  0.00  0.00    -0.097 F 
ATOM      8  F1  UNL d   1      -0.767   1.041   1.720  0.00  0.00    -0.096 F 
ATOM      9  I   UNL d   1      -0.658   0.838  -1.472  0.00  0.00    -0.060 I 
ATOM     10  F2  UNL d   1       1.552  -1.474  -1.586  0.00  0.00    -0.096 F 
ATOM     11  F3  UNL d   1       2.873  -2.799   0.372  0.00  0.00    -0.097 F 
ATOM     12  F4  UNL d   1       2.392  -2.222   2.995  0.00  0.00    -0.092 F 
ENDROOT
TORSDOF 0
ENDMDL
