MODEL 1
REMARK minimizedAffinity -0.00576973287
REMARK minimizedRMSD -1
REMARK  0 active torsions:
REMARK  status: ('A' for Active; 'I' for Inactive)
ROOT
ATOM      1  C   UNL d   1       5.622   5.956   2.995  0.00  0.00     0.077 C 
ATOM      2  C1  UNL d   1       4.908   5.150   4.040  0.00  0.00    -0.074 A 
ATOM      3  C2  UNL d   1       5.573   4.146   4.751  0.00  0.00    -0.005 A 
ATOM      4  C3  UNL d   1       4.899   3.411   5.726  0.00  0.00     0.006 A 
ATOM      5  C4  UNL d   1       3.555   3.672   5.999  0.00  0.00    -0.005 A 
ATOM      6  C5  UNL d   1       2.875   4.673   5.298  0.00  0.00    -0.074 A 
ATOM      7  C6  UNL d   1       1.433   4.973   5.586  0.00  0.00     0.077 C 
ATOM      8  C7  UNL d   1       3.561   5.412   4.325  0.00  0.00    -0.001 A 
ENDROOT
TORSDOF 0
ENDMDL
