MODEL 1
REMARK minimizedAffinity 5.21344995
REMARK minimizedRMSD -1
REMARK  0 active torsions:
REMARK  status: ('A' for Active; 'I' for Inactive)
ROOT
ATOM      1  C   UNL d   1       2.677  -1.945  -0.925  0.00  0.00     0.077 C 
ATOM      2  C1  UNL d   1       3.450  -0.689  -1.199  0.00  0.00    -0.074 A 
ATOM      3  C2  UNL d   1       4.174  -0.535  -2.386  0.00  0.00    -0.005 A 
ATOM      4  C3  UNL d   1       4.880   0.643  -2.631  0.00  0.00     0.006 A 
ATOM      5  C4  UNL d   1       4.869   1.676  -1.693  0.00  0.00    -0.005 A 
ATOM      6  C5  UNL d   1       4.151   1.540  -0.501  0.00  0.00    -0.074 A 
ATOM      7  C6  UNL d   1       4.121   2.645   0.513  0.00  0.00     0.077 C 
ATOM      8  C7  UNL d   1       3.438   0.357  -0.265  0.00  0.00    -0.001 A 
ENDROOT
TORSDOF 0
ENDMDL
