MODEL 1
REMARK minimizedAffinity 1.69260502
REMARK minimizedRMSD -1
REMARK  0 active torsions:
REMARK  status: ('A' for Active; 'I' for Inactive)
ROOT
ATOM      1  C   UNL d   1       3.035  -0.013   5.999  0.00  0.00     0.077 C 
ATOM      2  C1  UNL d   1       3.458   1.421   5.888  0.00  0.00    -0.074 A 
ATOM      3  C2  UNL d   1       4.796   1.761   5.665  0.00  0.00    -0.005 A 
ATOM      4  C3  UNL d   1       5.173   3.099   5.555  0.00  0.00     0.006 A 
ATOM      5  C4  UNL d   1       4.218   4.110   5.665  0.00  0.00    -0.005 A 
ATOM      6  C5  UNL d   1       2.875   3.789   5.887  0.00  0.00    -0.074 A 
ATOM      7  C6  UNL d   1       1.833   4.863   5.999  0.00  0.00     0.077 C 
ATOM      8  C7  UNL d   1       2.503   2.442   5.990  0.00  0.00    -0.001 A 
ENDROOT
TORSDOF 0
ENDMDL
