MODEL 1
REMARK minimizedAffinity 9.38818932
REMARK minimizedRMSD -1
REMARK  0 active torsions:
REMARK  status: ('A' for Active; 'I' for Inactive)
ROOT
ATOM      1  C   UNL d   1       6.000   3.339   0.752  0.00  0.00     0.077 C 
ATOM      2  C1  UNL d   1       4.931   2.382   0.314  0.00  0.00    -0.074 A 
ATOM      3  C2  UNL d   1       5.150   1.497  -0.746  0.00  0.00    -0.005 A 
ATOM      4  C3  UNL d   1       4.150   0.606  -1.137  0.00  0.00     0.006 A 
ATOM      5  C4  UNL d   1       2.923   0.592  -0.472  0.00  0.00    -0.005 A 
ATOM      6  C5  UNL d   1       2.687   1.469   0.591  0.00  0.00    -0.074 A 
ATOM      7  C6  UNL d   1       1.377   1.460   1.323  0.00  0.00     0.077 C 
ATOM      8  C7  UNL d   1       3.699   2.357   0.982  0.00  0.00    -0.001 A 
ENDROOT
TORSDOF 0
ENDMDL
