MODEL 1
REMARK minimizedAffinity 8.93485355
REMARK minimizedRMSD -1
REMARK  0 active torsions:
REMARK  status: ('A' for Active; 'I' for Inactive)
ROOT
ATOM      1  C   UNL d   1       4.776   3.760   1.870  0.00  0.00     0.077 C 
ATOM      2  C1  UNL d   1       4.795   2.503   1.053  0.00  0.00    -0.074 A 
ATOM      3  C2  UNL d   1       5.999   1.858   0.753  0.00  0.00    -0.005 A 
ATOM      4  C3  UNL d   1       6.000   0.684   0.000  0.00  0.00     0.006 A 
ATOM      5  C4  UNL d   1       4.798   0.144  -0.460  0.00  0.00    -0.005 A 
ATOM      6  C5  UNL d   1       3.584   0.774  -0.170  0.00  0.00    -0.074 A 
ATOM      7  C6  UNL d   1       2.283   0.201  -0.649  0.00  0.00     0.077 C 
ATOM      8  C7  UNL d   1       3.591   1.950   0.593  0.00  0.00    -0.001 A 
ENDROOT
TORSDOF 0
ENDMDL
