MODEL 1
REMARK minimizedAffinity 3.66339731
REMARK minimizedRMSD -1
REMARK  0 active torsions:
REMARK  status: ('A' for Active; 'I' for Inactive)
ROOT
ATOM      1  C   UNL d   1       4.336   1.845  -0.158  0.00  0.00     0.077 C 
ATOM      2  C1  UNL d   1       4.046   0.598  -0.939  0.00  0.00    -0.074 A 
ATOM      3  C2  UNL d   1       4.404   0.495  -2.287  0.00  0.00    -0.005 A 
ATOM      4  C3  UNL d   1       4.136  -0.675  -2.998  0.00  0.00     0.006 A 
ATOM      5  C4  UNL d   1       3.510  -1.752  -2.369  0.00  0.00    -0.005 A 
ATOM      6  C5  UNL d   1       3.146  -1.667  -1.022  0.00  0.00    -0.074 A 
ATOM      7  C6  UNL d   1       2.481  -2.819  -0.328  0.00  0.00     0.077 C 
ATOM      8  C7  UNL d   1       3.424  -0.491  -0.312  0.00  0.00    -0.001 A 
ENDROOT
TORSDOF 0
ENDMDL
