MODEL 1
REMARK minimizedAffinity 4.64872837
REMARK minimizedRMSD -1
REMARK  0 active torsions:
REMARK  status: ('A' for Active; 'I' for Inactive)
ROOT
ATOM      1  C   UNL d   1       4.499   4.277   0.002  0.00  0.00     0.077 C 
ATOM      2  C1  UNL d   1       4.660   2.786   0.031  0.00  0.00    -0.074 A 
ATOM      3  C2  UNL d   1       5.868   2.201   0.425  0.00  0.00    -0.005 A 
ATOM      4  C3  UNL d   1       6.000   0.813   0.455  0.00  0.00     0.006 A 
ATOM      5  C4  UNL d   1       4.928  -0.003   0.092  0.00  0.00    -0.005 A 
ATOM      6  C5  UNL d   1       3.712   0.564  -0.304  0.00  0.00    -0.074 A 
ATOM      7  C6  UNL d   1       2.547  -0.299  -0.687  0.00  0.00     0.077 C 
ATOM      8  C7  UNL d   1       3.585   1.960  -0.325  0.00  0.00    -0.001 A 
ENDROOT
TORSDOF 0
ENDMDL
