MODEL 1
REMARK minimizedAffinity 6.08290434
REMARK minimizedRMSD -1
REMARK  0 active torsions:
REMARK  status: ('A' for Active; 'I' for Inactive)
ROOT
ATOM      1  C   UNL d   1       3.197   1.859   5.983  0.00  0.00     0.077 C 
ATOM      2  C1  UNL d   1       2.750   3.290   5.992  0.00  0.00    -0.074 A 
ATOM      3  C2  UNL d   1       3.680   4.334   5.983  0.00  0.00    -0.005 A 
ATOM      4  C3  UNL d   1       3.249   5.661   5.982  0.00  0.00     0.006 A 
ATOM      5  C4  UNL d   1       1.886   5.956   5.991  0.00  0.00    -0.005 A 
ATOM      6  C5  UNL d   1       0.940   4.926   6.000  0.00  0.00    -0.074 A 
ATOM      7  C6  UNL d   1      -0.529   5.226   5.999  0.00  0.00     0.077 C 
ATOM      8  C7  UNL d   1       1.381   3.595   5.993  0.00  0.00    -0.001 A 
ENDROOT
TORSDOF 0
ENDMDL
