MODEL 1
REMARK minimizedAffinity 5.37116766
REMARK minimizedRMSD -1
REMARK  0 active torsions:
REMARK  status: ('A' for Active; 'I' for Inactive)
ROOT
ATOM      1  C   UNL d   1       0.923  -2.585   0.899  0.00  0.00     0.023 A 
ATOM      2  C1  UNL d   1       2.095  -1.850   1.076  0.00  0.00     0.003 A 
ATOM      3  C2  UNL d   1       2.073  -0.459   0.958  0.00  0.00     0.048 A 
ATOM      4  C3  UNL d   1       0.874   0.191   0.664  0.00  0.00     0.023 A 
ATOM      5  C4  UNL d   1      -0.301  -0.540   0.487  0.00  0.00     0.048 A 
ATOM      6  C5  UNL d   1      -0.274  -1.931   0.605  0.00  0.00     0.003 A 
ATOM      7  I   UNL d   1       0.838   2.262   0.489  0.00  0.00    -0.146 I 
ENDROOT
TORSDOF 0
ENDMDL
