MODEL 1
REMARK minimizedAffinity 3.30111766
REMARK minimizedRMSD -1
REMARK  0 active torsions:
REMARK  status: ('A' for Active; 'I' for Inactive)
ROOT
ATOM      1  C   UNL d   1      -1.393  -5.999  -4.078  0.00  0.00     0.023 A 
ATOM      2  C1  UNL d   1      -0.898  -6.000  -5.382  0.00  0.00     0.003 A 
ATOM      3  C2  UNL d   1       0.449  -5.716  -5.619  0.00  0.00     0.048 A 
ATOM      4  C3  UNL d   1       1.295  -5.433  -4.547  0.00  0.00     0.023 A 
ATOM      5  C4  UNL d   1       0.804  -5.432  -3.240  0.00  0.00     0.048 A 
ATOM      6  C5  UNL d   1      -0.544  -5.715  -3.008  0.00  0.00     0.003 A 
ATOM      7  I   UNL d   1       3.299  -5.011  -4.897  0.00  0.00    -0.146 I 
ENDROOT
TORSDOF 0
ENDMDL
