MODEL 1
REMARK minimizedAffinity 15.9424839
REMARK minimizedRMSD -1
REMARK  0 active torsions:
REMARK  status: ('A' for Active; 'I' for Inactive)
ROOT
ATOM      1  C   UNL d   1      -5.888   0.242  -1.927  0.00  0.00     0.023 A 
ATOM      2  C1  UNL d   1      -5.612   0.922  -3.114  0.00  0.00     0.003 A 
ATOM      3  C2  UNL d   1      -4.344   1.463  -3.332  0.00  0.00     0.048 A 
ATOM      4  C3  UNL d   1      -3.355   1.320  -2.360  0.00  0.00     0.023 A 
ATOM      5  C4  UNL d   1      -3.625   0.641  -1.171  0.00  0.00     0.048 A 
ATOM      6  C5  UNL d   1      -4.895   0.102  -0.957  0.00  0.00     0.003 A 
ATOM      7  I   UNL d   1      -1.466   2.125  -2.683  0.00  0.00    -0.146 I 
ENDROOT
TORSDOF 0
ENDMDL
