MODEL 1
REMARK minimizedAffinity 0.925496876
REMARK minimizedRMSD -1
REMARK  0 active torsions:
REMARK  status: ('A' for Active; 'I' for Inactive)
ROOT
ATOM      1  C   UNL d   1      -2.360  -5.971  -4.145  0.00  0.00     0.023 A 
ATOM      2  C1  UNL d   1      -1.578  -5.992  -2.990  0.00  0.00     0.003 A 
ATOM      3  C2  UNL d   1      -0.185  -5.996  -3.088  0.00  0.00     0.048 A 
ATOM      4  C3  UNL d   1       0.419  -5.977  -4.345  0.00  0.00     0.023 A 
ATOM      5  C4  UNL d   1      -0.359  -5.955  -5.503  0.00  0.00     0.048 A 
ATOM      6  C5  UNL d   1      -1.751  -5.952  -5.400  0.00  0.00     0.003 A 
ATOM      7  I   UNL d   1       2.492  -5.983  -4.493  0.00  0.00    -0.146 I 
ENDROOT
TORSDOF 0
ENDMDL
