MODEL 1
REMARK minimizedAffinity -1.65261269
REMARK minimizedRMSD -1
REMARK  0 active torsions:
REMARK  status: ('A' for Active; 'I' for Inactive)
ROOT
ATOM      1  C   UNL d   1       0.572  -5.993  -4.902  0.00  0.00     0.023 A 
ATOM      2  C1  UNL d   1       0.547  -5.996  -3.507  0.00  0.00     0.003 A 
ATOM      3  C2  UNL d   1      -0.674  -5.996  -2.830  0.00  0.00     0.048 A 
ATOM      4  C3  UNL d   1      -1.866  -5.995  -3.553  0.00  0.00     0.023 A 
ATOM      5  C4  UNL d   1      -1.846  -5.993  -4.949  0.00  0.00     0.048 A 
ATOM      6  C5  UNL d   1      -0.623  -5.992  -5.622  0.00  0.00     0.003 A 
ATOM      7  I   UNL d   1      -3.684  -5.996  -2.547  0.00  0.00    -0.146 I 
ENDROOT
TORSDOF 0
ENDMDL
