MODEL 1
REMARK minimizedAffinity 1.42558157
REMARK minimizedRMSD -1
REMARK  0 active torsions:
REMARK  status: ('A' for Active; 'I' for Inactive)
ROOT
ATOM      1  C   UNL d   1      -3.221  -5.983  -2.141  0.00  0.00     0.023 A 
ATOM      2  C1  UNL d   1      -3.310  -5.986  -3.533  0.00  0.00     0.003 A 
ATOM      3  C2  UNL d   1      -2.149  -5.989  -4.308  0.00  0.00     0.048 A 
ATOM      4  C3  UNL d   1      -0.902  -5.991  -3.685  0.00  0.00     0.023 A 
ATOM      5  C4  UNL d   1      -0.808  -5.990  -2.292  0.00  0.00     0.048 A 
ATOM      6  C5  UNL d   1      -1.972  -5.986  -1.521  0.00  0.00     0.003 A 
ATOM      7  I   UNL d   1       0.829  -5.997  -4.836  0.00  0.00    -0.146 I 
ENDROOT
TORSDOF 0
ENDMDL
