MODEL 1
REMARK minimizedAffinity -2.44397235
REMARK minimizedRMSD -1
REMARK  0 active torsions:
REMARK  status: ('A' for Active; 'I' for Inactive)
ROOT
ATOM      1  C   UNL d   1       0.877  -5.979  -4.363  0.00  0.00     0.023 A 
ATOM      2  C1  UNL d   1       0.542  -5.996  -3.009  0.00  0.00     0.003 A 
ATOM      3  C2  UNL d   1      -0.799  -6.000  -2.620  0.00  0.00     0.048 A 
ATOM      4  C3  UNL d   1      -1.800  -5.989  -3.591  0.00  0.00     0.023 A 
ATOM      5  C4  UNL d   1      -1.469  -5.973  -4.947  0.00  0.00     0.048 A 
ATOM      6  C5  UNL d   1      -0.127  -5.968  -5.331  0.00  0.00     0.003 A 
ATOM      7  I   UNL d   1      -3.797  -5.996  -3.015  0.00  0.00    -0.146 I 
ENDROOT
TORSDOF 0
ENDMDL
