MODEL 1
REMARK minimizedAffinity -2.42194748
REMARK minimizedRMSD -1
REMARK  0 active torsions:
REMARK  status: ('A' for Active; 'I' for Inactive)
ROOT
ATOM      1  C   UNL d   1       1.093  -5.989  -4.379  0.00  0.00     0.023 A 
ATOM      2  C1  UNL d   1       0.913  -5.991  -2.995  0.00  0.00     0.003 A 
ATOM      3  C2  UNL d   1      -0.375  -5.989  -2.457  0.00  0.00     0.048 A 
ATOM      4  C3  UNL d   1      -1.480  -5.985  -3.307  0.00  0.00     0.023 A 
ATOM      5  C4  UNL d   1      -1.305  -5.984  -4.692  0.00  0.00     0.048 A 
ATOM      6  C5  UNL d   1      -0.015  -5.985  -5.226  0.00  0.00     0.003 A 
ATOM      7  I   UNL d   1      -3.399  -5.982  -2.508  0.00  0.00    -0.146 I 
ENDROOT
TORSDOF 0
ENDMDL
