MODEL 1
REMARK minimizedAffinity 4.82849884
REMARK minimizedRMSD -1
REMARK  0 active torsions:
REMARK  status: ('A' for Active; 'I' for Inactive)
ROOT
ATOM      1  C   UNL d   1      -1.893  -5.964  -2.022  0.00  0.00     0.023 A 
ATOM      2  C1  UNL d   1      -2.319  -5.963  -3.351  0.00  0.00     0.003 A 
ATOM      3  C2  UNL d   1      -1.382  -5.971  -4.386  0.00  0.00     0.048 A 
ATOM      4  C3  UNL d   1      -0.021  -5.983  -4.086  0.00  0.00     0.023 A 
ATOM      5  C4  UNL d   1       0.410  -5.985  -2.758  0.00  0.00     0.048 A 
ATOM      6  C5  UNL d   1      -0.530  -5.976  -1.726  0.00  0.00     0.003 A 
ATOM      7  I   UNL d   1       1.376  -5.996  -5.625  0.00  0.00    -0.146 I 
ENDROOT
TORSDOF 0
ENDMDL
