MODEL 1
REMARK minimizedAffinity 8.4651022
REMARK minimizedRMSD -1
REMARK  0 active torsions:
REMARK  status: ('A' for Active; 'I' for Inactive)
ROOT
ATOM      1  C   UNL d   1       0.332  -5.642  -5.317  0.00  0.00     0.023 A 
ATOM      2  C1  UNL d   1      -0.987  -5.847  -5.722  0.00  0.00     0.003 A 
ATOM      3  C2  UNL d   1      -2.028  -5.740  -4.798  0.00  0.00     0.048 A 
ATOM      4  C3  UNL d   1      -1.743  -5.425  -3.470  0.00  0.00     0.023 A 
ATOM      5  C4  UNL d   1      -0.425  -5.217  -3.059  0.00  0.00     0.048 A 
ATOM      6  C5  UNL d   1       0.613  -5.327  -3.987  0.00  0.00     0.003 A 
ATOM      7  I   UNL d   1      -3.291  -5.263  -2.092  0.00  0.00    -0.146 I 
ENDROOT
TORSDOF 0
ENDMDL
