MODEL 1
REMARK minimizedAffinity 6.48816872
REMARK minimizedRMSD -1
REMARK  0 active torsions:
REMARK  status: ('A' for Active; 'I' for Inactive)
ROOT
ATOM      1  C   UNL d   1       0.002  -5.336  -1.239  0.00  0.00     0.023 A 
ATOM      2  C1  UNL d   1       1.250  -5.054  -1.795  0.00  0.00     0.003 A 
ATOM      3  C2  UNL d   1       1.466  -5.244  -3.161  0.00  0.00     0.048 A 
ATOM      4  C3  UNL d   1       0.430  -5.716  -3.966  0.00  0.00     0.023 A 
ATOM      5  C4  UNL d   1      -0.821  -5.999  -3.414  0.00  0.00     0.048 A 
ATOM      6  C5  UNL d   1      -1.032  -5.808  -2.048  0.00  0.00     0.003 A 
ATOM      7  I   UNL d   1       0.749  -5.999  -6.000  0.00  0.00    -0.146 I 
ENDROOT
TORSDOF 0
ENDMDL
