MODEL 1
REMARK minimizedAffinity 6.99456549
REMARK minimizedRMSD -1
REMARK  0 active torsions:
REMARK  status: ('A' for Active; 'I' for Inactive)
ROOT
ATOM      1  C   UNL d   1       1.994   0.126  -1.036  0.00  0.00     0.023 A 
ATOM      2  C1  UNL d   1       3.374   0.143  -1.242  0.00  0.00     0.003 A 
ATOM      3  C2  UNL d   1       4.243   0.185  -0.150  0.00  0.00     0.048 A 
ATOM      4  C3  UNL d   1       3.726   0.210   1.145  0.00  0.00     0.023 A 
ATOM      5  C4  UNL d   1       2.347   0.192   1.356  0.00  0.00     0.048 A 
ATOM      6  C5  UNL d   1       1.481   0.151   0.261  0.00  0.00     0.003 A 
ATOM      7  I   UNL d   1       5.018   0.272   2.772  0.00  0.00    -0.146 I 
ENDROOT
TORSDOF 0
ENDMDL
