MODEL 1
REMARK minimizedAffinity -3.21617413
REMARK minimizedRMSD -1
REMARK  0 active torsions:
REMARK  status: ('A' for Active; 'I' for Inactive)
ROOT
ATOM      1  C   UNL d   1       0.370  -5.321  -5.095  0.00  0.00     0.023 A 
ATOM      2  C1  UNL d   1      -0.857  -5.249  -5.755  0.00  0.00     0.003 A 
ATOM      3  C2  UNL d   1      -2.044  -5.444  -5.047  0.00  0.00     0.048 A 
ATOM      4  C3  UNL d   1      -1.998  -5.710  -3.679  0.00  0.00     0.023 A 
ATOM      5  C4  UNL d   1      -0.773  -5.782  -3.014  0.00  0.00     0.048 A 
ATOM      6  C5  UNL d   1       0.412  -5.587  -3.727  0.00  0.00     0.003 A 
ATOM      7  I   UNL d   1      -3.764  -6.000  -2.623  0.00  0.00    -0.146 I 
ENDROOT
TORSDOF 0
ENDMDL
