MODEL 1
REMARK minimizedAffinity -0.436669976
REMARK minimizedRMSD -1
REMARK  0 active torsions:
REMARK  status: ('A' for Active; 'I' for Inactive)
ROOT
ATOM      1  C   UNL d   1       1.333  -6.000  -5.123  0.00  0.00     0.023 A 
ATOM      2  C1  UNL d   1       0.164  -5.989  -5.884  0.00  0.00     0.003 A 
ATOM      3  C2  UNL d   1      -1.081  -5.975  -5.253  0.00  0.00     0.048 A 
ATOM      4  C3  UNL d   1      -1.150  -5.970  -3.860  0.00  0.00     0.023 A 
ATOM      5  C4  UNL d   1       0.017  -5.980  -3.095  0.00  0.00     0.048 A 
ATOM      6  C5  UNL d   1       1.260  -5.995  -3.730  0.00  0.00     0.003 A 
ATOM      7  I   UNL d   1      -3.002  -5.949  -2.917  0.00  0.00    -0.146 I 
ENDROOT
TORSDOF 0
ENDMDL
