MODEL 1
REMARK minimizedAffinity 9.46357632
REMARK minimizedRMSD -1
REMARK  0 active torsions:
REMARK  status: ('A' for Active; 'I' for Inactive)
ROOT
ATOM      1  C   UNL d   1      -0.601  -6.000  -5.268  0.00  0.00     0.023 A 
ATOM      2  C1  UNL d   1      -1.918  -5.998  -5.729  0.00  0.00     0.003 A 
ATOM      3  C2  UNL d   1      -2.977  -5.990  -4.819  0.00  0.00     0.048 A 
ATOM      4  C3  UNL d   1      -2.713  -5.983  -3.450  0.00  0.00     0.023 A 
ATOM      5  C4  UNL d   1      -1.397  -5.984  -2.984  0.00  0.00     0.048 A 
ATOM      6  C5  UNL d   1      -0.341  -5.993  -3.898  0.00  0.00     0.003 A 
ATOM      7  I   UNL d   1      -4.287  -5.971  -2.093  0.00  0.00    -0.146 I 
ENDROOT
TORSDOF 0
ENDMDL
