MODEL 1
REMARK minimizedAffinity 1.87513769
REMARK minimizedRMSD -1
REMARK  0 active torsions:
REMARK  status: ('A' for Active; 'I' for Inactive)
ROOT
ATOM      1  C   UNL d   1       0.640  -2.137   1.718  0.00  0.00     0.023 A 
ATOM      2  C1  UNL d   1       0.315  -2.791   0.530  0.00  0.00     0.003 A 
ATOM      3  C2  UNL d   1       0.052  -2.053  -0.626  0.00  0.00     0.048 A 
ATOM      4  C3  UNL d   1       0.117  -0.661  -0.587  0.00  0.00     0.023 A 
ATOM      5  C4  UNL d   1       0.442  -0.002   0.600  0.00  0.00     0.048 A 
ATOM      6  C5  UNL d   1       0.704  -0.744   1.753  0.00  0.00     0.003 A 
ATOM      7  I   UNL d   1      -0.274   0.440  -2.306  0.00  0.00    -0.146 I 
ENDROOT
TORSDOF 0
ENDMDL
