MODEL 1
REMARK minimizedAffinity 18.8805943
REMARK minimizedRMSD -1
REMARK  2 active torsions:
REMARK  status: ('A' for Active; 'I' for Inactive)
REMARK    1  A    between atoms: C1_2  and  C2_3 
REMARK    2  A    between atoms: C2_3  and  C3_4 
ROOT
ATOM      1  C3  UNL d   1      -0.339   2.307   3.768  0.00  0.00    -0.075 A 
ATOM      2  C4  UNL d   1       0.889   1.871   3.249  0.00  0.00     0.002 A 
ATOM      3  C5  UNL d   1       1.963   1.604   4.100  0.00  0.00     0.002 A 
ATOM      4  C6  UNL d   1       1.826   1.778   5.475  0.00  0.00    -0.004 A 
ATOM      5  C7  UNL d   1       0.615   2.226   6.000  0.00  0.00     0.002 A 
ATOM      6  C8  UNL d   1      -0.462   2.490   5.152  0.00  0.00     0.002 A 
ENDROOT
BRANCH   1   7
ATOM      7  C2  UNL d   1      -1.513   2.569   2.856  0.00  0.00     0.056 C 
BRANCH   7   8
ATOM      8  C1  UNL d   1      -2.583   1.472   2.885  0.00  0.00     0.007 C 
ATOM      9  C   UNL d   1      -3.762   1.808   3.789  0.00  0.00     0.009 C 
ENDBRANCH   7   8
ENDBRANCH   1   7
TORSDOF 2
ENDMDL
