MODEL 1
REMARK minimizedAffinity 12.9504642
REMARK minimizedRMSD -1
REMARK  2 active torsions:
REMARK  status: ('A' for Active; 'I' for Inactive)
REMARK    1  A    between atoms: C1_2  and  C2_3 
REMARK    2  A    between atoms: C2_3  and  C3_4 
ROOT
ATOM      1  C3  UNL d   1       2.613  -2.201  -4.085  0.00  0.00    -0.075 A 
ATOM      2  C4  UNL d   1       3.794  -2.958  -4.107  0.00  0.00     0.002 A 
ATOM      3  C5  UNL d   1       4.785  -2.696  -5.053  0.00  0.00     0.002 A 
ATOM      4  C6  UNL d   1       4.605  -1.683  -5.993  0.00  0.00    -0.004 A 
ATOM      5  C7  UNL d   1       3.429  -0.937  -5.991  0.00  0.00     0.002 A 
ATOM      6  C8  UNL d   1       2.437  -1.194  -5.043  0.00  0.00     0.002 A 
ENDROOT
BRANCH   1   7
ATOM      7  C2  UNL d   1       1.549  -2.461  -3.045  0.00  0.00     0.056 C 
BRANCH   7   8
ATOM      8  C1  UNL d   1       1.234  -1.250  -2.160  0.00  0.00     0.007 C 
ATOM      9  C   UNL d   1       1.627  -1.455  -0.702  0.00  0.00     0.009 C 
ENDBRANCH   7   8
ENDBRANCH   1   7
TORSDOF 2
ENDMDL
