MODEL 1
REMARK minimizedAffinity 11.5567837
REMARK minimizedRMSD -1
REMARK  2 active torsions:
REMARK  status: ('A' for Active; 'I' for Inactive)
REMARK    1  A    between atoms: C1_2  and  C2_3 
REMARK    2  A    between atoms: C2_3  and  C3_4 
ROOT
ATOM      1  C3  UNL d   1       1.838   0.966  -0.116  0.00  0.00    -0.075 A 
ATOM      2  C4  UNL d   1       2.957   1.653   0.378  0.00  0.00     0.002 A 
ATOM      3  C5  UNL d   1       2.904   2.294   1.616  0.00  0.00     0.002 A 
ATOM      4  C6  UNL d   1       1.732   2.265   2.370  0.00  0.00    -0.004 A 
ATOM      5  C7  UNL d   1       0.610   1.600   1.881  0.00  0.00     0.002 A 
ATOM      6  C8  UNL d   1       0.662   0.954   0.644  0.00  0.00     0.002 A 
ENDROOT
BRANCH   1   7
ATOM      7  C2  UNL d   1       1.898   0.245  -1.442  0.00  0.00     0.056 C 
BRANCH   7   8
ATOM      8  C1  UNL d   1       1.322  -1.174  -1.406  0.00  0.00     0.007 C 
ATOM      9  C   UNL d   1       2.255  -2.185  -0.753  0.00  0.00     0.009 C 
ENDBRANCH   7   8
ENDBRANCH   1   7
TORSDOF 2
ENDMDL
