MODEL 1
REMARK minimizedAffinity 9.02038002
REMARK minimizedRMSD -1
REMARK  2 active torsions:
REMARK  status: ('A' for Active; 'I' for Inactive)
REMARK    1  A    between atoms: C1_2  and  C2_3 
REMARK    2  A    between atoms: C2_3  and  C3_4 
ROOT
ATOM      1  C3  UNL d   1      -3.137   4.549  -5.264  0.00  0.00    -0.075 A 
ATOM      2  C4  UNL d   1      -3.071   4.534  -3.863  0.00  0.00     0.002 A 
ATOM      3  C5  UNL d   1      -2.563   3.423  -3.190  0.00  0.00     0.002 A 
ATOM      4  C6  UNL d   1      -2.126   2.311  -3.905  0.00  0.00    -0.004 A 
ATOM      5  C7  UNL d   1      -2.203   2.308  -5.297  0.00  0.00     0.002 A 
ATOM      6  C8  UNL d   1      -2.706   3.420  -5.973  0.00  0.00     0.002 A 
ENDROOT
BRANCH   1   7
ATOM      7  C2  UNL d   1      -3.658   5.760  -5.999  0.00  0.00     0.056 C 
BRANCH   7   8
ATOM      8  C1  UNL d   1      -5.186   5.881  -5.999  0.00  0.00     0.007 C 
ATOM      9  C   UNL d   1      -5.895   4.533  -6.000  0.00  0.00     0.009 C 
ENDBRANCH   7   8
ENDBRANCH   1   7
TORSDOF 2
ENDMDL
