MODEL 1
REMARK minimizedAffinity 2.01546264
REMARK minimizedRMSD -1
REMARK  2 active torsions:
REMARK  status: ('A' for Active; 'I' for Inactive)
REMARK    1  A    between atoms: C1_2  and  C2_3 
REMARK    2  A    between atoms: C2_3  and  C3_4 
ROOT
ATOM      1  C3  UNL d   1      -2.014  -4.001  -3.632  0.00  0.00    -0.075 A 
ATOM      2  C4  UNL d   1      -1.902  -5.257  -4.245  0.00  0.00     0.002 A 
ATOM      3  C5  UNL d   1      -2.594  -5.534  -5.424  0.00  0.00     0.002 A 
ATOM      4  C6  UNL d   1      -3.415  -4.566  -5.998  0.00  0.00    -0.004 A 
ATOM      5  C7  UNL d   1      -3.547  -3.320  -5.388  0.00  0.00     0.002 A 
ATOM      6  C8  UNL d   1      -2.852  -3.038  -4.211  0.00  0.00     0.002 A 
ENDROOT
BRANCH   1   7
ATOM      7  C2  UNL d   1      -1.244  -3.684  -2.372  0.00  0.00     0.056 C 
BRANCH   7   8
ATOM      8  C1  UNL d   1       0.261  -3.950  -2.478  0.00  0.00     0.007 C 
ATOM      9  C   UNL d   1       1.094  -3.060  -1.566  0.00  0.00     0.009 C 
ENDBRANCH   7   8
ENDBRANCH   1   7
TORSDOF 2
ENDMDL
