MODEL 1
REMARK minimizedAffinity 8.17359066
REMARK minimizedRMSD -1
REMARK  2 active torsions:
REMARK  status: ('A' for Active; 'I' for Inactive)
REMARK    1  A    between atoms: C1_2  and  C2_3 
REMARK    2  A    between atoms: C2_3  and  C3_4 
ROOT
ATOM      1  C3  UNL d   1      -2.319  -4.657  -4.235  0.00  0.00    -0.075 A 
ATOM      2  C4  UNL d   1      -2.997  -5.414  -5.201  0.00  0.00     0.002 A 
ATOM      3  C5  UNL d   1      -3.980  -4.828  -6.000  0.00  0.00     0.002 A 
ATOM      4  C6  UNL d   1      -4.303  -3.483  -5.836  0.00  0.00    -0.004 A 
ATOM      5  C7  UNL d   1      -3.648  -2.725  -4.868  0.00  0.00     0.002 A 
ATOM      6  C8  UNL d   1      -2.661  -3.308  -4.071  0.00  0.00     0.002 A 
ENDROOT
BRANCH   1   7
ATOM      7  C2  UNL d   1      -1.234  -5.278  -3.389  0.00  0.00     0.056 C 
BRANCH   7   8
ATOM      8  C1  UNL d   1       0.180  -4.804  -3.741  0.00  0.00     0.007 C 
ATOM      9  C   UNL d   1       0.868  -4.067  -2.599  0.00  0.00     0.009 C 
ENDBRANCH   7   8
ENDBRANCH   1   7
TORSDOF 2
ENDMDL
