MODEL 1
REMARK minimizedAffinity 0.648843825
REMARK minimizedRMSD -1
REMARK  2 active torsions:
REMARK  status: ('A' for Active; 'I' for Inactive)
REMARK    1  A    between atoms: C1_2  and  C2_3 
REMARK    2  A    between atoms: C2_3  and  C3_4 
ROOT
ATOM      1  C3  UNL d   1      -2.906  -4.711  -5.244  0.00  0.00    -0.075 A 
ATOM      2  C4  UNL d   1      -4.103  -5.052  -5.889  0.00  0.00     0.002 A 
ATOM      3  C5  UNL d   1      -5.142  -4.126  -5.991  0.00  0.00     0.002 A 
ATOM      4  C6  UNL d   1      -5.000  -2.853  -5.442  0.00  0.00    -0.004 A 
ATOM      5  C7  UNL d   1      -3.821  -2.509  -4.785  0.00  0.00     0.002 A 
ATOM      6  C8  UNL d   1      -2.779  -3.433  -4.685  0.00  0.00     0.002 A 
ENDROOT
BRANCH   1   7
ATOM      7  C2  UNL d   1      -1.767  -5.699  -5.155  0.00  0.00     0.056 C 
BRANCH   7   8
ATOM      8  C1  UNL d   1      -1.166  -5.834  -3.752  0.00  0.00     0.007 C 
ATOM      9  C   UNL d   1       0.318  -5.496  -3.701  0.00  0.00     0.009 C 
ENDBRANCH   7   8
ENDBRANCH   1   7
TORSDOF 2
ENDMDL
