MODEL 1
REMARK minimizedAffinity -0.0165324565
REMARK minimizedRMSD -1
REMARK  2 active torsions:
REMARK  status: ('A' for Active; 'I' for Inactive)
REMARK    1  A    between atoms: C1_2  and  C2_3 
REMARK    2  A    between atoms: C2_3  and  C3_4 
ROOT
ATOM      1  C3  UNL d   1      -1.497  -4.635  -4.278  0.00  0.00    -0.075 A 
ATOM      2  C4  UNL d   1      -2.195  -3.419  -4.327  0.00  0.00     0.002 A 
ATOM      3  C5  UNL d   1      -3.289  -3.264  -5.179  0.00  0.00     0.002 A 
ATOM      4  C6  UNL d   1      -3.692  -4.317  -5.998  0.00  0.00    -0.004 A 
ATOM      5  C7  UNL d   1      -2.997  -5.523  -5.969  0.00  0.00     0.002 A 
ATOM      6  C8  UNL d   1      -1.904  -5.682  -5.114  0.00  0.00     0.002 A 
ENDROOT
BRANCH   1   7
ATOM      7  C2  UNL d   1      -0.331  -4.818  -3.336  0.00  0.00     0.056 C 
BRANCH   7   8
ATOM      8  C1  UNL d   1      -0.276  -3.788  -2.203  0.00  0.00     0.007 C 
ATOM      9  C   UNL d   1       1.046  -3.799  -1.447  0.00  0.00     0.009 C 
ENDBRANCH   7   8
ENDBRANCH   1   7
TORSDOF 2
ENDMDL
