MODEL 1
REMARK minimizedAffinity 7.77056742
REMARK minimizedRMSD -1
REMARK  2 active torsions:
REMARK  status: ('A' for Active; 'I' for Inactive)
REMARK    1  A    between atoms: C1_2  and  C2_3 
REMARK    2  A    between atoms: C2_3  and  C3_4 
ROOT
ATOM      1  C3  UNL d   1      -2.518  -3.856  -4.110  0.00  0.00    -0.075 A 
ATOM      2  C4  UNL d   1      -2.996  -2.543  -4.221  0.00  0.00     0.002 A 
ATOM      3  C5  UNL d   1      -3.980  -2.224  -5.157  0.00  0.00     0.002 A 
ATOM      4  C6  UNL d   1      -4.491  -3.210  -5.999  0.00  0.00    -0.004 A 
ATOM      5  C7  UNL d   1      -4.011  -4.515  -5.908  0.00  0.00     0.002 A 
ATOM      6  C8  UNL d   1      -3.029  -4.837  -4.970  0.00  0.00     0.002 A 
ENDROOT
BRANCH   1   7
ATOM      7  C2  UNL d   1      -1.473  -4.214  -3.079  0.00  0.00     0.056 C 
BRANCH   7   8
ATOM      8  C1  UNL d   1      -0.751  -5.537  -3.356  0.00  0.00     0.007 C 
ATOM      9  C   UNL d   1       0.741  -5.479  -3.060  0.00  0.00     0.009 C 
ENDBRANCH   7   8
ENDBRANCH   1   7
TORSDOF 2
ENDMDL
