MODEL 1
REMARK minimizedAffinity -2.91037607
REMARK minimizedRMSD -1
REMARK  2 active torsions:
REMARK  status: ('A' for Active; 'I' for Inactive)
REMARK    1  A    between atoms: C1_2  and  C2_3 
REMARK    2  A    between atoms: C2_3  and  C3_4 
ROOT
ATOM      1  C3  UNL d   1      -2.518  -3.658  -5.051  0.00  0.00    -0.075 A 
ATOM      2  C4  UNL d   1      -2.351  -5.049  -5.104  0.00  0.00     0.002 A 
ATOM      3  C5  UNL d   1      -1.468  -5.691  -4.235  0.00  0.00     0.002 A 
ATOM      4  C6  UNL d   1      -0.734  -4.950  -3.312  0.00  0.00    -0.004 A 
ATOM      5  C7  UNL d   1      -0.879  -3.565  -3.262  0.00  0.00     0.002 A 
ATOM      6  C8  UNL d   1      -1.765  -2.921  -4.127  0.00  0.00     0.002 A 
ENDROOT
BRANCH   1   7
ATOM      7  C2  UNL d   1      -3.494  -2.961  -5.968  0.00  0.00     0.056 C 
BRANCH   7   8
ATOM      8  C1  UNL d   1      -4.913  -3.539  -5.924  0.00  0.00     0.007 C 
ATOM      9  C   UNL d   1      -5.998  -2.473  -6.000  0.00  0.00     0.009 C 
ENDBRANCH   7   8
ENDBRANCH   1   7
TORSDOF 2
ENDMDL
