MODEL 1
REMARK minimizedAffinity 5.42739773
REMARK minimizedRMSD -1
REMARK  2 active torsions:
REMARK  status: ('A' for Active; 'I' for Inactive)
REMARK    1  A    between atoms: C1_2  and  C2_3 
REMARK    2  A    between atoms: C2_3  and  C3_4 
ROOT
ATOM      1  C3  UNL d   1      -2.588  -4.566  -4.789  0.00  0.00    -0.075 A 
ATOM      2  C4  UNL d   1      -2.527  -3.720  -3.673  0.00  0.00     0.002 A 
ATOM      3  C5  UNL d   1      -1.665  -4.006  -2.614  0.00  0.00     0.002 A 
ATOM      4  C6  UNL d   1      -0.862  -5.143  -2.652  0.00  0.00    -0.004 A 
ATOM      5  C7  UNL d   1      -0.926  -6.000  -3.749  0.00  0.00     0.002 A 
ATOM      6  C8  UNL d   1      -1.785  -5.714  -4.812  0.00  0.00     0.002 A 
ENDROOT
BRANCH   1   7
ATOM      7  C2  UNL d   1      -3.497  -4.247  -5.952  0.00  0.00     0.056 C 
BRANCH   7   8
ATOM      8  C1  UNL d   1      -3.961  -2.788  -5.999  0.00  0.00     0.007 C 
ATOM      9  C   UNL d   1      -5.476  -2.639  -5.999  0.00  0.00     0.009 C 
ENDBRANCH   7   8
ENDBRANCH   1   7
TORSDOF 2
ENDMDL
