MODEL 1
REMARK minimizedAffinity 3.10546923
REMARK minimizedRMSD -1
REMARK  2 active torsions:
REMARK  status: ('A' for Active; 'I' for Inactive)
REMARK    1  A    between atoms: C1_2  and  C2_3 
REMARK    2  A    between atoms: C2_3  and  C3_4 
ROOT
ATOM      1  C3  UNL d   1      -2.927  -5.297  -5.068  0.00  0.00    -0.075 A 
ATOM      2  C4  UNL d   1      -3.046  -5.435  -3.677  0.00  0.00     0.002 A 
ATOM      3  C5  UNL d   1      -2.174  -4.762  -2.821  0.00  0.00     0.002 A 
ATOM      4  C6  UNL d   1      -1.167  -3.953  -3.343  0.00  0.00    -0.004 A 
ATOM      5  C7  UNL d   1      -1.028  -3.822  -4.723  0.00  0.00     0.002 A 
ATOM      6  C8  UNL d   1      -1.903  -4.490  -5.582  0.00  0.00     0.002 A 
ENDROOT
BRANCH   1   7
ATOM      7  C2  UNL d   1      -3.886  -5.998  -5.999  0.00  0.00     0.056 C 
BRANCH   7   8
ATOM      8  C1  UNL d   1      -5.361  -5.689  -5.723  0.00  0.00     0.007 C 
ATOM      9  C   UNL d   1      -5.733  -4.239  -5.999  0.00  0.00     0.009 C 
ENDBRANCH   7   8
ENDBRANCH   1   7
TORSDOF 2
ENDMDL
