MODEL 1
REMARK minimizedAffinity 0.541345
REMARK minimizedRMSD -1
REMARK  2 active torsions:
REMARK  status: ('A' for Active; 'I' for Inactive)
REMARK    1  A    between atoms: C1_2  and  C2_3 
REMARK    2  A    between atoms: C2_3  and  C3_4 
ROOT
ATOM      1  C3  UNL d   1       1.291  -3.053   3.910  0.00  0.00    -0.075 A 
ATOM      2  C4  UNL d   1       1.157  -1.684   3.634  0.00  0.00     0.002 A 
ATOM      3  C5  UNL d   1       2.000  -1.061   2.714  0.00  0.00     0.002 A 
ATOM      4  C6  UNL d   1       2.993  -1.793   2.067  0.00  0.00    -0.004 A 
ATOM      5  C7  UNL d   1       3.146  -3.149   2.345  0.00  0.00     0.002 A 
ATOM      6  C8  UNL d   1       2.301  -3.777   3.262  0.00  0.00     0.002 A 
ENDROOT
BRANCH   1   7
ATOM      7  C2  UNL d   1       0.363  -3.740   4.882  0.00  0.00     0.056 C 
BRANCH   7   8
ATOM      8  C1  UNL d   1       1.083  -4.502   6.000  0.00  0.00     0.007 C 
ATOM      9  C   UNL d   1       0.786  -5.995   5.996  0.00  0.00     0.009 C 
ENDBRANCH   7   8
ENDBRANCH   1   7
TORSDOF 2
ENDMDL
