MODEL 1
REMARK minimizedAffinity 6.73136902
REMARK minimizedRMSD -1
REMARK  2 active torsions:
REMARK  status: ('A' for Active; 'I' for Inactive)
REMARK    1  A    between atoms: C1_2  and  C2_3 
REMARK    2  A    between atoms: C2_3  and  C3_4 
ROOT
ATOM      1  C3  UNL d   1       3.491  -3.456   3.363  0.00  0.00    -0.075 A 
ATOM      2  C4  UNL d   1       3.202  -2.289   2.641  0.00  0.00     0.002 A 
ATOM      3  C5  UNL d   1       1.924  -1.731   2.677  0.00  0.00     0.002 A 
ATOM      4  C6  UNL d   1       0.917  -2.336   3.426  0.00  0.00    -0.004 A 
ATOM      5  C7  UNL d   1       1.188  -3.505   4.134  0.00  0.00     0.002 A 
ATOM      6  C8  UNL d   1       2.467  -4.063   4.103  0.00  0.00     0.002 A 
ENDROOT
BRANCH   1   7
ATOM      7  C2  UNL d   1       4.880  -4.048   3.352  0.00  0.00     0.056 C 
BRANCH   7   8
ATOM      8  C1  UNL d   1       6.000  -3.015   3.512  0.00  0.00     0.007 C 
ATOM      9  C   UNL d   1       5.995  -2.331   4.872  0.00  0.00     0.009 C 
ENDBRANCH   7   8
ENDBRANCH   1   7
TORSDOF 2
ENDMDL
