MODEL 1
REMARK minimizedAffinity 2.6978519
REMARK minimizedRMSD -1
REMARK  2 active torsions:
REMARK  status: ('A' for Active; 'I' for Inactive)
REMARK    1  A    between atoms: C1_2  and  C2_3 
REMARK    2  A    between atoms: C2_3  and  C3_4 
ROOT
ATOM      1  C3  UNL d   1       1.979  -1.591   2.838  0.00  0.00    -0.075 A 
ATOM      2  C4  UNL d   1       2.138  -2.889   2.330  0.00  0.00     0.002 A 
ATOM      3  C5  UNL d   1       2.269  -3.977   3.193  0.00  0.00     0.002 A 
ATOM      4  C6  UNL d   1       2.255  -3.781   4.572  0.00  0.00    -0.004 A 
ATOM      5  C7  UNL d   1       2.114  -2.495   5.088  0.00  0.00     0.002 A 
ATOM      6  C8  UNL d   1       1.978  -1.405   4.227  0.00  0.00     0.002 A 
ENDROOT
BRANCH   1   7
ATOM      7  C2  UNL d   1       1.807  -0.413   1.910  0.00  0.00     0.056 C 
BRANCH   7   8
ATOM      8  C1  UNL d   1       3.084   0.406   1.698  0.00  0.00     0.007 C 
ATOM      9  C   UNL d   1       3.964  -0.133   0.579  0.00  0.00     0.009 C 
ENDBRANCH   7   8
ENDBRANCH   1   7
TORSDOF 2
ENDMDL
