MODEL 1
REMARK minimizedAffinity 7.0472517
REMARK minimizedRMSD -1
REMARK  2 active torsions:
REMARK  status: ('A' for Active; 'I' for Inactive)
REMARK    1  A    between atoms: C1_2  and  C2_3 
REMARK    2  A    between atoms: C2_3  and  C3_4 
ROOT
ATOM      1  C3  UNL d   1       2.347  -2.606   2.491  0.00  0.00    -0.075 A 
ATOM      2  C4  UNL d   1       1.327  -2.291   3.401  0.00  0.00     0.002 A 
ATOM      3  C5  UNL d   1       0.744  -1.023   3.400  0.00  0.00     0.002 A 
ATOM      4  C6  UNL d   1       1.179  -0.053   2.500  0.00  0.00    -0.004 A 
ATOM      5  C7  UNL d   1       2.203  -0.350   1.603  0.00  0.00     0.002 A 
ATOM      6  C8  UNL d   1       2.785  -1.619   1.598  0.00  0.00     0.002 A 
ENDROOT
BRANCH   1   7
ATOM      7  C2  UNL d   1       2.961  -3.985   2.466  0.00  0.00     0.056 C 
BRANCH   7   8
ATOM      8  C1  UNL d   1       2.204  -4.989   1.591  0.00  0.00     0.007 C 
ATOM      9  C   UNL d   1       2.681  -5.003   0.144  0.00  0.00     0.009 C 
ENDBRANCH   7   8
ENDBRANCH   1   7
TORSDOF 2
ENDMDL
