MODEL 1
REMARK minimizedAffinity -1.88591862
REMARK minimizedRMSD -1
REMARK  2 active torsions:
REMARK  status: ('A' for Active; 'I' for Inactive)
REMARK    1  A    between atoms: C1_2  and  C2_3 
REMARK    2  A    between atoms: C2_3  and  C3_4 
ROOT
ATOM      1  C3  UNL d   1       1.829  -3.559   4.647  0.00  0.00    -0.075 A 
ATOM      2  C4  UNL d   1       2.617  -4.308   3.760  0.00  0.00     0.002 A 
ATOM      3  C5  UNL d   1       3.001  -3.775   2.530  0.00  0.00     0.002 A 
ATOM      4  C6  UNL d   1       2.595  -2.493   2.166  0.00  0.00    -0.004 A 
ATOM      5  C7  UNL d   1       1.799  -1.746   3.032  0.00  0.00     0.002 A 
ATOM      6  C8  UNL d   1       1.417  -2.275   4.265  0.00  0.00     0.002 A 
ENDROOT
BRANCH   1   7
ATOM      7  C2  UNL d   1       1.435  -4.119   5.993  0.00  0.00     0.056 C 
BRANCH   7   8
ATOM      8  C1  UNL d   1       1.158  -5.626   5.984  0.00  0.00     0.007 C 
ATOM      9  C   UNL d   1      -0.327  -5.963   6.000  0.00  0.00     0.009 C 
ENDBRANCH   7   8
ENDBRANCH   1   7
TORSDOF 2
ENDMDL
