MODEL 1
REMARK minimizedAffinity 7.41920376
REMARK minimizedRMSD -1
REMARK  0 active torsions:
REMARK  status: ('A' for Active; 'I' for Inactive)
ROOT
ATOM      1  C   UNL d   1      -4.711   2.579   2.371  0.00  0.00     0.124 A 
ATOM      2  C1  UNL d   1      -4.609   2.250   3.715  0.00  0.00     0.062 A 
ATOM      3  C2  UNL d   1      -4.973   3.173   4.691  0.00  0.00     0.162 A 
ATOM      4  C3  UNL d   1      -5.444   4.434   4.326  0.00  0.00    -0.034 A 
ATOM      5  C4  UNL d   1      -5.543   4.758   2.972  0.00  0.00     0.162 A 
ATOM      6  C5  UNL d   1      -5.177   3.832   2.000  0.00  0.00     0.062 A 
ATOM      7  F   UNL d   1      -5.276   4.152   0.702  0.00  0.00    -0.097 F 
ATOM      8  F1  UNL d   1      -5.992   5.962   2.586  0.00  0.00    -0.096 F 
ATOM      9  I   UNL d   1      -5.990   5.817   5.783  0.00  0.00    -0.060 I 
ATOM     10  F2  UNL d   1      -4.865   2.828   5.983  0.00  0.00    -0.096 F 
ATOM     11  F3  UNL d   1      -4.157   1.040   4.076  0.00  0.00    -0.097 F 
ATOM     12  F4  UNL d   1      -4.358   1.689   1.434  0.00  0.00    -0.092 F 
ENDROOT
TORSDOF 0
ENDMDL
