MODEL 1
REMARK minimizedAffinity 14.5065336
REMARK minimizedRMSD -1
REMARK  0 active torsions:
REMARK  status: ('A' for Active; 'I' for Inactive)
ROOT
ATOM      1  C   UNL d   1      -4.082   2.776   2.283  0.00  0.00     0.124 A 
ATOM      2  C1  UNL d   1      -3.931   2.370   3.602  0.00  0.00     0.062 A 
ATOM      3  C2  UNL d   1      -4.477   3.126   4.635  0.00  0.00     0.162 A 
ATOM      4  C3  UNL d   1      -5.181   4.297   4.353  0.00  0.00    -0.034 A 
ATOM      5  C4  UNL d   1      -5.328   4.700   3.024  0.00  0.00     0.162 A 
ATOM      6  C5  UNL d   1      -4.780   3.940   1.996  0.00  0.00     0.062 A 
ATOM      7  F   UNL d   1      -4.927   4.334   0.722  0.00  0.00    -0.097 F 
ATOM      8  F1  UNL d   1      -5.999   5.820   2.717  0.00  0.00    -0.096 F 
ATOM      9  I   UNL d   1      -5.999   5.432   5.894  0.00  0.00    -0.060 I 
ATOM     10  F2  UNL d   1      -4.315   2.710   5.899  0.00  0.00    -0.096 F 
ATOM     11  F3  UNL d   1      -3.256   1.246   3.883  0.00  0.00    -0.097 F 
ATOM     12  F4  UNL d   1      -3.554   2.046   1.292  0.00  0.00    -0.092 F 
ENDROOT
TORSDOF 0
ENDMDL
