MODEL 1
REMARK minimizedAffinity 14.5583897
REMARK minimizedRMSD -1
REMARK  0 active torsions:
REMARK  status: ('A' for Active; 'I' for Inactive)
ROOT
ATOM      1  C   UNL d   1      -4.459   2.741   2.443  0.00  0.00     0.124 A 
ATOM      2  C1  UNL d   1      -3.985   2.489   3.722  0.00  0.00     0.062 A 
ATOM      3  C2  UNL d   1      -4.186   3.417   4.739  0.00  0.00     0.162 A 
ATOM      4  C3  UNL d   1      -4.866   4.607   4.482  0.00  0.00    -0.034 A 
ATOM      5  C4  UNL d   1      -5.340   4.855   3.192  0.00  0.00     0.162 A 
ATOM      6  C5  UNL d   1      -5.137   3.924   2.179  0.00  0.00     0.062 A 
ATOM      7  F   UNL d   1      -5.596   4.169   0.943  0.00  0.00    -0.097 F 
ATOM      8  F1  UNL d   1      -5.999   5.988   2.909  0.00  0.00    -0.096 F 
ATOM      9  I   UNL d   1      -5.169   5.998   6.000  0.00  0.00    -0.060 I 
ATOM     10  F2  UNL d   1      -3.716   3.147   5.966  0.00  0.00    -0.096 F 
ATOM     11  F3  UNL d   1      -3.329   1.348   3.980  0.00  0.00    -0.097 F 
ATOM     12  F4  UNL d   1      -4.264   1.847   1.466  0.00  0.00    -0.092 F 
ENDROOT
TORSDOF 0
ENDMDL
