MODEL 1
REMARK minimizedAffinity 10.1817265
REMARK minimizedRMSD -1
REMARK  0 active torsions:
REMARK  status: ('A' for Active; 'I' for Inactive)
ROOT
ATOM      1  C   UNL d   1      -5.802   3.613   1.114  0.00  0.00     0.124 A 
ATOM      2  C1  UNL d   1      -5.781   2.415   1.815  0.00  0.00     0.062 A 
ATOM      3  C2  UNL d   1      -5.821   2.418   3.207  0.00  0.00     0.162 A 
ATOM      4  C3  UNL d   1      -5.884   3.623   3.907  0.00  0.00    -0.034 A 
ATOM      5  C4  UNL d   1      -5.904   4.823   3.194  0.00  0.00     0.162 A 
ATOM      6  C5  UNL d   1      -5.864   4.815   1.804  0.00  0.00     0.062 A 
ATOM      7  F   UNL d   1      -5.884   5.973   1.128  0.00  0.00    -0.097 F 
ATOM      8  F1  UNL d   1      -5.964   6.000   3.836  0.00  0.00    -0.096 F 
ATOM      9  I   UNL d   1      -5.943   3.631   5.987  0.00  0.00    -0.060 I 
ATOM     10  F2  UNL d   1      -5.799   1.246   3.858  0.00  0.00    -0.096 F 
ATOM     11  F3  UNL d   1      -5.720   1.252   1.151  0.00  0.00    -0.097 F 
ATOM     12  F4  UNL d   1      -5.762   3.607  -0.225  0.00  0.00    -0.092 F 
ENDROOT
TORSDOF 0
ENDMDL
