MODEL 1
REMARK minimizedAffinity 19.4554119
REMARK minimizedRMSD -1
REMARK  0 active torsions:
REMARK  status: ('A' for Active; 'I' for Inactive)
ROOT
ATOM      1  C   UNL d   1      -2.170  -1.019  -0.626  0.00  0.00     0.124 A 
ATOM      2  C1  UNL d   1      -2.470  -0.942   0.727  0.00  0.00     0.062 A 
ATOM      3  C2  UNL d   1      -1.457  -0.729   1.657  0.00  0.00     0.162 A 
ATOM      4  C3  UNL d   1      -0.134  -0.589   1.238  0.00  0.00    -0.034 A 
ATOM      5  C4  UNL d   1       0.160  -0.668  -0.125  0.00  0.00     0.162 A 
ATOM      6  C5  UNL d   1      -0.856  -0.882  -1.051  0.00  0.00     0.062 A 
ATOM      7  F   UNL d   1      -0.565  -0.956  -2.357  0.00  0.00    -0.097 F 
ATOM      8  F1  UNL d   1       1.421  -0.538  -0.563  0.00  0.00    -0.096 F 
ATOM      9  I   UNL d   1       1.384  -0.269   2.625  0.00  0.00    -0.060 I 
ATOM     10  F2  UNL d   1      -1.775  -0.659   2.958  0.00  0.00    -0.096 F 
ATOM     11  F3  UNL d   1      -3.739  -1.076   1.140  0.00  0.00    -0.097 F 
ATOM     12  F4  UNL d   1      -3.147  -1.226  -1.519  0.00  0.00    -0.092 F 
ENDROOT
TORSDOF 0
ENDMDL
