MODEL 1
REMARK minimizedAffinity 5.4265728
REMARK minimizedRMSD -1
REMARK  0 active torsions:
REMARK  status: ('A' for Active; 'I' for Inactive)
ROOT
ATOM      1  C   UNL d   1      -4.659   4.487   1.931  0.00  0.00     0.124 A 
ATOM      2  C1  UNL d   1      -5.242   4.893   3.124  0.00  0.00     0.062 A 
ATOM      3  C2  UNL d   1      -5.044   4.154   4.286  0.00  0.00     0.162 A 
ATOM      4  C3  UNL d   1      -4.259   3.001   4.263  0.00  0.00    -0.034 A 
ATOM      5  C4  UNL d   1      -3.677   2.598   3.059  0.00  0.00     0.162 A 
ATOM      6  C5  UNL d   1      -3.878   3.340   1.900  0.00  0.00     0.062 A 
ATOM      7  F   UNL d   1      -3.314   2.947   0.749  0.00  0.00    -0.097 F 
ATOM      8  F1  UNL d   1      -2.917   1.495   3.001  0.00  0.00    -0.096 F 
ATOM      9  I   UNL d   1      -3.961   1.893   5.999  0.00  0.00    -0.060 I 
ATOM     10  F2  UNL d   1      -5.619   4.569   5.425  0.00  0.00    -0.096 F 
ATOM     11  F3  UNL d   1      -5.998   5.999   3.156  0.00  0.00    -0.097 F 
ATOM     12  F4  UNL d   1      -4.852   5.199   0.813  0.00  0.00    -0.092 F 
ENDROOT
TORSDOF 0
ENDMDL
