MODEL 1
REMARK minimizedAffinity 1.42776716
REMARK minimizedRMSD -1
REMARK  0 active torsions:
REMARK  status: ('A' for Active; 'I' for Inactive)
ROOT
ATOM      1  C   UNL d   1      -5.385   2.424   2.455  0.00  0.00     0.124 A 
ATOM      2  C1  UNL d   1      -5.688   2.141   3.779  0.00  0.00     0.062 A 
ATOM      3  C2  UNL d   1      -5.702   3.159   4.727  0.00  0.00     0.162 A 
ATOM      4  C3  UNL d   1      -5.413   4.472   4.355  0.00  0.00    -0.034 A 
ATOM      5  C4  UNL d   1      -5.107   4.749   3.021  0.00  0.00     0.162 A 
ATOM      6  C5  UNL d   1      -5.094   3.727   2.077  0.00  0.00     0.062 A 
ATOM      7  F   UNL d   1      -4.801   4.003   0.798  0.00  0.00    -0.097 F 
ATOM      8  F1  UNL d   1      -4.824   6.000   2.628  0.00  0.00    -0.096 F 
ATOM      9  I   UNL d   1      -5.433   5.998   5.770  0.00  0.00    -0.060 I 
ATOM     10  F2  UNL d   1      -5.999   2.857   6.000  0.00  0.00    -0.096 F 
ATOM     11  F3  UNL d   1      -5.968   0.882   4.147  0.00  0.00    -0.097 F 
ATOM     12  F4  UNL d   1      -5.371   1.442   1.544  0.00  0.00    -0.092 F 
ENDROOT
TORSDOF 0
ENDMDL
