MODEL 1
REMARK minimizedAffinity 12.8303432
REMARK minimizedRMSD -1
REMARK  0 active torsions:
REMARK  status: ('A' for Active; 'I' for Inactive)
ROOT
ATOM      1  C   UNL d   1      -5.446   4.753   2.463  0.00  0.00     0.124 A 
ATOM      2  C1  UNL d   1      -4.896   3.620   1.880  0.00  0.00     0.062 A 
ATOM      3  C2  UNL d   1      -4.319   2.634   2.675  0.00  0.00     0.162 A 
ATOM      4  C3  UNL d   1      -4.289   2.776   4.062  0.00  0.00    -0.034 A 
ATOM      5  C4  UNL d   1      -4.843   3.919   4.641  0.00  0.00     0.162 A 
ATOM      6  C5  UNL d   1      -5.419   4.902   3.843  0.00  0.00     0.062 A 
ATOM      7  F   UNL d   1      -5.949   5.996   4.408  0.00  0.00    -0.097 F 
ATOM      8  F1  UNL d   1      -4.831   4.087   5.972  0.00  0.00    -0.096 F 
ATOM      9  I   UNL d   1      -3.426   1.304   5.254  0.00  0.00    -0.060 I 
ATOM     10  F2  UNL d   1      -3.795   1.549   2.084  0.00  0.00    -0.096 F 
ATOM     11  F3  UNL d   1      -4.920   3.474   0.547  0.00  0.00    -0.097 F 
ATOM     12  F4  UNL d   1      -6.000   5.701   1.696  0.00  0.00    -0.092 F 
ENDROOT
TORSDOF 0
ENDMDL
