MODEL 1
REMARK minimizedAffinity 8.27420902
REMARK minimizedRMSD -1
REMARK  0 active torsions:
REMARK  status: ('A' for Active; 'I' for Inactive)
ROOT
ATOM      1  C   UNL d   1      -4.702   3.619   1.204  0.00  0.00     0.124 A 
ATOM      2  C1  UNL d   1      -4.865   2.419   1.882  0.00  0.00     0.062 A 
ATOM      3  C2  UNL d   1      -5.213   2.418   3.230  0.00  0.00     0.162 A 
ATOM      4  C3  UNL d   1      -5.401   3.621   3.909  0.00  0.00    -0.034 A 
ATOM      5  C4  UNL d   1      -5.235   4.824   3.221  0.00  0.00     0.162 A 
ATOM      6  C5  UNL d   1      -4.887   4.821   1.874  0.00  0.00     0.062 A 
ATOM      7  F   UNL d   1      -4.730   5.981   1.221  0.00  0.00    -0.097 F 
ATOM      8  F1  UNL d   1      -5.408   6.000   3.844  0.00  0.00    -0.096 F 
ATOM      9  I   UNL d   1      -5.921   3.623   5.924  0.00  0.00    -0.060 I 
ATOM     10  F2  UNL d   1      -5.363   1.243   3.859  0.00  0.00    -0.096 F 
ATOM     11  F3  UNL d   1      -4.686   1.257   1.237  0.00  0.00    -0.097 F 
ATOM     12  F4  UNL d   1      -4.367   3.618  -0.092  0.00  0.00    -0.092 F 
ENDROOT
TORSDOF 0
ENDMDL
