MODEL 1
REMARK minimizedAffinity 10.4082651
REMARK minimizedRMSD -1
REMARK  0 active torsions:
REMARK  status: ('A' for Active; 'I' for Inactive)
ROOT
ATOM      1  C   UNL d   1      -0.991  -0.569   1.283  0.00  0.00     0.124 A 
ATOM      2  C1  UNL d   1      -1.732  -1.100   0.236  0.00  0.00     0.062 A 
ATOM      3  C2  UNL d   1      -1.287  -0.964  -1.075  0.00  0.00     0.162 A 
ATOM      4  C3  UNL d   1      -0.094  -0.295  -1.348  0.00  0.00    -0.034 A 
ATOM      5  C4  UNL d   1       0.646   0.237  -0.290  0.00  0.00     0.162 A 
ATOM      6  C5  UNL d   1       0.197   0.099   1.019  0.00  0.00     0.062 A 
ATOM      7  F   UNL d   1       0.914   0.612   2.029  0.00  0.00    -0.097 F 
ATOM      8  F1  UNL d   1       1.797   0.886  -0.517  0.00  0.00    -0.096 F 
ATOM      9  I   UNL d   1       0.575  -0.090  -3.308  0.00  0.00    -0.060 I 
ATOM     10  F2  UNL d   1      -2.023  -1.487  -2.067  0.00  0.00    -0.096 F 
ATOM     11  F3  UNL d   1      -2.880  -1.744   0.489  0.00  0.00    -0.097 F 
ATOM     12  F4  UNL d   1      -1.422  -0.700   2.544  0.00  0.00    -0.092 F 
ENDROOT
TORSDOF 0
ENDMDL
