MODEL 1
REMARK minimizedAffinity 14.6135683
REMARK minimizedRMSD -1
REMARK  0 active torsions:
REMARK  status: ('A' for Active; 'I' for Inactive)
ROOT
ATOM      1  C   UNL d   1      -1.872  -1.376   0.945  0.00  0.00     0.124 A 
ATOM      2  C1  UNL d   1      -1.397  -1.118  -0.333  0.00  0.00     0.062 A 
ATOM      3  C2  UNL d   1      -0.517  -0.063  -0.554  0.00  0.00     0.162 A 
ATOM      4  C3  UNL d   1      -0.106   0.744   0.507  0.00  0.00    -0.034 A 
ATOM      5  C4  UNL d   1      -0.589   0.479   1.790  0.00  0.00     0.162 A 
ATOM      6  C5  UNL d   1      -1.468  -0.577   2.005  0.00  0.00     0.062 A 
ATOM      7  F   UNL d   1      -1.926  -0.824   3.241  0.00  0.00    -0.097 F 
ATOM      8  F1  UNL d   1      -0.214   1.235   2.833  0.00  0.00    -0.096 F 
ATOM      9  I   UNL d   1       1.210   2.323   0.182  0.00  0.00    -0.060 I 
ATOM     10  F2  UNL d   1      -0.074   0.163  -1.800  0.00  0.00    -0.096 F 
ATOM     11  F3  UNL d   1      -1.787  -1.888  -1.360  0.00  0.00    -0.097 F 
ATOM     12  F4  UNL d   1      -2.720  -2.391   1.154  0.00  0.00    -0.092 F 
ENDROOT
TORSDOF 0
ENDMDL
