MODEL 1
REMARK minimizedAffinity 4.30263186
REMARK minimizedRMSD -1
REMARK  0 active torsions:
REMARK  status: ('A' for Active; 'I' for Inactive)
ROOT
ATOM      1  C   UNL d   1      -1.476  -0.933   0.677  0.00  0.00     0.124 A 
ATOM      2  C1  UNL d   1      -2.266  -1.075  -0.455  0.00  0.00     0.062 A 
ATOM      3  C2  UNL d   1      -1.749  -0.775  -1.712  0.00  0.00     0.162 A 
ATOM      4  C3  UNL d   1      -0.433  -0.332  -1.844  0.00  0.00    -0.034 A 
ATOM      5  C4  UNL d   1       0.356  -0.191  -0.701  0.00  0.00     0.162 A 
ATOM      6  C5  UNL d   1      -0.166  -0.492   0.553  0.00  0.00     0.062 A 
ATOM      7  F   UNL d   1       0.599  -0.354   1.646  0.00  0.00    -0.097 F 
ATOM      8  F1  UNL d   1       1.625   0.233  -0.791  0.00  0.00    -0.096 F 
ATOM      9  I   UNL d   1       0.345   0.117  -3.722  0.00  0.00    -0.060 I 
ATOM     10  F2  UNL d   1      -2.535  -0.921  -2.789  0.00  0.00    -0.096 F 
ATOM     11  F3  UNL d   1      -3.532  -1.500  -0.338  0.00  0.00    -0.097 F 
ATOM     12  F4  UNL d   1      -1.977  -1.221   1.885  0.00  0.00    -0.092 F 
ENDROOT
TORSDOF 0
ENDMDL
