MODEL 1
REMARK minimizedAffinity 1.44949019
REMARK minimizedRMSD -1
REMARK  0 active torsions:
REMARK  status: ('A' for Active; 'I' for Inactive)
ROOT
ATOM      1  C   UNL d   1      -5.173   3.779   0.701  0.00  0.00     0.124 A 
ATOM      2  C1  UNL d   1      -5.573   4.902   1.411  0.00  0.00     0.062 A 
ATOM      3  C2  UNL d   1      -5.538   4.899   2.803  0.00  0.00     0.162 A 
ATOM      4  C3  UNL d   1      -5.102   3.769   3.493  0.00  0.00    -0.034 A 
ATOM      5  C4  UNL d   1      -4.703   2.642   2.772  0.00  0.00     0.162 A 
ATOM      6  C5  UNL d   1      -4.739   2.650   1.381  0.00  0.00     0.062 A 
ATOM      7  F   UNL d   1      -4.353   1.564   0.697  0.00  0.00    -0.097 F 
ATOM      8  F1  UNL d   1      -4.277   1.538   3.404  0.00  0.00    -0.096 F 
ATOM      9  I   UNL d   1      -5.049   3.760   5.574  0.00  0.00    -0.060 I 
ATOM     10  F2  UNL d   1      -5.930   5.999   3.463  0.00  0.00    -0.096 F 
ATOM     11  F3  UNL d   1      -5.994   5.993   0.756  0.00  0.00    -0.097 F 
ATOM     12  F4  UNL d   1      -5.208   3.784  -0.638  0.00  0.00    -0.092 F 
ENDROOT
TORSDOF 0
ENDMDL
