MODEL 1
REMARK minimizedAffinity 13.9612598
REMARK minimizedRMSD -1
REMARK  0 active torsions:
REMARK  status: ('A' for Active; 'I' for Inactive)
ROOT
ATOM      1  C   UNL d   1      -1.596  -1.433  -1.875  0.00  0.00     0.124 A 
ATOM      2  C1  UNL d   1      -1.016  -0.633  -2.849  0.00  0.00     0.062 A 
ATOM      3  C2  UNL d   1      -0.034   0.291  -2.503  0.00  0.00     0.162 A 
ATOM      4  C3  UNL d   1       0.375   0.419  -1.175  0.00  0.00    -0.034 A 
ATOM      5  C4  UNL d   1      -0.215  -0.388  -0.201  0.00  0.00     0.162 A 
ATOM      6  C5  UNL d   1      -1.195  -1.309  -0.552  0.00  0.00     0.062 A 
ATOM      7  F   UNL d   1      -1.755  -2.081   0.391  0.00  0.00    -0.097 F 
ATOM      8  F1  UNL d   1       0.155  -0.290   1.085  0.00  0.00    -0.096 F 
ATOM      9  I   UNL d   1       1.842   1.800  -0.654  0.00  0.00    -0.060 I 
ATOM     10  F2  UNL d   1       0.510   1.050  -3.465  0.00  0.00    -0.096 F 
ATOM     11  F3  UNL d   1      -1.402  -0.750  -4.128  0.00  0.00    -0.097 F 
ATOM     12  F4  UNL d   1      -2.541  -2.320  -2.210  0.00  0.00    -0.092 F 
ENDROOT
TORSDOF 0
ENDMDL
