MODEL 1
REMARK minimizedAffinity 9.16454887
REMARK minimizedRMSD -1
REMARK  0 active torsions:
REMARK  status: ('A' for Active; 'I' for Inactive)
ROOT
ATOM      1  C   UNL d   1      -5.402   4.987   3.968  0.00  0.00     0.124 A 
ATOM      2  C1  UNL d   1      -5.400   4.987   2.580  0.00  0.00     0.062 A 
ATOM      3  C2  UNL d   1      -4.808   3.939   1.881  0.00  0.00     0.162 A 
ATOM      4  C3  UNL d   1      -4.214   2.882   2.569  0.00  0.00    -0.034 A 
ATOM      5  C4  UNL d   1      -4.219   2.889   3.965  0.00  0.00     0.162 A 
ATOM      6  C5  UNL d   1      -4.812   3.939   4.659  0.00  0.00     0.062 A 
ATOM      7  F   UNL d   1      -4.813   3.938   6.000  0.00  0.00    -0.097 F 
ATOM      8  F1  UNL d   1      -3.656   1.888   4.658  0.00  0.00    -0.096 F 
ATOM      9  I   UNL d   1      -3.327   1.313   1.528  0.00  0.00    -0.060 I 
ATOM     10  F2  UNL d   1      -4.821   3.965   0.540  0.00  0.00    -0.096 F 
ATOM     11  F3  UNL d   1      -5.970   5.999   1.909  0.00  0.00    -0.097 F 
ATOM     12  F4  UNL d   1      -5.972   5.998   4.637  0.00  0.00    -0.092 F 
ENDROOT
TORSDOF 0
ENDMDL
