MODEL 1
REMARK minimizedAffinity 1.63703024
REMARK minimizedRMSD -1
REMARK  0 active torsions:
REMARK  status: ('A' for Active; 'I' for Inactive)
ROOT
ATOM      1  C   UNL d   1      -4.692   2.604   4.258  0.00  0.00     0.124 A 
ATOM      2  C1  UNL d   1      -5.184   3.833   4.676  0.00  0.00     0.062 A 
ATOM      3  C2  UNL d   1      -5.527   4.804   3.740  0.00  0.00     0.162 A 
ATOM      4  C3  UNL d   1      -5.381   4.550   2.376  0.00  0.00    -0.034 A 
ATOM      5  C4  UNL d   1      -4.885   3.312   1.964  0.00  0.00     0.162 A 
ATOM      6  C5  UNL d   1      -4.543   2.344   2.903  0.00  0.00     0.062 A 
ATOM      7  F   UNL d   1      -4.069   1.158   2.498  0.00  0.00    -0.097 F 
ATOM      8  F1  UNL d   1      -4.732   3.035   0.660  0.00  0.00    -0.096 F 
ATOM      9  I   UNL d   1      -5.894   6.000   0.974  0.00  0.00    -0.060 I 
ATOM     10  F2  UNL d   1      -6.000   5.982   4.172  0.00  0.00    -0.096 F 
ATOM     11  F3  UNL d   1      -5.328   4.086   5.985  0.00  0.00    -0.097 F 
ATOM     12  F4  UNL d   1      -4.362   1.671   5.161  0.00  0.00    -0.092 F 
ENDROOT
TORSDOF 0
ENDMDL
