MODEL 1
REMARK minimizedAffinity -4.82386541
REMARK minimizedRMSD -1
REMARK  1 active torsions:
REMARK  status: ('A' for Active; 'I' for Inactive)
REMARK    1  A    between atoms: C1_2  and  C2_3 
ROOT
ATOM      1  C2  UNL d   1       0.085   0.482  -0.073  0.00  0.00    -0.073 A 
ATOM      2  C3  UNL d   1       1.272   0.015  -0.649  0.00  0.00    -0.002 A 
ATOM      3  C4  UNL d   1       1.994  -1.012  -0.041  0.00  0.00     0.004 A 
ATOM      4  C5  UNL d   1       1.535  -1.588   1.144  0.00  0.00    -0.004 A 
ATOM      5  C6  UNL d   1       0.345  -1.143   1.728  0.00  0.00    -0.075 A 
ATOM      6  C7  UNL d   1      -0.162  -1.750   3.004  0.00  0.00     0.076 C 
ATOM      7  C8  UNL d   1      -0.373  -0.109   1.113  0.00  0.00     0.001 A 
ENDROOT
BRANCH   1   8
ATOM      8  C1  UNL d   1      -0.701   1.587  -0.729  0.00  0.00     0.053 C 
ATOM      9  C   UNL d   1      -1.632   1.060  -1.810  0.00  0.00     0.018 C 
ENDBRANCH   1   8
TORSDOF 1
ENDMDL
