MODEL 1
REMARK minimizedAffinity -4.14029074
REMARK minimizedRMSD -1
REMARK  1 active torsions:
REMARK  status: ('A' for Active; 'I' for Inactive)
REMARK    1  A    between atoms: C1_2  and  C2_3 
ROOT
ATOM      1  C2  UNL d   1       0.200  -0.915   1.766  0.00  0.00    -0.073 A 
ATOM      2  C3  UNL d   1       1.518  -1.268   1.453  0.00  0.00    -0.002 A 
ATOM      3  C4  UNL d   1       2.119  -0.785   0.290  0.00  0.00     0.004 A 
ATOM      4  C5  UNL d   1       1.414   0.058  -0.567  0.00  0.00    -0.004 A 
ATOM      5  C6  UNL d   1       0.100   0.432  -0.266  0.00  0.00    -0.075 A 
ATOM      6  C7  UNL d   1      -0.674   1.337  -1.179  0.00  0.00     0.076 C 
ATOM      7  C8  UNL d   1      -0.498  -0.059   0.903  0.00  0.00     0.001 A 
ENDROOT
BRANCH   1   8
ATOM      8  C1  UNL d   1      -0.451  -1.428   3.024  0.00  0.00     0.053 C 
ATOM      9  C   UNL d   1       0.501  -1.405   4.209  0.00  0.00     0.018 C 
ENDBRANCH   1   8
TORSDOF 1
ENDMDL
