MODEL 1
REMARK minimizedAffinity -2.99541426
REMARK minimizedRMSD -1
REMARK  1 active torsions:
REMARK  status: ('A' for Active; 'I' for Inactive)
REMARK    1  A    between atoms: C1_2  and  C2_3 
ROOT
ATOM      1  C2  UNL d   1      -0.271   1.352  -0.420  0.00  0.00    -0.073 A 
ATOM      2  C3  UNL d   1       0.991   0.926  -0.850  0.00  0.00    -0.002 A 
ATOM      3  C4  UNL d   1       1.631  -0.136  -0.211  0.00  0.00     0.004 A 
ATOM      4  C5  UNL d   1       1.015  -0.787   0.858  0.00  0.00    -0.004 A 
ATOM      5  C6  UNL d   1      -0.251  -0.383   1.294  0.00  0.00    -0.075 A 
ATOM      6  C7  UNL d   1      -0.927  -1.071   2.444  0.00  0.00     0.076 C 
ATOM      7  C8  UNL d   1      -0.887   0.686   0.649  0.00  0.00     0.001 A 
ENDROOT
BRANCH   1   8
ATOM      8  C1  UNL d   1      -0.969   2.495  -1.112  0.00  0.00     0.053 C 
ATOM      9  C   UNL d   1      -2.066   2.011  -2.047  0.00  0.00     0.018 C 
ENDBRANCH   1   8
TORSDOF 1
ENDMDL
