MODEL 1
REMARK minimizedAffinity -4.80277014
REMARK minimizedRMSD -1
REMARK  1 active torsions:
REMARK  status: ('A' for Active; 'I' for Inactive)
REMARK    1  A    between atoms: C1_2  and  C2_3 
ROOT
ATOM      1  C2  UNL d   1      -0.072   0.220   0.168  0.00  0.00    -0.073 A 
ATOM      2  C3  UNL d   1       1.176  -0.069  -0.396  0.00  0.00    -0.002 A 
ATOM      3  C4  UNL d   1       2.086  -0.879   0.284  0.00  0.00     0.004 A 
ATOM      4  C5  UNL d   1       1.756  -1.413   1.530  0.00  0.00    -0.004 A 
ATOM      5  C6  UNL d   1       0.509  -1.146   2.104  0.00  0.00    -0.075 A 
ATOM      6  C7  UNL d   1       0.140  -1.711   3.445  0.00  0.00     0.076 C 
ATOM      7  C8  UNL d   1      -0.398  -0.329   1.416  0.00  0.00     0.001 A 
ENDROOT
BRANCH   1   8
ATOM      8  C1  UNL d   1      -1.061   1.089  -0.566  0.00  0.00     0.053 C 
ATOM      9  C   UNL d   1      -1.715   0.354  -1.725  0.00  0.00     0.018 C 
ENDBRANCH   1   8
TORSDOF 1
ENDMDL
