MODEL 1
REMARK minimizedAffinity -3.78888416
REMARK minimizedRMSD -1
REMARK  1 active torsions:
REMARK  status: ('A' for Active; 'I' for Inactive)
REMARK    1  A    between atoms: C1_2  and  C2_3 
ROOT
ATOM      1  C2  UNL d   1       0.730  -0.371  -0.401  0.00  0.00    -0.073 A 
ATOM      2  C3  UNL d   1      -0.070  -0.787  -1.471  0.00  0.00    -0.002 A 
ATOM      3  C4  UNL d   1      -1.239  -0.095  -1.787  0.00  0.00     0.004 A 
ATOM      4  C5  UNL d   1      -1.617   1.023  -1.043  0.00  0.00    -0.004 A 
ATOM      5  C6  UNL d   1      -0.824   1.462   0.022  0.00  0.00    -0.075 A 
ATOM      6  C7  UNL d   1      -1.217   2.661   0.834  0.00  0.00     0.076 C 
ATOM      7  C8  UNL d   1       0.348   0.760   0.336  0.00  0.00     0.001 A 
ENDROOT
BRANCH   1   8
ATOM      8  C1  UNL d   1       1.998  -1.111  -0.059  0.00  0.00     0.053 C 
ATOM      9  C   UNL d   1       1.899  -1.821   1.282  0.00  0.00     0.018 C 
ENDBRANCH   1   8
TORSDOF 1
ENDMDL
