MODEL 1
REMARK minimizedAffinity -4.65581512
REMARK minimizedRMSD -1
REMARK  1 active torsions:
REMARK  status: ('A' for Active; 'I' for Inactive)
REMARK    1  A    between atoms: C1_2  and  C2_3 
ROOT
ATOM      1  C2  UNL d   1       0.989  -1.369   1.604  0.00  0.00    -0.073 A 
ATOM      2  C3  UNL d   1       2.240  -1.320   0.979  0.00  0.00    -0.002 A 
ATOM      3  C4  UNL d   1       2.471  -0.424  -0.066  0.00  0.00     0.004 A 
ATOM      4  C5  UNL d   1       1.459   0.436  -0.490  0.00  0.00    -0.004 A 
ATOM      5  C6  UNL d   1       0.205   0.410   0.130  0.00  0.00    -0.075 A 
ATOM      6  C7  UNL d   1      -0.895   1.327  -0.316  0.00  0.00     0.076 C 
ATOM      7  C8  UNL d   1      -0.020  -0.495   1.177  0.00  0.00     0.001 A 
ENDROOT
BRANCH   1   8
ATOM      8  C1  UNL d   1       0.737  -2.331   2.737  0.00  0.00     0.053 C 
ATOM      9  C   UNL d   1      -0.142  -1.721   3.817  0.00  0.00     0.018 C 
ENDBRANCH   1   8
TORSDOF 1
ENDMDL
