MODEL 1
REMARK minimizedAffinity -4.65992308
REMARK minimizedRMSD -1
REMARK  2 active torsions:
REMARK  status: ('A' for Active; 'I' for Inactive)
REMARK    1  A    between atoms: C1_2  and  C2_3 
REMARK    2  A    between atoms: C2_3  and  C3_4 
ROOT
ATOM      1  C3  UNL d   1      -2.321   0.540   0.082  0.00  0.00    -0.075 A 
ATOM      2  C4  UNL d   1      -2.645   1.231   1.258  0.00  0.00     0.002 A 
ATOM      3  C5  UNL d   1      -3.934   1.162   1.787  0.00  0.00     0.002 A 
ATOM      4  C6  UNL d   1      -4.916   0.413   1.143  0.00  0.00    -0.004 A 
ATOM      5  C7  UNL d   1      -4.609  -0.264  -0.035  0.00  0.00     0.002 A 
ATOM      6  C8  UNL d   1      -3.319  -0.201  -0.565  0.00  0.00     0.002 A 
ENDROOT
BRANCH   1   7
ATOM      7  C2  UNL d   1      -0.920   0.586  -0.480  0.00  0.00     0.056 C 
BRANCH   7   8
ATOM      8  C1  UNL d   1       0.142  -0.027   0.440  0.00  0.00     0.007 C 
ATOM      9  C   UNL d   1       0.689  -1.352  -0.073  0.00  0.00     0.009 C 
ENDBRANCH   7   8
ENDBRANCH   1   7
TORSDOF 2
ENDMDL
