MODEL 1
REMARK minimizedAffinity -3.86442924
REMARK minimizedRMSD -1
REMARK  2 active torsions:
REMARK  status: ('A' for Active; 'I' for Inactive)
REMARK    1  A    between atoms: C1_2  and  C2_3 
REMARK    2  A    between atoms: C2_3  and  C3_4 
ROOT
ATOM      1  C3  UNL d   1      -0.701   0.490  -0.071  0.00  0.00    -0.075 A 
ATOM      2  C4  UNL d   1      -0.243  -0.739   0.427  0.00  0.00     0.002 A 
ATOM      3  C5  UNL d   1       1.085  -0.890   0.828  0.00  0.00     0.002 A 
ATOM      4  C6  UNL d   1       1.972   0.178   0.727  0.00  0.00    -0.004 A 
ATOM      5  C7  UNL d   1       1.533   1.399   0.218  0.00  0.00     0.002 A 
ATOM      6  C8  UNL d   1       0.204   1.554  -0.180  0.00  0.00     0.002 A 
ENDROOT
BRANCH   1   7
ATOM      7  C2  UNL d   1      -2.143   0.669  -0.480  0.00  0.00     0.056 C 
BRANCH   7   8
ATOM      8  C1  UNL d   1      -3.101   0.888   0.696  0.00  0.00     0.007 C 
ATOM      9  C   UNL d   1      -3.844  -0.375   1.110  0.00  0.00     0.009 C 
ENDBRANCH   7   8
ENDBRANCH   1   7
TORSDOF 2
ENDMDL
