MODEL 1
REMARK minimizedAffinity -2.98206902
REMARK minimizedRMSD -1
REMARK  2 active torsions:
REMARK  status: ('A' for Active; 'I' for Inactive)
REMARK    1  A    between atoms: C1_2  and  C2_3 
REMARK    2  A    between atoms: C2_3  and  C3_4 
ROOT
ATOM      1  C3  UNL d   1       0.266  -0.024  -0.057  0.00  0.00    -0.075 A 
ATOM      2  C4  UNL d   1       0.805  -1.301  -0.275  0.00  0.00     0.002 A 
ATOM      3  C5  UNL d   1       2.184  -1.475  -0.401  0.00  0.00     0.002 A 
ATOM      4  C6  UNL d   1       3.038  -0.377  -0.322  0.00  0.00    -0.004 A 
ATOM      5  C7  UNL d   1       2.512   0.898  -0.122  0.00  0.00     0.002 A 
ATOM      6  C8  UNL d   1       1.133   1.074   0.009  0.00  0.00     0.002 A 
ENDROOT
BRANCH   1   7
ATOM      7  C2  UNL d   1      -1.223   0.167   0.109  0.00  0.00     0.056 C 
BRANCH   7   8
ATOM      8  C1  UNL d   1      -1.612   1.501   0.754  0.00  0.00     0.007 C 
ATOM      9  C   UNL d   1      -3.111   1.643   0.983  0.00  0.00     0.009 C 
ENDBRANCH   7   8
ENDBRANCH   1   7
TORSDOF 2
ENDMDL
