MODEL 1
REMARK minimizedAffinity -5.25964928
REMARK minimizedRMSD -1
REMARK  2 active torsions:
REMARK  status: ('A' for Active; 'I' for Inactive)
REMARK    1  A    between atoms: C1_2  and  C2_3 
REMARK    2  A    between atoms: C2_3  and  C3_4 
ROOT
ATOM      1  C3  UNL d   1      -2.211   0.790   0.078  0.00  0.00    -0.075 A 
ATOM      2  C4  UNL d   1      -3.341   0.139  -0.439  0.00  0.00     0.002 A 
ATOM      3  C5  UNL d   1      -4.560   0.192   0.238  0.00  0.00     0.002 A 
ATOM      4  C6  UNL d   1      -4.662   0.885   1.442  0.00  0.00    -0.004 A 
ATOM      5  C7  UNL d   1      -3.542   1.522   1.973  0.00  0.00     0.002 A 
ATOM      6  C8  UNL d   1      -2.323   1.474   1.295  0.00  0.00     0.002 A 
ENDROOT
BRANCH   1   7
ATOM      7  C2  UNL d   1      -0.897   0.762  -0.665  0.00  0.00     0.056 C 
BRANCH   7   8
ATOM      8  C1  UNL d   1       0.146  -0.180  -0.052  0.00  0.00     0.007 C 
ATOM      9  C   UNL d   1       1.309   0.555   0.600  0.00  0.00     0.009 C 
ENDBRANCH   7   8
ENDBRANCH   1   7
TORSDOF 2
ENDMDL
