MODEL 1
REMARK minimizedAffinity -5.58831692
REMARK minimizedRMSD -1
REMARK  2 active torsions:
REMARK  status: ('A' for Active; 'I' for Inactive)
REMARK    1  A    between atoms: C1_2  and  C2_3 
REMARK    2  A    between atoms: C2_3  and  C3_4 
ROOT
ATOM      1  C3  UNL d   1      -2.591   0.400   0.036  0.00  0.00    -0.075 A 
ATOM      2  C4  UNL d   1      -2.693   1.352   1.060  0.00  0.00     0.002 A 
ATOM      3  C5  UNL d   1      -3.774   1.332   1.941  0.00  0.00     0.002 A 
ATOM      4  C6  UNL d   1      -4.771   0.368   1.804  0.00  0.00    -0.004 A 
ATOM      5  C7  UNL d   1      -4.688  -0.573   0.780  0.00  0.00     0.002 A 
ATOM      6  C8  UNL d   1      -3.605  -0.558  -0.101  0.00  0.00     0.002 A 
ENDROOT
BRANCH   1   7
ATOM      7  C2  UNL d   1      -1.408   0.398  -0.903  0.00  0.00     0.056 C 
BRANCH   7   8
ATOM      8  C1  UNL d   1      -0.053   0.279  -0.198  0.00  0.00     0.007 C 
ATOM      9  C   UNL d   1       0.558  -1.112  -0.303  0.00  0.00     0.009 C 
ENDBRANCH   7   8
ENDBRANCH   1   7
TORSDOF 2
ENDMDL
