MODEL 1
REMARK minimizedAffinity -4.97677946
REMARK minimizedRMSD -1
REMARK  2 active torsions:
REMARK  status: ('A' for Active; 'I' for Inactive)
REMARK    1  A    between atoms: C1_2  and  C2_3 
REMARK    2  A    between atoms: C2_3  and  C3_4 
ROOT
ATOM      1  C3  UNL d   1       0.241  -0.176   0.098  0.00  0.00    -0.075 A 
ATOM      2  C4  UNL d   1       0.635  -1.230  -0.739  0.00  0.00     0.002 A 
ATOM      3  C5  UNL d   1       1.836  -1.904  -0.513  0.00  0.00     0.002 A 
ATOM      4  C6  UNL d   1       2.660  -1.527   0.545  0.00  0.00    -0.004 A 
ATOM      5  C7  UNL d   1       2.287  -0.471   1.373  0.00  0.00     0.002 A 
ATOM      6  C8  UNL d   1       1.085   0.202   1.152  0.00  0.00     0.002 A 
ENDROOT
BRANCH   1   7
ATOM      7  C2  UNL d   1      -1.071   0.538  -0.123  0.00  0.00     0.056 C 
BRANCH   7   8
ATOM      8  C1  UNL d   1      -1.998   0.531   1.096  0.00  0.00     0.007 C 
ATOM      9  C   UNL d   1      -3.457   0.281   0.739  0.00  0.00     0.009 C 
ENDBRANCH   7   8
ENDBRANCH   1   7
TORSDOF 2
ENDMDL
