MODEL 1
REMARK minimizedAffinity -3.00921512
REMARK minimizedRMSD -1
REMARK  2 active torsions:
REMARK  status: ('A' for Active; 'I' for Inactive)
REMARK    1  A    between atoms: C1_2  and  C2_3 
REMARK    2  A    between atoms: C2_3  and  C3_4 
ROOT
ATOM      1  C3  UNL d   1      -0.356   0.590  -0.144  0.00  0.00    -0.075 A 
ATOM      2  C4  UNL d   1       0.670   1.537  -0.008  0.00  0.00     0.002 A 
ATOM      3  C5  UNL d   1       2.002   1.130   0.080  0.00  0.00     0.002 A 
ATOM      4  C6  UNL d   1       2.323  -0.225   0.043  0.00  0.00    -0.004 A 
ATOM      5  C7  UNL d   1       1.310  -1.175  -0.075  0.00  0.00     0.002 A 
ATOM      6  C8  UNL d   1      -0.023  -0.770  -0.167  0.00  0.00     0.002 A 
ENDROOT
BRANCH   1   7
ATOM      7  C2  UNL d   1      -1.797   1.026  -0.269  0.00  0.00     0.056 C 
BRANCH   7   8
ATOM      8  C1  UNL d   1      -2.810  -0.043   0.153  0.00  0.00     0.007 C 
ATOM      9  C   UNL d   1      -4.066   0.538   0.789  0.00  0.00     0.009 C 
ENDBRANCH   7   8
ENDBRANCH   1   7
TORSDOF 2
ENDMDL
