MODEL 1
REMARK minimizedAffinity 1.8609941
REMARK minimizedRMSD -1
REMARK  0 active torsions:
REMARK  status: ('A' for Active; 'I' for Inactive)
ROOT
ATOM      1  C   UNL d   1       4.883  -4.760   5.231  0.00  0.00    -0.002 A 
ATOM      2  C1  UNL d   1       5.004  -4.709   3.849  0.00  0.00     0.010 A 
ATOM      3  C2  UNL d   1       5.337  -3.514   3.208  0.00  0.00     0.041 A 
ATOM      4  C3  UNL d   1       5.551  -2.360   3.988  0.00  0.00    -0.075 A 
ATOM      5  S   UNL d   1       5.970  -0.787   3.421  0.00  0.00     0.015 SA
ATOM      6  C4  UNL d   1       6.000  -0.145   5.000  0.00  0.00     0.022 A 
ATOM      7  C5  UNL d   1       5.700  -1.094   5.948  0.00  0.00     0.026 A 
ATOM      8  C6  UNL d   1       5.437  -2.386   5.380  0.00  0.00    -0.082 A 
ATOM      9  C7  UNL d   1       5.097  -3.613   6.000  0.00  0.00     0.045 A 
ENDROOT
TORSDOF 0
ENDMDL
