MODEL 1
REMARK minimizedAffinity -0.847038388
REMARK minimizedRMSD -1
REMARK  0 active torsions:
REMARK  status: ('A' for Active; 'I' for Inactive)
ROOT
ATOM      1  C   UNL d   1       5.948  -1.265   3.014  0.00  0.00    -0.002 A 
ATOM      2  C1  UNL d   1       5.891  -0.915   4.356  0.00  0.00     0.010 A 
ATOM      3  C2  UNL d   1       5.868  -1.900   5.346  0.00  0.00     0.041 A 
ATOM      4  C3  UNL d   1       5.905  -3.254   4.961  0.00  0.00    -0.075 A 
ATOM      5  S   UNL d   1       5.888  -4.631   5.999  0.00  0.00     0.015 SA
ATOM      6  C4  UNL d   1       5.957  -5.715   4.686  0.00  0.00     0.022 A 
ATOM      7  C5  UNL d   1       5.993  -5.060   3.478  0.00  0.00     0.026 A 
ATOM      8  C6  UNL d   1       5.964  -3.631   3.616  0.00  0.00    -0.082 A 
ATOM      9  C7  UNL d   1       5.985  -2.610   2.636  0.00  0.00     0.045 A 
ENDROOT
TORSDOF 0
ENDMDL
