MODEL 1
REMARK minimizedAffinity 1.74084055
REMARK minimizedRMSD -1
REMARK  0 active torsions:
REMARK  status: ('A' for Active; 'I' for Inactive)
ROOT
ATOM      1  C   UNL d   1       5.990   0.224   5.205  0.00  0.00    -0.002 A 
ATOM      2  C1  UNL d   1       5.970   0.122   3.821  0.00  0.00     0.010 A 
ATOM      3  C2  UNL d   1       5.787  -1.117   3.203  0.00  0.00     0.041 A 
ATOM      4  C3  UNL d   1       5.621  -2.262   4.006  0.00  0.00    -0.075 A 
ATOM      5  S   UNL d   1       5.381  -3.883   3.470  0.00  0.00     0.015 SA
ATOM      6  C4  UNL d   1       5.298  -4.478   5.064  0.00  0.00     0.022 A 
ATOM      7  C5  UNL d   1       5.448  -3.478   5.996  0.00  0.00     0.026 A 
ATOM      8  C6  UNL d   1       5.636  -2.184   5.402  0.00  0.00    -0.082 A 
ATOM      9  C7  UNL d   1       5.824  -0.915   5.999  0.00  0.00     0.045 A 
ENDROOT
TORSDOF 0
ENDMDL
