MODEL 1
REMARK minimizedAffinity 7.93729782
REMARK minimizedRMSD -1
REMARK  0 active torsions:
REMARK  status: ('A' for Active; 'I' for Inactive)
ROOT
ATOM      1  C   UNL d   1      -1.969   0.332   1.004  0.00  0.00    -0.002 A 
ATOM      2  C1  UNL d   1      -0.877  -0.360   0.499  0.00  0.00     0.010 A 
ATOM      3  C2  UNL d   1       0.419  -0.033   0.902  0.00  0.00     0.041 A 
ATOM      4  C3  UNL d   1       0.602   1.010   1.831  0.00  0.00    -0.075 A 
ATOM      5  S   UNL d   1       2.097   1.584   2.468  0.00  0.00     0.015 SA
ATOM      6  C4  UNL d   1       1.322   2.761   3.427  0.00  0.00     0.022 A 
ATOM      7  C5  UNL d   1      -0.044   2.731   3.276  0.00  0.00     0.026 A 
ATOM      8  C6  UNL d   1      -0.482   1.721   2.354  0.00  0.00    -0.082 A 
ATOM      9  C7  UNL d   1      -1.784   1.366   1.926  0.00  0.00     0.045 A 
ENDROOT
TORSDOF 0
ENDMDL
