MODEL 1
REMARK minimizedAffinity 6.19872332
REMARK minimizedRMSD -1
REMARK  0 active torsions:
REMARK  status: ('A' for Active; 'I' for Inactive)
ROOT
ATOM      1  C   UNL d   1       5.999   1.431   1.824  0.00  0.00    -0.002 A 
ATOM      2  C1  UNL d   1       5.313   0.627   2.725  0.00  0.00     0.010 A 
ATOM      3  C2  UNL d   1       3.953   0.367   2.551  0.00  0.00     0.041 A 
ATOM      4  C3  UNL d   1       3.286   0.931   1.446  0.00  0.00    -0.075 A 
ATOM      5  S   UNL d   1       1.623   0.749   1.031  0.00  0.00     0.015 SA
ATOM      6  C4  UNL d   1       1.783   1.733  -0.352  0.00  0.00     0.022 A 
ATOM      7  C5  UNL d   1       3.067   2.198  -0.508  0.00  0.00     0.026 A 
ATOM      8  C6  UNL d   1       3.955   1.743   0.525  0.00  0.00    -0.082 A 
ATOM      9  C7  UNL d   1       5.334   1.989   0.729  0.00  0.00     0.045 A 
ENDROOT
TORSDOF 0
ENDMDL
