MODEL 1
REMARK minimizedAffinity 2.80740476
REMARK minimizedRMSD -1
REMARK  0 active torsions:
REMARK  status: ('A' for Active; 'I' for Inactive)
ROOT
ATOM      1  C   UNL d   1       5.844  -0.356   3.498  0.00  0.00    -0.002 A 
ATOM      2  C1  UNL d   1       5.997  -0.198   4.868  0.00  0.00     0.010 A 
ATOM      3  C2  UNL d   1       5.998  -1.308   5.715  0.00  0.00     0.041 A 
ATOM      4  C3  UNL d   1       5.844  -2.592   5.157  0.00  0.00    -0.075 A 
ATOM      5  S   UNL d   1       5.816  -4.096   6.000  0.00  0.00     0.015 SA
ATOM      6  C4  UNL d   1       5.602  -4.984   4.561  0.00  0.00     0.022 A 
ATOM      7  C5  UNL d   1       5.551  -4.169   3.455  0.00  0.00     0.026 A 
ATOM      8  C6  UNL d   1       5.690  -2.777   3.780  0.00  0.00    -0.082 A 
ATOM      9  C7  UNL d   1       5.692  -1.632   2.948  0.00  0.00     0.045 A 
ENDROOT
TORSDOF 0
ENDMDL
