MODEL 1
REMARK minimizedAffinity 11.3223562
REMARK minimizedRMSD -1
REMARK  0 active torsions:
REMARK  status: ('A' for Active; 'I' for Inactive)
ROOT
ATOM      1  C   UNL d   1       2.051   2.531  -2.318  0.00  0.00    -0.002 A 
ATOM      2  C1  UNL d   1       2.172   2.177  -0.982  0.00  0.00     0.010 A 
ATOM      3  C2  UNL d   1       2.566   0.886  -0.623  0.00  0.00     0.041 A 
ATOM      4  C3  UNL d   1       2.842  -0.050  -1.639  0.00  0.00    -0.075 A 
ATOM      5  S   UNL d   1       3.342  -1.687  -1.435  0.00  0.00     0.015 SA
ATOM      6  C4  UNL d   1       3.408  -1.954  -3.117  0.00  0.00     0.022 A 
ATOM      7  C5  UNL d   1       3.061  -0.832  -3.832  0.00  0.00     0.026 A 
ATOM      8  C6  UNL d   1       2.729   0.284  -2.991  0.00  0.00    -0.082 A 
ATOM      9  C7  UNL d   1       2.326   1.600  -3.323  0.00  0.00     0.045 A 
ENDROOT
TORSDOF 0
ENDMDL
