MODEL 1
REMARK minimizedAffinity 4.22478867
REMARK minimizedRMSD -1
REMARK  0 active torsions:
REMARK  status: ('A' for Active; 'I' for Inactive)
ROOT
ATOM      1  C   UNL d   1      -1.806  -0.955   1.058  0.00  0.00    -0.002 A 
ATOM      2  C1  UNL d   1      -1.198   0.281   0.891  0.00  0.00     0.010 A 
ATOM      3  C2  UNL d   1      -1.184   0.903  -0.359  0.00  0.00     0.041 A 
ATOM      4  C3  UNL d   1      -1.800   0.257  -1.449  0.00  0.00    -0.075 A 
ATOM      5  S   UNL d   1      -1.908   0.829  -3.071  0.00  0.00     0.015 SA
ATOM      6  C4  UNL d   1      -2.765  -0.553  -3.581  0.00  0.00     0.022 A 
ATOM      7  C5  UNL d   1      -2.972  -1.440  -2.552  0.00  0.00     0.026 A 
ATOM      8  C6  UNL d   1      -2.420  -0.988  -1.305  0.00  0.00    -0.082 A 
ATOM      9  C7  UNL d   1      -2.416  -1.593  -0.026  0.00  0.00     0.045 A 
ENDROOT
TORSDOF 0
ENDMDL
