MODEL 1
REMARK minimizedAffinity 11.6175795
REMARK minimizedRMSD -1
REMARK  0 active torsions:
REMARK  status: ('A' for Active; 'I' for Inactive)
ROOT
ATOM      1  C   UNL d   1      -6.000   0.182   3.893  0.00  0.00    -0.002 A 
ATOM      2  C1  UNL d   1      -5.882   1.555   3.728  0.00  0.00     0.010 A 
ATOM      3  C2  UNL d   1      -4.785   2.098   3.058  0.00  0.00     0.041 A 
ATOM      4  C3  UNL d   1      -3.798   1.230   2.550  0.00  0.00    -0.075 A 
ATOM      5  S   UNL d   1      -2.367   1.670   1.694  0.00  0.00     0.015 SA
ATOM      6  C4  UNL d   1      -1.878   0.046   1.527  0.00  0.00     0.022 A 
ATOM      7  C5  UNL d   1      -2.773  -0.824   2.105  0.00  0.00     0.026 A 
ATOM      8  C6  UNL d   1      -3.894  -0.156   2.703  0.00  0.00    -0.082 A 
ATOM      9  C7  UNL d   1      -5.019  -0.676   3.388  0.00  0.00     0.045 A 
ENDROOT
TORSDOF 0
ENDMDL
