MODEL 1
REMARK minimizedAffinity 19.3237343
REMARK minimizedRMSD -1
REMARK  0 active torsions:
REMARK  status: ('A' for Active; 'I' for Inactive)
ROOT
ATOM      1  C   UNL d   1       2.307   0.535   1.697  0.00  0.00    -0.002 A 
ATOM      2  C1  UNL d   1       2.150  -0.813   1.406  0.00  0.00     0.010 A 
ATOM      3  C2  UNL d   1       3.024  -1.761   1.942  0.00  0.00     0.041 A 
ATOM      4  C3  UNL d   1       4.067  -1.328   2.784  0.00  0.00    -0.075 A 
ATOM      5  S   UNL d   1       5.256  -2.310   3.555  0.00  0.00     0.015 SA
ATOM      6  C4  UNL d   1       6.000  -0.964   4.289  0.00  0.00     0.022 A 
ATOM      7  C5  UNL d   1       5.369   0.214   3.965  0.00  0.00     0.026 A 
ATOM      8  C6  UNL d   1       4.244   0.023   3.093  0.00  0.00    -0.082 A 
ATOM      9  C7  UNL d   1       3.342   0.961   2.533  0.00  0.00     0.045 A 
ENDROOT
TORSDOF 0
ENDMDL
