MODEL 1
REMARK minimizedAffinity 8.09599495
REMARK minimizedRMSD -1
REMARK  0 active torsions:
REMARK  status: ('A' for Active; 'I' for Inactive)
ROOT
ATOM      1  C   UNL d   1      -5.705   1.590   2.414  0.00  0.00    -0.002 A 
ATOM      2  C1  UNL d   1      -5.954   0.228   2.512  0.00  0.00     0.010 A 
ATOM      3  C2  UNL d   1      -4.970  -0.700   2.167  0.00  0.00     0.041 A 
ATOM      4  C3  UNL d   1      -3.719  -0.233   1.720  0.00  0.00    -0.075 A 
ATOM      5  S   UNL d   1      -2.363  -1.186   1.244  0.00  0.00     0.015 SA
ATOM      6  C4  UNL d   1      -1.421   0.192   0.900  0.00  0.00     0.022 A 
ATOM      7  C5  UNL d   1      -2.108   1.359   1.136  0.00  0.00     0.026 A 
ATOM      8  C6  UNL d   1      -3.444   1.133   1.613  0.00  0.00    -0.082 A 
ATOM      9  C7  UNL d   1      -4.463   2.050   1.969  0.00  0.00     0.045 A 
ENDROOT
TORSDOF 0
ENDMDL
