MODEL 1
REMARK minimizedAffinity 12.658083
REMARK minimizedRMSD -1
REMARK  0 active torsions:
REMARK  status: ('A' for Active; 'I' for Inactive)
ROOT
ATOM      1  C   UNL d   1      -2.082  -0.238   0.790  0.00  0.00    -0.002 A 
ATOM      2  C1  UNL d   1      -3.167   0.542   1.165  0.00  0.00     0.010 A 
ATOM      3  C2  UNL d   1      -2.980   1.705   1.915  0.00  0.00     0.041 A 
ATOM      4  C3  UNL d   1      -1.672   2.076   2.283  0.00  0.00    -0.075 A 
ATOM      5  S   UNL d   1      -1.202   3.459   3.199  0.00  0.00     0.015 SA
ATOM      6  C4  UNL d   1       0.450   3.048   3.113  0.00  0.00     0.022 A 
ATOM      7  C5  UNL d   1       0.656   1.887   2.407  0.00  0.00     0.026 A 
ATOM      8  C6  UNL d   1      -0.563   1.308   1.916  0.00  0.00    -0.082 A 
ATOM      9  C7  UNL d   1      -0.786   0.133   1.157  0.00  0.00     0.045 A 
ENDROOT
TORSDOF 0
ENDMDL
