MODEL 1
REMARK minimizedAffinity 5.61629343
REMARK minimizedRMSD -1
REMARK  0 active torsions:
REMARK  status: ('A' for Active; 'I' for Inactive)
ROOT
ATOM      1  C   UNL d   1       4.754   0.898   0.381  0.00  0.00     0.020 A 
ATOM      2  C1  UNL d   1       3.642   0.076   0.553  0.00  0.00     0.020 A 
ATOM      3  C2  UNL d   1       2.473   0.591   1.116  0.00  0.00     0.034 A 
ATOM      4  C3  UNL d   1       2.413   1.933   1.508  0.00  0.00     0.017 A 
ATOM      5  C4  UNL d   1       3.530   2.758   1.335  0.00  0.00     0.017 A 
ATOM      6  C5  UNL d   1       4.698   2.237   0.771  0.00  0.00     0.034 A 
ATOM      7 Cl   UNL d   1       3.532   4.424   1.795  0.00  0.00    -0.070 Cl
ATOM      8 Cl1  UNL d   1       0.934   2.504   2.197  0.00  0.00    -0.070 Cl
ENDROOT
TORSDOF 0
ENDMDL
