MODEL 1
REMARK minimizedAffinity 8.21459007
REMARK minimizedRMSD -1
REMARK  0 active torsions:
REMARK  status: ('A' for Active; 'I' for Inactive)
ROOT
ATOM      1  C   UNL d   1      -5.868   0.315   5.419  0.00  0.00     0.020 A 
ATOM      2  C1  UNL d   1      -5.593   0.145   4.062  0.00  0.00     0.020 A 
ATOM      3  C2  UNL d   1      -5.229   1.244   3.281  0.00  0.00     0.034 A 
ATOM      4  C3  UNL d   1      -5.141   2.518   3.855  0.00  0.00     0.017 A 
ATOM      5  C4  UNL d   1      -5.418   2.687   5.216  0.00  0.00     0.017 A 
ATOM      6  C5  UNL d   1      -5.781   1.583   5.994  0.00  0.00     0.034 A 
ATOM      7 Cl   UNL d   1      -5.330   4.227   5.995  0.00  0.00    -0.070 Cl
ATOM      8 Cl1  UNL d   1      -4.686   3.831   2.829  0.00  0.00    -0.070 Cl
ENDROOT
TORSDOF 0
ENDMDL
