MODEL 1
REMARK minimizedAffinity 13.6257486
REMARK minimizedRMSD -1
REMARK  0 active torsions:
REMARK  status: ('A' for Active; 'I' for Inactive)
ROOT
ATOM      1  C   UNL d   1       3.611   0.115  -0.168  0.00  0.00     0.020 A 
ATOM      2  C1  UNL d   1       2.412   0.820  -0.268  0.00  0.00     0.020 A 
ATOM      3  C2  UNL d   1       1.659   1.083   0.878  0.00  0.00     0.034 A 
ATOM      4  C3  UNL d   1       2.105   0.642   2.129  0.00  0.00     0.017 A 
ATOM      5  C4  UNL d   1       3.308  -0.065   2.229  0.00  0.00     0.017 A 
ATOM      6  C5  UNL d   1       4.058  -0.326   1.077  0.00  0.00     0.034 A 
ATOM      7 Cl   UNL d   1       3.923  -0.641   3.738  0.00  0.00    -0.070 Cl
ATOM      8 Cl1  UNL d   1       1.123   1.003   3.505  0.00  0.00    -0.070 Cl
ENDROOT
TORSDOF 0
ENDMDL
