MODEL 1
REMARK minimizedAffinity 18.8920288
REMARK minimizedRMSD -1
REMARK  0 active torsions:
REMARK  status: ('A' for Active; 'I' for Inactive)
ROOT
ATOM      1  C   UNL d   1      -4.550   2.085   6.000  0.00  0.00     0.020 A 
ATOM      2  C1  UNL d   1      -4.969   0.756   5.961  0.00  0.00     0.020 A 
ATOM      3  C2  UNL d   1      -4.810   0.008   4.792  0.00  0.00     0.034 A 
ATOM      4  C3  UNL d   1      -4.231   0.588   3.658  0.00  0.00     0.017 A 
ATOM      5  C4  UNL d   1      -3.810   1.922   3.699  0.00  0.00     0.017 A 
ATOM      6  C5  UNL d   1      -3.972   2.667   4.871  0.00  0.00     0.034 A 
ATOM      7 Cl   UNL d   1      -3.086   2.707   2.340  0.00  0.00    -0.070 Cl
ATOM      8 Cl1  UNL d   1      -4.065  -0.396   2.248  0.00  0.00    -0.070 Cl
ENDROOT
TORSDOF 0
ENDMDL
