MODEL 1
REMARK minimizedAffinity 13.3422356
REMARK minimizedRMSD -1
REMARK  0 active torsions:
REMARK  status: ('A' for Active; 'I' for Inactive)
ROOT
ATOM      1  C   UNL d   1       4.602   5.201  -4.431  0.00  0.00     0.020 A 
ATOM      2  C1  UNL d   1       4.224   5.999  -5.510  0.00  0.00     0.020 A 
ATOM      3  C2  UNL d   1       2.900   5.993  -5.954  0.00  0.00     0.034 A 
ATOM      4  C3  UNL d   1       1.949   5.186  -5.319  0.00  0.00     0.017 A 
ATOM      5  C4  UNL d   1       2.329   4.385  -4.236  0.00  0.00     0.017 A 
ATOM      6  C5  UNL d   1       3.656   4.395  -3.795  0.00  0.00     0.034 A 
ATOM      7 Cl   UNL d   1       1.211   3.364  -3.401  0.00  0.00    -0.070 Cl
ATOM      8 Cl1  UNL d   1       0.330   5.228  -5.920  0.00  0.00    -0.070 Cl
ENDROOT
TORSDOF 0
ENDMDL
