MODEL 1
REMARK minimizedAffinity 2.07563949
REMARK minimizedRMSD -1
REMARK  0 active torsions:
REMARK  status: ('A' for Active; 'I' for Inactive)
ROOT
ATOM      1  C   UNL d   1      -5.765   3.306   5.507  0.00  0.00     0.020 A 
ATOM      2  C1  UNL d   1      -5.229   3.598   4.254  0.00  0.00     0.020 A 
ATOM      3  C2  UNL d   1      -4.922   2.564   3.367  0.00  0.00     0.034 A 
ATOM      4  C3  UNL d   1      -5.151   1.232   3.733  0.00  0.00     0.017 A 
ATOM      5  C4  UNL d   1      -5.689   0.940   4.991  0.00  0.00     0.017 A 
ATOM      6  C5  UNL d   1      -5.995   1.979   5.875  0.00  0.00     0.034 A 
ATOM      7 Cl   UNL d   1      -6.000  -0.678   5.513  0.00  0.00    -0.070 Cl
ATOM      8 Cl1  UNL d   1      -4.747   0.003   2.587  0.00  0.00    -0.070 Cl
ENDROOT
TORSDOF 0
ENDMDL
