MODEL 1
REMARK minimizedAffinity 7.57386398
REMARK minimizedRMSD -1
REMARK  0 active torsions:
REMARK  status: ('A' for Active; 'I' for Inactive)
ROOT
ATOM      1  C   UNL d   1       0.981   3.733   1.717  0.00  0.00     0.020 A 
ATOM      2  C1  UNL d   1       1.531   2.693   0.968  0.00  0.00     0.020 A 
ATOM      3  C2  UNL d   1       0.888   2.251  -0.190  0.00  0.00     0.034 A 
ATOM      4  C3  UNL d   1      -0.308   2.849  -0.603  0.00  0.00     0.017 A 
ATOM      5  C4  UNL d   1      -0.859   3.893   0.149  0.00  0.00     0.017 A 
ATOM      6  C5  UNL d   1      -0.212   4.331   1.308  0.00  0.00     0.034 A 
ATOM      7 Cl   UNL d   1      -2.332   4.680  -0.297  0.00  0.00    -0.070 Cl
ATOM      8 Cl1  UNL d   1      -1.049   2.252  -2.046  0.00  0.00    -0.070 Cl
ENDROOT
TORSDOF 0
ENDMDL
