MODEL 1
REMARK minimizedAffinity 19.6239338
REMARK minimizedRMSD -1
REMARK  0 active torsions:
REMARK  status: ('A' for Active; 'I' for Inactive)
ROOT
ATOM      1  C   UNL d   1      -1.096  -2.258   0.813  0.00  0.00     0.020 A 
ATOM      2  C1  UNL d   1      -2.430  -2.028   0.478  0.00  0.00     0.020 A 
ATOM      3  C2  UNL d   1      -3.381  -3.031   0.674  0.00  0.00     0.034 A 
ATOM      4  C3  UNL d   1      -3.001  -4.268   1.205  0.00  0.00     0.017 A 
ATOM      5  C4  UNL d   1      -1.661  -4.498   1.541  0.00  0.00     0.017 A 
ATOM      6  C5  UNL d   1      -0.713  -3.490   1.344  0.00  0.00     0.034 A 
ATOM      7 Cl   UNL d   1      -1.116  -5.999   2.202  0.00  0.00    -0.070 Cl
ATOM      8 Cl1  UNL d   1      -4.230  -5.463   1.421  0.00  0.00    -0.070 Cl
ENDROOT
TORSDOF 0
ENDMDL
