MODEL 1
REMARK minimizedAffinity 19.8557129
REMARK minimizedRMSD -1
REMARK  0 active torsions:
REMARK  status: ('A' for Active; 'I' for Inactive)
ROOT
ATOM      1  C   UNL d   1       0.818   3.191   1.610  0.00  0.00     0.020 A 
ATOM      2  C1  UNL d   1       1.803   2.217   1.771  0.00  0.00     0.020 A 
ATOM      3  C2  UNL d   1       1.578   1.130   2.618  0.00  0.00     0.034 A 
ATOM      4  C3  UNL d   1       0.365   1.013   3.307  0.00  0.00     0.017 A 
ATOM      5  C4  UNL d   1      -0.623   1.991   3.144  0.00  0.00     0.017 A 
ATOM      6  C5  UNL d   1      -0.393   3.078   2.295  0.00  0.00     0.034 A 
ATOM      7 Cl   UNL d   1      -2.144   1.915   3.961  0.00  0.00    -0.070 Cl
ATOM      8 Cl1  UNL d   1       0.156  -0.358   4.337  0.00  0.00    -0.070 Cl
ENDROOT
TORSDOF 0
ENDMDL
