MODEL 1
REMARK minimizedAffinity 18.8823967
REMARK minimizedRMSD -1
REMARK  0 active torsions:
REMARK  status: ('A' for Active; 'I' for Inactive)
ROOT
ATOM      1  C   UNL d   1      -2.982   2.168   3.833  0.00  0.00     0.020 A 
ATOM      2  C1  UNL d   1      -4.179   2.227   3.121  0.00  0.00     0.020 A 
ATOM      3  C2  UNL d   1      -4.280   3.042   1.991  0.00  0.00     0.034 A 
ATOM      4  C3  UNL d   1      -3.182   3.802   1.571  0.00  0.00     0.017 A 
ATOM      5  C4  UNL d   1      -1.981   3.742   2.287  0.00  0.00     0.017 A 
ATOM      6  C5  UNL d   1      -1.885   2.924   3.417  0.00  0.00     0.034 A 
ATOM      7 Cl   UNL d   1      -0.583   4.650   1.830  0.00  0.00    -0.070 Cl
ATOM      8 Cl1  UNL d   1      -3.377   4.787   0.166  0.00  0.00    -0.070 Cl
ENDROOT
TORSDOF 0
ENDMDL
