MODEL 1
REMARK minimizedAffinity 15.5604267
REMARK minimizedRMSD -1
REMARK  0 active torsions:
REMARK  status: ('A' for Active; 'I' for Inactive)
ROOT
ATOM      1  C   UNL d   1      -1.163  -2.290   1.112  0.00  0.00     0.020 A 
ATOM      2  C1  UNL d   1      -2.445  -2.099   0.600  0.00  0.00     0.020 A 
ATOM      3  C2  UNL d   1      -3.393  -3.119   0.693  0.00  0.00     0.034 A 
ATOM      4  C3  UNL d   1      -3.061  -4.336   1.300  0.00  0.00     0.017 A 
ATOM      5  C4  UNL d   1      -1.773  -4.527   1.814  0.00  0.00     0.017 A 
ATOM      6  C5  UNL d   1      -0.828  -3.501   1.718  0.00  0.00     0.034 A 
ATOM      7 Cl   UNL d   1      -1.289  -6.000   2.577  0.00  0.00    -0.070 Cl
ATOM      8 Cl1  UNL d   1      -4.284  -5.554   1.381  0.00  0.00    -0.070 Cl
ENDROOT
TORSDOF 0
ENDMDL
