MODEL 1
REMARK minimizedAffinity 20.3052807
REMARK minimizedRMSD -1
REMARK  0 active torsions:
REMARK  status: ('A' for Active; 'I' for Inactive)
ROOT
ATOM      1  C   UNL d   1      -0.468  -0.577   5.343  0.00  0.00     0.020 A 
ATOM      2  C1  UNL d   1       0.549   0.368   5.213  0.00  0.00     0.020 A 
ATOM      3  C2  UNL d   1       1.193   0.535   3.985  0.00  0.00     0.034 A 
ATOM      4  C3  UNL d   1       0.822  -0.244   2.884  0.00  0.00     0.017 A 
ATOM      5  C4  UNL d   1      -0.199  -1.192   3.016  0.00  0.00     0.017 A 
ATOM      6  C5  UNL d   1      -0.842  -1.355   4.247  0.00  0.00     0.034 A 
ATOM      7 Cl   UNL d   1      -0.713  -2.190   1.701  0.00  0.00    -0.070 Cl
ATOM      8 Cl1  UNL d   1       1.662   0.015   1.396  0.00  0.00    -0.070 Cl
ENDROOT
TORSDOF 0
ENDMDL
