MODEL 1
REMARK minimizedAffinity 14.0734739
REMARK minimizedRMSD -1
REMARK  0 active torsions:
REMARK  status: ('A' for Active; 'I' for Inactive)
ROOT
ATOM      1  C   UNL d   1      -2.003  -4.016  -3.127  0.00  0.00     0.020 A 
ATOM      2  C1  UNL d   1      -2.102  -5.400  -2.996  0.00  0.00     0.020 A 
ATOM      3  C2  UNL d   1      -3.344  -5.992  -2.758  0.00  0.00     0.034 A 
ATOM      4  C3  UNL d   1      -4.493  -5.199  -2.651  0.00  0.00     0.017 A 
ATOM      5  C4  UNL d   1      -4.392  -3.809  -2.784  0.00  0.00     0.017 A 
ATOM      6  C5  UNL d   1      -3.146  -3.222  -3.021  0.00  0.00     0.034 A 
ATOM      7 Cl   UNL d   1      -5.764  -2.765  -2.664  0.00  0.00    -0.070 Cl
ATOM      8 Cl1  UNL d   1      -5.996  -5.998  -2.357  0.00  0.00    -0.070 Cl
ENDROOT
TORSDOF 0
ENDMDL
