MODEL 1
REMARK minimizedAffinity 22.8817177
REMARK minimizedRMSD -1
REMARK  0 active torsions:
REMARK  status: ('A' for Active; 'I' for Inactive)
ROOT
ATOM      1  C   UNL d   1      -0.910  -2.374   1.018  0.00  0.00     0.020 A 
ATOM      2  C1  UNL d   1      -2.142  -2.127   0.413  0.00  0.00     0.020 A 
ATOM      3  C2  UNL d   1      -3.159  -3.082   0.485  0.00  0.00     0.034 A 
ATOM      4  C3  UNL d   1      -2.946  -4.287   1.164  0.00  0.00     0.017 A 
ATOM      5  C4  UNL d   1      -1.709  -4.534   1.771  0.00  0.00     0.017 A 
ATOM      6  C5  UNL d   1      -0.694  -3.575   1.695  0.00  0.00     0.034 A 
ATOM      7 Cl   UNL d   1      -1.371  -5.997   2.626  0.00  0.00    -0.070 Cl
ATOM      8 Cl1  UNL d   1      -4.248  -5.422   1.214  0.00  0.00    -0.070 Cl
ENDROOT
TORSDOF 0
ENDMDL
