MODEL 1
REMARK minimizedAffinity 15.5979824
REMARK minimizedRMSD -1
REMARK  0 active torsions:
REMARK  status: ('A' for Active; 'I' for Inactive)
ROOT
ATOM      1  C   UNL d   1      -3.060   6.000  -0.181  0.00  0.00     0.020 A 
ATOM      2  C1  UNL d   1      -2.994   5.538  -1.495  0.00  0.00     0.020 A 
ATOM      3  C2  UNL d   1      -2.019   4.607  -1.860  0.00  0.00     0.034 A 
ATOM      4  C3  UNL d   1      -1.106   4.135  -0.910  0.00  0.00     0.017 A 
ATOM      5  C4  UNL d   1      -1.173   4.598   0.409  0.00  0.00     0.017 A 
ATOM      6  C5  UNL d   1      -2.151   5.530   0.769  0.00  0.00     0.034 A 
ATOM      7 Cl   UNL d   1      -0.082   4.061   1.637  0.00  0.00    -0.070 Cl
ATOM      8 Cl1  UNL d   1       0.072   2.984  -1.431  0.00  0.00    -0.070 Cl
ENDROOT
TORSDOF 0
ENDMDL
