MODEL 1
REMARK minimizedAffinity 22.753458
REMARK minimizedRMSD -1
REMARK  0 active torsions:
REMARK  status: ('A' for Active; 'I' for Inactive)
ROOT
ATOM      1  C   UNL d   1      -5.353  -5.845  -2.269  0.00  0.00     0.020 A 
ATOM      2  C1  UNL d   1      -4.000  -5.802  -1.936  0.00  0.00     0.020 A 
ATOM      3  C2  UNL d   1      -3.229  -4.693  -2.292  0.00  0.00     0.034 A 
ATOM      4  C3  UNL d   1      -3.810  -3.624  -2.984  0.00  0.00     0.017 A 
ATOM      5  C4  UNL d   1      -5.169  -3.669  -3.317  0.00  0.00     0.017 A 
ATOM      6  C5  UNL d   1      -5.936  -4.781  -2.958  0.00  0.00     0.034 A 
ATOM      7 Cl   UNL d   1      -5.956  -2.388  -4.170  0.00  0.00    -0.070 Cl
ATOM      8 Cl1  UNL d   1      -2.797  -2.285  -3.392  0.00  0.00    -0.070 Cl
ENDROOT
TORSDOF 0
ENDMDL
