MODEL 1
REMARK minimizedAffinity 18.602232
REMARK minimizedRMSD -1
REMARK  0 active torsions:
REMARK  status: ('A' for Active; 'I' for Inactive)
ROOT
ATOM      1  C   UNL d   1      -1.272  -2.168   1.462  0.00  0.00     0.020 A 
ATOM      2  C1  UNL d   1      -2.609  -2.014   1.098  0.00  0.00     0.020 A 
ATOM      3  C2  UNL d   1      -3.484  -3.098   1.179  0.00  0.00     0.034 A 
ATOM      4  C3  UNL d   1      -3.024  -4.342   1.626  0.00  0.00     0.017 A 
ATOM      5  C4  UNL d   1      -1.682  -4.496   1.992  0.00  0.00     0.017 A 
ATOM      6  C5  UNL d   1      -0.809  -3.406   1.908  0.00  0.00     0.034 A 
ATOM      7 Cl   UNL d   1      -1.040  -6.000   2.553  0.00  0.00    -0.070 Cl
ATOM      8 Cl1  UNL d   1      -4.162  -5.640   1.703  0.00  0.00    -0.070 Cl
ENDROOT
TORSDOF 0
ENDMDL
