MODEL 1
REMARK minimizedAffinity 18.2498398
REMARK minimizedRMSD -1
REMARK  0 active torsions:
REMARK  status: ('A' for Active; 'I' for Inactive)
ROOT
ATOM      1  C   UNL d   1       1.504   1.562   1.284  0.00  0.00     0.020 A 
ATOM      2  C1  UNL d   1       1.829   0.516   2.147  0.00  0.00     0.020 A 
ATOM      3  C2  UNL d   1       3.038  -0.165   1.994  0.00  0.00     0.034 A 
ATOM      4  C3  UNL d   1       3.927   0.199   0.976  0.00  0.00     0.017 A 
ATOM      5  C4  UNL d   1       3.600   1.249   0.111  0.00  0.00     0.017 A 
ATOM      6  C5  UNL d   1       2.388   1.928   0.268  0.00  0.00     0.034 A 
ATOM      7 Cl   UNL d   1       4.646   1.755  -1.169  0.00  0.00    -0.070 Cl
ATOM      8 Cl1  UNL d   1       5.405  -0.687   0.846  0.00  0.00    -0.070 Cl
ENDROOT
TORSDOF 0
ENDMDL
