MODEL 1
REMARK minimizedAffinity 8.46359062
REMARK minimizedRMSD -1
REMARK  0 active torsions:
REMARK  status: ('A' for Active; 'I' for Inactive)
ROOT
ATOM      1  C   UNL d   1      -5.753  -5.917  -2.626  0.00  0.00     0.020 A 
ATOM      2  C1  UNL d   1      -4.579  -5.884  -1.874  0.00  0.00     0.020 A 
ATOM      3  C2  UNL d   1      -3.650  -4.861  -2.075  0.00  0.00     0.034 A 
ATOM      4  C3  UNL d   1      -3.894  -3.866  -3.029  0.00  0.00     0.017 A 
ATOM      5  C4  UNL d   1      -5.072  -3.900  -3.783  0.00  0.00     0.017 A 
ATOM      6  C5  UNL d   1      -5.999  -4.927  -3.578  0.00  0.00     0.034 A 
ATOM      7 Cl   UNL d   1      -5.443  -2.708  -4.978  0.00  0.00    -0.070 Cl
ATOM      8 Cl1  UNL d   1      -2.702  -2.630  -3.223  0.00  0.00    -0.070 Cl
ENDROOT
TORSDOF 0
ENDMDL
