MODEL 1
REMARK minimizedAffinity -5.79122162
REMARK minimizedRMSD -1
REMARK  0 active torsions:
REMARK  status: ('A' for Active; 'I' for Inactive)
ROOT
ATOM      1  C4' PXY d   1      -4.302   1.901   3.772  0.00  0.00     0.077 C 
ATOM      2  C1' PXY d   1       0.712   0.935   1.062  0.00  0.00     0.077 C 
ATOM      3  C1  PXY d   1      -0.608   1.178   1.767  0.00  0.00    -0.082 A 
ATOM      4  C2  PXY d   1      -0.897   2.389   2.214  0.00  0.00     0.003 A 
ATOM      5  C3  PXY d   1      -2.072   2.619   2.882  0.00  0.00     0.003 A 
ATOM      6  C4  PXY d   1      -2.985   1.611   3.046  0.00  0.00    -0.082 A 
ATOM      7  C5  PXY d   1      -2.702   0.376   2.583  0.00  0.00     0.003 A 
ATOM      8  C6  PXY d   1      -1.485   0.153   1.944  0.00  0.00     0.003 A 
ENDROOT
TORSDOF 0
ENDMDL
