MODEL 1
REMARK minimizedAffinity -6.73795938
REMARK minimizedRMSD -1
REMARK  0 active torsions:
REMARK  status: ('A' for Active; 'I' for Inactive)
ROOT
ATOM      1  C4' PXY d   1      -3.321   1.239   3.076  0.00  0.00     0.077 C 
ATOM      2  C1' PXY d   1       1.566   0.536   0.071  0.00  0.00     0.077 C 
ATOM      3  C1  PXY d   1       0.291   0.729   0.866  0.00  0.00    -0.082 A 
ATOM      4  C2  PXY d   1      -0.592  -0.254   0.936  0.00  0.00     0.003 A 
ATOM      5  C3  PXY d   1      -1.766  -0.085   1.624  0.00  0.00     0.003 A 
ATOM      6  C4  PXY d   1      -2.015   1.084   2.293  0.00  0.00    -0.082 A 
ATOM      7  C5  PXY d   1      -1.114   2.088   2.235  0.00  0.00     0.003 A 
ATOM      8  C6  PXY d   1       0.052   1.911   1.497  0.00  0.00     0.003 A 
ENDROOT
TORSDOF 0
ENDMDL
