MODEL 1
REMARK minimizedAffinity -0.00298252888
REMARK minimizedRMSD -1
REMARK  0 active torsions:
REMARK  status: ('A' for Active; 'I' for Inactive)
ROOT
ATOM      1  C4' PXY d   1      -4.170   1.505   3.033  0.00  0.00     0.077 C 
ATOM      2  C1' PXY d   1       1.198   1.159   0.916  0.00  0.00     0.077 C 
ATOM      3  C1  PXY d   1      -0.212   1.238   1.467  0.00  0.00    -0.082 A 
ATOM      4  C2  PXY d   1      -0.773   2.420   1.663  0.00  0.00     0.003 A 
ATOM      5  C3  PXY d   1      -2.035   2.510   2.190  0.00  0.00     0.003 A 
ATOM      6  C4  PXY d   1      -2.752   1.377   2.470  0.00  0.00    -0.082 A 
ATOM      7  C5  PXY d   1      -2.191   0.167   2.262  0.00  0.00     0.003 A 
ATOM      8  C6  PXY d   1      -0.892   0.098   1.765  0.00  0.00     0.003 A 
ENDROOT
TORSDOF 0
ENDMDL
