MODEL 1
REMARK minimizedAffinity -4.35296869
REMARK minimizedRMSD -1
REMARK  0 active torsions:
REMARK  status: ('A' for Active; 'I' for Inactive)
ROOT
ATOM      1  C4' PXY d   1      -4.479   1.186   3.790  0.00  0.00     0.077 C 
ATOM      2  C1' PXY d   1       0.722   0.249   1.449  0.00  0.00     0.077 C 
ATOM      3  C1  PXY d   1      -0.647   0.486   2.055  0.00  0.00    -0.082 A 
ATOM      4  C2  PXY d   1      -0.927   1.658   2.601  0.00  0.00     0.003 A 
ATOM      5  C3  PXY d   1      -2.149   1.878   3.182  0.00  0.00     0.003 A 
ATOM      6  C4  PXY d   1      -3.113   0.906   3.158  0.00  0.00    -0.082 A 
ATOM      7  C5  PXY d   1      -2.839  -0.289   2.593  0.00  0.00     0.003 A 
ATOM      8  C6  PXY d   1      -1.578  -0.507   2.045  0.00  0.00     0.003 A 
ENDROOT
TORSDOF 0
ENDMDL
