MODEL 1
REMARK minimizedAffinity -0.952903032
REMARK minimizedRMSD -1
REMARK  0 active torsions:
REMARK  status: ('A' for Active; 'I' for Inactive)
ROOT
ATOM      1  C4' PXY d   1      -4.302   1.734   4.046  0.00  0.00     0.077 C 
ATOM      2  C1' PXY d   1       0.314   1.165   0.612  0.00  0.00     0.077 C 
ATOM      3  C1  PXY d   1      -0.902   1.304   1.507  0.00  0.00    -0.082 A 
ATOM      4  C2  PXY d   1      -1.208   2.486   2.016  0.00  0.00     0.003 A 
ATOM      5  C3  PXY d   1      -2.286   2.623   2.853  0.00  0.00     0.003 A 
ATOM      6  C4  PXY d   1      -3.089   1.549   3.130  0.00  0.00    -0.082 A 
ATOM      7  C5  PXY d   1      -2.789   0.342   2.606  0.00  0.00     0.003 A 
ATOM      8  C6  PXY d   1      -1.667   0.215   1.791  0.00  0.00     0.003 A 
ENDROOT
TORSDOF 0
ENDMDL
