MODEL 1
REMARK minimizedAffinity -0.97506386
REMARK minimizedRMSD -1
REMARK  0 active torsions:
REMARK  status: ('A' for Active; 'I' for Inactive)
ROOT
ATOM      1  C4' PXY d   1      -3.859   1.465   4.008  0.00  0.00     0.077 C 
ATOM      2  C1' PXY d   1       0.710   0.812   0.527  0.00  0.00     0.077 C 
ATOM      3  C1  PXY d   1      -0.493   0.972   1.435  0.00  0.00    -0.082 A 
ATOM      4  C2  PXY d   1      -0.788   2.165   1.926  0.00  0.00     0.003 A 
ATOM      5  C3  PXY d   1      -1.854   2.322   2.774  0.00  0.00     0.003 A 
ATOM      6  C4  PXY d   1      -2.658   1.257   3.080  0.00  0.00    -0.082 A 
ATOM      7  C5  PXY d   1      -2.371   0.039   2.574  0.00  0.00     0.003 A 
ATOM      8  C6  PXY d   1      -1.260  -0.107   1.749  0.00  0.00     0.003 A 
ENDROOT
TORSDOF 0
ENDMDL
