MODEL 1
REMARK minimizedAffinity -4.68998241
REMARK minimizedRMSD -1
REMARK  0 active torsions:
REMARK  status: ('A' for Active; 'I' for Inactive)
ROOT
ATOM      1  C4' PXY d   1       0.738   0.096   0.604  0.00  0.00     0.077 C 
ATOM      2  C1' PXY d   1      -3.719   2.000   3.755  0.00  0.00     0.077 C 
ATOM      3  C1  PXY d   1      -2.552   1.489   2.934  0.00  0.00    -0.082 A 
ATOM      4  C2  PXY d   1      -1.648   2.342   2.481  0.00  0.00     0.003 A 
ATOM      5  C3  PXY d   1      -0.603   1.901   1.710  0.00  0.00     0.003 A 
ATOM      6  C4  PXY d   1      -0.453   0.566   1.445  0.00  0.00    -0.082 A 
ATOM      7  C5  PXY d   1      -1.365  -0.312   1.913  0.00  0.00     0.003 A 
ATOM      8  C6  PXY d   1      -2.441   0.161   2.658  0.00  0.00     0.003 A 
ENDROOT
TORSDOF 0
ENDMDL
