MODEL 1
REMARK minimizedAffinity -2.50882673
REMARK minimizedRMSD -1
REMARK  0 active torsions:
REMARK  status: ('A' for Active; 'I' for Inactive)
ROOT
ATOM      1  C4' PXY d   1       0.810   1.780   0.614  0.00  0.00     0.077 C 
ATOM      2  C1' PXY d   1      -3.170  -1.619   3.068  0.00  0.00     0.077 C 
ATOM      3  C1  PXY d   1      -2.136  -0.719   2.422  0.00  0.00    -0.082 A 
ATOM      4  C2  PXY d   1      -1.041  -1.249   1.902  0.00  0.00     0.003 A 
ATOM      5  C3  PXY d   1      -0.080  -0.446   1.343  0.00  0.00     0.003 A 
ATOM      6  C4  PXY d   1      -0.266   0.908   1.268  0.00  0.00    -0.082 A 
ATOM      7  C5  PXY d   1      -1.386   1.455   1.787  0.00  0.00     0.003 A 
ATOM      8  C6  PXY d   1      -2.330   0.627   2.387  0.00  0.00     0.003 A 
ENDROOT
TORSDOF 0
ENDMDL
