MODEL 1
REMARK minimizedAffinity -2.27774358
REMARK minimizedRMSD -1
REMARK  0 active torsions:
REMARK  status: ('A' for Active; 'I' for Inactive)
ROOT
ATOM      1  C4' PXY d   1      -3.038   2.561   3.261  0.00  0.00     0.077 C 
ATOM      2  C1' PXY d   1       1.186   0.754  -0.248  0.00  0.00     0.077 C 
ATOM      3  C1  PXY d   1       0.086   1.238   0.676  0.00  0.00    -0.082 A 
ATOM      4  C2  PXY d   1      -0.812   0.379   1.130  0.00  0.00     0.003 A 
ATOM      5  C3  PXY d   1      -1.832   0.805   1.940  0.00  0.00     0.003 A 
ATOM      6  C4  PXY d   1      -1.904   2.115   2.333  0.00  0.00    -0.082 A 
ATOM      7  C5  PXY d   1      -0.985   2.996   1.883  0.00  0.00     0.003 A 
ATOM      8  C6  PXY d   1       0.019   2.550   1.028  0.00  0.00     0.003 A 
ENDROOT
TORSDOF 0
ENDMDL
