MODEL 1
REMARK minimizedAffinity -4.04872465
REMARK minimizedRMSD -1
REMARK  0 active torsions:
REMARK  status: ('A' for Active; 'I' for Inactive)
ROOT
ATOM      1  C4' PXY d   1      -4.062   1.370   3.449  0.00  0.00     0.077 C 
ATOM      2  C1' PXY d   1       0.934   0.914   0.577  0.00  0.00     0.077 C 
ATOM      3  C1  PXY d   1      -0.371   1.042   1.339  0.00  0.00    -0.082 A 
ATOM      4  C2  PXY d   1      -1.277   0.081   1.250  0.00  0.00     0.003 A 
ATOM      5  C3  PXY d   1      -2.475   0.196   1.907  0.00  0.00     0.003 A 
ATOM      6  C4  PXY d   1      -2.727   1.279   2.705  0.00  0.00    -0.082 A 
ATOM      7  C5  PXY d   1      -1.804   2.258   2.809  0.00  0.00     0.003 A 
ATOM      8  C6  PXY d   1      -0.610   2.143   2.102  0.00  0.00     0.003 A 
ENDROOT
TORSDOF 0
ENDMDL
