MODEL 1
REMARK minimizedAffinity 0.369092941
REMARK minimizedRMSD -1
REMARK  0 active torsions:
REMARK  status: ('A' for Active; 'I' for Inactive)
ROOT
ATOM      1  C4' PXY d   1       1.083   0.556   0.241  0.00  0.00     0.077 C 
ATOM      2  C1' PXY d   1      -3.282   1.724   3.847  0.00  0.00     0.077 C 
ATOM      3  C1  PXY d   1      -2.135   1.407   2.908  0.00  0.00    -0.082 A 
ATOM      4  C2  PXY d   1      -1.554   2.384   2.231  0.00  0.00     0.003 A 
ATOM      5  C3  PXY d   1      -0.536   2.111   1.354  0.00  0.00     0.003 A 
ATOM      6  C4  PXY d   1      -0.073   0.831   1.208  0.00  0.00    -0.082 A 
ATOM      7  C5  PXY d   1      -0.653  -0.170   1.903  0.00  0.00     0.003 A 
ATOM      8  C6  PXY d   1      -1.712   0.122   2.757  0.00  0.00     0.003 A 
ENDROOT
TORSDOF 0
ENDMDL
