MODEL 1
REMARK minimizedAffinity -4.91583443
REMARK minimizedRMSD -1
REMARK  0 active torsions:
REMARK  status: ('A' for Active; 'I' for Inactive)
ROOT
ATOM      1  C4' PXY d   1      -3.396   2.265   3.761  0.00  0.00     0.077 C 
ATOM      2  C1' PXY d   1       0.805   0.604   0.154  0.00  0.00     0.077 C 
ATOM      3  C1  PXY d   1      -0.290   1.050   1.103  0.00  0.00    -0.082 A 
ATOM      4  C2  PXY d   1      -1.096   0.150   1.641  0.00  0.00     0.003 A 
ATOM      5  C3  PXY d   1      -2.112   0.539   2.476  0.00  0.00     0.003 A 
ATOM      6  C4  PXY d   1      -2.270   1.859   2.805  0.00  0.00    -0.082 A 
ATOM      7  C5  PXY d   1      -1.445   2.782   2.268  0.00  0.00     0.003 A 
ATOM      8  C6  PXY d   1      -0.446   2.371   1.391  0.00  0.00     0.003 A 
ENDROOT
TORSDOF 0
ENDMDL
