MODEL 1
REMARK minimizedAffinity -2.41705966
REMARK minimizedRMSD -1
REMARK  0 active torsions:
REMARK  status: ('A' for Active; 'I' for Inactive)
ROOT
ATOM      1  C4' PXY d   1      -3.481   1.901   3.578  0.00  0.00     0.077 C 
ATOM      2  C1' PXY d   1       1.184   0.710   0.378  0.00  0.00     0.077 C 
ATOM      3  C1  PXY d   1      -0.046   1.013   1.211  0.00  0.00    -0.082 A 
ATOM      4  C2  PXY d   1      -0.206   2.221   1.727  0.00  0.00     0.003 A 
ATOM      5  C3  PXY d   1      -1.296   2.502   2.509  0.00  0.00     0.003 A 
ATOM      6  C4  PXY d   1      -2.259   1.553   2.722  0.00  0.00    -0.082 A 
ATOM      7  C5  PXY d   1      -2.109   0.321   2.191  0.00  0.00     0.003 A 
ATOM      8  C6  PXY d   1      -0.974   0.043   1.434  0.00  0.00     0.003 A 
ENDROOT
TORSDOF 0
ENDMDL
