MODEL 1
REMARK minimizedAffinity -2.59480429
REMARK minimizedRMSD -1
REMARK  0 active torsions:
REMARK  status: ('A' for Active; 'I' for Inactive)
ROOT
ATOM      1  C4' PXY d   1       1.225   0.044   0.080  0.00  0.00     0.077 C 
ATOM      2  C1' PXY d   1      -3.144   2.149   3.226  0.00  0.00     0.077 C 
ATOM      3  C1  PXY d   1      -1.999   1.586   2.407  0.00  0.00    -0.082 A 
ATOM      4  C2  PXY d   1      -1.120   2.408   1.860  0.00  0.00     0.003 A 
ATOM      5  C3  PXY d   1      -0.097   1.918   1.090  0.00  0.00     0.003 A 
ATOM      6  C4  PXY d   1       0.058   0.568   0.922  0.00  0.00    -0.082 A 
ATOM      7  C5  PXY d   1      -0.829  -0.279   1.486  0.00  0.00     0.003 A 
ATOM      8  C6  PXY d   1      -1.884   0.241   2.230  0.00  0.00     0.003 A 
ENDROOT
TORSDOF 0
ENDMDL
