MODEL 1
REMARK minimizedAffinity 3.26964712
REMARK minimizedRMSD -1
REMARK  0 active torsions:
REMARK  status: ('A' for Active; 'I' for Inactive)
ROOT
ATOM      1  C4' PXY d   1       1.148   2.310  -0.007  0.00  0.00     0.077 C 
ATOM      2  C1' PXY d   1      -3.438   2.323   3.511  0.00  0.00     0.077 C 
ATOM      3  C1  PXY d   1      -2.231   2.309   2.595  0.00  0.00    -0.082 A 
ATOM      4  C2  PXY d   1      -1.852   3.426   1.995  0.00  0.00     0.003 A 
ATOM      5  C3  PXY d   1      -0.782   3.425   1.138  0.00  0.00     0.003 A 
ATOM      6  C4  PXY d   1      -0.059   2.280   0.934  0.00  0.00    -0.082 A 
ATOM      7  C5  PXY d   1      -0.433   1.138   1.550  0.00  0.00     0.003 A 
ATOM      8  C6  PXY d   1      -1.547   1.152   2.384  0.00  0.00     0.003 A 
ENDROOT
TORSDOF 0
ENDMDL
