MODEL 1
REMARK minimizedAffinity 0.0641708598
REMARK minimizedRMSD -1
REMARK  0 active torsions:
REMARK  status: ('A' for Active; 'I' for Inactive)
ROOT
ATOM      1  C4' PXY d   1      -2.363   2.245   3.746  0.00  0.00     0.077 C 
ATOM      2  C1' PXY d   1       1.219  -0.571   0.189  0.00  0.00     0.077 C 
ATOM      3  C1  PXY d   1       0.290   0.174   1.127  0.00  0.00    -0.082 A 
ATOM      4  C2  PXY d   1      -0.887  -0.348   1.433  0.00  0.00     0.003 A 
ATOM      5  C3  PXY d   1      -1.752   0.327   2.255  0.00  0.00     0.003 A 
ATOM      6  C4  PXY d   1      -1.389   1.524   2.811  0.00  0.00    -0.082 A 
ATOM      7  C5  PXY d   1      -0.185   2.058   2.512  0.00  0.00     0.003 A 
ATOM      8  C6  PXY d   1       0.662   1.377   1.644  0.00  0.00     0.003 A 
ENDROOT
TORSDOF 0
ENDMDL
