MODEL 1
REMARK minimizedAffinity 0.925517023
REMARK minimizedRMSD -1
REMARK  0 active torsions:
REMARK  status: ('A' for Active; 'I' for Inactive)
ROOT
ATOM      1  C4' PXY d   1      -1.092   2.287   2.286  0.00  0.00     0.077 C 
ATOM      2  C1' PXY d   1       3.205  -0.729  -0.134  0.00  0.00     0.077 C 
ATOM      3  C1  PXY d   1       2.072   0.051   0.504  0.00  0.00    -0.082 A 
ATOM      4  C2  PXY d   1       1.815   1.283   0.096  0.00  0.00     0.003 A 
ATOM      5  C3  PXY d   1       0.815   2.014   0.685  0.00  0.00     0.003 A 
ATOM      6  C4  PXY d   1       0.036   1.459   1.664  0.00  0.00    -0.082 A 
ATOM      7  C5  PXY d   1       0.285   0.198   2.078  0.00  0.00     0.003 A 
ATOM      8  C6  PXY d   1       1.331  -0.512   1.497  0.00  0.00     0.003 A 
ENDROOT
TORSDOF 0
ENDMDL
