MODEL 1
REMARK minimizedAffinity -4.31380844
REMARK minimizedRMSD -1
REMARK  0 active torsions:
REMARK  status: ('A' for Active; 'I' for Inactive)
ROOT
ATOM      1  C4' PXY d   1      -3.910   2.012   3.863  0.00  0.00     0.077 C 
ATOM      2  C1' PXY d   1       0.702   0.912   0.556  0.00  0.00     0.077 C 
ATOM      3  C1  PXY d   1      -0.513   1.191   1.418  0.00  0.00    -0.082 A 
ATOM      4  C2  PXY d   1      -0.706   2.406   1.905  0.00  0.00     0.003 A 
ATOM      5  C3  PXY d   1      -1.783   2.667   2.712  0.00  0.00     0.003 A 
ATOM      6  C4  PXY d   1      -2.701   1.688   2.980  0.00  0.00    -0.082 A 
ATOM      7  C5  PXY d   1      -2.518   0.448   2.478  0.00  0.00     0.003 A 
ATOM      8  C6  PXY d   1      -1.396   0.193   1.695  0.00  0.00     0.003 A 
ENDROOT
TORSDOF 0
ENDMDL
