MODEL 1
REMARK minimizedAffinity -1.49816096
REMARK minimizedRMSD -1
REMARK  0 active torsions:
REMARK  status: ('A' for Active; 'I' for Inactive)
ROOT
ATOM      1  C4' PXY d   1       3.374  -0.361   1.285  0.00  0.00     0.077 C 
ATOM      2  C1' PXY d   1      -1.500   2.705   1.789  0.00  0.00     0.077 C 
ATOM      3  C1  PXY d   1      -0.221   1.904   1.644  0.00  0.00    -0.082 A 
ATOM      4  C2  PXY d   1       0.032   0.917   2.488  0.00  0.00     0.003 A 
ATOM      5  C3  PXY d   1       1.199   0.204   2.392  0.00  0.00     0.003 A 
ATOM      6  C4  PXY d   1       2.091   0.468   1.388  0.00  0.00    -0.082 A 
ATOM      7  C5  PXY d   1       1.836   1.466   0.516  0.00  0.00     0.003 A 
ATOM      8  C6  PXY d   1       0.665   2.206   0.656  0.00  0.00     0.003 A 
ENDROOT
TORSDOF 0
ENDMDL
