MODEL 1
REMARK minimizedAffinity 6.34665203
REMARK minimizedRMSD -1
REMARK  0 active torsions:
REMARK  status: ('A' for Active; 'I' for Inactive)
ROOT
ATOM      1  C   UNL d   1      -4.179  -0.446  -1.788  0.00  0.00     0.078 C 
ATOM      2  C1  UNL d   1      -2.878  -0.294  -1.058  0.00  0.00    -0.077 A 
ATOM      3  C2  UNL d   1      -2.302   0.968  -0.867  0.00  0.00    -0.001 A 
ATOM      4  C3  UNL d   1      -1.086   1.094  -0.194  0.00  0.00     0.003 A 
ATOM      5  C4  UNL d   1      -0.434  -0.038   0.291  0.00  0.00    -0.005 A 
ATOM      6  C5  UNL d   1      -0.998  -1.298   0.103  0.00  0.00     0.003 A 
ATOM      7  C6  UNL d   1      -2.214  -1.426  -0.569  0.00  0.00    -0.001 A 
ENDROOT
TORSDOF 0
ENDMDL
