MODEL 1
REMARK minimizedAffinity -0.269012153
REMARK minimizedRMSD -1
REMARK  0 active torsions:
REMARK  status: ('A' for Active; 'I' for Inactive)
ROOT
ATOM      1  C   UNL d   1      -0.484  -5.989  -5.402  0.00  0.00     0.078 C 
ATOM      2  C1  UNL d   1      -1.782  -5.270  -5.617  0.00  0.00    -0.077 A 
ATOM      3  C2  UNL d   1      -1.836  -3.871  -5.637  0.00  0.00    -0.001 A 
ATOM      4  C3  UNL d   1      -3.052  -3.214  -5.829  0.00  0.00     0.003 A 
ATOM      5  C4  UNL d   1      -4.224  -3.948  -6.000  0.00  0.00    -0.005 A 
ATOM      6  C5  UNL d   1      -4.181  -5.341  -5.979  0.00  0.00     0.003 A 
ATOM      7  C6  UNL d   1      -2.965  -5.999  -5.788  0.00  0.00    -0.001 A 
ENDROOT
TORSDOF 0
ENDMDL
