MODEL 1
REMARK minimizedAffinity -1.25006783
REMARK minimizedRMSD -1
REMARK  0 active torsions:
REMARK  status: ('A' for Active; 'I' for Inactive)
ROOT
ATOM      1  C   UNL d   1      -3.610  -4.006  -6.000  0.00  0.00     0.078 C 
ATOM      2  C1  UNL d   1      -2.473  -4.694  -5.306  0.00  0.00    -0.077 A 
ATOM      3  C2  UNL d   1      -1.306  -5.036  -5.999  0.00  0.00    -0.001 A 
ATOM      4  C3  UNL d   1      -0.259  -5.685  -5.343  0.00  0.00     0.003 A 
ATOM      5  C4  UNL d   1      -0.370  -6.000  -3.990  0.00  0.00    -0.005 A 
ATOM      6  C5  UNL d   1      -1.529  -5.666  -3.292  0.00  0.00     0.003 A 
ATOM      7  C6  UNL d   1      -2.576  -5.017  -3.947  0.00  0.00    -0.001 A 
ENDROOT
TORSDOF 0
ENDMDL
