MODEL 1
REMARK minimizedAffinity 7.92703104
REMARK minimizedRMSD -1
REMARK  0 active torsions:
REMARK  status: ('A' for Active; 'I' for Inactive)
ROOT
ATOM      1  C   UNL d   1      -0.747  -5.219  -2.955  0.00  0.00     0.078 C 
ATOM      2  C1  UNL d   1      -1.784  -4.974  -4.011  0.00  0.00    -0.077 A 
ATOM      3  C2  UNL d   1      -1.848  -3.749  -4.686  0.00  0.00    -0.001 A 
ATOM      4  C3  UNL d   1      -2.825  -3.530  -5.660  0.00  0.00     0.003 A 
ATOM      5  C4  UNL d   1      -3.744  -4.532  -5.965  0.00  0.00    -0.005 A 
ATOM      6  C5  UNL d   1      -3.689  -5.753  -5.297  0.00  0.00     0.003 A 
ATOM      7  C6  UNL d   1      -2.714  -5.973  -4.323  0.00  0.00    -0.001 A 
ENDROOT
TORSDOF 0
ENDMDL
