MODEL 1
REMARK minimizedAffinity -0.495829433
REMARK minimizedRMSD -1
REMARK  0 active torsions:
REMARK  status: ('A' for Active; 'I' for Inactive)
ROOT
ATOM      1  C   UNL d   1      -3.376  -3.012  -5.159  0.00  0.00     0.078 C 
ATOM      2  C1  UNL d   1      -4.148  -2.254  -4.122  0.00  0.00    -0.077 A 
ATOM      3  C2  UNL d   1      -3.777  -2.296  -2.772  0.00  0.00    -0.001 A 
ATOM      4  C3  UNL d   1      -4.512  -1.593  -1.816  0.00  0.00     0.003 A 
ATOM      5  C4  UNL d   1      -5.622  -0.843  -2.199  0.00  0.00    -0.005 A 
ATOM      6  C5  UNL d   1      -6.000  -0.796  -3.539  0.00  0.00     0.003 A 
ATOM      7  C6  UNL d   1      -5.267  -1.499  -4.497  0.00  0.00    -0.001 A 
ENDROOT
TORSDOF 0
ENDMDL
