MODEL 1
REMARK minimizedAffinity -0.66220212
REMARK minimizedRMSD -1
REMARK  0 active torsions:
REMARK  status: ('A' for Active; 'I' for Inactive)
ROOT
ATOM      1  C   UNL d   1      -5.627  -0.395  -1.713  0.00  0.00     0.078 C 
ATOM      2  C1  UNL d   1      -5.656  -0.532  -3.206  0.00  0.00    -0.077 A 
ATOM      3  C2  UNL d   1      -5.986  -1.751  -3.812  0.00  0.00    -0.001 A 
ATOM      4  C3  UNL d   1      -6.000  -1.867  -5.203  0.00  0.00     0.003 A 
ATOM      5  C4  UNL d   1      -5.684  -0.768  -6.000  0.00  0.00    -0.005 A 
ATOM      6  C5  UNL d   1      -5.352   0.448  -5.405  0.00  0.00     0.003 A 
ATOM      7  C6  UNL d   1      -5.338   0.566  -4.015  0.00  0.00    -0.001 A 
ENDROOT
TORSDOF 0
ENDMDL
