MODEL 1
REMARK minimizedAffinity -1.80177701
REMARK minimizedRMSD -1
REMARK  0 active torsions:
REMARK  status: ('A' for Active; 'I' for Inactive)
ROOT
ATOM      1  C   UNL d   1      -5.863  -0.380  -0.730  0.00  0.00     0.078 C 
ATOM      2  C1  UNL d   1      -5.681  -0.833  -2.148  0.00  0.00    -0.077 A 
ATOM      3  C2  UNL d   1      -5.204  -2.117  -2.439  0.00  0.00    -0.001 A 
ATOM      4  C3  UNL d   1      -5.030  -2.522  -3.763  0.00  0.00     0.003 A 
ATOM      5  C4  UNL d   1      -5.329  -1.649  -4.807  0.00  0.00    -0.005 A 
ATOM      6  C5  UNL d   1      -5.803  -0.368  -4.527  0.00  0.00     0.003 A 
ATOM      7  C6  UNL d   1      -5.978   0.038  -3.204  0.00  0.00    -0.001 A 
ENDROOT
TORSDOF 0
ENDMDL
