MODEL 1
REMARK minimizedAffinity -2.80833364
REMARK minimizedRMSD -1
REMARK  0 active torsions:
REMARK  status: ('A' for Active; 'I' for Inactive)
ROOT
ATOM      1  C   UNL d   1      -0.874  -5.291  -5.009  0.00  0.00     0.078 C 
ATOM      2  C1  UNL d   1      -2.298  -4.980  -5.361  0.00  0.00    -0.077 A 
ATOM      3  C2  UNL d   1      -2.693  -3.676  -5.684  0.00  0.00    -0.001 A 
ATOM      4  C3  UNL d   1      -4.024  -3.399  -6.000  0.00  0.00     0.003 A 
ATOM      5  C4  UNL d   1      -4.972  -4.421  -5.995  0.00  0.00    -0.005 A 
ATOM      6  C5  UNL d   1      -4.589  -5.721  -5.673  0.00  0.00     0.003 A 
ATOM      7  C6  UNL d   1      -3.258  -6.000  -5.357  0.00  0.00    -0.001 A 
ENDROOT
TORSDOF 0
ENDMDL
