MODEL 1
REMARK minimizedAffinity 12.1968651
REMARK minimizedRMSD -1
REMARK  0 active torsions:
REMARK  status: ('A' for Active; 'I' for Inactive)
ROOT
ATOM      1  C   UNL d   1      -0.384  -1.828   1.045  0.00  0.00     0.078 C 
ATOM      2  C1  UNL d   1       0.117  -2.521   2.277  0.00  0.00    -0.077 A 
ATOM      3  C2  UNL d   1      -0.677  -2.611   3.427  0.00  0.00    -0.001 A 
ATOM      4  C3  UNL d   1      -0.195  -3.250   4.570  0.00  0.00     0.003 A 
ATOM      5  C4  UNL d   1       1.084  -3.804   4.575  0.00  0.00    -0.005 A 
ATOM      6  C5  UNL d   1       1.883  -3.717   3.436  0.00  0.00     0.003 A 
ATOM      7  C6  UNL d   1       1.402  -3.078   2.292  0.00  0.00    -0.001 A 
ENDROOT
TORSDOF 0
ENDMDL
