MODEL 1
REMARK minimizedAffinity -0.0819711909
REMARK minimizedRMSD -1
REMARK  0 active torsions:
REMARK  status: ('A' for Active; 'I' for Inactive)
ROOT
ATOM      1  C   UNL d   1       4.745  -1.039   1.505  0.00  0.00     0.078 C 
ATOM      2  C1  UNL d   1       3.418  -0.511   1.046  0.00  0.00    -0.077 A 
ATOM      3  C2  UNL d   1       3.073   0.833   1.232  0.00  0.00    -0.001 A 
ATOM      4  C3  UNL d   1       1.831   1.308   0.808  0.00  0.00     0.003 A 
ATOM      5  C4  UNL d   1       0.924   0.446   0.196  0.00  0.00    -0.005 A 
ATOM      6  C5  UNL d   1       1.258  -0.894   0.008  0.00  0.00     0.003 A 
ATOM      7  C6  UNL d   1       2.499  -1.371   0.432  0.00  0.00    -0.001 A 
ENDROOT
TORSDOF 0
ENDMDL
