MODEL 1
REMARK minimizedAffinity -0.500552475
REMARK minimizedRMSD -1
REMARK  0 active torsions:
REMARK  status: ('A' for Active; 'I' for Inactive)
ROOT
ATOM      1  C   UNL d   1      -4.443  -5.986  -5.999  0.00  0.00     0.078 C 
ATOM      2  C1  UNL d   1      -3.169  -5.881  -5.216  0.00  0.00    -0.077 A 
ATOM      3  C2  UNL d   1      -1.924  -5.939  -5.853  0.00  0.00    -0.001 A 
ATOM      4  C3  UNL d   1      -0.746  -5.850  -5.110  0.00  0.00     0.003 A 
ATOM      5  C4  UNL d   1      -0.801  -5.703  -3.725  0.00  0.00    -0.005 A 
ATOM      6  C5  UNL d   1      -2.036  -5.647  -3.082  0.00  0.00     0.003 A 
ATOM      7  C6  UNL d   1      -3.215  -5.736  -3.823  0.00  0.00    -0.001 A 
ENDROOT
TORSDOF 0
ENDMDL
