MODEL 1
REMARK minimizedAffinity 6.6313014
REMARK minimizedRMSD -1
REMARK  0 active torsions:
REMARK  status: ('A' for Active; 'I' for Inactive)
ROOT
ATOM      1  C   UNL d   1      -4.167  -0.537  -1.736  0.00  0.00     0.078 C 
ATOM      2  C1  UNL d   1      -2.905  -0.172  -1.014  0.00  0.00    -0.077 A 
ATOM      3  C2  UNL d   1      -2.044  -1.160  -0.521  0.00  0.00    -0.001 A 
ATOM      4  C3  UNL d   1      -0.877  -0.805   0.158  0.00  0.00     0.003 A 
ATOM      5  C4  UNL d   1      -0.561   0.538   0.351  0.00  0.00    -0.005 A 
ATOM      6  C5  UNL d   1      -1.413   1.529  -0.134  0.00  0.00     0.003 A 
ATOM      7  C6  UNL d   1      -2.580   1.176  -0.813  0.00  0.00    -0.001 A 
ENDROOT
TORSDOF 0
ENDMDL
