MODEL 1
REMARK minimizedAffinity 0.471254975
REMARK minimizedRMSD -1
REMARK  0 active torsions:
REMARK  status: ('A' for Active; 'I' for Inactive)
ROOT
ATOM      1  C   UNL d   1      -1.897  -1.791   4.167  0.00  0.00     0.078 C 
ATOM      2  C1  UNL d   1      -1.091  -1.804   2.902  0.00  0.00    -0.077 A 
ATOM      3  C2  UNL d   1      -1.070  -0.693   2.049  0.00  0.00    -0.001 A 
ATOM      4  C3  UNL d   1      -0.323  -0.723   0.870  0.00  0.00     0.003 A 
ATOM      5  C4  UNL d   1       0.406  -1.861   0.532  0.00  0.00    -0.005 A 
ATOM      6  C5  UNL d   1       0.389  -2.971   1.373  0.00  0.00     0.003 A 
ATOM      7  C6  UNL d   1      -0.357  -2.944   2.553  0.00  0.00    -0.001 A 
ENDROOT
TORSDOF 0
ENDMDL
