MODEL 1
REMARK minimizedAffinity -0.40361616
REMARK minimizedRMSD -1
REMARK  0 active torsions:
REMARK  status: ('A' for Active; 'I' for Inactive)
ROOT
ATOM      1  C   UNL d   1      -4.734  -3.895  -6.000  0.00  0.00     0.078 C 
ATOM      2  C1  UNL d   1      -3.487  -4.315  -5.280  0.00  0.00    -0.077 A 
ATOM      3  C2  UNL d   1      -3.368  -4.160  -3.894  0.00  0.00    -0.001 A 
ATOM      4  C3  UNL d   1      -2.198  -4.547  -3.238  0.00  0.00     0.003 A 
ATOM      5  C4  UNL d   1      -1.138  -5.090  -3.961  0.00  0.00    -0.005 A 
ATOM      6  C5  UNL d   1      -1.246  -5.246  -5.341  0.00  0.00     0.003 A 
ATOM      7  C6  UNL d   1      -2.416  -4.860  -5.999  0.00  0.00    -0.001 A 
ENDROOT
TORSDOF 0
ENDMDL
