MODEL 1
REMARK minimizedAffinity -2.73990273
REMARK minimizedRMSD -1
REMARK  1 active torsions:
REMARK  status: ('A' for Active; 'I' for Inactive)
REMARK    1  A    between atoms: C1_2  and  C2_3 
ROOT
ATOM      1  C2  UNL d   1       0.190   0.173   0.066  0.00  0.00    -0.077 A 
ATOM      2  C3  UNL d   1      -0.129  -0.253   1.363  0.00  0.00     0.002 A 
ATOM      3  C4  UNL d   1      -1.103   0.415   2.107  0.00  0.00     0.002 A 
ATOM      4  C5  UNL d   1      -1.770   1.510   1.561  0.00  0.00    -0.004 A 
ATOM      5  C6  UNL d   1      -1.459   1.943   0.273  0.00  0.00     0.002 A 
ATOM      6  C7  UNL d   1      -0.484   1.277  -0.472  0.00  0.00     0.002 A 
ENDROOT
BRANCH   1   7
ATOM      7  C1  UNL d   1       1.206  -0.576  -0.756  0.00  0.00     0.055 C 
ATOM      8  C   UNL d   1       0.585  -1.792  -1.428  0.00  0.00     0.019 C 
ENDBRANCH   1   7
TORSDOF 1
ENDMDL
