MODEL 1
REMARK minimizedAffinity -4.1798501
REMARK minimizedRMSD -1
REMARK  1 active torsions:
REMARK  status: ('A' for Active; 'I' for Inactive)
REMARK    1  A    between atoms: C1_2  and  C2_3 
ROOT
ATOM      1  C2  UNL d   1      -0.752   1.066   0.604  0.00  0.00    -0.077 A 
ATOM      2  C3  UNL d   1      -1.350   2.029   1.429  0.00  0.00     0.002 A 
ATOM      3  C4  UNL d   1      -1.601   3.315   0.946  0.00  0.00     0.002 A 
ATOM      4  C5  UNL d   1      -1.259   3.649  -0.362  0.00  0.00    -0.004 A 
ATOM      5  C6  UNL d   1      -0.662   2.699  -1.190  0.00  0.00     0.002 A 
ATOM      6  C7  UNL d   1      -0.410   1.414  -0.710  0.00  0.00     0.002 A 
ENDROOT
BRANCH   1   7
ATOM      7  C1  UNL d   1      -0.526  -0.336   1.106  0.00  0.00     0.055 C 
ATOM      8  C   UNL d   1       0.776  -0.913   0.570  0.00  0.00     0.019 C 
ENDBRANCH   1   7
TORSDOF 1
ENDMDL
