MODEL 1
REMARK minimizedAffinity -3.00431561
REMARK minimizedRMSD -1
REMARK  1 active torsions:
REMARK  status: ('A' for Active; 'I' for Inactive)
REMARK    1  A    between atoms: C1_2  and  C2_3 
ROOT
ATOM      1  C2  UNL d   1      -0.537   0.715   0.045  0.00  0.00    -0.077 A 
ATOM      2  C3  UNL d   1      -1.338   1.741   0.565  0.00  0.00     0.002 A 
ATOM      3  C4  UNL d   1      -1.642   1.778   1.928  0.00  0.00     0.002 A 
ATOM      4  C5  UNL d   1      -1.146   0.795   2.781  0.00  0.00    -0.004 A 
ATOM      5  C6  UNL d   1      -0.351  -0.231   2.272  0.00  0.00     0.002 A 
ATOM      6  C7  UNL d   1      -0.047  -0.271   0.911  0.00  0.00     0.002 A 
ENDROOT
BRANCH   1   7
ATOM      7  C1  UNL d   1      -0.168   0.701  -1.415  0.00  0.00     0.055 C 
ATOM      8  C   UNL d   1       0.770   1.849  -1.760  0.00  0.00     0.019 C 
ENDBRANCH   1   7
TORSDOF 1
ENDMDL
