MODEL 1
REMARK minimizedAffinity -3.22204757
REMARK minimizedRMSD -1
REMARK  1 active torsions:
REMARK  status: ('A' for Active; 'I' for Inactive)
REMARK    1  A    between atoms: C1_2  and  C2_3 
ROOT
ATOM      1  C2  UNL d   1       0.308   0.484  -0.143  0.00  0.00    -0.077 A 
ATOM      2  C3  UNL d   1       0.753  -0.703   0.453  0.00  0.00     0.002 A 
ATOM      3  C4  UNL d   1       0.430  -0.991   1.781  0.00  0.00     0.002 A 
ATOM      4  C5  UNL d   1      -0.342  -0.098   2.521  0.00  0.00    -0.004 A 
ATOM      5  C6  UNL d   1      -0.788   1.087   1.937  0.00  0.00     0.002 A 
ATOM      6  C7  UNL d   1      -0.465   1.376   0.611  0.00  0.00     0.002 A 
ENDROOT
BRANCH   1   7
ATOM      7  C1  UNL d   1       0.613   0.773  -1.590  0.00  0.00     0.055 C 
ATOM      8  C   UNL d   1       0.955   2.241  -1.801  0.00  0.00     0.019 C 
ENDBRANCH   1   7
TORSDOF 1
ENDMDL
