MODEL 1
REMARK minimizedAffinity 6.61370468
REMARK minimizedRMSD -1
REMARK  1 active torsions:
REMARK  status: ('A' for Active; 'I' for Inactive)
REMARK    1  A    between atoms: C1_2  and  C2_3 
ROOT
ATOM      1  C2  UNL d   1      -0.603   0.213   2.014  0.00  0.00    -0.077 A 
ATOM      2  C3  UNL d   1       0.008  -0.986   2.406  0.00  0.00     0.002 A 
ATOM      3  C4  UNL d   1       0.950  -1.603   1.580  0.00  0.00     0.002 A 
ATOM      4  C5  UNL d   1       1.292  -1.025   0.359  0.00  0.00    -0.004 A 
ATOM      5  C6  UNL d   1       0.688   0.166  -0.041  0.00  0.00     0.002 A 
ATOM      6  C7  UNL d   1      -0.254   0.783   0.783  0.00  0.00     0.002 A 
ENDROOT
BRANCH   1   7
ATOM      7  C1  UNL d   1      -1.582   0.905   2.925  0.00  0.00     0.055 C 
ATOM      8  C   UNL d   1      -0.887   1.930   3.809  0.00  0.00     0.019 C 
ENDBRANCH   1   7
TORSDOF 1
ENDMDL
