MODEL 1
REMARK minimizedAffinity 1.98293018
REMARK minimizedRMSD -1
REMARK  1 active torsions:
REMARK  status: ('A' for Active; 'I' for Inactive)
REMARK    1  A    between atoms: C1_2  and  C2_3 
ROOT
ATOM      1  C2  UNL d   1      -0.580   0.789   0.089  0.00  0.00    -0.077 A 
ATOM      2  C3  UNL d   1      -0.960  -0.363   0.793  0.00  0.00     0.002 A 
ATOM      3  C4  UNL d   1      -1.065  -0.337   2.185  0.00  0.00     0.002 A 
ATOM      4  C5  UNL d   1      -0.797   0.838   2.884  0.00  0.00    -0.004 A 
ATOM      5  C6  UNL d   1      -0.417   1.988   2.193  0.00  0.00     0.002 A 
ATOM      6  C7  UNL d   1      -0.310   1.964   0.802  0.00  0.00     0.002 A 
ENDROOT
BRANCH   1   7
ATOM      7  C1  UNL d   1      -0.514   0.777  -1.416  0.00  0.00     0.055 C 
ATOM      8  C   UNL d   1      -1.662   1.566  -2.028  0.00  0.00     0.019 C 
ENDBRANCH   1   7
TORSDOF 1
ENDMDL
