MODEL 1
REMARK minimizedAffinity 4.64851189
REMARK minimizedRMSD -1
REMARK  1 active torsions:
REMARK  status: ('A' for Active; 'I' for Inactive)
REMARK    1  A    between atoms: C1_2  and  C2_3 
ROOT
ATOM      1  C2  UNL d   1      -0.377   2.151   1.777  0.00  0.00    -0.077 A 
ATOM      2  C3  UNL d   1      -0.909   1.071   2.494  0.00  0.00     0.002 A 
ATOM      3  C4  UNL d   1      -0.831  -0.225   1.980  0.00  0.00     0.002 A 
ATOM      4  C5  UNL d   1      -0.218  -0.453   0.750  0.00  0.00    -0.004 A 
ATOM      5  C6  UNL d   1       0.313   0.615   0.028  0.00  0.00     0.002 A 
ATOM      6  C7  UNL d   1       0.235   1.911   0.539  0.00  0.00     0.002 A 
ENDROOT
BRANCH   1   7
ATOM      7  C1  UNL d   1      -0.416   3.543   2.351  0.00  0.00     0.055 C 
ATOM      8  C   UNL d   1       0.384   4.517   1.499  0.00  0.00     0.019 C 
ENDBRANCH   1   7
TORSDOF 1
ENDMDL
