MODEL 1
REMARK minimizedAffinity -3.40263104
REMARK minimizedRMSD -1
REMARK  1 active torsions:
REMARK  status: ('A' for Active; 'I' for Inactive)
REMARK    1  A    between atoms: C1_2  and  C2_3 
ROOT
ATOM      1  C2  UNL d   1      -0.184   0.301   0.122  0.00  0.00    -0.077 A 
ATOM      2  C3  UNL d   1      -0.024   0.638   1.473  0.00  0.00     0.002 A 
ATOM      3  C4  UNL d   1      -0.897   1.540   2.084  0.00  0.00     0.002 A 
ATOM      4  C5  UNL d   1      -1.938   2.109   1.353  0.00  0.00    -0.004 A 
ATOM      5  C6  UNL d   1      -2.104   1.782   0.008  0.00  0.00     0.002 A 
ATOM      6  C7  UNL d   1      -1.231   0.881  -0.605  0.00  0.00     0.002 A 
ENDROOT
BRANCH   1   7
ATOM      7  C1  UNL d   1       0.727  -0.709  -0.526  0.00  0.00     0.055 C 
ATOM      8  C   UNL d   1      -0.062  -1.721  -1.344  0.00  0.00     0.019 C 
ENDBRANCH   1   7
TORSDOF 1
ENDMDL
