MODEL 1
REMARK minimizedAffinity -4.21396065
REMARK minimizedRMSD -1
REMARK  1 active torsions:
REMARK  status: ('A' for Active; 'I' for Inactive)
REMARK    1  A    between atoms: C1_2  and  C2_3 
ROOT
ATOM      1  C2  UNL d   1      -0.332   0.584   0.161  0.00  0.00    -0.077 A 
ATOM      2  C3  UNL d   1      -1.270  -0.416  -0.130  0.00  0.00     0.002 A 
ATOM      3  C4  UNL d   1      -2.553  -0.362   0.418  0.00  0.00     0.002 A 
ATOM      4  C5  UNL d   1      -2.910   0.691   1.257  0.00  0.00    -0.004 A 
ATOM      5  C6  UNL d   1      -1.984   1.690   1.554  0.00  0.00     0.002 A 
ATOM      6  C7  UNL d   1      -0.701   1.637   1.008  0.00  0.00     0.002 A 
ENDROOT
BRANCH   1   7
ATOM      7  C1  UNL d   1       1.036   0.554  -0.469  0.00  0.00     0.055 C 
ATOM      8  C   UNL d   1       1.133   1.534  -1.629  0.00  0.00     0.019 C 
ENDBRANCH   1   7
TORSDOF 1
ENDMDL
