MODEL 1
REMARK minimizedAffinity -3.52895665
REMARK minimizedRMSD -1
REMARK  1 active torsions:
REMARK  status: ('A' for Active; 'I' for Inactive)
REMARK    1  A    between atoms: C1_2  and  C2_3 
ROOT
ATOM      1  C2  UNL d   1      -1.389   1.770   0.908  0.00  0.00    -0.077 A 
ATOM      2  C3  UNL d   1      -0.724   1.788  -0.326  0.00  0.00     0.002 A 
ATOM      3  C4  UNL d   1       0.338   0.914  -0.568  0.00  0.00     0.002 A 
ATOM      4  C5  UNL d   1       0.741   0.015   0.417  0.00  0.00    -0.004 A 
ATOM      5  C6  UNL d   1       0.087  -0.009   1.648  0.00  0.00     0.002 A 
ATOM      6  C7  UNL d   1      -0.974   0.864   1.892  0.00  0.00     0.002 A 
ENDROOT
BRANCH   1   7
ATOM      7  C1  UNL d   1      -2.567   2.677   1.154  0.00  0.00     0.055 C 
ATOM      8  C   UNL d   1      -2.359   4.040   0.509  0.00  0.00     0.019 C 
ENDBRANCH   1   7
TORSDOF 1
ENDMDL
