MODEL 1
REMARK minimizedAffinity 1.15486908
REMARK minimizedRMSD -1
REMARK  0 active torsions:
REMARK  status: ('A' for Active; 'I' for Inactive)
ROOT
ATOM      1  C1  BNZ d   1       5.998   1.281  -4.396  0.00  0.00     0.000 A 
ATOM      2  C2  BNZ d   1       5.371   2.195  -5.200  0.00  0.00     0.000 A 
ATOM      3  C3  BNZ d   1       4.316   1.827  -5.987  0.00  0.00     0.000 A 
ATOM      4  C4  BNZ d   1       3.915   0.540  -5.999  0.00  0.00     0.000 A 
ATOM      5  C5  BNZ d   1       4.543  -0.396  -5.201  0.00  0.00     0.000 A 
ATOM      6  C6  BNZ d   1       5.580  -0.014  -4.381  0.00  0.00     0.000 A 
ENDROOT
TORSDOF 0
ENDMDL
