MODEL 1
REMARK minimizedAffinity -0.531742811
REMARK minimizedRMSD -1
REMARK  0 active torsions:
REMARK  status: ('A' for Active; 'I' for Inactive)
ROOT
ATOM      1  C1  BNZ d   1       4.138  -2.048  -4.191  0.00  0.00     0.000 A 
ATOM      2  C2  BNZ d   1       4.548  -0.742  -4.194  0.00  0.00     0.000 A 
ATOM      3  C3  BNZ d   1       5.458  -0.296  -5.111  0.00  0.00     0.000 A 
ATOM      4  C4  BNZ d   1       5.988  -1.165  -5.996  0.00  0.00     0.000 A 
ATOM      5  C5  BNZ d   1       5.592  -2.488  -6.000  0.00  0.00     0.000 A 
ATOM      6  C6  BNZ d   1       4.646  -2.924  -5.100  0.00  0.00     0.000 A 
ENDROOT
TORSDOF 0
ENDMDL
