MODEL 1
REMARK minimizedAffinity -4.02265215
REMARK minimizedRMSD -1
REMARK  0 active torsions:
REMARK  status: ('A' for Active; 'I' for Inactive)
ROOT
ATOM      1  C1  BNZ d   1      -0.019  -0.318   0.875  0.00  0.00     0.000 A 
ATOM      2  C2  BNZ d   1       1.237  -0.678   1.283  0.00  0.00     0.000 A 
ATOM      3  C3  BNZ d   1       2.267   0.221   1.257  0.00  0.00     0.000 A 
ATOM      4  C4  BNZ d   1       2.048   1.466   0.786  0.00  0.00     0.000 A 
ATOM      5  C5  BNZ d   1       0.789   1.841   0.362  0.00  0.00     0.000 A 
ATOM      6  C6  BNZ d   1      -0.254   0.946   0.426  0.00  0.00     0.000 A 
ENDROOT
TORSDOF 0
ENDMDL
