MODEL 1
REMARK minimizedAffinity 1.30201387
REMARK minimizedRMSD -1
REMARK  0 active torsions:
REMARK  status: ('A' for Active; 'I' for Inactive)
ROOT
ATOM      1  C1  BNZ d   1       4.871  -2.195  -5.900  0.00  0.00     0.000 A 
ATOM      2  C2  BNZ d   1       5.999  -1.424  -5.998  0.00  0.00     0.000 A 
ATOM      3  C3  BNZ d   1       5.916  -0.060  -5.998  0.00  0.00     0.000 A 
ATOM      4  C4  BNZ d   1       4.705   0.531  -5.939  0.00  0.00     0.000 A 
ATOM      5  C5  BNZ d   1       3.558  -0.233  -5.849  0.00  0.00     0.000 A 
ATOM      6  C6  BNZ d   1       3.648  -1.605  -5.810  0.00  0.00     0.000 A 
ENDROOT
TORSDOF 0
ENDMDL
