MODEL 1
REMARK minimizedAffinity -2.16556859
REMARK minimizedRMSD -1
REMARK  0 active torsions:
REMARK  status: ('A' for Active; 'I' for Inactive)
ROOT
ATOM      1  C1  BNZ d   1       0.414  -0.304   1.317  0.00  0.00     0.000 A 
ATOM      2  C2  BNZ d   1       1.453  -0.334   2.209  0.00  0.00     0.000 A 
ATOM      3  C3  BNZ d   1       2.413   0.639   2.198  0.00  0.00     0.000 A 
ATOM      4  C4  BNZ d   1       2.356   1.616   1.271  0.00  0.00     0.000 A 
ATOM      5  C5  BNZ d   1       1.320   1.655   0.359  0.00  0.00     0.000 A 
ATOM      6  C6  BNZ d   1       0.334   0.696   0.398  0.00  0.00     0.000 A 
ENDROOT
TORSDOF 0
ENDMDL
