MODEL 1
REMARK minimizedAffinity -1.41583788
REMARK minimizedRMSD -1
REMARK  0 active torsions:
REMARK  status: ('A' for Active; 'I' for Inactive)
ROOT
ATOM      1  C1  BNZ d   1      -0.306   1.148   0.687  0.00  0.00     0.000 A 
ATOM      2  C2  BNZ d   1       0.544   2.222   0.699  0.00  0.00     0.000 A 
ATOM      3  C3  BNZ d   1       1.827   2.093   1.153  0.00  0.00     0.000 A 
ATOM      4  C4  BNZ d   1       2.245   0.904   1.631  0.00  0.00     0.000 A 
ATOM      5  C5  BNZ d   1       1.397  -0.186   1.634  0.00  0.00     0.000 A 
ATOM      6  C6  BNZ d   1       0.119  -0.063   1.140  0.00  0.00     0.000 A 
ENDROOT
TORSDOF 0
ENDMDL
