MODEL 1
REMARK minimizedAffinity -1.84903896
REMARK minimizedRMSD -1
REMARK  1 active torsions:
REMARK  status: ('A' for Active; 'I' for Inactive)
REMARK    1  A    between atoms: C1_2  and  C2_3 
ROOT
ATOM      1  C2  UNL d   1      -0.288  -0.038  -0.334  0.00  0.00    -0.076 A 
ATOM      2  C3  UNL d   1      -0.645  -0.040   1.026  0.00  0.00     0.004 A 
ATOM      3  C4  UNL d   1      -1.000  -1.222   1.674  0.00  0.00    -0.003 A 
ATOM      4  C5  UNL d   1      -1.003  -2.422   0.972  0.00  0.00     0.000 A 
ATOM      5  C6  UNL d   1      -0.634  -2.442  -0.373  0.00  0.00     0.000 A 
ATOM      6  C7  UNL d   1      -0.258  -1.262  -1.036  0.00  0.00    -0.073 A 
ATOM      7  C8  UNL d   1       0.124  -1.341  -2.489  0.00  0.00     0.078 C 
ENDROOT
BRANCH   1   8
ATOM      8  C1  UNL d   1       0.061   1.278  -0.990  0.00  0.00     0.053 C 
ATOM      9  C   UNL d   1       0.616   2.293  -0.001  0.00  0.00     0.018 C 
ENDBRANCH   1   8
TORSDOF 1
ENDMDL
