MODEL 1
REMARK minimizedAffinity -1.82345927
REMARK minimizedRMSD -1
REMARK  1 active torsions:
REMARK  status: ('A' for Active; 'I' for Inactive)
REMARK    1  A    between atoms: C1_2  and  C2_3 
ROOT
ATOM      1  C2  UNL d   1       0.310   1.160   0.912  0.00  0.00    -0.076 A 
ATOM      2  C3  UNL d   1       0.720   1.804   2.093  0.00  0.00     0.004 A 
ATOM      3  C4  UNL d   1       1.597   2.886   2.052  0.00  0.00    -0.003 A 
ATOM      4  C5  UNL d   1       2.078   3.343   0.830  0.00  0.00     0.000 A 
ATOM      5  C6  UNL d   1       1.669   2.727  -0.352  0.00  0.00     0.000 A 
ATOM      6  C7  UNL d   1       0.772   1.645  -0.330  0.00  0.00    -0.073 A 
ATOM      7  C8  UNL d   1       0.369   1.015  -1.635  0.00  0.00     0.078 C 
ENDROOT
BRANCH   1   8
ATOM      8  C1  UNL d   1      -0.621  -0.027   1.020  0.00  0.00     0.053 C 
ATOM      9  C   UNL d   1      -0.252  -0.955   2.167  0.00  0.00     0.018 C 
ENDBRANCH   1   8
TORSDOF 1
ENDMDL
