MODEL 1
REMARK minimizedAffinity -0.867846906
REMARK minimizedRMSD -1
REMARK  1 active torsions:
REMARK  status: ('A' for Active; 'I' for Inactive)
REMARK    1  A    between atoms: C1_2  and  C2_3 
ROOT
ATOM      1  C2  UNL d   1       0.743   1.506   0.452  0.00  0.00    -0.076 A 
ATOM      2  C3  UNL d   1       1.018   0.877   1.679  0.00  0.00     0.004 A 
ATOM      3  C4  UNL d   1       0.357  -0.293   2.049  0.00  0.00    -0.003 A 
ATOM      4  C5  UNL d   1      -0.589  -0.854   1.198  0.00  0.00     0.000 A 
ATOM      5  C6  UNL d   1      -0.862  -0.253  -0.031  0.00  0.00     0.000 A 
ATOM      6  C7  UNL d   1      -0.192   0.918  -0.426  0.00  0.00    -0.073 A 
ATOM      7  C8  UNL d   1      -0.530   1.528  -1.759  0.00  0.00     0.078 C 
ENDROOT
BRANCH   1   8
ATOM      8  C1  UNL d   1       1.471   2.788   0.117  0.00  0.00     0.053 C 
ATOM      9  C   UNL d   1       1.867   3.575   1.357  0.00  0.00     0.018 C 
ENDBRANCH   1   8
TORSDOF 1
ENDMDL
