MODEL 1
REMARK minimizedAffinity -2.26815963
REMARK minimizedRMSD -1
REMARK  1 active torsions:
REMARK  status: ('A' for Active; 'I' for Inactive)
REMARK    1  A    between atoms: C1_2  and  C2_3 
ROOT
ATOM      1  C2  UNL d   1       0.718   0.549   0.756  0.00  0.00    -0.076 A 
ATOM      2  C3  UNL d   1       0.833  -0.037   2.028  0.00  0.00     0.004 A 
ATOM      3  C4  UNL d   1       0.074  -1.153   2.376  0.00  0.00    -0.003 A 
ATOM      4  C5  UNL d   1      -0.811  -1.703   1.455  0.00  0.00     0.000 A 
ATOM      5  C6  UNL d   1      -0.925  -1.145   0.182  0.00  0.00     0.000 A 
ATOM      6  C7  UNL d   1      -0.155  -0.030  -0.190  0.00  0.00    -0.073 A 
ATOM      7  C8  UNL d   1      -0.323   0.534  -1.574  0.00  0.00     0.078 C 
ENDROOT
BRANCH   1   8
ATOM      8  C1  UNL d   1       1.547   1.775   0.445  0.00  0.00     0.053 C 
ATOM      9  C   UNL d   1       0.735   3.060   0.513  0.00  0.00     0.018 C 
ENDBRANCH   1   8
TORSDOF 1
ENDMDL
