MODEL 1
REMARK minimizedAffinity -1.77500832
REMARK minimizedRMSD -1
REMARK  1 active torsions:
REMARK  status: ('A' for Active; 'I' for Inactive)
REMARK    1  A    between atoms: C1_2  and  C2_3 
ROOT
ATOM      1  C2  UNL d   1       0.265   0.523   0.094  0.00  0.00    -0.076 A 
ATOM      2  C3  UNL d   1      -0.176   0.517   1.428  0.00  0.00     0.004 A 
ATOM      3  C4  UNL d   1      -0.933  -0.541   1.929  0.00  0.00    -0.003 A 
ATOM      4  C5  UNL d   1      -1.259  -1.611   1.104  0.00  0.00     0.000 A 
ATOM      5  C6  UNL d   1      -0.815  -1.631  -0.218  0.00  0.00     0.000 A 
ATOM      6  C7  UNL d   1      -0.037  -0.579  -0.734  0.00  0.00    -0.073 A 
ATOM      7  C8  UNL d   1       0.410  -0.649  -2.168  0.00  0.00     0.078 C 
ENDROOT
BRANCH   1   8
ATOM      8  C1  UNL d   1       1.060   1.711  -0.401  0.00  0.00     0.053 C 
ATOM      9  C   UNL d   1       0.709   2.994   0.335  0.00  0.00     0.018 C 
ENDBRANCH   1   8
TORSDOF 1
ENDMDL
