MODEL 1
REMARK minimizedAffinity -4.56987238
REMARK minimizedRMSD -1
REMARK  1 active torsions:
REMARK  status: ('A' for Active; 'I' for Inactive)
REMARK    1  A    between atoms: C1_2  and  C2_3 
ROOT
ATOM      1  C2  UNL d   1       1.036   1.340   0.408  0.00  0.00    -0.076 A 
ATOM      2  C3  UNL d   1       1.404   0.337   1.321  0.00  0.00     0.004 A 
ATOM      3  C4  UNL d   1       0.539  -0.714   1.619  0.00  0.00    -0.003 A 
ATOM      4  C5  UNL d   1      -0.709  -0.779   1.009  0.00  0.00     0.000 A 
ATOM      5  C6  UNL d   1      -1.084   0.198   0.088  0.00  0.00     0.000 A 
ATOM      6  C7  UNL d   1      -0.217   1.255  -0.237  0.00  0.00    -0.073 A 
ATOM      7  C8  UNL d   1      -0.675   2.285  -1.233  0.00  0.00     0.078 C 
ENDROOT
BRANCH   1   8
ATOM      8  C1  UNL d   1       2.006   2.470   0.143  0.00  0.00     0.053 C 
ATOM      9  C   UNL d   1       1.945   3.551   1.211  0.00  0.00     0.018 C 
ENDBRANCH   1   8
TORSDOF 1
ENDMDL
