MODEL 1
REMARK minimizedAffinity -3.6689086
REMARK minimizedRMSD -1
REMARK  1 active torsions:
REMARK  status: ('A' for Active; 'I' for Inactive)
REMARK    1  A    between atoms: C1_2  and  C2_3 
ROOT
ATOM      1  C2  UNL d   1       0.780   1.066   0.776  0.00  0.00    -0.076 A 
ATOM      2  C3  UNL d   1       1.011   0.525   2.053  0.00  0.00     0.004 A 
ATOM      3  C4  UNL d   1       0.397  -0.661   2.452  0.00  0.00    -0.003 A 
ATOM      4  C5  UNL d   1      -0.459  -1.325   1.580  0.00  0.00     0.000 A 
ATOM      5  C6  UNL d   1      -0.687  -0.812   0.304  0.00  0.00     0.000 A 
ATOM      6  C7  UNL d   1      -0.062   0.373  -0.120  0.00  0.00    -0.073 A 
ATOM      7  C8  UNL d   1      -0.348   0.884  -1.506  0.00  0.00     0.078 C 
ENDROOT
BRANCH   1   8
ATOM      8  C1  UNL d   1       1.453   2.369   0.408  0.00  0.00     0.053 C 
ATOM      9  C   UNL d   1       0.691   3.582   0.918  0.00  0.00     0.018 C 
ENDBRANCH   1   8
TORSDOF 1
ENDMDL
