MODEL 1
REMARK minimizedAffinity -3.30752206
REMARK minimizedRMSD -1
REMARK  1 active torsions:
REMARK  status: ('A' for Active; 'I' for Inactive)
REMARK    1  A    between atoms: C1_2  and  C2_3 
ROOT
ATOM      1  C2  UNL d   1       0.262   0.605   0.504  0.00  0.00    -0.076 A 
ATOM      2  C3  UNL d   1       0.900   0.631   1.756  0.00  0.00     0.004 A 
ATOM      3  C4  UNL d   1       1.409   1.819   2.277  0.00  0.00    -0.003 A 
ATOM      4  C5  UNL d   1       1.287   3.001   1.555  0.00  0.00     0.000 A 
ATOM      5  C6  UNL d   1       0.641   2.997   0.319  0.00  0.00     0.000 A 
ATOM      6  C7  UNL d   1       0.108   1.811  -0.213  0.00  0.00    -0.073 A 
ATOM      7  C8  UNL d   1      -0.573   1.863  -1.553  0.00  0.00     0.078 C 
ENDROOT
BRANCH   1   8
ATOM      8  C1  UNL d   1      -0.247  -0.718  -0.022  0.00  0.00     0.053 C 
ATOM      9  C   UNL d   1      -0.858  -1.583   1.069  0.00  0.00     0.018 C 
ENDBRANCH   1   8
TORSDOF 1
ENDMDL
