MODEL 1
REMARK minimizedAffinity -3.84343934
REMARK minimizedRMSD -1
REMARK  1 active torsions:
REMARK  status: ('A' for Active; 'I' for Inactive)
REMARK    1  A    between atoms: C1_2  and  C2_3 
ROOT
ATOM      1  C2  UNL d   1       0.074   0.902   0.545  0.00  0.00    -0.076 A 
ATOM      2  C3  UNL d   1      -0.471   0.450  -0.669  0.00  0.00     0.004 A 
ATOM      3  C4  UNL d   1      -0.896  -0.869  -0.818  0.00  0.00    -0.003 A 
ATOM      4  C5  UNL d   1      -0.784  -1.757   0.245  0.00  0.00     0.000 A 
ATOM      5  C6  UNL d   1      -0.262  -1.322   1.463  0.00  0.00     0.000 A 
ATOM      6  C7  UNL d   1       0.156   0.009   1.635  0.00  0.00    -0.073 A 
ATOM      7  C8  UNL d   1       0.717   0.422   2.968  0.00  0.00     0.078 C 
ENDROOT
BRANCH   1   8
ATOM      8  C1  UNL d   1       0.544   2.336   0.640  0.00  0.00     0.053 C 
ATOM      9  C   UNL d   1       2.047   2.471   0.452  0.00  0.00     0.018 C 
ENDBRANCH   1   8
TORSDOF 1
ENDMDL
