MODEL 1
REMARK minimizedAffinity -3.11451769
REMARK minimizedRMSD -1
REMARK  1 active torsions:
REMARK  status: ('A' for Active; 'I' for Inactive)
REMARK    1  A    between atoms: C1_2  and  C2_3 
ROOT
ATOM      1  C2  UNL d   1       0.568   1.086   0.412  0.00  0.00    -0.076 A 
ATOM      2  C3  UNL d   1       0.951   0.293   1.508  0.00  0.00     0.004 A 
ATOM      3  C4  UNL d   1       0.065  -0.622   2.075  0.00  0.00    -0.003 A 
ATOM      4  C5  UNL d   1      -1.217  -0.758   1.556  0.00  0.00     0.000 A 
ATOM      5  C6  UNL d   1      -1.608   0.008   0.458  0.00  0.00     0.000 A 
ATOM      6  C7  UNL d   1      -0.722   0.923  -0.136  0.00  0.00    -0.073 A 
ATOM      7  C8  UNL d   1      -1.198   1.727  -1.315  0.00  0.00     0.078 C 
ENDROOT
BRANCH   1   8
ATOM      8  C1  UNL d   1       1.562   2.080  -0.145  0.00  0.00     0.053 C 
ATOM      9  C   UNL d   1       1.715   3.309   0.739  0.00  0.00     0.018 C 
ENDBRANCH   1   8
TORSDOF 1
ENDMDL
