MODEL 1
REMARK minimizedAffinity -3.77999425
REMARK minimizedRMSD -1
REMARK  1 active torsions:
REMARK  status: ('A' for Active; 'I' for Inactive)
REMARK    1  A    between atoms: C1_2  and  C2_3 
ROOT
ATOM      1  C2  UNL d   1       0.744   1.012   0.367  0.00  0.00    -0.076 A 
ATOM      2  C3  UNL d   1       0.968   0.327   1.574  0.00  0.00     0.004 A 
ATOM      3  C4  UNL d   1       0.271  -0.841   1.876  0.00  0.00    -0.003 A 
ATOM      4  C5  UNL d   1      -0.662  -1.344   0.976  0.00  0.00     0.000 A 
ATOM      5  C6  UNL d   1      -0.885  -0.687  -0.233  0.00  0.00     0.000 A 
ATOM      6  C7  UNL d   1      -0.179   0.483  -0.561  0.00  0.00    -0.073 A 
ATOM      7  C8  UNL d   1      -0.463   1.154  -1.877  0.00  0.00     0.078 C 
ENDROOT
BRANCH   1   8
ATOM      8  C1  UNL d   1       1.510   2.290   0.106  0.00  0.00     0.053 C 
ATOM      9  C   UNL d   1       0.739   3.529   0.534  0.00  0.00     0.018 C 
ENDBRANCH   1   8
TORSDOF 1
ENDMDL
