MODEL 1
REMARK minimizedAffinity -0.251034945
REMARK minimizedRMSD -1
REMARK  1 active torsions:
REMARK  status: ('A' for Active; 'I' for Inactive)
REMARK    1  A    between atoms: C1_2  and  C2_3 
ROOT
ATOM      1  C2  UNL d   1      -0.790  -2.063  -0.979  0.00  0.00    -0.076 A 
ATOM      2  C3  UNL d   1      -1.001  -2.855   0.162  0.00  0.00     0.004 A 
ATOM      3  C4  UNL d   1      -0.891  -2.314   1.442  0.00  0.00    -0.003 A 
ATOM      4  C5  UNL d   1      -0.569  -0.971   1.601  0.00  0.00     0.000 A 
ATOM      5  C6  UNL d   1      -0.374  -0.165   0.479  0.00  0.00     0.000 A 
ATOM      6  C7  UNL d   1      -0.498  -0.691  -0.818  0.00  0.00    -0.073 A 
ATOM      7  C8  UNL d   1      -0.271   0.221  -1.992  0.00  0.00     0.078 C 
ENDROOT
BRANCH   1   8
ATOM      8  C1  UNL d   1      -0.897  -2.711  -2.341  0.00  0.00     0.053 C 
ATOM      9  C   UNL d   1       0.195  -2.249  -3.294  0.00  0.00     0.018 C 
ENDBRANCH   1   8
TORSDOF 1
ENDMDL
