MODEL 1
REMARK minimizedAffinity 11.5458555
REMARK minimizedRMSD -1
REMARK  0 active torsions:
REMARK  status: ('A' for Active; 'I' for Inactive)
ROOT
ATOM      1  C   UNL d   1      -1.906  -5.997  -0.009  0.00  0.00     0.077 C 
ATOM      2  C1  UNL d   1      -0.415  -5.834  -0.042  0.00  0.00    -0.074 A 
ATOM      3  C2  UNL d   1       0.351  -6.000   1.116  0.00  0.00    -0.005 A 
ATOM      4  C3  UNL d   1       1.738  -5.855   1.068  0.00  0.00     0.006 A 
ATOM      5  C4  UNL d   1       2.370  -5.543  -0.135  0.00  0.00    -0.005 A 
ATOM      6  C5  UNL d   1       1.620  -5.374  -1.304  0.00  0.00    -0.074 A 
ATOM      7  C6  UNL d   1       2.286  -5.049  -2.608  0.00  0.00     0.077 C 
ATOM      8  C7  UNL d   1       0.228  -5.529  -1.249  0.00  0.00    -0.001 A 
ENDROOT
TORSDOF 0
ENDMDL
