MODEL 1
REMARK minimizedAffinity 2.69182587
REMARK minimizedRMSD -1
REMARK  0 active torsions:
REMARK  status: ('A' for Active; 'I' for Inactive)
ROOT
ATOM      1  C   UNL d   1       1.695  -4.833   5.798  0.00  0.00     0.077 C 
ATOM      2  C1  UNL d   1       1.731  -4.820   4.298  0.00  0.00    -0.074 A 
ATOM      3  C2  UNL d   1       1.926  -6.000   3.573  0.00  0.00    -0.005 A 
ATOM      4  C3  UNL d   1       1.948  -5.974   2.179  0.00  0.00     0.006 A 
ATOM      5  C4  UNL d   1       1.774  -4.769   1.496  0.00  0.00    -0.005 A 
ATOM      6  C5  UNL d   1       1.577  -3.579   2.204  0.00  0.00    -0.074 A 
ATOM      7  C6  UNL d   1       1.379  -2.277   1.486  0.00  0.00     0.077 C 
ATOM      8  C7  UNL d   1       1.550  -3.615   3.605  0.00  0.00    -0.001 A 
ENDROOT
TORSDOF 0
ENDMDL
