MODEL 1
REMARK minimizedAffinity 7.41733074
REMARK minimizedRMSD -1
REMARK  0 active torsions:
REMARK  status: ('A' for Active; 'I' for Inactive)
ROOT
ATOM      1  C   UNL d   1       1.555   1.632   2.073  0.00  0.00     0.077 C 
ATOM      2  C1  UNL d   1       1.574   0.176   2.431  0.00  0.00    -0.074 A 
ATOM      3  C2  UNL d   1       1.918  -0.792   1.482  0.00  0.00    -0.005 A 
ATOM      4  C3  UNL d   1       1.940  -2.143   1.831  0.00  0.00     0.006 A 
ATOM      5  C4  UNL d   1       1.619  -2.538   3.131  0.00  0.00    -0.005 A 
ATOM      6  C5  UNL d   1       1.273  -1.583   4.093  0.00  0.00    -0.074 A 
ATOM      7  C6  UNL d   1       0.935  -1.990   5.496  0.00  0.00     0.077 C 
ATOM      8  C7  UNL d   1       1.260  -0.228   3.736  0.00  0.00    -0.001 A 
ENDROOT
TORSDOF 0
ENDMDL
