MODEL 1
REMARK minimizedAffinity 14.4561005
REMARK minimizedRMSD -1
REMARK  0 active torsions:
REMARK  status: ('A' for Active; 'I' for Inactive)
ROOT
ATOM      1  C   UNL d   1      -3.907  -5.996  -3.380  0.00  0.00     0.077 C 
ATOM      2  C1  UNL d   1      -4.453  -4.877  -4.215  0.00  0.00    -0.074 A 
ATOM      3  C2  UNL d   1      -5.379  -5.126  -5.233  0.00  0.00    -0.005 A 
ATOM      4  C3  UNL d   1      -5.886  -4.074  -5.996  0.00  0.00     0.006 A 
ATOM      5  C4  UNL d   1      -5.473  -2.764  -5.749  0.00  0.00    -0.005 A 
ATOM      6  C5  UNL d   1      -4.549  -2.495  -4.734  0.00  0.00    -0.074 A 
ATOM      7  C6  UNL d   1      -4.102  -1.092  -4.449  0.00  0.00     0.077 C 
ATOM      8  C7  UNL d   1      -4.049  -3.557  -3.968  0.00  0.00    -0.001 A 
ENDROOT
TORSDOF 0
ENDMDL
