MODEL 1
REMARK minimizedAffinity 7.16381359
REMARK minimizedRMSD -1
REMARK  0 active torsions:
REMARK  status: ('A' for Active; 'I' for Inactive)
ROOT
ATOM      1  C   UNL d   1       3.456   0.905   0.744  0.00  0.00     0.077 C 
ATOM      2  C1  UNL d   1       2.498   0.011   1.473  0.00  0.00    -0.074 A 
ATOM      3  C2  UNL d   1       1.315   0.519   2.021  0.00  0.00    -0.005 A 
ATOM      4  C3  UNL d   1       0.429  -0.327   2.687  0.00  0.00     0.006 A 
ATOM      5  C4  UNL d   1       0.715  -1.687   2.812  0.00  0.00    -0.005 A 
ATOM      6  C5  UNL d   1       1.892  -2.213   2.270  0.00  0.00    -0.074 A 
ATOM      7  C6  UNL d   1       2.209  -3.674   2.386  0.00  0.00     0.077 C 
ATOM      8  C7  UNL d   1       2.774  -1.358   1.595  0.00  0.00    -0.001 A 
ENDROOT
TORSDOF 0
ENDMDL
