MODEL 1
REMARK minimizedAffinity 12.0476379
REMARK minimizedRMSD -1
REMARK  0 active torsions:
REMARK  status: ('A' for Active; 'I' for Inactive)
ROOT
ATOM      1  C   UNL d   1      -2.323   1.878   0.120  0.00  0.00     0.077 C 
ATOM      2  C1  UNL d   1      -3.046   1.280  -1.050  0.00  0.00    -0.074 A 
ATOM      3  C2  UNL d   1      -3.042  -0.102  -1.268  0.00  0.00    -0.005 A 
ATOM      4  C3  UNL d   1      -3.728  -0.644  -2.355  0.00  0.00     0.006 A 
ATOM      5  C4  UNL d   1      -4.423   0.188  -3.233  0.00  0.00    -0.005 A 
ATOM      6  C5  UNL d   1      -4.439   1.572  -3.030  0.00  0.00    -0.074 A 
ATOM      7  C6  UNL d   1      -5.189   2.480  -3.959  0.00  0.00     0.077 C 
ATOM      8  C7  UNL d   1      -3.753   2.109  -1.932  0.00  0.00    -0.001 A 
ENDROOT
TORSDOF 0
ENDMDL
