MODEL 1
REMARK minimizedAffinity 6.29315281
REMARK minimizedRMSD -1
REMARK  0 active torsions:
REMARK  status: ('A' for Active; 'I' for Inactive)
ROOT
ATOM      1  C   UNL d   1       2.284  -1.471   0.591  0.00  0.00     0.077 C 
ATOM      2  C1  UNL d   1       1.680  -1.683   1.947  0.00  0.00    -0.074 A 
ATOM      3  C2  UNL d   1       1.244  -2.949   2.351  0.00  0.00    -0.005 A 
ATOM      4  C3  UNL d   1       0.692  -3.132   3.619  0.00  0.00     0.006 A 
ATOM      5  C4  UNL d   1       0.571  -2.052   4.495  0.00  0.00    -0.005 A 
ATOM      6  C5  UNL d   1       1.001  -0.779   4.109  0.00  0.00    -0.074 A 
ATOM      7  C6  UNL d   1       0.887   0.390   5.041  0.00  0.00     0.077 C 
ATOM      8  C7  UNL d   1       1.561  -0.605   2.836  0.00  0.00    -0.001 A 
ENDROOT
TORSDOF 0
ENDMDL
