MODEL 1
REMARK minimizedAffinity 3.1545651
REMARK minimizedRMSD -1
REMARK  0 active torsions:
REMARK  status: ('A' for Active; 'I' for Inactive)
ROOT
ATOM      1  C   UNL d   1       3.626  -3.586   2.727  0.00  0.00     0.077 C 
ATOM      2  C1  UNL d   1       2.902  -2.280   2.594  0.00  0.00    -0.074 A 
ATOM      3  C2  UNL d   1       1.795  -1.986   3.396  0.00  0.00    -0.005 A 
ATOM      4  C3  UNL d   1       1.137  -0.763   3.268  0.00  0.00     0.006 A 
ATOM      5  C4  UNL d   1       1.580   0.178   2.337  0.00  0.00    -0.005 A 
ATOM      6  C5  UNL d   1       2.686  -0.097   1.527  0.00  0.00    -0.074 A 
ATOM      7  C6  UNL d   1       3.181   0.908   0.529  0.00  0.00     0.077 C 
ATOM      8  C7  UNL d   1       3.346  -1.326   1.667  0.00  0.00    -0.001 A 
ENDROOT
TORSDOF 0
ENDMDL
