MODEL 1
REMARK minimizedAffinity 4.71828032
REMARK minimizedRMSD -1
REMARK  0 active torsions:
REMARK  status: ('A' for Active; 'I' for Inactive)
ROOT
ATOM      1  C1  DEN d   1       3.681   2.444   4.718  0.00  0.00     0.130 A 
ATOM      2  C2  DEN d   1       2.932   2.650   3.481  0.00  0.00    -0.031 A 
ATOM      3  C3  DEN d   1       3.298   3.975   2.942  0.00  0.00     0.027 A 
ATOM      4  C4  DEN d   1       4.946   5.716   3.894  0.00  0.00     0.027 A 
ATOM      5  C5  DEN d   1       5.811   5.995   4.929  0.00  0.00    -0.003 A 
ATOM      6  C6  DEN d   1       5.999   5.131   5.975  0.00  0.00     0.001 A 
ATOM      7  C7  DEN d   1       5.347   3.926   5.987  0.00  0.00     0.017 A 
ATOM      8  C8  DEN d   1       4.468   3.642   4.950  0.00  0.00    -0.094 A 
ATOM      9  C9  DEN d   1       4.300   4.523   3.895  0.00  0.00    -0.072 A 
ENDROOT
TORSDOF 0
ENDMDL
