MODEL 1
REMARK minimizedAffinity 8.42822456
REMARK minimizedRMSD -1
REMARK  0 active torsions:
REMARK  status: ('A' for Active; 'I' for Inactive)
ROOT
ATOM      1  C1  DEN d   1      -5.416   2.523   0.845  0.00  0.00     0.130 A 
ATOM      2  C2  DEN d   1      -5.540   1.070   0.927  0.00  0.00    -0.031 A 
ATOM      3  C3  DEN d   1      -5.794   0.557  -0.434  0.00  0.00     0.027 A 
ATOM      4  C4  DEN d   1      -6.000   1.863  -2.649  0.00  0.00     0.027 A 
ATOM      5  C5  DEN d   1      -5.979   3.117  -3.219  0.00  0.00    -0.003 A 
ATOM      6  C6  DEN d   1      -5.804   4.254  -2.475  0.00  0.00     0.001 A 
ATOM      7  C7  DEN d   1      -5.598   4.157  -1.125  0.00  0.00     0.017 A 
ATOM      8  C8  DEN d   1      -5.625   2.896  -0.542  0.00  0.00    -0.094 A 
ATOM      9  C9  DEN d   1      -5.791   1.758  -1.312  0.00  0.00    -0.072 A 
ENDROOT
TORSDOF 0
ENDMDL
