MODEL 1
REMARK minimizedAffinity 21.8647251
REMARK minimizedRMSD -1
REMARK  0 active torsions:
REMARK  status: ('A' for Active; 'I' for Inactive)
ROOT
ATOM      1  C1  DEN d   1       0.446  -5.776   5.949  0.00  0.00     0.130 A 
ATOM      2  C2  DEN d   1       1.889  -5.995   5.992  0.00  0.00    -0.031 A 
ATOM      3  C3  DEN d   1       2.544  -4.858   5.314  0.00  0.00     0.027 A 
ATOM      4  C4  DEN d   1       1.468  -2.788   4.214  0.00  0.00     0.027 A 
ATOM      5  C5  DEN d   1       0.275  -2.166   3.918  0.00  0.00    -0.003 A 
ATOM      6  C6  DEN d   1      -0.936  -2.716   4.245  0.00  0.00     0.001 A 
ATOM      7  C7  DEN d   1      -0.980  -3.903   4.929  0.00  0.00     0.017 A 
ATOM      8  C8  DEN d   1       0.219  -4.539   5.225  0.00  0.00    -0.094 A 
ATOM      9  C9  DEN d   1       1.433  -3.961   4.896  0.00  0.00    -0.072 A 
ENDROOT
TORSDOF 0
ENDMDL
