MODEL 1
REMARK minimizedAffinity 10.810113
REMARK minimizedRMSD -1
REMARK  0 active torsions:
REMARK  status: ('A' for Active; 'I' for Inactive)
ROOT
ATOM      1  C1  DEN d   1       2.200   1.206   1.124  0.00  0.00     0.130 A 
ATOM      2  C2  DEN d   1       2.574   2.570   0.760  0.00  0.00    -0.031 A 
ATOM      3  C3  DEN d   1       3.095   2.546  -0.622  0.00  0.00     0.027 A 
ATOM      4  C4  DEN d   1       3.353   0.542  -2.225  0.00  0.00     0.027 A 
ATOM      5  C5  DEN d   1       3.181  -0.818  -2.358  0.00  0.00    -0.003 A 
ATOM      6  C6  DEN d   1       2.706  -1.598  -1.337  0.00  0.00     0.001 A 
ATOM      7  C7  DEN d   1       2.343  -1.016  -0.151  0.00  0.00     0.017 A 
ATOM      8  C8  DEN d   1       2.521   0.354  -0.006  0.00  0.00    -0.094 A 
ATOM      9  C9  DEN d   1       2.991   1.126  -1.055  0.00  0.00    -0.072 A 
ENDROOT
TORSDOF 0
ENDMDL
