MODEL 1
REMARK minimizedAffinity 18.2780457
REMARK minimizedRMSD -1
REMARK  0 active torsions:
REMARK  status: ('A' for Active; 'I' for Inactive)
ROOT
ATOM      1  C1  DEN d   1       0.752  -0.237   5.083  0.00  0.00     0.130 A 
ATOM      2  C2  DEN d   1       0.348   0.362   3.814  0.00  0.00    -0.031 A 
ATOM      3  C3  DEN d   1      -0.304  -0.686   3.002  0.00  0.00     0.027 A 
ATOM      4  C4  DEN d   1      -0.729  -3.162   3.587  0.00  0.00     0.027 A 
ATOM      5  C5  DEN d   1      -0.554  -4.135   4.546  0.00  0.00    -0.003 A 
ATOM      6  C6  DEN d   1       0.093  -3.887   5.727  0.00  0.00     0.001 A 
ATOM      7  C7  DEN d   1       0.549  -2.625   6.000  0.00  0.00     0.017 A 
ATOM      8  C8  DEN d   1       0.383  -1.640   5.035  0.00  0.00    -0.094 A 
ATOM      9  C9  DEN d   1      -0.284  -1.907   3.851  0.00  0.00    -0.072 A 
ENDROOT
TORSDOF 0
ENDMDL
