MODEL 1
REMARK minimizedAffinity 12.5642252
REMARK minimizedRMSD -1
REMARK  0 active torsions:
REMARK  status: ('A' for Active; 'I' for Inactive)
ROOT
ATOM      1  C1  DEN d   1       1.950   0.194   0.354  0.00  0.00     0.130 A 
ATOM      2  C2  DEN d   1       2.887   0.923  -0.496  0.00  0.00    -0.031 A 
ATOM      3  C3  DEN d   1       3.304   2.142   0.226  0.00  0.00     0.027 A 
ATOM      4  C4  DEN d   1       2.595   2.965   2.565  0.00  0.00     0.027 A 
ATOM      5  C5  DEN d   1       1.809   2.689   3.662  0.00  0.00    -0.003 A 
ATOM      6  C6  DEN d   1       0.995   1.588   3.718  0.00  0.00     0.001 A 
ATOM      7  C7  DEN d   1       0.984   0.699   2.677  0.00  0.00     0.017 A 
ATOM      8  C8  DEN d   1       1.768   0.975   1.564  0.00  0.00    -0.094 A 
ATOM      9  C9  DEN d   1       2.593   2.086   1.531  0.00  0.00    -0.072 A 
ENDROOT
TORSDOF 0
ENDMDL
