MODEL 1
REMARK minimizedAffinity 22.6473522
REMARK minimizedRMSD -1
REMARK  0 active torsions:
REMARK  status: ('A' for Active; 'I' for Inactive)
ROOT
ATOM      1  C1  DEN d   1       4.269   1.113  -1.814  0.00  0.00     0.130 A 
ATOM      2  C2  DEN d   1       4.958   2.398  -1.738  0.00  0.00    -0.031 A 
ATOM      3  C3  DEN d   1       4.116   3.323  -0.952  0.00  0.00     0.027 A 
ATOM      4  C4  DEN d   1       1.826   2.889   0.153  0.00  0.00     0.027 A 
ATOM      5  C5  DEN d   1       0.835   1.954   0.352  0.00  0.00    -0.003 A 
ATOM      6  C6  DEN d   1       0.903   0.694  -0.180  0.00  0.00     0.001 A 
ATOM      7  C7  DEN d   1       2.006   0.320  -0.902  0.00  0.00     0.017 A 
ATOM      8  C8  DEN d   1       3.006   1.260  -1.113  0.00  0.00    -0.094 A 
ATOM      9  C9  DEN d   1       2.925   2.525  -0.556  0.00  0.00    -0.072 A 
ENDROOT
TORSDOF 0
ENDMDL
