MODEL 1
REMARK minimizedAffinity 7.68187237
REMARK minimizedRMSD -1
REMARK  0 active torsions:
REMARK  status: ('A' for Active; 'I' for Inactive)
ROOT
ATOM      1  C1  DEN d   1       2.680   1.282  -0.358  0.00  0.00     0.130 A 
ATOM      2  C2  DEN d   1       3.007   1.845   0.949  0.00  0.00    -0.031 A 
ATOM      3  C3  DEN d   1       2.857   0.776   1.957  0.00  0.00     0.027 A 
ATOM      4  C4  DEN d   1       2.162  -1.685   1.621  0.00  0.00     0.027 A 
ATOM      5  C5  DEN d   1       1.775  -2.625   0.692  0.00  0.00    -0.003 A 
ATOM      6  C6  DEN d   1       1.631  -2.323  -0.636  0.00  0.00     0.001 A 
ATOM      7  C7  DEN d   1       1.919  -1.059  -1.080  0.00  0.00     0.017 A 
ATOM      8  C8  DEN d   1       2.303  -0.104  -0.148  0.00  0.00    -0.094 A 
ATOM      9  C9  DEN d   1       2.455  -0.432   1.189  0.00  0.00    -0.072 A 
ENDROOT
TORSDOF 0
ENDMDL
