MODEL 1
REMARK minimizedAffinity 10.914259
REMARK minimizedRMSD -1
REMARK  0 active torsions:
REMARK  status: ('A' for Active; 'I' for Inactive)
ROOT
ATOM      1  C1  DEN d   1      -5.636   4.035  -0.279  0.00  0.00     0.130 A 
ATOM      2  C2  DEN d   1      -5.156   2.656  -0.249  0.00  0.00    -0.031 A 
ATOM      3  C3  DEN d   1      -4.884   2.299   1.158  0.00  0.00     0.027 A 
ATOM      4  C4  DEN d   1      -5.163   3.737   3.281  0.00  0.00     0.027 A 
ATOM      5  C5  DEN d   1      -5.530   4.977   3.757  0.00  0.00    -0.003 A 
ATOM      6  C6  DEN d   1      -5.922   5.992   2.925  0.00  0.00     0.001 A 
ATOM      7  C7  DEN d   1      -6.000   5.771   1.575  0.00  0.00     0.017 A 
ATOM      8  C8  DEN d   1      -5.624   4.526   1.087  0.00  0.00    -0.094 A 
ATOM      9  C9  DEN d   1      -5.243   3.509   1.945  0.00  0.00    -0.072 A 
ENDROOT
TORSDOF 0
ENDMDL
