MODEL 1
REMARK minimizedAffinity 2.43616414
REMARK minimizedRMSD -1
REMARK  0 active torsions:
REMARK  status: ('A' for Active; 'I' for Inactive)
ROOT
ATOM      1  C1  DEN d   1       1.110  -1.138   1.020  0.00  0.00     0.130 A 
ATOM      2  C2  DEN d   1       0.757  -2.538   0.802  0.00  0.00    -0.031 A 
ATOM      3  C3  DEN d   1       1.580  -3.048  -0.312  0.00  0.00     0.027 A 
ATOM      4  C4  DEN d   1       3.362  -1.814  -1.711  0.00  0.00     0.027 A 
ATOM      5  C5  DEN d   1       4.000  -0.609  -1.904  0.00  0.00    -0.003 A 
ATOM      6  C6  DEN d   1       3.699   0.504  -1.165  0.00  0.00     0.001 A 
ATOM      7  C7  DEN d   1       2.764   0.423  -0.167  0.00  0.00     0.017 A 
ATOM      8  C8  DEN d   1       2.111  -0.787   0.029  0.00  0.00    -0.094 A 
ATOM      9  C9  DEN d   1       2.439  -1.904  -0.720  0.00  0.00    -0.072 A 
ENDROOT
TORSDOF 0
ENDMDL
