MODEL 1
REMARK minimizedAffinity 8.25022697
REMARK minimizedRMSD -1
REMARK  0 active torsions:
REMARK  status: ('A' for Active; 'I' for Inactive)
ROOT
ATOM      1  C1  DEN d   1       2.944  -1.157  -1.304  0.00  0.00     0.130 A 
ATOM      2  C2  DEN d   1       2.014  -1.479  -0.225  0.00  0.00    -0.031 A 
ATOM      3  C3  DEN d   1       1.900  -0.294   0.649  0.00  0.00     0.027 A 
ATOM      4  C4  DEN d   1       3.064   1.998   0.435  0.00  0.00     0.027 A 
ATOM      5  C5  DEN d   1       3.951   2.741  -0.312  0.00  0.00    -0.003 A 
ATOM      6  C6  DEN d   1       4.586   2.229  -1.413  0.00  0.00     0.001 A 
ATOM      7  C7  DEN d   1       4.308   0.953  -1.825  0.00  0.00     0.017 A 
ATOM      8  C8  DEN d   1       3.420   0.195  -1.073  0.00  0.00    -0.094 A 
ATOM      9  C9  DEN d   1       2.779   0.734   0.030  0.00  0.00    -0.072 A 
ENDROOT
TORSDOF 0
ENDMDL
