MODEL 1
REMARK minimizedAffinity 5.94721937
REMARK minimizedRMSD -1
REMARK  0 active torsions:
REMARK  status: ('A' for Active; 'I' for Inactive)
ROOT
ATOM      1  C1  DEN d   1      -5.901   0.821  -1.662  0.00  0.00     0.130 A 
ATOM      2  C2  DEN d   1      -5.088   0.418  -0.518  0.00  0.00    -0.031 A 
ATOM      3  C3  DEN d   1      -3.691   0.281  -0.977  0.00  0.00     0.027 A 
ATOM      4  C4  DEN d   1      -2.713   0.657  -3.334  0.00  0.00     0.027 A 
ATOM      5  C5  DEN d   1      -3.016   0.997  -4.634  0.00  0.00    -0.003 A 
ATOM      6  C6  DEN d   1      -4.297   1.266  -5.039  0.00  0.00     0.001 A 
ATOM      7  C7  DEN d   1      -5.316   1.244  -4.124  0.00  0.00     0.017 A 
ATOM      8  C8  DEN d   1      -5.020   0.896  -2.813  0.00  0.00    -0.094 A 
ATOM      9  C9  DEN d   1      -3.717   0.639  -2.421  0.00  0.00    -0.072 A 
ENDROOT
TORSDOF 0
ENDMDL
