MODEL 1
REMARK minimizedAffinity 20.6392822
REMARK minimizedRMSD -1
REMARK  0 active torsions:
REMARK  status: ('A' for Active; 'I' for Inactive)
ROOT
ATOM      1  C1  DEN d   1      -2.060   1.037  -3.600  0.00  0.00     0.130 A 
ATOM      2  C2  DEN d   1      -2.226   0.411  -2.291  0.00  0.00    -0.031 A 
ATOM      3  C3  DEN d   1      -3.615  -0.081  -2.193  0.00  0.00     0.027 A 
ATOM      4  C4  DEN d   1      -5.513   0.061  -3.935  0.00  0.00     0.027 A 
ATOM      5  C5  DEN d   1      -5.852   0.512  -5.191  0.00  0.00    -0.003 A 
ATOM      6  C6  DEN d   1      -4.969   1.195  -5.985  0.00  0.00     0.001 A 
ATOM      7  C7  DEN d   1      -3.688   1.406  -5.549  0.00  0.00     0.017 A 
ATOM      8  C8  DEN d   1      -3.340   0.960  -4.280  0.00  0.00    -0.094 A 
ATOM      9  C9  DEN d   1      -4.244   0.261  -3.498  0.00  0.00    -0.072 A 
ENDROOT
TORSDOF 0
ENDMDL
