MODEL 1
REMARK minimizedAffinity 3.72587705
REMARK minimizedRMSD -1
REMARK  0 active torsions:
REMARK  status: ('A' for Active; 'I' for Inactive)
ROOT
ATOM      1  C   UNL d   1      -2.215   2.731   0.202  0.00  0.00    -0.002 A 
ATOM      2  C1  UNL d   1      -1.767   2.684   1.515  0.00  0.00     0.010 A 
ATOM      3  C2  UNL d   1      -0.794   1.759   1.901  0.00  0.00     0.041 A 
ATOM      4  C3  UNL d   1      -0.273   0.875   0.936  0.00  0.00    -0.075 A 
ATOM      5  S   UNL d   1       0.926  -0.340   1.179  0.00  0.00     0.015 SA
ATOM      6  C4  UNL d   1       0.872  -0.825  -0.454  0.00  0.00     0.022 A 
ATOM      7  C5  UNL d   1      -0.033  -0.089  -1.181  0.00  0.00     0.026 A 
ATOM      8  C6  UNL d   1      -0.707   0.904  -0.392  0.00  0.00    -0.082 A 
ATOM      9  C7  UNL d   1      -1.695   1.852  -0.752  0.00  0.00     0.045 A 
ENDROOT
TORSDOF 0
ENDMDL
