MODEL 1
REMARK minimizedAffinity -3.18682098
REMARK minimizedRMSD -1
REMARK  0 active torsions:
REMARK  status: ('A' for Active; 'I' for Inactive)
ROOT
ATOM      1  C   UNL d   1      -2.248   1.769   1.444  0.00  0.00    -0.002 A 
ATOM      2  C1  UNL d   1      -2.076   2.378   0.208  0.00  0.00     0.010 A 
ATOM      3  C2  UNL d   1      -1.127   1.896  -0.695  0.00  0.00     0.041 A 
ATOM      4  C3  UNL d   1      -0.347   0.780  -0.333  0.00  0.00    -0.075 A 
ATOM      5  S   UNL d   1       0.875   0.015  -1.279  0.00  0.00     0.015 SA
ATOM      6  C4  UNL d   1       1.198  -1.138  -0.066  0.00  0.00     0.022 A 
ATOM      7  C5  UNL d   1       0.401  -0.959   1.040  0.00  0.00     0.026 A 
ATOM      8  C6  UNL d   1      -0.502   0.149   0.904  0.00  0.00    -0.082 A 
ATOM      9  C7  UNL d   1      -1.473   0.662   1.799  0.00  0.00     0.045 A 
ENDROOT
TORSDOF 0
ENDMDL
