MODEL 1
REMARK minimizedAffinity -0.680910945
REMARK minimizedRMSD -1
REMARK  0 active torsions:
REMARK  status: ('A' for Active; 'I' for Inactive)
ROOT
ATOM      1  C   UNL d   1       0.942  -1.296   0.029  0.00  0.00    -0.002 A 
ATOM      2  C1  UNL d   1       0.718  -0.699  -1.203  0.00  0.00     0.010 A 
ATOM      3  C2  UNL d   1      -0.069   0.450  -1.303  0.00  0.00     0.041 A 
ATOM      4  C3  UNL d   1      -0.631   0.995  -0.132  0.00  0.00    -0.075 A 
ATOM      5  S   UNL d   1      -1.627   2.397  -0.012  0.00  0.00     0.015 SA
ATOM      6  C4  UNL d   1      -1.778   2.237   1.678  0.00  0.00     0.022 A 
ATOM      7  C5  UNL d   1      -1.092   1.146   2.156  0.00  0.00     0.026 A 
ATOM      8  C6  UNL d   1      -0.419   0.412   1.121  0.00  0.00    -0.082 A 
ATOM      9  C7  UNL d   1       0.383  -0.753   1.189  0.00  0.00     0.045 A 
ENDROOT
TORSDOF 0
ENDMDL
