MODEL 1
REMARK minimizedAffinity -1.48754573
REMARK minimizedRMSD -1
REMARK  0 active torsions:
REMARK  status: ('A' for Active; 'I' for Inactive)
ROOT
ATOM      1  C   UNL d   1       0.383  -0.600  -1.099  0.00  0.00    -0.002 A 
ATOM      2  C1  UNL d   1       0.963  -1.111   0.054  0.00  0.00     0.010 A 
ATOM      3  C2  UNL d   1       0.608  -0.613   1.309  0.00  0.00     0.041 A 
ATOM      4  C3  UNL d   1      -0.350   0.417   1.387  0.00  0.00    -0.075 A 
ATOM      5  S   UNL d   1      -0.940   1.182   2.815  0.00  0.00     0.015 SA
ATOM      6  C4  UNL d   1      -1.977   2.204   1.930  0.00  0.00     0.022 A 
ATOM      7  C5  UNL d   1      -1.888   1.981   0.576  0.00  0.00     0.026 A 
ATOM      8  C6  UNL d   1      -0.949   0.947   0.241  0.00  0.00    -0.082 A 
ATOM      9  C7  UNL d   1      -0.568   0.421  -1.017  0.00  0.00     0.045 A 
ENDROOT
TORSDOF 0
ENDMDL
