MODEL 1
REMARK minimizedAffinity -2.02726865
REMARK minimizedRMSD -1
REMARK  0 active torsions:
REMARK  status: ('A' for Active; 'I' for Inactive)
ROOT
ATOM      1  C   UNL d   1      -1.768   1.859   1.853  0.00  0.00    -0.002 A 
ATOM      2  C1  UNL d   1      -1.887   2.177   0.508  0.00  0.00     0.010 A 
ATOM      3  C2  UNL d   1      -1.175   1.461  -0.457  0.00  0.00     0.041 A 
ATOM      4  C3  UNL d   1      -0.337   0.407  -0.042  0.00  0.00    -0.075 A 
ATOM      5  S   UNL d   1       0.630  -0.608  -1.046  0.00  0.00     0.015 SA
ATOM      6  C4  UNL d   1       1.221  -1.489   0.287  0.00  0.00     0.022 A 
ATOM      7  C5  UNL d   1       0.705  -1.033   1.477  0.00  0.00     0.026 A 
ATOM      8  C6  UNL d   1      -0.202   0.067   1.307  0.00  0.00    -0.082 A 
ATOM      9  C7  UNL d   1      -0.935   0.813   2.260  0.00  0.00     0.045 A 
ENDROOT
TORSDOF 0
ENDMDL
