MODEL 1
REMARK minimizedAffinity 1.79457462
REMARK minimizedRMSD -1
REMARK  0 active torsions:
REMARK  status: ('A' for Active; 'I' for Inactive)
ROOT
ATOM      1  C   UNL d   1      -0.577   1.409   1.074  0.00  0.00    -0.002 A 
ATOM      2  C1  UNL d   1      -1.147   0.229   1.533  0.00  0.00     0.010 A 
ATOM      3  C2  UNL d   1      -0.758  -1.002   1.000  0.00  0.00     0.041 A 
ATOM      4  C3  UNL d   1       0.223  -1.028  -0.010  0.00  0.00    -0.075 A 
ATOM      5  S   UNL d   1       0.856  -2.418  -0.809  0.00  0.00     0.015 SA
ATOM      6  C4  UNL d   1       1.898  -1.480  -1.777  0.00  0.00     0.022 A 
ATOM      7  C5  UNL d   1       1.779  -0.137  -1.511  0.00  0.00     0.026 A 
ATOM      8  C6  UNL d   1       0.812   0.146  -0.488  0.00  0.00    -0.082 A 
ATOM      9  C7  UNL d   1       0.396   1.378   0.072  0.00  0.00     0.045 A 
ENDROOT
TORSDOF 0
ENDMDL
