MODEL 1
REMARK minimizedAffinity -4.82999182
REMARK minimizedRMSD -1
REMARK  0 active torsions:
REMARK  status: ('A' for Active; 'I' for Inactive)
ROOT
ATOM      1  C   UNL d   1      -1.930   2.457   0.474  0.00  0.00    -0.002 A 
ATOM      2  C1  UNL d   1      -1.795   2.230   1.836  0.00  0.00     0.010 A 
ATOM      3  C2  UNL d   1      -0.980   1.198   2.307  0.00  0.00     0.041 A 
ATOM      4  C3  UNL d   1      -0.294   0.393   1.376  0.00  0.00    -0.075 A 
ATOM      5  S   UNL d   1       0.760  -0.927   1.722  0.00  0.00     0.015 SA
ATOM      6  C4  UNL d   1       1.057  -1.219   0.069  0.00  0.00     0.022 A 
ATOM      7  C5  UNL d   1       0.376  -0.341  -0.741  0.00  0.00     0.026 A 
ATOM      8  C6  UNL d   1      -0.413   0.603  -0.001  0.00  0.00    -0.082 A 
ATOM      9  C7  UNL d   1      -1.248   1.656  -0.446  0.00  0.00     0.045 A 
ENDROOT
TORSDOF 0
ENDMDL
