MODEL 1
REMARK minimizedAffinity -3.56754851
REMARK minimizedRMSD -1
REMARK  0 active torsions:
REMARK  status: ('A' for Active; 'I' for Inactive)
ROOT
ATOM      1  C   UNL d   1      -1.705   0.417   2.356  0.00  0.00    -0.002 A 
ATOM      2  C1  UNL d   1      -1.946   1.642   1.752  0.00  0.00     0.010 A 
ATOM      3  C2  UNL d   1      -1.237   2.023   0.611  0.00  0.00     0.041 A 
ATOM      4  C3  UNL d   1      -0.274   1.142   0.081  0.00  0.00    -0.075 A 
ATOM      5  S   UNL d   1       0.714   1.395  -1.309  0.00  0.00     0.015 SA
ATOM      6  C4  UNL d   1       1.478  -0.118  -1.134  0.00  0.00     0.022 A 
ATOM      7  C5  UNL d   1       1.003  -0.813  -0.047  0.00  0.00     0.026 A 
ATOM      8  C6  UNL d   1      -0.015  -0.099   0.671  0.00  0.00    -0.082 A 
ATOM      9  C7  UNL d   1      -0.749  -0.455   1.828  0.00  0.00     0.045 A 
ENDROOT
TORSDOF 0
ENDMDL
