MODEL 1
REMARK minimizedAffinity -0.492593974
REMARK minimizedRMSD -1
REMARK  0 active torsions:
REMARK  status: ('A' for Active; 'I' for Inactive)
ROOT
ATOM      1  C   UNL d   1      -1.988   1.541   1.223  0.00  0.00    -0.002 A 
ATOM      2  C1  UNL d   1      -1.916   2.253   0.034  0.00  0.00     0.010 A 
ATOM      3  C2  UNL d   1      -1.002   1.889  -0.957  0.00  0.00     0.041 A 
ATOM      4  C3  UNL d   1      -0.156   0.786  -0.732  0.00  0.00    -0.075 A 
ATOM      5  S   UNL d   1       1.040   0.157  -1.803  0.00  0.00     0.015 SA
ATOM      6  C4  UNL d   1       1.482  -1.072  -0.708  0.00  0.00     0.022 A 
ATOM      7  C5  UNL d   1       0.746  -1.019   0.451  0.00  0.00     0.026 A 
ATOM      8  C6  UNL d   1      -0.211   0.052   0.457  0.00  0.00    -0.082 A 
ATOM      9  C7  UNL d   1      -1.147   0.447   1.442  0.00  0.00     0.045 A 
ENDROOT
TORSDOF 0
ENDMDL
