MODEL 1
REMARK minimizedAffinity -1.51199019
REMARK minimizedRMSD -1
REMARK  0 active torsions:
REMARK  status: ('A' for Active; 'I' for Inactive)
ROOT
ATOM      1  C   UNL d   1      -2.150   0.916   1.833  0.00  0.00    -0.002 A 
ATOM      2  C1  UNL d   1      -2.081   1.909   0.867  0.00  0.00     0.010 A 
ATOM      3  C2  UNL d   1      -1.182   1.805  -0.196  0.00  0.00     0.041 A 
ATOM      4  C3  UNL d   1      -0.347   0.673  -0.274  0.00  0.00    -0.075 A 
ATOM      5  S   UNL d   1       0.829   0.330  -1.488  0.00  0.00     0.015 SA
ATOM      6  C4  UNL d   1       1.267  -1.143  -0.752  0.00  0.00     0.022 A 
ATOM      7  C5  UNL d   1       0.544  -1.384   0.392  0.00  0.00     0.026 A 
ATOM      8  C6  UNL d   1      -0.399  -0.341   0.686  0.00  0.00    -0.082 A 
ATOM      9  C7  UNL d   1      -1.320  -0.206   1.753  0.00  0.00     0.045 A 
ENDROOT
TORSDOF 0
ENDMDL
