MODEL 1
REMARK minimizedAffinity -3.03596592
REMARK minimizedRMSD -1
REMARK  0 active torsions:
REMARK  status: ('A' for Active; 'I' for Inactive)
ROOT
ATOM      1  C   UNL d   1      -1.981   2.860   1.468  0.00  0.00    -0.002 A 
ATOM      2  C1  UNL d   1      -1.261   3.394   0.409  0.00  0.00     0.010 A 
ATOM      3  C2  UNL d   1      -0.373   2.600  -0.319  0.00  0.00     0.041 A 
ATOM      4  C3  UNL d   1      -0.219   1.246   0.039  0.00  0.00    -0.075 A 
ATOM      5  S   UNL d   1       0.811   0.084  -0.709  0.00  0.00     0.015 SA
ATOM      6  C4  UNL d   1       0.319  -1.150   0.359  0.00  0.00     0.022 A 
ATOM      7  C5  UNL d   1      -0.607  -0.703   1.271  0.00  0.00     0.026 A 
ATOM      8  C6  UNL d   1      -0.933   0.685   1.101  0.00  0.00    -0.082 A 
ATOM      9  C7  UNL d   1      -1.826   1.516   1.820  0.00  0.00     0.045 A 
ENDROOT
TORSDOF 0
ENDMDL
