MODEL 1
REMARK minimizedAffinity -0.547814667
REMARK minimizedRMSD -1
REMARK  0 active torsions:
REMARK  status: ('A' for Active; 'I' for Inactive)
ROOT
ATOM      1  C   UNL d   1      -0.837   1.035   2.827  0.00  0.00    -0.002 A 
ATOM      2  C1  UNL d   1      -1.180   2.060   1.957  0.00  0.00     0.010 A 
ATOM      3  C2  UNL d   1      -0.906   1.954   0.592  0.00  0.00     0.041 A 
ATOM      4  C3  UNL d   1      -0.276   0.790   0.111  0.00  0.00    -0.075 A 
ATOM      5  S   UNL d   1       0.157   0.440  -1.521  0.00  0.00     0.015 SA
ATOM      6  C4  UNL d   1       0.808  -1.078  -1.101  0.00  0.00     0.022 A 
ATOM      7  C5  UNL d   1       0.706  -1.328   0.247  0.00  0.00     0.026 A 
ATOM      8  C6  UNL d   1       0.079  -0.256   0.968  0.00  0.00    -0.082 A 
ATOM      9  C7  UNL d   1      -0.211  -0.119   2.346  0.00  0.00     0.045 A 
ENDROOT
TORSDOF 0
ENDMDL
