MODEL 1
REMARK minimizedAffinity -4.61584282
REMARK minimizedRMSD -1
REMARK  1 active torsions:
REMARK  status: ('A' for Active; 'I' for Inactive)
REMARK    1  A    between atoms: C1_2  and  C2_3 
ROOT
ATOM      1  C2  UNL d   1       3.728  -4.183  -0.995  0.00  0.00    -0.077 A 
ATOM      2  C3  UNL d   1       4.464  -4.510  -2.142  0.00  0.00     0.002 A 
ATOM      3  C4  UNL d   1       3.995  -4.152  -3.408  0.00  0.00     0.002 A 
ATOM      4  C5  UNL d   1       2.791  -3.463  -3.537  0.00  0.00    -0.004 A 
ATOM      5  C6  UNL d   1       2.051  -3.135  -2.402  0.00  0.00     0.002 A 
ATOM      6  C7  UNL d   1       2.518  -3.493  -1.136  0.00  0.00     0.002 A 
ENDROOT
BRANCH   1   7
ATOM      7  C1  UNL d   1       4.257  -4.524   0.374  0.00  0.00     0.055 C 
ATOM      8  C   UNL d   1       5.702  -4.075   0.537  0.00  0.00     0.019 C 
ENDBRANCH   1   7
TORSDOF 1
ENDMDL
