MODEL 1
REMARK minimizedAffinity 13.3734045
REMARK minimizedRMSD -1
REMARK  1 active torsions:
REMARK  status: ('A' for Active; 'I' for Inactive)
REMARK    1  A    between atoms: C1_2  and  C2_3 
ROOT
ATOM      1  C2  UNL d   1       1.192   1.005   2.022  0.00  0.00    -0.077 A 
ATOM      2  C3  UNL d   1       2.511   1.467   1.911  0.00  0.00     0.002 A 
ATOM      3  C4  UNL d   1       3.267   1.178   0.773  0.00  0.00     0.002 A 
ATOM      4  C5  UNL d   1       2.711   0.430  -0.263  0.00  0.00    -0.004 A 
ATOM      5  C6  UNL d   1       1.401  -0.036  -0.161  0.00  0.00     0.002 A 
ATOM      6  C7  UNL d   1       0.644   0.251   0.976  0.00  0.00     0.002 A 
ENDROOT
BRANCH   1   7
ATOM      7  C1  UNL d   1       0.359   1.357   3.227  0.00  0.00     0.055 C 
ATOM      8  C   UNL d   1      -1.033   1.821   2.821  0.00  0.00     0.019 C 
ENDBRANCH   1   7
TORSDOF 1
ENDMDL
