MODEL 1
REMARK minimizedAffinity 2.70509338
REMARK minimizedRMSD -1
REMARK  1 active torsions:
REMARK  status: ('A' for Active; 'I' for Inactive)
REMARK    1  A    between atoms: C1_2  and  C2_3 
ROOT
ATOM      1  C2  UNL d   1       1.668  -1.902  -0.993  0.00  0.00    -0.077 A 
ATOM      2  C3  UNL d   1       2.906  -1.837  -0.337  0.00  0.00     0.002 A 
ATOM      3  C4  UNL d   1       3.781  -0.778  -0.585  0.00  0.00     0.002 A 
ATOM      4  C5  UNL d   1       3.426   0.226  -1.485  0.00  0.00    -0.004 A 
ATOM      5  C6  UNL d   1       2.199   0.168  -2.143  0.00  0.00     0.002 A 
ATOM      6  C7  UNL d   1       1.323  -0.890  -1.898  0.00  0.00     0.002 A 
ENDROOT
BRANCH   1   7
ATOM      7  C1  UNL d   1       0.702  -3.018  -0.690  0.00  0.00     0.055 C 
ATOM      8  C   UNL d   1      -0.129  -3.377  -1.913  0.00  0.00     0.019 C 
ENDBRANCH   1   7
TORSDOF 1
ENDMDL
