MODEL 1
REMARK minimizedAffinity 4.84343624
REMARK minimizedRMSD -1
REMARK  1 active torsions:
REMARK  status: ('A' for Active; 'I' for Inactive)
REMARK    1  A    between atoms: C1_2  and  C2_3 
ROOT
ATOM      1  C2  UNL d   1       2.811  -0.726  -0.950  0.00  0.00    -0.077 A 
ATOM      2  C3  UNL d   1       1.750  -1.634  -1.076  0.00  0.00     0.002 A 
ATOM      3  C4  UNL d   1       0.780  -1.454  -2.064  0.00  0.00     0.002 A 
ATOM      4  C5  UNL d   1       0.862  -0.369  -2.935  0.00  0.00    -0.004 A 
ATOM      5  C6  UNL d   1       1.912   0.541  -2.816  0.00  0.00     0.002 A 
ATOM      6  C7  UNL d   1       2.883   0.362  -1.829  0.00  0.00     0.002 A 
ENDROOT
BRANCH   1   7
ATOM      7  C1  UNL d   1       3.885  -0.946   0.082  0.00  0.00     0.055 C 
ATOM      8  C   UNL d   1       4.376  -2.387   0.072  0.00  0.00     0.019 C 
ENDBRANCH   1   7
TORSDOF 1
ENDMDL
