MODEL 1
REMARK minimizedAffinity 1.04996789
REMARK minimizedRMSD -1
REMARK  1 active torsions:
REMARK  status: ('A' for Active; 'I' for Inactive)
REMARK    1  A    between atoms: C1_2  and  C2_3 
ROOT
ATOM      1  C2  UNL d   1       1.114   3.501  -0.754  0.00  0.00    -0.077 A 
ATOM      2  C3  UNL d   1       1.902   4.660  -0.734  0.00  0.00     0.002 A 
ATOM      3  C4  UNL d   1       1.327   5.900  -0.449  0.00  0.00     0.002 A 
ATOM      4  C5  UNL d   1      -0.036   5.992  -0.178  0.00  0.00    -0.004 A 
ATOM      5  C6  UNL d   1      -0.829   4.845  -0.197  0.00  0.00     0.002 A 
ATOM      6  C7  UNL d   1      -0.256   3.605  -0.483  0.00  0.00     0.002 A 
ENDROOT
BRANCH   1   7
ATOM      7  C1  UNL d   1       1.741   2.156  -1.013  0.00  0.00     0.055 C 
ATOM      8  C   UNL d   1       1.552   1.726  -2.460  0.00  0.00     0.019 C 
ENDBRANCH   1   7
TORSDOF 1
ENDMDL
