MODEL 1
REMARK minimizedAffinity -1.75193763
REMARK minimizedRMSD -1
REMARK  1 active torsions:
REMARK  status: ('A' for Active; 'I' for Inactive)
REMARK    1  A    between atoms: C1_2  and  C2_3 
ROOT
ATOM      1  C2  UNL d   1       1.581   3.590  -0.974  0.00  0.00    -0.077 A 
ATOM      2  C3  UNL d   1       0.337   3.462  -0.340  0.00  0.00     0.002 A 
ATOM      3  C4  UNL d   1      -0.349   4.594   0.104  0.00  0.00     0.002 A 
ATOM      4  C5  UNL d   1       0.198   5.861  -0.087  0.00  0.00    -0.004 A 
ATOM      5  C6  UNL d   1       1.435   5.999  -0.715  0.00  0.00     0.002 A 
ATOM      6  C7  UNL d   1       2.123   4.868  -1.158  0.00  0.00     0.002 A 
ENDROOT
BRANCH   1   7
ATOM      7  C1  UNL d   1       2.299   2.373  -1.497  0.00  0.00     0.055 C 
ATOM      8  C   UNL d   1       2.013   1.150  -0.639  0.00  0.00     0.019 C 
ENDBRANCH   1   7
TORSDOF 1
ENDMDL
