MODEL 1
REMARK minimizedAffinity 4.17908621
REMARK minimizedRMSD -1
REMARK  1 active torsions:
REMARK  status: ('A' for Active; 'I' for Inactive)
REMARK    1  A    between atoms: C1_2  and  C2_3 
ROOT
ATOM      1  C2  UNL d   1      -0.089  -2.994   1.015  0.00  0.00    -0.077 A 
ATOM      2  C3  UNL d   1      -0.355  -2.638   2.345  0.00  0.00     0.002 A 
ATOM      3  C4  UNL d   1      -1.604  -2.900   2.910  0.00  0.00     0.002 A 
ATOM      4  C5  UNL d   1      -2.596  -3.522   2.155  0.00  0.00    -0.004 A 
ATOM      5  C6  UNL d   1      -2.343  -3.877   0.830  0.00  0.00     0.002 A 
ATOM      6  C7  UNL d   1      -1.095  -3.615   0.263  0.00  0.00     0.002 A 
ENDROOT
BRANCH   1   7
ATOM      7  C1  UNL d   1       1.274  -2.757   0.419  0.00  0.00     0.055 C 
ATOM      8  C   UNL d   1       2.073  -4.049   0.334  0.00  0.00     0.019 C 
ENDBRANCH   1   7
TORSDOF 1
ENDMDL
