MODEL 1
REMARK minimizedAffinity 2.74360704
REMARK minimizedRMSD -1
REMARK  0 active torsions:
REMARK  status: ('A' for Active; 'I' for Inactive)
ROOT
ATOM      1  C1  BNZ d   1       2.715  -2.902   3.773  0.00  0.00     0.000 A 
ATOM      2  C2  BNZ d   1       2.780  -1.798   2.964  0.00  0.00     0.000 A 
ATOM      3  C3  BNZ d   1       1.641  -1.206   2.495  0.00  0.00     0.000 A 
ATOM      4  C4  BNZ d   1       0.441  -1.740   2.801  0.00  0.00     0.000 A 
ATOM      5  C5  BNZ d   1       0.359  -2.858   3.608  0.00  0.00     0.000 A 
ATOM      6  C6  BNZ d   1       1.506  -3.428   4.110  0.00  0.00     0.000 A 
ENDROOT
TORSDOF 0
ENDMDL
