MODEL 1
REMARK minimizedAffinity -0.758186102
REMARK minimizedRMSD -1
REMARK  0 active torsions:
REMARK  status: ('A' for Active; 'I' for Inactive)
ROOT
ATOM      1  C1  BNZ d   1       1.581   0.206   1.596  0.00  0.00     0.000 A 
ATOM      2  C2  BNZ d   1       1.923   0.058   2.914  0.00  0.00     0.000 A 
ATOM      3  C3  BNZ d   1       1.488  -1.019   3.633  0.00  0.00     0.000 A 
ATOM      4  C4  BNZ d   1       0.680  -1.926   3.047  0.00  0.00     0.000 A 
ATOM      5  C5  BNZ d   1       0.319  -1.787   1.722  0.00  0.00     0.000 A 
ATOM      6  C6  BNZ d   1       0.790  -0.721   0.989  0.00  0.00     0.000 A 
ENDROOT
TORSDOF 0
ENDMDL
