MODEL 1
REMARK minimizedAffinity 3.41840124
REMARK minimizedRMSD -1
REMARK  0 active torsions:
REMARK  status: ('A' for Active; 'I' for Inactive)
ROOT
ATOM      1  C1  BNZ d   1       2.132  -0.617   3.553  0.00  0.00     0.000 A 
ATOM      2  C2  BNZ d   1       1.795  -0.249   2.278  0.00  0.00     0.000 A 
ATOM      3  C3  BNZ d   1       1.084  -1.092   1.471  0.00  0.00     0.000 A 
ATOM      4  C4  BNZ d   1       0.746  -2.316   1.925  0.00  0.00     0.000 A 
ATOM      5  C5  BNZ d   1       1.087  -2.706   3.205  0.00  0.00     0.000 A 
ATOM      6  C6  BNZ d   1       1.768  -1.839   4.028  0.00  0.00     0.000 A 
ENDROOT
TORSDOF 0
ENDMDL
