MODEL 1
REMARK minimizedAffinity -1.85238659
REMARK minimizedRMSD -1
REMARK  0 active torsions:
REMARK  status: ('A' for Active; 'I' for Inactive)
ROOT
ATOM      1  C1  BNZ d   1      -6.000   0.446  -0.067  0.00  0.00     0.000 A 
ATOM      2  C2  BNZ d   1      -5.702   0.843   1.209  0.00  0.00     0.000 A 
ATOM      3  C3  BNZ d   1      -4.846   1.884   1.436  0.00  0.00     0.000 A 
ATOM      4  C4  BNZ d   1      -4.258   2.500   0.390  0.00  0.00     0.000 A 
ATOM      5  C5  BNZ d   1      -4.541   2.105  -0.902  0.00  0.00     0.000 A 
ATOM      6  C6  BNZ d   1      -5.433   1.083  -1.129  0.00  0.00     0.000 A 
ENDROOT
TORSDOF 0
ENDMDL
