MODEL 1
REMARK minimizedAffinity -2.29790092
REMARK minimizedRMSD -1
REMARK  0 active torsions:
REMARK  status: ('A' for Active; 'I' for Inactive)
ROOT
ATOM      1  C1  BNZ d   1      -4.864   1.118   1.258  0.00  0.00     0.000 A 
ATOM      2  C2  BNZ d   1      -4.857   2.457   1.545  0.00  0.00     0.000 A 
ATOM      3  C3  BNZ d   1      -5.439   3.357   0.698  0.00  0.00     0.000 A 
ATOM      4  C4  BNZ d   1      -5.993   2.923  -0.453  0.00  0.00     0.000 A 
ATOM      5  C5  BNZ d   1      -6.000   1.578  -0.761  0.00  0.00     0.000 A 
ATOM      6  C6  BNZ d   1      -5.447   0.670   0.113  0.00  0.00     0.000 A 
ENDROOT
TORSDOF 0
ENDMDL
