MODEL 1
REMARK minimizedAffinity 2.88620901
REMARK minimizedRMSD -1
REMARK  0 active torsions:
REMARK  status: ('A' for Active; 'I' for Inactive)
ROOT
ATOM      1  C1  BNZ d   1       2.594  -3.747  -1.800  0.00  0.00     0.000 A 
ATOM      2  C2  BNZ d   1       1.244  -3.809  -1.580  0.00  0.00     0.000 A 
ATOM      3  C3  BNZ d   1       0.460  -2.698  -1.721  0.00  0.00     0.000 A 
ATOM      4  C4  BNZ d   1       1.032  -1.519  -2.043  0.00  0.00     0.000 A 
ATOM      5  C5  BNZ d   1       2.393  -1.439  -2.258  0.00  0.00     0.000 A 
ATOM      6  C6  BNZ d   1       3.173  -2.568  -2.154  0.00  0.00     0.000 A 
ENDROOT
TORSDOF 0
ENDMDL
