MODEL 1
REMARK minimizedAffinity -1.04575813
REMARK minimizedRMSD -1
REMARK  0 active torsions:
REMARK  status: ('A' for Active; 'I' for Inactive)
ROOT
ATOM      1  C1  BNZ d   1      -5.379   4.135   0.611  0.00  0.00     0.000 A 
ATOM      2  C2  BNZ d   1      -4.264   3.772   1.319  0.00  0.00     0.000 A 
ATOM      3  C3  BNZ d   1      -3.753   2.508   1.219  0.00  0.00     0.000 A 
ATOM      4  C4  BNZ d   1      -4.378   1.599   0.443  0.00  0.00     0.000 A 
ATOM      5  C5  BNZ d   1      -5.508   1.948  -0.269  0.00  0.00     0.000 A 
ATOM      6  C6  BNZ d   1      -5.998   3.232  -0.196  0.00  0.00     0.000 A 
ENDROOT
TORSDOF 0
ENDMDL
