MODEL 1
REMARK minimizedAffinity 3.67266369
REMARK minimizedRMSD -1
REMARK  0 active torsions:
REMARK  status: ('A' for Active; 'I' for Inactive)
ROOT
ATOM      1  C1  BNZ d   1       1.586  -0.746   2.549  0.00  0.00     0.000 A 
ATOM      2  C2  BNZ d   1       1.045  -0.671   1.293  0.00  0.00     0.000 A 
ATOM      3  C3  BNZ d   1       0.510  -1.777   0.694  0.00  0.00     0.000 A 
ATOM      4  C4  BNZ d   1       0.554  -2.963   1.333  0.00  0.00     0.000 A 
ATOM      5  C5  BNZ d   1       1.105  -3.058   2.595  0.00  0.00     0.000 A 
ATOM      6  C6  BNZ d   1       1.607  -1.935   3.212  0.00  0.00     0.000 A 
ENDROOT
TORSDOF 0
ENDMDL
