MODEL 1
REMARK minimizedAffinity -2.08154988
REMARK minimizedRMSD -1
REMARK  0 active torsions:
REMARK  status: ('A' for Active; 'I' for Inactive)
ROOT
ATOM      1  C1  BNZ d   1      -4.940   1.400   1.201  0.00  0.00     0.000 A 
ATOM      2  C2  BNZ d   1      -5.492   0.956   0.029  0.00  0.00     0.000 A 
ATOM      3  C3  BNZ d   1      -6.000   1.838  -0.884  0.00  0.00     0.000 A 
ATOM      4  C4  BNZ d   1      -5.991   3.158  -0.606  0.00  0.00     0.000 A 
ATOM      5  C5  BNZ d   1      -5.447   3.621   0.575  0.00  0.00     0.000 A 
ATOM      6  C6  BNZ d   1      -4.902   2.733   1.474  0.00  0.00     0.000 A 
ENDROOT
TORSDOF 0
ENDMDL
