MODEL 1
REMARK minimizedAffinity -0.0808171704
REMARK minimizedRMSD -1
REMARK  0 active torsions:
REMARK  status: ('A' for Active; 'I' for Inactive)
ROOT
ATOM      1  C1  BNZ d   1      -6.000   3.695   0.260  0.00  0.00     0.000 A 
ATOM      2  C2  BNZ d   1      -6.000   2.760  -0.740  0.00  0.00     0.000 A 
ATOM      3  C3  BNZ d   1      -5.653   1.462  -0.486  0.00  0.00     0.000 A 
ATOM      4  C4  BNZ d   1      -5.267   1.111   0.758  0.00  0.00     0.000 A 
ATOM      5  C5  BNZ d   1      -5.253   2.044   1.775  0.00  0.00     0.000 A 
ATOM      6  C6  BNZ d   1      -5.641   3.340   1.524  0.00  0.00     0.000 A 
ENDROOT
TORSDOF 0
ENDMDL
