MODEL 1
REMARK minimizedAffinity -1.37949502
REMARK minimizedRMSD -1
REMARK  0 active torsions:
REMARK  status: ('A' for Active; 'I' for Inactive)
ROOT
ATOM      1  C1  BNZ d   1      -5.244  -3.304  -4.894  0.00  0.00     0.000 A 
ATOM      2  C2  BNZ d   1      -5.754  -3.897  -3.770  0.00  0.00     0.000 A 
ATOM      3  C3  BNZ d   1      -5.993  -5.242  -3.735  0.00  0.00     0.000 A 
ATOM      4  C4  BNZ d   1      -5.760  -5.985  -4.836  0.00  0.00     0.000 A 
ATOM      5  C5  BNZ d   1      -5.255  -5.401  -5.980  0.00  0.00     0.000 A 
ATOM      6  C6  BNZ d   1      -4.978  -4.053  -5.999  0.00  0.00     0.000 A 
ENDROOT
TORSDOF 0
ENDMDL
