MODEL 1
REMARK minimizedAffinity -1.68979084
REMARK minimizedRMSD -1
REMARK  1 active torsions:
REMARK  status: ('A' for Active; 'I' for Inactive)
REMARK    1  A    between atoms: C1_2  and  C2_3 
ROOT
ATOM      1  C2  UNL d   1       0.458  -1.411  -0.444  0.00  0.00    -0.077 A 
ATOM      2  C3  UNL d   1      -0.135  -0.362   0.272  0.00  0.00     0.002 A 
ATOM      3  C4  UNL d   1      -0.493   0.821  -0.376  0.00  0.00     0.002 A 
ATOM      4  C5  UNL d   1      -0.267   0.965  -1.743  0.00  0.00    -0.004 A 
ATOM      5  C6  UNL d   1       0.324  -0.072  -2.464  0.00  0.00     0.002 A 
ATOM      6  C7  UNL d   1       0.684  -1.255  -1.817  0.00  0.00     0.002 A 
ENDROOT
BRANCH   1   7
ATOM      7  C1  UNL d   1       0.800  -2.708   0.243  0.00  0.00     0.055 C 
ATOM      8  C   UNL d   1      -0.364  -3.686   0.191  0.00  0.00     0.019 C 
ENDBRANCH   1   7
TORSDOF 1
ENDMDL
