MODEL 1
REMARK minimizedAffinity -4.10238361
REMARK minimizedRMSD -1
REMARK  1 active torsions:
REMARK  status: ('A' for Active; 'I' for Inactive)
REMARK    1  A    between atoms: C1_2  and  C2_3 
ROOT
ATOM      1  C2  UNL d   1       0.721   0.864   0.127  0.00  0.00    -0.077 A 
ATOM      2  C3  UNL d   1      -0.080   1.952  -0.250  0.00  0.00     0.002 A 
ATOM      3  C4  UNL d   1       0.324   3.258   0.034  0.00  0.00     0.002 A 
ATOM      4  C5  UNL d   1       1.530   3.489   0.692  0.00  0.00    -0.004 A 
ATOM      5  C6  UNL d   1       2.333   2.414   1.072  0.00  0.00     0.002 A 
ATOM      6  C7  UNL d   1       1.930   1.108   0.790  0.00  0.00     0.002 A 
ENDROOT
BRANCH   1   7
ATOM      7  C1  UNL d   1       0.311  -0.543  -0.222  0.00  0.00     0.055 C 
ATOM      8  C   UNL d   1      -0.333  -1.242   0.966  0.00  0.00     0.019 C 
ENDBRANCH   1   7
TORSDOF 1
ENDMDL
