MODEL 1
REMARK minimizedAffinity -1.55084765
REMARK minimizedRMSD -1
REMARK  1 active torsions:
REMARK  status: ('A' for Active; 'I' for Inactive)
REMARK    1  A    between atoms: C1_2  and  C2_3 
ROOT
ATOM      1  C2  UNL d   1       0.628   2.497   0.026  0.00  0.00    -0.077 A 
ATOM      2  C3  UNL d   1       2.012   2.279   0.006  0.00  0.00     0.002 A 
ATOM      3  C4  UNL d   1       2.861   3.054   0.798  0.00  0.00     0.002 A 
ATOM      4  C5  UNL d   1       2.335   4.049   1.619  0.00  0.00    -0.004 A 
ATOM      5  C6  UNL d   1       0.960   4.275   1.645  0.00  0.00     0.002 A 
ATOM      6  C7  UNL d   1       0.109   3.502   0.853  0.00  0.00     0.002 A 
ENDROOT
BRANCH   1   7
ATOM      7  C1  UNL d   1      -0.294   1.630  -0.790  0.00  0.00     0.055 C 
ATOM      8  C   UNL d   1       0.080   0.159  -0.673  0.00  0.00     0.019 C 
ENDBRANCH   1   7
TORSDOF 1
ENDMDL
