MODEL 1
REMARK minimizedAffinity -2.96066928
REMARK minimizedRMSD -1
REMARK  1 active torsions:
REMARK  status: ('A' for Active; 'I' for Inactive)
REMARK    1  A    between atoms: C1_2  and  C2_3 
ROOT
ATOM      1  C2  UNL d   1       0.377   0.462   0.391  0.00  0.00    -0.077 A 
ATOM      2  C3  UNL d   1       0.082   0.292  -0.969  0.00  0.00     0.002 A 
ATOM      3  C4  UNL d   1       0.172   1.370  -1.851  0.00  0.00     0.002 A 
ATOM      4  C5  UNL d   1       0.561   2.624  -1.385  0.00  0.00    -0.004 A 
ATOM      5  C6  UNL d   1       0.854   2.804  -0.033  0.00  0.00     0.002 A 
ATOM      6  C7  UNL d   1       0.763   1.727   0.850  0.00  0.00     0.002 A 
ENDROOT
BRANCH   1   7
ATOM      7  C1  UNL d   1       0.328  -0.711   1.335  0.00  0.00     0.055 C 
ATOM      8  C   UNL d   1      -0.700  -1.740   0.887  0.00  0.00     0.019 C 
ENDBRANCH   1   7
TORSDOF 1
ENDMDL
