MODEL 1
REMARK minimizedAffinity -5.78179359
REMARK minimizedRMSD -1
REMARK  1 active torsions:
REMARK  status: ('A' for Active; 'I' for Inactive)
REMARK    1  A    between atoms: C1_2  and  C2_3 
ROOT
ATOM      1  C2  UNL d   1      -0.339  -2.500  -1.780  0.00  0.00    -0.077 A 
ATOM      2  C3  UNL d   1      -0.258  -3.344  -0.664  0.00  0.00     0.002 A 
ATOM      3  C4  UNL d   1      -0.346  -2.818   0.627  0.00  0.00     0.002 A 
ATOM      4  C5  UNL d   1      -0.519  -1.448   0.812  0.00  0.00    -0.004 A 
ATOM      5  C6  UNL d   1      -0.598  -0.601  -0.292  0.00  0.00     0.002 A 
ATOM      6  C7  UNL d   1      -0.510  -1.124  -1.582  0.00  0.00     0.002 A 
ENDROOT
BRANCH   1   7
ATOM      7  C1  UNL d   1      -0.294  -3.072  -3.174  0.00  0.00     0.055 C 
ATOM      8  C   UNL d   1      -1.693  -3.238  -3.749  0.00  0.00     0.019 C 
ENDBRANCH   1   7
TORSDOF 1
ENDMDL
