MODEL 1
REMARK minimizedAffinity -5.70844936
REMARK minimizedRMSD -1
REMARK  1 active torsions:
REMARK  status: ('A' for Active; 'I' for Inactive)
REMARK    1  A    between atoms: C1_2  and  C2_3 
ROOT
ATOM      1  C2  UNL d   1      -0.781  -1.093   0.376  0.00  0.00    -0.077 A 
ATOM      2  C3  UNL d   1      -0.928  -2.456   0.672  0.00  0.00     0.002 A 
ATOM      3  C4  UNL d   1      -0.264  -3.419  -0.091  0.00  0.00     0.002 A 
ATOM      4  C5  UNL d   1       0.553  -3.030  -1.150  0.00  0.00    -0.004 A 
ATOM      5  C6  UNL d   1       0.703  -1.677  -1.453  0.00  0.00     0.002 A 
ATOM      6  C7  UNL d   1       0.040  -0.713  -0.693  0.00  0.00     0.002 A 
ENDROOT
BRANCH   1   7
ATOM      7  C1  UNL d   1      -1.457  -0.050   1.228  0.00  0.00     0.055 C 
ATOM      8  C   UNL d   1      -1.945   1.120   0.387  0.00  0.00     0.019 C 
ENDBRANCH   1   7
TORSDOF 1
ENDMDL
