MODEL 1
REMARK minimizedAffinity -5.78896236
REMARK minimizedRMSD -1
REMARK  1 active torsions:
REMARK  status: ('A' for Active; 'I' for Inactive)
REMARK    1  A    between atoms: C1_2  and  C2_3 
ROOT
ATOM      1  C2  UNL d   1       0.782  -1.707  -0.529  0.00  0.00    -0.077 A 
ATOM      2  C3  UNL d   1       0.008  -1.348  -1.642  0.00  0.00     0.002 A 
ATOM      3  C4  UNL d   1      -0.781  -2.300  -2.290  0.00  0.00     0.002 A 
ATOM      4  C5  UNL d   1      -0.807  -3.615  -1.831  0.00  0.00    -0.004 A 
ATOM      5  C6  UNL d   1      -0.040  -3.983  -0.727  0.00  0.00     0.002 A 
ATOM      6  C7  UNL d   1       0.750  -3.033  -0.078  0.00  0.00     0.002 A 
ENDROOT
BRANCH   1   7
ATOM      7  C1  UNL d   1       1.595  -0.671   0.202  0.00  0.00     0.055 C 
ATOM      8  C   UNL d   1       0.811   0.620   0.385  0.00  0.00     0.019 C 
ENDBRANCH   1   7
TORSDOF 1
ENDMDL
