MODEL 1
REMARK minimizedAffinity -3.08029246
REMARK minimizedRMSD -1
REMARK  1 active torsions:
REMARK  status: ('A' for Active; 'I' for Inactive)
REMARK    1  A    between atoms: C1_2  and  C2_3 
ROOT
ATOM      1  C2  UNL d   1      -0.436   0.049  -0.206  0.00  0.00    -0.077 A 
ATOM      2  C3  UNL d   1      -0.417  -0.768  -1.345  0.00  0.00     0.002 A 
ATOM      3  C4  UNL d   1      -0.724  -2.126  -1.247  0.00  0.00     0.002 A 
ATOM      4  C5  UNL d   1      -1.057  -2.679  -0.012  0.00  0.00    -0.004 A 
ATOM      5  C6  UNL d   1      -1.078  -1.876   1.128  0.00  0.00     0.002 A 
ATOM      6  C7  UNL d   1      -0.769  -0.518   1.031  0.00  0.00     0.002 A 
ENDROOT
BRANCH   1   7
ATOM      7  C1  UNL d   1      -0.153   1.524  -0.318  0.00  0.00     0.055 C 
ATOM      8  C   UNL d   1       1.141   1.895   0.391  0.00  0.00     0.019 C 
ENDBRANCH   1   7
TORSDOF 1
ENDMDL
