MODEL 1
REMARK minimizedAffinity -3.0667789
REMARK minimizedRMSD -1
REMARK  1 active torsions:
REMARK  status: ('A' for Active; 'I' for Inactive)
REMARK    1  A    between atoms: C1_2  and  C2_3 
ROOT
ATOM      1  C2  UNL d   1      -0.457  -0.745  -1.467  0.00  0.00    -0.077 A 
ATOM      2  C3  UNL d   1      -0.140   0.618  -1.545  0.00  0.00     0.002 A 
ATOM      3  C4  UNL d   1      -0.210   1.426  -0.408  0.00  0.00     0.002 A 
ATOM      4  C5  UNL d   1      -0.591   0.878   0.815  0.00  0.00    -0.004 A 
ATOM      5  C6  UNL d   1      -0.910  -0.476   0.903  0.00  0.00     0.002 A 
ATOM      6  C7  UNL d   1      -0.843  -1.284  -0.233  0.00  0.00     0.002 A 
ENDROOT
BRANCH   1   7
ATOM      7  C1  UNL d   1      -0.335  -1.628  -2.681  0.00  0.00     0.055 C 
ATOM      8  C   UNL d   1      -0.968  -2.991  -2.441  0.00  0.00     0.019 C 
ENDBRANCH   1   7
TORSDOF 1
ENDMDL
