MODEL 1
REMARK minimizedAffinity -4.88943768
REMARK minimizedRMSD -1
REMARK  1 active torsions:
REMARK  status: ('A' for Active; 'I' for Inactive)
REMARK    1  A    between atoms: C1_2  and  C2_3 
ROOT
ATOM      1  C2  UNL d   1      -0.018  -1.746   0.596  0.00  0.00    -0.077 A 
ATOM      2  C3  UNL d   1       0.491  -1.119  -0.549  0.00  0.00     0.002 A 
ATOM      3  C4  UNL d   1       0.217   0.228  -0.798  0.00  0.00     0.002 A 
ATOM      4  C5  UNL d   1      -0.563   0.958   0.096  0.00  0.00    -0.004 A 
ATOM      5  C6  UNL d   1      -1.076   0.343   1.237  0.00  0.00     0.002 A 
ATOM      6  C7  UNL d   1      -0.804  -1.003   1.487  0.00  0.00     0.002 A 
ENDROOT
BRANCH   1   7
ATOM      7  C1  UNL d   1       0.317  -3.185   0.892  0.00  0.00     0.055 C 
ATOM      8  C   UNL d   1       0.040  -4.076  -0.311  0.00  0.00     0.019 C 
ENDBRANCH   1   7
TORSDOF 1
ENDMDL
