MODEL 1
REMARK minimizedAffinity -4.78887129
REMARK minimizedRMSD -1
REMARK  1 active torsions:
REMARK  status: ('A' for Active; 'I' for Inactive)
REMARK    1  A    between atoms: C1_2  and  C2_3 
ROOT
ATOM      1  C2  UNL d   1      -0.194  -2.328  -0.284  0.00  0.00    -0.077 A 
ATOM      2  C3  UNL d   1      -1.336  -2.482   0.515  0.00  0.00     0.002 A 
ATOM      3  C4  UNL d   1      -1.664  -1.521   1.472  0.00  0.00     0.002 A 
ATOM      4  C5  UNL d   1      -0.858  -0.396   1.638  0.00  0.00    -0.004 A 
ATOM      5  C6  UNL d   1       0.281  -0.234   0.850  0.00  0.00     0.002 A 
ATOM      6  C7  UNL d   1       0.611  -1.195  -0.107  0.00  0.00     0.002 A 
ENDROOT
BRANCH   1   7
ATOM      7  C1  UNL d   1       0.134  -3.339  -1.351  0.00  0.00     0.055 C 
ATOM      8  C   UNL d   1       0.249  -2.682  -2.719  0.00  0.00     0.019 C 
ENDBRANCH   1   7
TORSDOF 1
ENDMDL
