MODEL 1
REMARK minimizedAffinity -4.15871
REMARK minimizedRMSD -1
REMARK  1 active torsions:
REMARK  status: ('A' for Active; 'I' for Inactive)
REMARK    1  A    between atoms: C1_2  and  C2_3 
ROOT
ATOM      1  C2  UNL d   1      -0.206  -1.017  -0.296  0.00  0.00    -0.077 A 
ATOM      2  C3  UNL d   1       0.226  -1.549  -1.519  0.00  0.00     0.002 A 
ATOM      3  C4  UNL d   1       0.190  -2.926  -1.743  0.00  0.00     0.002 A 
ATOM      4  C5  UNL d   1      -0.281  -3.783  -0.751  0.00  0.00    -0.004 A 
ATOM      5  C6  UNL d   1      -0.712  -3.265   0.470  0.00  0.00     0.002 A 
ATOM      6  C7  UNL d   1      -0.675  -1.888   0.696  0.00  0.00     0.002 A 
ENDROOT
BRANCH   1   7
ATOM      7  C1  UNL d   1      -0.215   0.472  -0.071  0.00  0.00     0.055 C 
ATOM      8  C   UNL d   1      -0.182   1.232  -1.389  0.00  0.00     0.019 C 
ENDBRANCH   1   7
TORSDOF 1
ENDMDL
