MODEL 1
REMARK minimizedAffinity -2.08635926
REMARK minimizedRMSD -1
REMARK  1 active torsions:
REMARK  status: ('A' for Active; 'I' for Inactive)
REMARK    1  A    between atoms: C1_2  and  C2_3 
ROOT
ATOM      1  C2  UNL d   1      -0.292  -0.984  -0.785  0.00  0.00    -0.077 A 
ATOM      2  C3  UNL d   1      -0.944  -1.911   0.040  0.00  0.00     0.002 A 
ATOM      3  C4  UNL d   1      -1.298  -1.567   1.346  0.00  0.00     0.002 A 
ATOM      4  C5  UNL d   1      -1.010  -0.295   1.836  0.00  0.00    -0.004 A 
ATOM      5  C6  UNL d   1      -0.360   0.633   1.024  0.00  0.00     0.002 A 
ATOM      6  C7  UNL d   1      -0.004   0.291  -0.281  0.00  0.00     0.002 A 
ENDROOT
BRANCH   1   7
ATOM      7  C1  UNL d   1       0.047  -1.336  -2.210  0.00  0.00     0.055 C 
ATOM      8  C   UNL d   1      -0.574  -2.665  -2.614  0.00  0.00     0.019 C 
ENDBRANCH   1   7
TORSDOF 1
ENDMDL
