MODEL 1
REMARK minimizedAffinity -4.82329512
REMARK minimizedRMSD -1
REMARK  1 active torsions:
REMARK  status: ('A' for Active; 'I' for Inactive)
REMARK    1  A    between atoms: C1_2  and  C2_3 
ROOT
ATOM      1  C2  UNL d   1       0.842   1.534   0.591  0.00  0.00    -0.077 A 
ATOM      2  C3  UNL d   1       0.839   0.873   1.828  0.00  0.00     0.002 A 
ATOM      3  C4  UNL d   1      -0.117  -0.106   2.103  0.00  0.00     0.002 A 
ATOM      4  C5  UNL d   1      -1.073  -0.437   1.146  0.00  0.00    -0.004 A 
ATOM      5  C6  UNL d   1      -1.080   0.216  -0.087  0.00  0.00     0.002 A 
ATOM      6  C7  UNL d   1      -0.126   1.196  -0.363  0.00  0.00     0.002 A 
ENDROOT
BRANCH   1   7
ATOM      7  C1  UNL d   1       1.903   2.555   0.274  0.00  0.00     0.055 C 
ATOM      8  C   UNL d   1       2.318   3.327   1.518  0.00  0.00     0.019 C 
ENDBRANCH   1   7
TORSDOF 1
ENDMDL
