MODEL 1
REMARK minimizedAffinity -2.08009601
REMARK minimizedRMSD -1
REMARK  0 active torsions:
REMARK  status: ('A' for Active; 'I' for Inactive)
ROOT
ATOM      1  N1  IND d   1       5.896   4.364   4.516  0.00  0.00    -0.196 N 
ATOM      2  C2  IND d   1       5.924   4.607   3.171  0.00  0.00     0.054 A 
ATOM      3  C3  IND d   1       5.997   3.444   2.485  0.00  0.00    -0.031 A 
ATOM      4  C4  IND d   1       5.978   1.024   3.363  0.00  0.00     0.051 A 
ATOM      5  C5  IND d   1       5.999   0.297   4.520  0.00  0.00    -0.031 A 
ATOM      6  C6  IND d   1       5.984   0.902   5.760  0.00  0.00     0.015 A 
ATOM      7  C7  IND d   1       5.935   2.261   5.890  0.00  0.00    -0.016 A 
ATOM      8  C8  IND d   1       5.921   3.002   4.717  0.00  0.00    -0.047 A 
ATOM      9  C9  IND d   1       5.979   2.395   3.455  0.00  0.00    -0.096 A 
ATOM     10  HN1 IND d   1       5.867   4.963   5.133  0.00  0.00     0.298 HD
ENDROOT
TORSDOF 0
ENDMDL
