MODEL 1
REMARK minimizedAffinity -1.9434526
REMARK minimizedRMSD -1
REMARK  0 active torsions:
REMARK  status: ('A' for Active; 'I' for Inactive)
ROOT
ATOM      1  N1  IND d   1       5.945   0.685   3.775  0.00  0.00    -0.196 N 
ATOM      2  C2  IND d   1       5.979   1.372   4.956  0.00  0.00     0.054 A 
ATOM      3  C3  IND d   1       5.968   0.512   6.000  0.00  0.00    -0.031 A 
ATOM      4  C4  IND d   1       5.999  -2.062   5.999  0.00  0.00     0.051 A 
ATOM      5  C5  IND d   1       5.937  -3.140   5.161  0.00  0.00    -0.031 A 
ATOM      6  C6  IND d   1       5.875  -2.995   3.790  0.00  0.00     0.015 A 
ATOM      7  C7  IND d   1       5.886  -1.761   3.203  0.00  0.00    -0.016 A 
ATOM      8  C8  IND d   1       5.942  -0.664   4.051  0.00  0.00    -0.047 A 
ATOM      9  C9  IND d   1       5.961  -0.804   5.445  0.00  0.00    -0.096 A 
ATOM     10  HN1 IND d   1       5.929   1.037   2.990  0.00  0.00     0.298 HD
ENDROOT
TORSDOF 0
ENDMDL
