MODEL 1
REMARK minimizedAffinity -1.05827498
REMARK minimizedRMSD -1
REMARK  0 active torsions:
REMARK  status: ('A' for Active; 'I' for Inactive)
ROOT
ATOM      1  N1  IND d   1       5.387   3.385   2.846  0.00  0.00    -0.196 N 
ATOM      2  C2  IND d   1       5.741   4.509   3.539  0.00  0.00     0.054 A 
ATOM      3  C3  IND d   1       5.998   4.203   4.831  0.00  0.00    -0.031 A 
ATOM      4  C4  IND d   1       6.000   1.909   5.999  0.00  0.00     0.051 A 
ATOM      5  C5  IND d   1       5.705   0.592   5.787  0.00  0.00    -0.031 A 
ATOM      6  C6  IND d   1       5.283   0.128   4.557  0.00  0.00     0.015 A 
ATOM      7  C7  IND d   1       5.151   0.967   3.487  0.00  0.00    -0.016 A 
ATOM      8  C8  IND d   1       5.442   2.307   3.701  0.00  0.00    -0.047 A 
ATOM      9  C9  IND d   1       5.830   2.790   4.957  0.00  0.00    -0.096 A 
ATOM     10  HN1 IND d   1       5.166   3.357   2.015  0.00  0.00     0.298 HD
ENDROOT
TORSDOF 0
ENDMDL
