MODEL 1
REMARK minimizedAffinity -1.09075046
REMARK minimizedRMSD -1
REMARK  0 active torsions:
REMARK  status: ('A' for Active; 'I' for Inactive)
ROOT
ATOM      1  N1  IND d   1       5.999   0.442   6.000  0.00  0.00    -0.196 N 
ATOM      2  C2  IND d   1       5.988  -0.876   5.638  0.00  0.00     0.054 A 
ATOM      3  C3  IND d   1       5.949  -0.995   4.292  0.00  0.00    -0.031 A 
ATOM      4  C4  IND d   1       6.000   0.840   2.487  0.00  0.00     0.051 A 
ATOM      5  C5  IND d   1       5.974   2.197   2.329  0.00  0.00    -0.031 A 
ATOM      6  C6  IND d   1       5.957   3.056   3.409  0.00  0.00     0.015 A 
ATOM      7  C7  IND d   1       5.977   2.588   4.693  0.00  0.00    -0.016 A 
ATOM      8  C8  IND d   1       5.997   1.210   4.856  0.00  0.00    -0.047 A 
ATOM      9  C9  IND d   1       5.971   0.333   3.764  0.00  0.00    -0.096 A 
ATOM     10  HN1 IND d   1       6.005   0.741   6.806  0.00  0.00     0.298 HD
ENDROOT
TORSDOF 0
ENDMDL
