MODEL 1
REMARK minimizedAffinity -0.425928742
REMARK minimizedRMSD -1
REMARK  0 active torsions:
REMARK  status: ('A' for Active; 'I' for Inactive)
ROOT
ATOM      1  N1  IND d   1       5.938   3.477   4.840  0.00  0.00    -0.196 N 
ATOM      2  C2  IND d   1       5.963   3.851   3.525  0.00  0.00     0.054 A 
ATOM      3  C3  IND d   1       5.999   2.760   2.728  0.00  0.00    -0.031 A 
ATOM      4  C4  IND d   1       5.921   0.266   3.362  0.00  0.00     0.051 A 
ATOM      5  C5  IND d   1       5.931  -0.572   4.442  0.00  0.00    -0.031 A 
ATOM      6  C6  IND d   1       5.942  -0.092   5.736  0.00  0.00     0.015 A 
ATOM      7  C7  IND d   1       5.931   1.248   6.000  0.00  0.00    -0.016 A 
ATOM      8  C8  IND d   1       5.928   2.101   4.905  0.00  0.00    -0.047 A 
ATOM      9  C9  IND d   1       5.960   1.621   3.590  0.00  0.00    -0.096 A 
ATOM     10  HN1 IND d   1       5.931   4.012   5.513  0.00  0.00     0.298 HD
ENDROOT
TORSDOF 0
ENDMDL
