MODEL 1
REMARK minimizedAffinity 2.6346271
REMARK minimizedRMSD -1
REMARK  0 active torsions:
REMARK  status: ('A' for Active; 'I' for Inactive)
ROOT
ATOM      1  N1  IND d   1       6.000   3.978   4.598  0.00  0.00    -0.196 N 
ATOM      2  C2  IND d   1       5.640   4.496   3.385  0.00  0.00     0.054 A 
ATOM      3  C3  IND d   1       5.211   3.512   2.562  0.00  0.00    -0.031 A 
ATOM      4  C4  IND d   1       4.921   0.998   3.032  0.00  0.00     0.051 A 
ATOM      5  C5  IND d   1       5.152   0.046   3.986  0.00  0.00    -0.031 A 
ATOM      6  C6  IND d   1       5.687   0.364   5.218  0.00  0.00     0.015 A 
ATOM      7  C7  IND d   1       6.000   1.652   5.548  0.00  0.00    -0.016 A 
ATOM      8  C8  IND d   1       5.773   2.620   4.580  0.00  0.00    -0.047 A 
ATOM      9  C9  IND d   1       5.270   2.298   3.312  0.00  0.00    -0.096 A 
ATOM     10  HN1 IND d   1       6.316   4.426   5.260  0.00  0.00     0.298 HD
ENDROOT
TORSDOF 0
ENDMDL
