MODEL 1
REMARK minimizedAffinity -2.10479498
REMARK minimizedRMSD -1
REMARK  0 active torsions:
REMARK  status: ('A' for Active; 'I' for Inactive)
ROOT
ATOM      1  N1  IND d   1       5.344   3.557   3.381  0.00  0.00    -0.196 N 
ATOM      2  C2  IND d   1       5.722   4.444   4.350  0.00  0.00     0.054 A 
ATOM      3  C3  IND d   1       6.000   3.792   5.502  0.00  0.00    -0.031 A 
ATOM      4  C4  IND d   1       5.999   1.265   5.992  0.00  0.00     0.051 A 
ATOM      5  C5  IND d   1       5.687   0.059   5.431  0.00  0.00    -0.031 A 
ATOM      6  C6  IND d   1       5.238  -0.045   4.130  0.00  0.00     0.015 A 
ATOM      7  C7  IND d   1       5.095   1.057   3.335  0.00  0.00    -0.016 A 
ATOM      8  C8  IND d   1       5.404   2.284   3.905  0.00  0.00    -0.047 A 
ATOM      9  C9  IND d   1       5.819   2.400   5.237  0.00  0.00    -0.096 A 
ATOM     10  HN1 IND d   1       5.109   3.760   2.580  0.00  0.00     0.298 HD
ENDROOT
TORSDOF 0
ENDMDL
