MODEL 1
REMARK minimizedAffinity -3.10754156
REMARK minimizedRMSD -1
REMARK  0 active torsions:
REMARK  status: ('A' for Active; 'I' for Inactive)
ROOT
ATOM      1  N1  IND d   1       5.995   2.407   2.618  0.00  0.00    -0.196 N 
ATOM      2  C2  IND d   1       5.675   3.573   3.255  0.00  0.00     0.054 A 
ATOM      3  C3  IND d   1       5.279   3.323   4.523  0.00  0.00    -0.031 A 
ATOM      4  C4  IND d   1       5.177   1.087   5.794  0.00  0.00     0.051 A 
ATOM      5  C5  IND d   1       5.337  -0.259   5.620  0.00  0.00    -0.031 A 
ATOM      6  C6  IND d   1       5.735  -0.796   4.412  0.00  0.00     0.015 A 
ATOM      7  C7  IND d   1       6.000  -0.002   3.333  0.00  0.00    -0.016 A 
ATOM      8  C8  IND d   1       5.832   1.365   3.504  0.00  0.00    -0.047 A 
ATOM      9  C9  IND d   1       5.387   1.912   4.714  0.00  0.00    -0.096 A 
ATOM     10  HN1 IND d   1       6.254   2.336   1.801  0.00  0.00     0.298 HD
ENDROOT
TORSDOF 0
ENDMDL
