MODEL 1
REMARK minimizedAffinity -0.120822549
REMARK minimizedRMSD -1
REMARK  0 active torsions:
REMARK  status: ('A' for Active; 'I' for Inactive)
ROOT
ATOM      1  N1  IND d   1       5.999   2.861   5.160  0.00  0.00    -0.196 N 
ATOM      2  C2  IND d   1       5.966   3.414   3.911  0.00  0.00     0.054 A 
ATOM      3  C3  IND d   1       5.907   2.446   2.969  0.00  0.00    -0.031 A 
ATOM      4  C4  IND d   1       5.755  -0.108   3.257  0.00  0.00     0.051 A 
ATOM      5  C5  IND d   1       5.789  -1.089   4.208  0.00  0.00    -0.031 A 
ATOM      6  C6  IND d   1       5.895  -0.797   5.553  0.00  0.00     0.015 A 
ATOM      7  C7  IND d   1       5.959   0.493   5.999  0.00  0.00    -0.016 A 
ATOM      8  C8  IND d   1       5.931   1.491   5.035  0.00  0.00    -0.047 A 
ATOM      9  C9  IND d   1       5.867   1.200   3.667  0.00  0.00    -0.096 A 
ATOM     10  HN1 IND d   1       6.054   3.296   5.900  0.00  0.00     0.298 HD
ENDROOT
TORSDOF 0
ENDMDL
