MODEL 1
REMARK minimizedAffinity -0.878097236
REMARK minimizedRMSD -1
REMARK  0 active torsions:
REMARK  status: ('A' for Active; 'I' for Inactive)
ROOT
ATOM      1  N1  IND d   1       5.976   1.356   5.950  0.00  0.00    -0.196 N 
ATOM      2  C2  IND d   1       5.943   0.053   5.537  0.00  0.00     0.054 A 
ATOM      3  C3  IND d   1       5.905  -0.011   4.187  0.00  0.00    -0.031 A 
ATOM      4  C4  IND d   1       5.993   1.893   2.456  0.00  0.00     0.051 A 
ATOM      5  C5  IND d   1       5.990   3.256   2.353  0.00  0.00    -0.031 A 
ATOM      6  C6  IND d   1       5.985   4.071   3.466  0.00  0.00     0.015 A 
ATOM      7  C7  IND d   1       5.994   3.552   4.730  0.00  0.00    -0.016 A 
ATOM      8  C8  IND d   1       5.990   2.169   4.838  0.00  0.00    -0.047 A 
ATOM      9  C9  IND d   1       5.952   1.336   3.713  0.00  0.00    -0.096 A 
ATOM     10  HN1 IND d   1       5.986   1.622   6.768  0.00  0.00     0.298 HD
ENDROOT
TORSDOF 0
ENDMDL
