MODEL 1
REMARK minimizedAffinity -1.78865826
REMARK minimizedRMSD -1
REMARK  0 active torsions:
REMARK  status: ('A' for Active; 'I' for Inactive)
ROOT
ATOM      1  N1  IND d   1       5.978   4.052   4.943  0.00  0.00    -0.196 N 
ATOM      2  C2  IND d   1       5.980   4.485   3.646  0.00  0.00     0.054 A 
ATOM      3  C3  IND d   1       6.000   3.432   2.798  0.00  0.00    -0.031 A 
ATOM      4  C4  IND d   1       5.928   0.912   3.318  0.00  0.00     0.051 A 
ATOM      5  C5  IND d   1       5.956   0.025   4.358  0.00  0.00    -0.031 A 
ATOM      6  C6  IND d   1       5.990   0.444   5.672  0.00  0.00     0.015 A 
ATOM      7  C7  IND d   1       5.987   1.771   5.998  0.00  0.00    -0.016 A 
ATOM      8  C8  IND d   1       5.966   2.674   4.944  0.00  0.00    -0.047 A 
ATOM      9  C9  IND d   1       5.974   2.255   3.607  0.00  0.00    -0.096 A 
ATOM     10  HN1 IND d   1       5.983   4.555   5.640  0.00  0.00     0.298 HD
ENDROOT
TORSDOF 0
ENDMDL
