MODEL 1
REMARK minimizedAffinity -3.99304819
REMARK minimizedRMSD -1
REMARK  0 active torsions:
REMARK  status: ('A' for Active; 'I' for Inactive)
ROOT
ATOM      1  N1  IND d   1       5.986  -0.228   5.831  0.00  0.00    -0.196 N 
ATOM      2  C2  IND d   1       5.984   0.648   4.782  0.00  0.00     0.054 A 
ATOM      3  C3  IND d   1       6.000  -0.023   3.609  0.00  0.00    -0.031 A 
ATOM      4  C4  IND d   1       5.929  -2.559   3.174  0.00  0.00     0.051 A 
ATOM      5  C5  IND d   1       5.960  -3.764   3.819  0.00  0.00    -0.031 A 
ATOM      6  C6  IND d   1       5.999  -3.853   5.196  0.00  0.00     0.015 A 
ATOM      7  C7  IND d   1       5.998  -2.736   5.982  0.00  0.00    -0.016 A 
ATOM      8  C8  IND d   1       5.973  -1.511   5.331  0.00  0.00    -0.047 A 
ATOM      9  C9  IND d   1       5.976  -1.414   3.933  0.00  0.00    -0.096 A 
ATOM     10  HN1 IND d   1       5.994  -0.013   6.664  0.00  0.00     0.298 HD
ENDROOT
TORSDOF 0
ENDMDL
