MODEL 1
REMARK minimizedAffinity 10.2143869
REMARK minimizedRMSD -1
REMARK  0 active torsions:
REMARK  status: ('A' for Active; 'I' for Inactive)
ROOT
ATOM      1  N1  IND d   1       5.935  -0.851   3.526  0.00  0.00    -0.196 N 
ATOM      2  C2  IND d   1       5.882  -1.146   2.192  0.00  0.00     0.054 A 
ATOM      3  C3  IND d   1       5.848  -0.009   1.460  0.00  0.00    -0.031 A 
ATOM      4  C4  IND d   1       5.973   2.441   2.238  0.00  0.00     0.051 A 
ATOM      5  C5  IND d   1       5.993   3.214   3.365  0.00  0.00    -0.031 A 
ATOM      6  C6  IND d   1       5.998   2.660   4.629  0.00  0.00     0.015 A 
ATOM      7  C7  IND d   1       5.994   1.306   4.813  0.00  0.00    -0.016 A 
ATOM      8  C8  IND d   1       5.966   0.519   3.671  0.00  0.00    -0.047 A 
ATOM      9  C9  IND d   1       5.918   1.076   2.387  0.00  0.00    -0.096 A 
ATOM     10  HN1 IND d   1       5.946  -1.425   4.166  0.00  0.00     0.298 HD
ENDROOT
TORSDOF 0
ENDMDL
