MODEL 1
REMARK minimizedAffinity -0.929139793
REMARK minimizedRMSD -1
REMARK  0 active torsions:
REMARK  status: ('A' for Active; 'I' for Inactive)
ROOT
ATOM      1  N1  IND d   1       5.984  -1.922   3.811  0.00  0.00    -0.196 N 
ATOM      2  C2  IND d   1       5.977  -2.461   5.068  0.00  0.00     0.054 A 
ATOM      3  C3  IND d   1       5.990  -1.482   6.000  0.00  0.00    -0.031 A 
ATOM      4  C4  IND d   1       5.921   1.073   5.690  0.00  0.00     0.051 A 
ATOM      5  C5  IND d   1       5.956   2.043   4.727  0.00  0.00    -0.031 A 
ATOM      6  C6  IND d   1       6.000   1.734   3.383  0.00  0.00     0.015 A 
ATOM      7  C7  IND d   1       5.999   0.439   2.949  0.00  0.00    -0.016 A 
ATOM      8  C8  IND d   1       5.971  -0.549   3.924  0.00  0.00    -0.047 A 
ATOM      9  C9  IND d   1       5.969  -0.242   5.291  0.00  0.00    -0.096 A 
ATOM     10  HN1 IND d   1       5.995  -2.365   3.075  0.00  0.00     0.298 HD
ENDROOT
TORSDOF 0
ENDMDL
