MODEL 1
REMARK minimizedAffinity 3.95172977
REMARK minimizedRMSD -1
REMARK  0 active torsions:
REMARK  status: ('A' for Active; 'I' for Inactive)
ROOT
ATOM      1  N1  IND d   1       5.999   2.045   4.997  0.00  0.00    -0.196 N 
ATOM      2  C2  IND d   1       5.981   1.451   3.766  0.00  0.00     0.054 A 
ATOM      3  C3  IND d   1       5.940   2.389   2.793  0.00  0.00    -0.031 A 
ATOM      4  C4  IND d   1       5.998   4.955   2.989  0.00  0.00     0.051 A 
ATOM      5  C5  IND d   1       5.979   5.965   3.909  0.00  0.00    -0.031 A 
ATOM      6  C6  IND d   1       5.968   5.716   5.266  0.00  0.00     0.015 A 
ATOM      7  C7  IND d   1       5.987   4.441   5.756  0.00  0.00    -0.016 A 
ATOM      8  C8  IND d   1       6.000   3.412   4.825  0.00  0.00    -0.047 A 
ATOM      9  C9  IND d   1       5.968   3.658   3.446  0.00  0.00    -0.096 A 
ATOM     10  HN1 IND d   1       6.009   1.634   5.753  0.00  0.00     0.298 HD
ENDROOT
TORSDOF 0
ENDMDL
