MODEL 1
REMARK minimizedAffinity 5.419415
REMARK minimizedRMSD -1
REMARK  0 active torsions:
REMARK  status: ('A' for Active; 'I' for Inactive)
ROOT
ATOM      1  N1  IND d   1       5.999   2.384   4.510  0.00  0.00    -0.196 N 
ATOM      2  C2  IND d   1       5.980   1.493   3.473  0.00  0.00     0.054 A 
ATOM      3  C3  IND d   1       5.938   2.148   2.291  0.00  0.00    -0.031 A 
ATOM      4  C4  IND d   1       5.997   4.678   1.820  0.00  0.00     0.051 A 
ATOM      5  C5  IND d   1       5.978   5.892   2.449  0.00  0.00    -0.031 A 
ATOM      6  C6  IND d   1       5.968   6.000   3.824  0.00  0.00     0.015 A 
ATOM      7  C7  IND d   1       5.988   4.894   4.626  0.00  0.00    -0.016 A 
ATOM      8  C8  IND d   1       6.000   3.660   3.991  0.00  0.00    -0.047 A 
ATOM      9  C9  IND d   1       5.967   3.543   2.596  0.00  0.00    -0.096 A 
ATOM     10  HN1 IND d   1       6.009   2.181   5.345  0.00  0.00     0.298 HD
ENDROOT
TORSDOF 0
ENDMDL
