MODEL 1
REMARK minimizedAffinity -3.00023961
REMARK minimizedRMSD -1
REMARK  0 active torsions:
REMARK  status: ('A' for Active; 'I' for Inactive)
ROOT
ATOM      1  C   UNL d   1       1.579  -0.214   0.570  0.00  0.00     0.078 C 
ATOM      2  C1  UNL d   1       1.048   0.728   1.609  0.00  0.00    -0.077 A 
ATOM      3  C2  UNL d   1       1.722   1.914   1.920  0.00  0.00    -0.001 A 
ATOM      4  C3  UNL d   1       1.221   2.776   2.897  0.00  0.00     0.003 A 
ATOM      5  C4  UNL d   1       0.044   2.460   3.572  0.00  0.00    -0.005 A 
ATOM      6  C5  UNL d   1      -0.633   1.280   3.271  0.00  0.00     0.003 A 
ATOM      7  C6  UNL d   1      -0.134   0.417   2.294  0.00  0.00    -0.001 A 
ENDROOT
TORSDOF 0
ENDMDL
