MODEL 1
REMARK minimizedAffinity -1.73574615
REMARK minimizedRMSD -1
REMARK  0 active torsions:
REMARK  status: ('A' for Active; 'I' for Inactive)
ROOT
ATOM      1  C   UNL d   1      -1.742   0.274   2.008  0.00  0.00     0.078 C 
ATOM      2  C1  UNL d   1      -0.368   0.769   2.350  0.00  0.00    -0.077 A 
ATOM      3  C2  UNL d   1      -0.183   2.007   2.978  0.00  0.00    -0.001 A 
ATOM      4  C3  UNL d   1       1.102   2.459   3.282  0.00  0.00     0.003 A 
ATOM      5  C4  UNL d   1       2.212   1.679   2.961  0.00  0.00    -0.005 A 
ATOM      6  C5  UNL d   1       2.038   0.447   2.335  0.00  0.00     0.003 A 
ATOM      7  C6  UNL d   1       0.754  -0.007   2.030  0.00  0.00    -0.001 A 
ENDROOT
TORSDOF 0
ENDMDL
