MODEL 1
REMARK minimizedAffinity 4.60484838
REMARK minimizedRMSD -1
REMARK  0 active torsions:
REMARK  status: ('A' for Active; 'I' for Inactive)
ROOT
ATOM      1  C   UNL d   1       2.025  -0.268   2.464  0.00  0.00     0.078 C 
ATOM      2  C1  UNL d   1       0.644   0.297   2.612  0.00  0.00    -0.077 A 
ATOM      3  C2  UNL d   1       0.407   1.669   2.463  0.00  0.00    -0.001 A 
ATOM      4  C3  UNL d   1      -0.883   2.182   2.614  0.00  0.00     0.003 A 
ATOM      5  C4  UNL d   1      -1.944   1.331   2.915  0.00  0.00    -0.005 A 
ATOM      6  C5  UNL d   1      -1.717  -0.035   3.068  0.00  0.00     0.003 A 
ATOM      7  C6  UNL d   1      -0.428  -0.550   2.918  0.00  0.00    -0.001 A 
ENDROOT
TORSDOF 0
ENDMDL
