MODEL 1
REMARK minimizedAffinity 3.74081492
REMARK minimizedRMSD -1
REMARK  0 active torsions:
REMARK  status: ('A' for Active; 'I' for Inactive)
ROOT
ATOM      1  C   UNL d   1      -1.116  -2.049  -0.798  0.00  0.00     0.078 C 
ATOM      2  C1  UNL d   1      -1.677  -1.510   0.484  0.00  0.00    -0.077 A 
ATOM      3  C2  UNL d   1      -2.645  -2.222   1.203  0.00  0.00    -0.001 A 
ATOM      4  C3  UNL d   1      -3.165  -1.704   2.390  0.00  0.00     0.003 A 
ATOM      5  C4  UNL d   1      -2.724  -0.471   2.868  0.00  0.00    -0.005 A 
ATOM      6  C5  UNL d   1      -1.763   0.245   2.158  0.00  0.00     0.003 A 
ATOM      7  C6  UNL d   1      -1.241  -0.271   0.971  0.00  0.00    -0.001 A 
ENDROOT
TORSDOF 0
ENDMDL
