MODEL 1
REMARK minimizedAffinity -0.376861572
REMARK minimizedRMSD -1
REMARK  0 active torsions:
REMARK  status: ('A' for Active; 'I' for Inactive)
ROOT
ATOM      1  C   UNL d   1      -4.341   0.718  -0.814  0.00  0.00     0.078 C 
ATOM      2  C1  UNL d   1      -3.276   0.785   0.240  0.00  0.00    -0.077 A 
ATOM      3  C2  UNL d   1      -2.890   2.009   0.799  0.00  0.00    -0.001 A 
ATOM      4  C3  UNL d   1      -1.891   2.057   1.772  0.00  0.00     0.003 A 
ATOM      5  C4  UNL d   1      -1.268   0.884   2.194  0.00  0.00    -0.005 A 
ATOM      6  C5  UNL d   1      -1.644  -0.339   1.642  0.00  0.00     0.003 A 
ATOM      7  C6  UNL d   1      -2.643  -0.389   0.669  0.00  0.00    -0.001 A 
ENDROOT
TORSDOF 0
ENDMDL
