MODEL 1
REMARK minimizedAffinity 2.56820512
REMARK minimizedRMSD -1
REMARK  0 active torsions:
REMARK  status: ('A' for Active; 'I' for Inactive)
ROOT
ATOM      1  C   UNL d   1      -2.099  -1.316   1.554  0.00  0.00     0.078 C 
ATOM      2  C1  UNL d   1      -1.439  -0.111   2.155  0.00  0.00    -0.077 A 
ATOM      3  C2  UNL d   1      -2.187   1.017   2.513  0.00  0.00    -0.001 A 
ATOM      4  C3  UNL d   1      -1.559   2.135   3.063  0.00  0.00     0.003 A 
ATOM      5  C4  UNL d   1      -0.179   2.136   3.260  0.00  0.00    -0.005 A 
ATOM      6  C5  UNL d   1       0.574   1.019   2.905  0.00  0.00     0.003 A 
ATOM      7  C6  UNL d   1      -0.053  -0.100   2.354  0.00  0.00    -0.001 A 
ENDROOT
TORSDOF 0
ENDMDL
