MODEL 1
REMARK minimizedAffinity 10.6384907
REMARK minimizedRMSD -1
REMARK  0 active torsions:
REMARK  status: ('A' for Active; 'I' for Inactive)
ROOT
ATOM      1  C   UNL d   1      -4.247   1.570  -0.094  0.00  0.00     0.078 C 
ATOM      2  C1  UNL d   1      -3.169   0.929   0.728  0.00  0.00    -0.077 A 
ATOM      3  C2  UNL d   1      -2.330   1.698   1.543  0.00  0.00    -0.001 A 
ATOM      4  C3  UNL d   1      -1.325   1.088   2.296  0.00  0.00     0.003 A 
ATOM      5  C4  UNL d   1      -1.149  -0.293   2.239  0.00  0.00    -0.005 A 
ATOM      6  C5  UNL d   1      -1.978  -1.066   1.429  0.00  0.00     0.003 A 
ATOM      7  C6  UNL d   1      -2.983  -0.458   0.676  0.00  0.00    -0.001 A 
ENDROOT
TORSDOF 0
ENDMDL
