MODEL 1
REMARK minimizedAffinity 19.9117622
REMARK minimizedRMSD -1
REMARK  0 active torsions:
REMARK  status: ('A' for Active; 'I' for Inactive)
ROOT
ATOM      1  C   UNL d   1      -5.973   2.368  -0.109  0.00  0.00     0.124 A 
ATOM      2  C1  UNL d   1      -5.955   3.687   0.322  0.00  0.00     0.062 A 
ATOM      3  C2  UNL d   1      -5.937   4.726  -0.605  0.00  0.00     0.162 A 
ATOM      4  C3  UNL d   1      -5.939   4.449  -1.972  0.00  0.00    -0.034 A 
ATOM      5  C4  UNL d   1      -5.957   3.120  -2.397  0.00  0.00     0.162 A 
ATOM      6  C5  UNL d   1      -5.974   2.086  -1.467  0.00  0.00     0.062 A 
ATOM      7  F   UNL d   1      -5.992   0.811  -1.885  0.00  0.00    -0.097 F 
ATOM      8  F1  UNL d   1      -5.959   2.818  -3.704  0.00  0.00    -0.096 F 
ATOM      9  I   UNL d   1      -5.913   5.999  -3.361  0.00  0.00    -0.060 I 
ATOM     10  F2  UNL d   1      -5.920   5.991  -0.160  0.00  0.00    -0.096 F 
ATOM     11  F3  UNL d   1      -5.953   3.963   1.634  0.00  0.00    -0.097 F 
ATOM     12  F4  UNL d   1      -5.989   1.371   0.785  0.00  0.00    -0.092 F 
ENDROOT
TORSDOF 0
ENDMDL
