MODEL 1
REMARK minimizedAffinity 4.63363504
REMARK minimizedRMSD -1
REMARK  0 active torsions:
REMARK  status: ('A' for Active; 'I' for Inactive)
ROOT
ATOM      1  C   UNL d   1      -2.440   0.156   0.260  0.00  0.00     0.124 A 
ATOM      2  C1  UNL d   1      -2.272  -1.185  -0.055  0.00  0.00     0.062 A 
ATOM      3  C2  UNL d   1      -1.140  -1.870   0.379  0.00  0.00     0.162 A 
ATOM      4  C3  UNL d   1      -0.169  -1.215   1.136  0.00  0.00    -0.034 A 
ATOM      5  C4  UNL d   1      -0.345   0.134   1.449  0.00  0.00     0.162 A 
ATOM      6  C5  UNL d   1      -1.477   0.814   1.012  0.00  0.00     0.062 A 
ATOM      7  F   UNL d   1      -1.638   2.110   1.318  0.00  0.00    -0.097 F 
ATOM      8  F1  UNL d   1       0.570   0.795   2.174  0.00  0.00    -0.096 F 
ATOM      9  I   UNL d   1       1.524  -2.235   1.788  0.00  0.00    -0.060 I 
ATOM     10  F2  UNL d   1      -1.004  -3.165   0.059  0.00  0.00    -0.096 F 
ATOM     11  F3  UNL d   1      -3.200  -1.823  -0.782  0.00  0.00    -0.097 F 
ATOM     12  F4  UNL d   1      -3.529   0.812  -0.160  0.00  0.00    -0.092 F 
ENDROOT
TORSDOF 0
ENDMDL
