MODEL 1
REMARK minimizedAffinity 8.46295738
REMARK minimizedRMSD -1
REMARK  0 active torsions:
REMARK  status: ('A' for Active; 'I' for Inactive)
ROOT
ATOM      1  C   UNL d   1       0.761  -0.928   1.514  0.00  0.00     0.124 A 
ATOM      2  C1  UNL d   1       1.321  -2.181   1.722  0.00  0.00     0.062 A 
ATOM      3  C2  UNL d   1       1.704  -2.573   3.002  0.00  0.00     0.162 A 
ATOM      4  C3  UNL d   1       1.527  -1.710   4.084  0.00  0.00    -0.034 A 
ATOM      5  C4  UNL d   1       0.965  -0.451   3.867  0.00  0.00     0.162 A 
ATOM      6  C5  UNL d   1       0.583  -0.065   2.586  0.00  0.00     0.062 A 
ATOM      7  F   UNL d   1       0.043   1.146   2.386  0.00  0.00    -0.097 F 
ATOM      8  F1  UNL d   1       0.781   0.402   4.885  0.00  0.00    -0.096 F 
ATOM      9  I   UNL d   1       2.099  -2.292   5.999  0.00  0.00    -0.060 I 
ATOM     10  F2  UNL d   1       2.242  -3.789   3.174  0.00  0.00    -0.096 F 
ATOM     11  F3  UNL d   1       1.494  -3.017   0.688  0.00  0.00    -0.097 F 
ATOM     12  F4  UNL d   1       0.394  -0.554   0.282  0.00  0.00    -0.092 F 
ENDROOT
TORSDOF 0
ENDMDL
