MODEL 1
REMARK minimizedAffinity 11.3811693
REMARK minimizedRMSD -1
REMARK  0 active torsions:
REMARK  status: ('A' for Active; 'I' for Inactive)
ROOT
ATOM      1  C   UNL d   1       0.257  -2.647   0.925  0.00  0.00     0.124 A 
ATOM      2  C1  UNL d   1      -1.082  -2.496   0.593  0.00  0.00     0.062 A 
ATOM      3  C2  UNL d   1      -1.638  -1.224   0.485  0.00  0.00     0.162 A 
ATOM      4  C3  UNL d   1      -0.853  -0.092   0.709  0.00  0.00    -0.034 A 
ATOM      5  C4  UNL d   1       0.492  -0.252   1.044  0.00  0.00     0.162 A 
ATOM      6  C5  UNL d   1       1.043  -1.525   1.150  0.00  0.00     0.062 A 
ATOM      7  F   UNL d   1       2.337  -1.669   1.472  0.00  0.00    -0.097 F 
ATOM      8  F1  UNL d   1       1.275   0.814   1.266  0.00  0.00    -0.096 F 
ATOM      9  I   UNL d   1      -1.680   1.811   0.549  0.00  0.00    -0.060 I 
ATOM     10  F2  UNL d   1      -2.934  -1.108   0.163  0.00  0.00    -0.096 F 
ATOM     11  F3  UNL d   1      -1.844  -3.578   0.376  0.00  0.00    -0.097 F 
ATOM     12  F4  UNL d   1       0.789  -3.871   1.030  0.00  0.00    -0.092 F 
ENDROOT
TORSDOF 0
ENDMDL
