MODEL 1
REMARK minimizedAffinity 4.80977488
REMARK minimizedRMSD -1
REMARK  0 active torsions:
REMARK  status: ('A' for Active; 'I' for Inactive)
ROOT
ATOM      1  C   UNL d   1       0.889  -1.088   1.162  0.00  0.00     0.124 A 
ATOM      2  C1  UNL d   1      -0.379  -0.667   0.785  0.00  0.00     0.062 A 
ATOM      3  C2  UNL d   1      -0.672   0.691   0.708  0.00  0.00     0.162 A 
ATOM      4  C3  UNL d   1       0.306   1.640   1.008  0.00  0.00    -0.034 A 
ATOM      5  C4  UNL d   1       1.579   1.209   1.387  0.00  0.00     0.162 A 
ATOM      6  C5  UNL d   1       1.866  -0.150   1.463  0.00  0.00     0.062 A 
ATOM      7  F   UNL d   1       3.091  -0.555   1.828  0.00  0.00    -0.097 F 
ATOM      8  F1  UNL d   1       2.542   2.094   1.682  0.00  0.00    -0.096 F 
ATOM      9  I   UNL d   1      -0.127   3.672   0.894  0.00  0.00    -0.060 I 
ATOM     10  F2  UNL d   1      -1.905   1.069   0.341  0.00  0.00    -0.096 F 
ATOM     11  F3  UNL d   1      -1.326  -1.572   0.495  0.00  0.00    -0.097 F 
ATOM     12  F4  UNL d   1       1.167  -2.396   1.237  0.00  0.00    -0.092 F 
ENDROOT
TORSDOF 0
ENDMDL
