MODEL 1
REMARK minimizedAffinity 8.7107935
REMARK minimizedRMSD -1
REMARK  0 active torsions:
REMARK  status: ('A' for Active; 'I' for Inactive)
ROOT
ATOM      1  C   UNL d   1      -2.326  -3.073  -2.545  0.00  0.00     0.078 C 
ATOM      2  C1  UNL d   1      -3.559  -3.925  -2.589  0.00  0.00    -0.077 A 
ATOM      3  C2  UNL d   1      -4.726  -3.473  -3.218  0.00  0.00    -0.001 A 
ATOM      4  C3  UNL d   1      -5.870  -4.272  -3.242  0.00  0.00     0.003 A 
ATOM      5  C4  UNL d   1      -5.859  -5.528  -2.639  0.00  0.00    -0.005 A 
ATOM      6  C5  UNL d   1      -4.703  -5.986  -2.010  0.00  0.00     0.003 A 
ATOM      7  C6  UNL d   1      -3.558  -5.188  -1.984  0.00  0.00    -0.001 A 
ENDROOT
TORSDOF 0
ENDMDL
