MODEL 1
REMARK minimizedAffinity 6.5735755
REMARK minimizedRMSD -1
REMARK  0 active torsions:
REMARK  status: ('A' for Active; 'I' for Inactive)
ROOT
ATOM      1  C   UNL d   1      -0.383  -5.073  -4.201  0.00  0.00     0.078 C 
ATOM      2  C1  UNL d   1      -1.136  -3.914  -3.618  0.00  0.00    -0.077 A 
ATOM      3  C2  UNL d   1      -1.876  -4.056  -2.437  0.00  0.00    -0.001 A 
ATOM      4  C3  UNL d   1      -2.580  -2.971  -1.912  0.00  0.00     0.003 A 
ATOM      5  C4  UNL d   1      -2.552  -1.738  -2.560  0.00  0.00    -0.005 A 
ATOM      6  C5  UNL d   1      -1.821  -1.589  -3.736  0.00  0.00     0.003 A 
ATOM      7  C6  UNL d   1      -1.116  -2.672  -4.264  0.00  0.00    -0.001 A 
ENDROOT
TORSDOF 0
ENDMDL
