MODEL 1
REMARK minimizedAffinity 4.86836195
REMARK minimizedRMSD -1
REMARK  0 active torsions:
REMARK  status: ('A' for Active; 'I' for Inactive)
ROOT
ATOM      1  C   UNL d   1       2.367   4.292  -5.369  0.00  0.00     0.078 C 
ATOM      2  C1  UNL d   1       3.139   3.248  -4.619  0.00  0.00    -0.077 A 
ATOM      3  C2  UNL d   1       3.316   3.339  -3.232  0.00  0.00    -0.001 A 
ATOM      4  C3  UNL d   1       4.044   2.364  -2.549  0.00  0.00     0.003 A 
ATOM      5  C4  UNL d   1       4.604   1.293  -3.243  0.00  0.00    -0.005 A 
ATOM      6  C5  UNL d   1       4.435   1.196  -4.622  0.00  0.00     0.003 A 
ATOM      7  C6  UNL d   1       3.707   2.169  -5.308  0.00  0.00    -0.001 A 
ENDROOT
TORSDOF 0
ENDMDL
