MODEL 1
REMARK minimizedAffinity 2.57770157
REMARK minimizedRMSD -1
REMARK  0 active torsions:
REMARK  status: ('A' for Active; 'I' for Inactive)
ROOT
ATOM      1  C   UNL d   1       3.735   3.005  -2.641  0.00  0.00     0.078 C 
ATOM      2  C1  UNL d   1       3.224   3.827  -3.787  0.00  0.00    -0.077 A 
ATOM      3  C2  UNL d   1       2.660   3.219  -4.915  0.00  0.00    -0.001 A 
ATOM      4  C3  UNL d   1       2.197   3.996  -5.978  0.00  0.00     0.003 A 
ATOM      5  C4  UNL d   1       2.294   5.385  -5.924  0.00  0.00    -0.005 A 
ATOM      6  C5  UNL d   1       2.856   5.999  -4.806  0.00  0.00     0.003 A 
ATOM      7  C6  UNL d   1       3.319   5.223  -3.742  0.00  0.00    -0.001 A 
ENDROOT
TORSDOF 0
ENDMDL
