MODEL 1
REMARK minimizedAffinity 9.085989
REMARK minimizedRMSD -1
REMARK  0 active torsions:
REMARK  status: ('A' for Active; 'I' for Inactive)
ROOT
ATOM      1  C   UNL d   1      -2.579  -2.286  -2.284  0.00  0.00     0.078 C 
ATOM      2  C1  UNL d   1      -3.678  -3.305  -2.314  0.00  0.00    -0.077 A 
ATOM      3  C2  UNL d   1      -3.435  -4.639  -1.966  0.00  0.00    -0.001 A 
ATOM      4  C3  UNL d   1      -4.465  -5.579  -2.007  0.00  0.00     0.003 A 
ATOM      5  C4  UNL d   1      -5.747  -5.195  -2.398  0.00  0.00    -0.005 A 
ATOM      6  C5  UNL d   1      -5.998  -3.871  -2.749  0.00  0.00     0.003 A 
ATOM      7  C6  UNL d   1      -4.969  -2.929  -2.708  0.00  0.00    -0.001 A 
ENDROOT
TORSDOF 0
ENDMDL
