MODEL 1
REMARK minimizedAffinity 8.09167957
REMARK minimizedRMSD -1
REMARK  0 active torsions:
REMARK  status: ('A' for Active; 'I' for Inactive)
ROOT
ATOM      1  C   UNL d   1      -2.410  -3.013  -2.997  0.00  0.00     0.078 C 
ATOM      2  C1  UNL d   1      -3.629  -3.879  -2.895  0.00  0.00    -0.077 A 
ATOM      3  C2  UNL d   1      -3.559  -5.161  -2.336  0.00  0.00    -0.001 A 
ATOM      4  C3  UNL d   1      -4.701  -5.961  -2.257  0.00  0.00     0.003 A 
ATOM      5  C4  UNL d   1      -5.921  -5.487  -2.736  0.00  0.00    -0.005 A 
ATOM      6  C5  UNL d   1      -6.000  -4.214  -3.296  0.00  0.00     0.003 A 
ATOM      7  C6  UNL d   1      -4.860  -3.413  -3.376  0.00  0.00    -0.001 A 
ENDROOT
TORSDOF 0
ENDMDL
