MODEL 1
REMARK minimizedAffinity 8.33768177
REMARK minimizedRMSD -1
REMARK  0 active torsions:
REMARK  status: ('A' for Active; 'I' for Inactive)
ROOT
ATOM      1  C   UNL d   1       0.067  -5.439  -3.855  0.00  0.00     0.078 C 
ATOM      2  C1  UNL d   1      -1.229  -4.958  -3.275  0.00  0.00    -0.077 A 
ATOM      3  C2  UNL d   1      -2.124  -5.850  -2.672  0.00  0.00    -0.001 A 
ATOM      4  C3  UNL d   1      -3.331  -5.389  -2.144  0.00  0.00     0.003 A 
ATOM      5  C4  UNL d   1      -3.655  -4.036  -2.215  0.00  0.00    -0.005 A 
ATOM      6  C5  UNL d   1      -2.771  -3.141  -2.815  0.00  0.00     0.003 A 
ATOM      7  C6  UNL d   1      -1.563  -3.600  -3.343  0.00  0.00    -0.001 A 
ENDROOT
TORSDOF 0
ENDMDL
