MODEL 1
REMARK minimizedAffinity 6.5975585
REMARK minimizedRMSD -1
REMARK  0 active torsions:
REMARK  status: ('A' for Active; 'I' for Inactive)
ROOT
ATOM      1  C   UNL d   1      -3.784  -5.880  -1.806  0.00  0.00     0.078 C 
ATOM      2  C1  UNL d   1      -3.182  -5.914  -0.433  0.00  0.00    -0.077 A 
ATOM      3  C2  UNL d   1      -1.793  -5.917  -0.255  0.00  0.00    -0.001 A 
ATOM      4  C3  UNL d   1      -1.247  -5.958   1.029  0.00  0.00     0.003 A 
ATOM      5  C4  UNL d   1      -2.081  -5.999   2.144  0.00  0.00    -0.005 A 
ATOM      6  C5  UNL d   1      -3.465  -5.998   1.976  0.00  0.00     0.003 A 
ATOM      7  C6  UNL d   1      -4.013  -5.957   0.693  0.00  0.00    -0.001 A 
ENDROOT
TORSDOF 0
ENDMDL
