MODEL 1
REMARK minimizedAffinity 9.30200863
REMARK minimizedRMSD -1
REMARK  0 active torsions:
REMARK  status: ('A' for Active; 'I' for Inactive)
ROOT
ATOM      1  C   UNL d   1       4.497   3.000  -2.507  0.00  0.00     0.078 C 
ATOM      2  C1  UNL d   1       4.156   3.804  -3.726  0.00  0.00    -0.077 A 
ATOM      3  C2  UNL d   1       3.606   3.196  -4.861  0.00  0.00    -0.001 A 
ATOM      4  C3  UNL d   1       3.303   3.956  -5.992  0.00  0.00     0.003 A 
ATOM      5  C4  UNL d   1       3.547   5.327  -6.000  0.00  0.00    -0.005 A 
ATOM      6  C5  UNL d   1       4.096   5.941  -4.876  0.00  0.00     0.003 A 
ATOM      7  C6  UNL d   1       4.400   5.183  -3.744  0.00  0.00    -0.001 A 
ENDROOT
TORSDOF 0
ENDMDL
