MODEL 1
REMARK minimizedAffinity 6.15021896
REMARK minimizedRMSD -1
REMARK  0 active torsions:
REMARK  status: ('A' for Active; 'I' for Inactive)
ROOT
ATOM      1  C   UNL d   1      -0.007  -5.194  -3.914  0.00  0.00     0.078 C 
ATOM      2  C1  UNL d   1      -1.311  -4.795  -3.290  0.00  0.00    -0.077 A 
ATOM      3  C2  UNL d   1      -1.671  -3.447  -3.173  0.00  0.00    -0.001 A 
ATOM      4  C3  UNL d   1      -2.884  -3.089  -2.581  0.00  0.00     0.003 A 
ATOM      5  C4  UNL d   1      -3.745  -4.073  -2.100  0.00  0.00    -0.005 A 
ATOM      6  C5  UNL d   1      -3.394  -5.417  -2.210  0.00  0.00     0.003 A 
ATOM      7  C6  UNL d   1      -2.182  -5.777  -2.802  0.00  0.00    -0.001 A 
ENDROOT
TORSDOF 0
ENDMDL
