MODEL 1
REMARK minimizedAffinity 1.21376896
REMARK minimizedRMSD -1
REMARK  0 active torsions:
REMARK  status: ('A' for Active; 'I' for Inactive)
ROOT
ATOM      1  C   UNL d   1       0.765  -5.633  -3.786  0.00  0.00     0.078 C 
ATOM      2  C1  UNL d   1      -0.586  -5.141  -3.360  0.00  0.00    -0.077 A 
ATOM      3  C2  UNL d   1      -1.695  -5.996  -3.348  0.00  0.00    -0.001 A 
ATOM      4  C3  UNL d   1      -2.948  -5.522  -2.959  0.00  0.00     0.003 A 
ATOM      5  C4  UNL d   1      -3.105  -4.190  -2.579  0.00  0.00    -0.005 A 
ATOM      6  C5  UNL d   1      -2.008  -3.331  -2.590  0.00  0.00     0.003 A 
ATOM      7  C6  UNL d   1      -0.754  -3.804  -2.979  0.00  0.00    -0.001 A 
ENDROOT
TORSDOF 0
ENDMDL
