MODEL 1
REMARK minimizedAffinity 2.13163829
REMARK minimizedRMSD -1
REMARK  0 active torsions:
REMARK  status: ('A' for Active; 'I' for Inactive)
ROOT
ATOM      1  C   UNL d   1      -4.081  -5.999   0.235  0.00  0.00     0.078 C 
ATOM      2  C1  UNL d   1      -3.056  -5.277   1.057  0.00  0.00    -0.077 A 
ATOM      3  C2  UNL d   1      -2.929  -3.884   0.991  0.00  0.00    -0.001 A 
ATOM      4  C3  UNL d   1      -1.963  -3.227   1.754  0.00  0.00     0.003 A 
ATOM      5  C4  UNL d   1      -1.116  -3.954   2.588  0.00  0.00    -0.005 A 
ATOM      6  C5  UNL d   1      -1.233  -5.340   2.659  0.00  0.00     0.003 A 
ATOM      7  C6  UNL d   1      -2.198  -6.000   1.896  0.00  0.00    -0.001 A 
ENDROOT
TORSDOF 0
ENDMDL
