MODEL 1
REMARK minimizedAffinity 4.4959569
REMARK minimizedRMSD -1
REMARK  0 active torsions:
REMARK  status: ('A' for Active; 'I' for Inactive)
ROOT
ATOM      1  C   UNL d   1      -5.968  -3.679  -5.691  0.00  0.00     0.078 C 
ATOM      2  C1  UNL d   1      -5.256  -4.476  -4.639  0.00  0.00    -0.077 A 
ATOM      3  C2  UNL d   1      -3.858  -4.474  -4.556  0.00  0.00    -0.001 A 
ATOM      4  C3  UNL d   1      -3.208  -5.228  -3.577  0.00  0.00     0.003 A 
ATOM      5  C4  UNL d   1      -3.947  -5.990  -2.675  0.00  0.00    -0.005 A 
ATOM      6  C5  UNL d   1      -5.338  -6.000  -2.751  0.00  0.00     0.003 A 
ATOM      7  C6  UNL d   1      -5.990  -5.247  -3.729  0.00  0.00    -0.001 A 
ENDROOT
TORSDOF 0
ENDMDL
