MODEL 1
REMARK minimizedAffinity -1.02136445
REMARK minimizedRMSD -1
REMARK  0 active torsions:
REMARK  status: ('A' for Active; 'I' for Inactive)
ROOT
ATOM      1  C   UNL d   1      -1.646  -4.895  -3.670  0.00  0.00     0.078 C 
ATOM      2  C1  UNL d   1      -3.087  -4.568  -3.418  0.00  0.00    -0.077 A 
ATOM      3  C2  UNL d   1      -3.455  -3.637  -2.439  0.00  0.00    -0.001 A 
ATOM      4  C3  UNL d   1      -4.802  -3.350  -2.208  0.00  0.00     0.003 A 
ATOM      5  C4  UNL d   1      -5.791  -3.990  -2.952  0.00  0.00    -0.005 A 
ATOM      6  C5  UNL d   1      -5.434  -4.919  -3.928  0.00  0.00     0.003 A 
ATOM      7  C6  UNL d   1      -4.089  -5.208  -4.159  0.00  0.00    -0.001 A 
ENDROOT
TORSDOF 0
ENDMDL
