MODEL 1
REMARK minimizedAffinity 7.63664007
REMARK minimizedRMSD -1
REMARK  0 active torsions:
REMARK  status: ('A' for Active; 'I' for Inactive)
ROOT
ATOM      1  C   UNL d   1      -4.139  -5.995   1.257  0.00  0.00     0.078 C 
ATOM      2  C1  UNL d   1      -2.968  -5.093   1.511  0.00  0.00    -0.077 A 
ATOM      3  C2  UNL d   1      -1.919  -5.492   2.348  0.00  0.00    -0.001 A 
ATOM      4  C3  UNL d   1      -0.840  -4.638   2.583  0.00  0.00     0.003 A 
ATOM      5  C4  UNL d   1      -0.800  -3.380   1.986  0.00  0.00    -0.005 A 
ATOM      6  C5  UNL d   1      -1.840  -2.974   1.153  0.00  0.00     0.003 A 
ATOM      7  C6  UNL d   1      -2.920  -3.826   0.917  0.00  0.00    -0.001 A 
ENDROOT
TORSDOF 0
ENDMDL
