MODEL 1
REMARK minimizedAffinity 15.3300238
REMARK minimizedRMSD -1
REMARK  0 active torsions:
REMARK  status: ('A' for Active; 'I' for Inactive)
ROOT
ATOM      1  C   UNL d   1       0.233  -5.986  -4.046  0.00  0.00     0.078 C 
ATOM      2  C1  UNL d   1      -0.704  -4.925  -3.551  0.00  0.00    -0.077 A 
ATOM      3  C2  UNL d   1      -0.387  -3.567  -3.679  0.00  0.00    -0.001 A 
ATOM      4  C3  UNL d   1      -1.264  -2.590  -3.205  0.00  0.00     0.003 A 
ATOM      5  C4  UNL d   1      -2.463  -2.961  -2.599  0.00  0.00    -0.005 A 
ATOM      6  C5  UNL d   1      -2.786  -4.310  -2.466  0.00  0.00     0.003 A 
ATOM      7  C6  UNL d   1      -1.910  -5.288  -2.939  0.00  0.00    -0.001 A 
ENDROOT
TORSDOF 0
ENDMDL
