MODEL 1
REMARK minimizedAffinity 11.8432007
REMARK minimizedRMSD -1
REMARK  0 active torsions:
REMARK  status: ('A' for Active; 'I' for Inactive)
ROOT
ATOM      1  C   UNL d   1      -4.079  -6.000   0.620  0.00  0.00     0.078 C 
ATOM      2  C1  UNL d   1      -2.989  -5.292   1.370  0.00  0.00    -0.077 A 
ATOM      3  C2  UNL d   1      -2.730  -3.934   1.153  0.00  0.00    -0.001 A 
ATOM      4  C3  UNL d   1      -1.706  -3.290   1.851  0.00  0.00     0.003 A 
ATOM      5  C4  UNL d   1      -0.933  -3.998   2.769  0.00  0.00    -0.005 A 
ATOM      6  C5  UNL d   1      -1.182  -5.351   2.990  0.00  0.00     0.003 A 
ATOM      7  C6  UNL d   1      -2.206  -5.996   2.293  0.00  0.00    -0.001 A 
ENDROOT
TORSDOF 0
ENDMDL
