MODEL 1
REMARK minimizedAffinity 6.24213886
REMARK minimizedRMSD -1
REMARK  0 active torsions:
REMARK  status: ('A' for Active; 'I' for Inactive)
ROOT
ATOM      1  C   UNL d   1      -2.554  -2.840  -1.527  0.00  0.00     0.078 C 
ATOM      2  C1  UNL d   1      -3.749  -3.745  -1.535  0.00  0.00    -0.077 A 
ATOM      3  C2  UNL d   1      -3.746  -4.948  -0.818  0.00  0.00    -0.001 A 
ATOM      4  C3  UNL d   1      -4.862  -5.787  -0.842  0.00  0.00     0.003 A 
ATOM      5  C4  UNL d   1      -5.988  -5.431  -1.582  0.00  0.00    -0.005 A 
ATOM      6  C5  UNL d   1      -5.999  -4.237  -2.300  0.00  0.00     0.003 A 
ATOM      7  C6  UNL d   1      -4.884  -3.398  -2.277  0.00  0.00    -0.001 A 
ENDROOT
TORSDOF 0
ENDMDL
