MODEL 1
REMARK minimizedAffinity -4.33876514
REMARK minimizedRMSD -1
REMARK  2 active torsions:
REMARK  status: ('A' for Active; 'I' for Inactive)
REMARK    1  A    between atoms: C2'_3  and  C1'_4 
REMARK    2  A    between atoms: C1'_4  and  C1_5 
ROOT
ATOM      1  C1  I4B d   1       0.094   0.217  -0.062  0.00  0.00    -0.075 A 
ATOM      2  C2  I4B d   1       0.044  -1.085  -0.494  0.00  0.00     0.003 A 
ATOM      3  C3  I4B d   1       1.124  -1.964  -0.237  0.00  0.00     0.002 A 
ATOM      4  C4  I4B d   1       2.248  -1.489   0.407  0.00  0.00    -0.004 A 
ATOM      5  C5  I4B d   1       2.288  -0.175   0.865  0.00  0.00     0.002 A 
ATOM      6  C6  I4B d   1       1.199   0.680   0.640  0.00  0.00     0.003 A 
ENDROOT
BRANCH   1   7
ATOM      7  C1' I4B d   1      -1.050   1.126  -0.381  0.00  0.00     0.060 C 
BRANCH   7   8
ATOM      8  C2' I4B d   1      -2.289   0.570   0.290  0.00  0.00    -0.013 C 
ATOM      9  C4' I4B d   1      -2.860   1.550   1.281  0.00  0.00     0.013 C 
ATOM     10  C3' I4B d   1      -3.286   0.239  -0.780  0.00  0.00     0.013 C 
ENDBRANCH   7   8
ENDBRANCH   1   7
TORSDOF 2
ENDMDL
