MODEL 1
REMARK minimizedAffinity -0.0488190502
REMARK minimizedRMSD -1
REMARK  2 active torsions:
REMARK  status: ('A' for Active; 'I' for Inactive)
REMARK    1  A    between atoms: C2'_3  and  C1'_4 
REMARK    2  A    between atoms: C1'_4  and  C1_5 
ROOT
ATOM      1  C1  I4B d   1       3.186  -1.096  -0.989  0.00  0.00    -0.075 A 
ATOM      2  C2  I4B d   1       3.460  -1.516  -2.266  0.00  0.00     0.003 A 
ATOM      3  C3  I4B d   1       4.331  -0.766  -3.093  0.00  0.00     0.002 A 
ATOM      4  C4  I4B d   1       4.863   0.417  -2.622  0.00  0.00    -0.004 A 
ATOM      5  C5  I4B d   1       4.603   0.830  -1.318  0.00  0.00     0.002 A 
ATOM      6  C6  I4B d   1       3.769   0.063  -0.492  0.00  0.00     0.003 A 
ENDROOT
BRANCH   1   7
ATOM      7  C1' I4B d   1       2.235  -1.895  -0.155  0.00  0.00     0.060 C 
BRANCH   7   8
ATOM      8  C2' I4B d   1       1.013  -1.039   0.109  0.00  0.00    -0.013 C 
ATOM      9  C4' I4B d   1       0.036  -1.116  -1.035  0.00  0.00     0.013 C 
ATOM     10  C3' I4B d   1       0.387  -1.508   1.388  0.00  0.00     0.013 C 
ENDBRANCH   7   8
ENDBRANCH   1   7
TORSDOF 2
ENDMDL
