MODEL 1
REMARK minimizedAffinity -3.51957536
REMARK minimizedRMSD -1
REMARK  2 active torsions:
REMARK  status: ('A' for Active; 'I' for Inactive)
REMARK    1  A    between atoms: C2'_3  and  C1'_4 
REMARK    2  A    between atoms: C1'_4  and  C1_5 
ROOT
ATOM      1  C1  I4B d   1       1.555  -0.212   0.718  0.00  0.00    -0.075 A 
ATOM      2  C2  I4B d   1       0.553  -1.092   0.396  0.00  0.00     0.003 A 
ATOM      3  C3  I4B d   1      -0.589  -0.644  -0.312  0.00  0.00     0.002 A 
ATOM      4  C4  I4B d   1      -0.709   0.693  -0.631  0.00  0.00    -0.004 A 
ATOM      5  C5  I4B d   1       0.318   1.580  -0.323  0.00  0.00     0.002 A 
ATOM      6  C6  I4B d   1       1.464   1.123   0.344  0.00  0.00     0.003 A 
ENDROOT
BRANCH   1   7
ATOM      7  C1' I4B d   1       2.732  -0.712   1.495  0.00  0.00     0.060 C 
BRANCH   7   8
ATOM      8  C2' I4B d   1       3.359  -1.848   0.712  0.00  0.00    -0.013 C 
ATOM      9  C4' I4B d   1       3.221  -1.629  -0.771  0.00  0.00     0.013 C 
ATOM     10  C3' I4B d   1       4.801  -1.946   1.114  0.00  0.00     0.013 C 
ENDBRANCH   7   8
ENDBRANCH   1   7
TORSDOF 2
ENDMDL
