MODEL 1
REMARK minimizedAffinity -4.16108656
REMARK minimizedRMSD -1
REMARK  2 active torsions:
REMARK  status: ('A' for Active; 'I' for Inactive)
REMARK    1  A    between atoms: C2'_3  and  C1'_4 
REMARK    2  A    between atoms: C1'_4  and  C1_5 
ROOT
ATOM      1  C1  I4B d   1      -0.668   0.775  -0.051  0.00  0.00    -0.075 A 
ATOM      2  C2  I4B d   1       0.259   1.786  -0.038  0.00  0.00     0.003 A 
ATOM      3  C3  I4B d   1       1.621   1.501   0.223  0.00  0.00     0.002 A 
ATOM      4  C4  I4B d   1       2.001   0.207   0.514  0.00  0.00    -0.004 A 
ATOM      5  C5  I4B d   1       1.063  -0.821   0.478  0.00  0.00     0.002 A 
ATOM      6  C6  I4B d   1      -0.278  -0.538   0.182  0.00  0.00     0.003 A 
ENDROOT
BRANCH   1   7
ATOM      7  C1' I4B d   1      -2.104   1.116  -0.297  0.00  0.00     0.060 C 
BRANCH   7   8
ATOM      8  C2' I4B d   1      -2.777   1.300   1.047  0.00  0.00    -0.013 C 
ATOM      9  C4' I4B d   1      -3.110   2.748   1.297  0.00  0.00     0.013 C 
ATOM     10  C3' I4B d   1      -4.012   0.450   1.067  0.00  0.00     0.013 C 
ENDBRANCH   7   8
ENDBRANCH   1   7
TORSDOF 2
ENDMDL
