MODEL 1
REMARK minimizedAffinity -2.26534843
REMARK minimizedRMSD -1
REMARK  2 active torsions:
REMARK  status: ('A' for Active; 'I' for Inactive)
REMARK    1  A    between atoms: C2'_3  and  C1'_4 
REMARK    2  A    between atoms: C1'_4  and  C1_5 
ROOT
ATOM      1  C1  I4B d   1      -0.450   0.253  -0.088  0.00  0.00    -0.075 A 
ATOM      2  C2  I4B d   1      -0.381  -1.117  -0.116  0.00  0.00     0.003 A 
ATOM      3  C3  I4B d   1       0.855  -1.773   0.100  0.00  0.00     0.002 A 
ATOM      4  C4  I4B d   1       1.998  -1.024   0.288  0.00  0.00    -0.004 A 
ATOM      5  C5  I4B d   1       1.922   0.365   0.339  0.00  0.00     0.002 A 
ATOM      6  C6  I4B d   1       0.689   1.008   0.162  0.00  0.00     0.003 A 
ENDROOT
BRANCH   1   7
ATOM      7  C1' I4B d   1      -1.766   0.914  -0.352  0.00  0.00     0.060 C 
BRANCH   7   8
ATOM      8  C2' I4B d   1      -2.694   0.584   0.799  0.00  0.00    -0.013 C 
ATOM      9  C4' I4B d   1      -2.650   1.653   1.859  0.00  0.00     0.013 C 
ATOM     10  C3' I4B d   1      -4.079   0.426   0.247  0.00  0.00     0.013 C 
ENDBRANCH   7   8
ENDBRANCH   1   7
TORSDOF 2
ENDMDL
