MODEL 1
REMARK minimizedAffinity -5.28203821
REMARK minimizedRMSD -1
REMARK  0 active torsions:
REMARK  status: ('A' for Active; 'I' for Inactive)
ROOT
ATOM      1  C   UNL d   1      -1.161   0.090  -0.278  0.00  0.00     0.078 C 
ATOM      2  C1  UNL d   1       0.302   0.161   0.040  0.00  0.00    -0.077 A 
ATOM      3  C2  UNL d   1       0.958   1.394   0.145  0.00  0.00    -0.001 A 
ATOM      4  C3  UNL d   1       2.323   1.445   0.432  0.00  0.00     0.003 A 
ATOM      5  C4  UNL d   1       3.044   0.266   0.616  0.00  0.00    -0.005 A 
ATOM      6  C5  UNL d   1       2.401  -0.965   0.511  0.00  0.00     0.003 A 
ATOM      7  C6  UNL d   1       1.036  -1.018   0.224  0.00  0.00    -0.001 A 
ENDROOT
TORSDOF 0
ENDMDL
