MODEL 1
REMARK minimizedAffinity -1.16412735
REMARK minimizedRMSD -1
REMARK  0 active torsions:
REMARK  status: ('A' for Active; 'I' for Inactive)
ROOT
ATOM      1  C   UNL d   1      -0.486  -0.954   0.370  0.00  0.00     0.078 C 
ATOM      2  C1  UNL d   1      -1.269  -0.434  -0.799  0.00  0.00    -0.077 A 
ATOM      3  C2  UNL d   1      -1.491  -1.230  -1.930  0.00  0.00    -0.001 A 
ATOM      4  C3  UNL d   1      -2.213  -0.730  -3.014  0.00  0.00     0.003 A 
ATOM      5  C4  UNL d   1      -2.717   0.569  -2.980  0.00  0.00    -0.005 A 
ATOM      6  C5  UNL d   1      -2.499   1.369  -1.860  0.00  0.00     0.003 A 
ATOM      7  C6  UNL d   1      -1.777   0.870  -0.775  0.00  0.00    -0.001 A 
ENDROOT
TORSDOF 0
ENDMDL
