MODEL 1
REMARK minimizedAffinity -5.38062334
REMARK minimizedRMSD -1
REMARK  0 active torsions:
REMARK  status: ('A' for Active; 'I' for Inactive)
ROOT
ATOM      1  C   UNL d   1      -1.225  -0.007  -0.433  0.00  0.00     0.078 C 
ATOM      2  C1  UNL d   1       0.191   0.255  -0.013  0.00  0.00    -0.077 A 
ATOM      3  C2  UNL d   1       0.682   1.562   0.092  0.00  0.00    -0.001 A 
ATOM      4  C3  UNL d   1       2.004   1.791   0.475  0.00  0.00     0.003 A 
ATOM      5  C4  UNL d   1       2.847   0.717   0.755  0.00  0.00    -0.005 A 
ATOM      6  C5  UNL d   1       2.368  -0.587   0.651  0.00  0.00     0.003 A 
ATOM      7  C6  UNL d   1       1.046  -0.818   0.268  0.00  0.00    -0.001 A 
ENDROOT
TORSDOF 0
ENDMDL
