MODEL 1
REMARK minimizedAffinity -4.88019657
REMARK minimizedRMSD -1
REMARK  0 active torsions:
REMARK  status: ('A' for Active; 'I' for Inactive)
ROOT
ATOM      1  C   UNL d   1       3.365  -0.394   0.600  0.00  0.00     0.078 C 
ATOM      2  C1  UNL d   1       1.888  -0.299   0.353  0.00  0.00    -0.077 A 
ATOM      3  C2  UNL d   1       1.287   0.927   0.045  0.00  0.00    -0.001 A 
ATOM      4  C3  UNL d   1      -0.090   1.003  -0.173  0.00  0.00     0.003 A 
ATOM      5  C4  UNL d   1      -0.877  -0.144  -0.082  0.00  0.00    -0.005 A 
ATOM      6  C5  UNL d   1      -0.287  -1.368   0.227  0.00  0.00     0.003 A 
ATOM      7  C6  UNL d   1       1.089  -1.445   0.444  0.00  0.00    -0.001 A 
ENDROOT
TORSDOF 0
ENDMDL
