MODEL 1
REMARK minimizedAffinity -4.71003437
REMARK minimizedRMSD -1
REMARK  0 active torsions:
REMARK  status: ('A' for Active; 'I' for Inactive)
ROOT
ATOM      1  C   UNL d   1      -1.358  -0.097  -0.154  0.00  0.00     0.078 C 
ATOM      2  C1  UNL d   1       0.095   0.197   0.072  0.00  0.00    -0.077 A 
ATOM      3  C2  UNL d   1       0.545   1.511   0.251  0.00  0.00    -0.001 A 
ATOM      4  C3  UNL d   1       1.902   1.771   0.451  0.00  0.00     0.003 A 
ATOM      5  C4  UNL d   1       2.820   0.723   0.472  0.00  0.00    -0.005 A 
ATOM      6  C5  UNL d   1       2.382  -0.587   0.293  0.00  0.00     0.003 A 
ATOM      7  C6  UNL d   1       1.025  -0.850   0.093  0.00  0.00    -0.001 A 
ENDROOT
TORSDOF 0
ENDMDL
