MODEL 1
REMARK minimizedAffinity -5.33126116
REMARK minimizedRMSD -1
REMARK  0 active torsions:
REMARK  status: ('A' for Active; 'I' for Inactive)
ROOT
ATOM      1  C   UNL d   1      -0.884   0.114  -0.566  0.00  0.00     0.078 C 
ATOM      2  C1  UNL d   1       0.511   0.107  -0.016  0.00  0.00    -0.077 A 
ATOM      3  C2  UNL d   1       1.221   1.300   0.165  0.00  0.00    -0.001 A 
ATOM      4  C3  UNL d   1       2.523   1.277   0.668  0.00  0.00     0.003 A 
ATOM      5  C4  UNL d   1       3.126   0.064   0.995  0.00  0.00    -0.005 A 
ATOM      6  C5  UNL d   1       2.428  -1.129   0.816  0.00  0.00     0.003 A 
ATOM      7  C6  UNL d   1       1.126  -1.108   0.313  0.00  0.00    -0.001 A 
ENDROOT
TORSDOF 0
ENDMDL
