MODEL 1
REMARK minimizedAffinity -5.26993322
REMARK minimizedRMSD -1
REMARK  0 active torsions:
REMARK  status: ('A' for Active; 'I' for Inactive)
ROOT
ATOM      1  C   UNL d   1       1.128  -2.501   1.998  0.00  0.00     0.078 C 
ATOM      2  C1  UNL d   1       1.291  -1.177   1.313  0.00  0.00    -0.077 A 
ATOM      3  C2  UNL d   1       2.392  -0.356   1.582  0.00  0.00    -0.001 A 
ATOM      4  C3  UNL d   1       2.527   0.877   0.944  0.00  0.00     0.003 A 
ATOM      5  C4  UNL d   1       1.562   1.302   0.032  0.00  0.00    -0.005 A 
ATOM      6  C5  UNL d   1       0.461   0.493  -0.241  0.00  0.00     0.003 A 
ATOM      7  C6  UNL d   1       0.325  -0.741   0.397  0.00  0.00    -0.001 A 
ENDROOT
TORSDOF 0
ENDMDL
