MODEL 1
REMARK minimizedAffinity -2.79121733
REMARK minimizedRMSD -1
REMARK  0 active torsions:
REMARK  status: ('A' for Active; 'I' for Inactive)
ROOT
ATOM      1  C   UNL d   1       2.978   0.611   1.338  0.00  0.00     0.078 C 
ATOM      2  C1  UNL d   1       1.576   0.395   0.853  0.00  0.00    -0.077 A 
ATOM      3  C2  UNL d   1       0.786   1.469   0.426  0.00  0.00    -0.001 A 
ATOM      4  C3  UNL d   1      -0.521   1.254  -0.014  0.00  0.00     0.003 A 
ATOM      5  C4  UNL d   1      -1.051  -0.034  -0.029  0.00  0.00    -0.005 A 
ATOM      6  C5  UNL d   1      -0.273  -1.110   0.396  0.00  0.00     0.003 A 
ATOM      7  C6  UNL d   1       1.034  -0.897   0.836  0.00  0.00    -0.001 A 
ENDROOT
TORSDOF 0
ENDMDL
