MODEL 1
REMARK minimizedAffinity -3.05609608
REMARK minimizedRMSD -1
REMARK  0 active torsions:
REMARK  status: ('A' for Active; 'I' for Inactive)
ROOT
ATOM      1  C   UNL d   1      -1.396   0.370  -0.748  0.00  0.00     0.078 C 
ATOM      2  C1  UNL d   1      -0.055   0.335  -0.078  0.00  0.00    -0.077 A 
ATOM      3  C2  UNL d   1       0.777  -0.786  -0.188  0.00  0.00    -0.001 A 
ATOM      4  C3  UNL d   1       2.019  -0.809   0.450  0.00  0.00     0.003 A 
ATOM      5  C4  UNL d   1       2.439   0.286   1.202  0.00  0.00    -0.005 A 
ATOM      6  C5  UNL d   1       1.618   1.405   1.318  0.00  0.00     0.003 A 
ATOM      7  C6  UNL d   1       0.376   1.430   0.682  0.00  0.00    -0.001 A 
ENDROOT
TORSDOF 0
ENDMDL
