MODEL 1
REMARK minimizedAffinity 2.14264607
REMARK minimizedRMSD -1
REMARK  0 active torsions:
REMARK  status: ('A' for Active; 'I' for Inactive)
ROOT
ATOM      1  C   UNL d   1      -0.425   0.290   0.440  0.00  0.00     0.078 C 
ATOM      2  C1  UNL d   1       0.516   1.455   0.493  0.00  0.00    -0.077 A 
ATOM      3  C2  UNL d   1       0.059   2.762   0.283  0.00  0.00    -0.001 A 
ATOM      4  C3  UNL d   1       0.949   3.837   0.325  0.00  0.00     0.003 A 
ATOM      5  C4  UNL d   1       2.302   3.615   0.576  0.00  0.00    -0.005 A 
ATOM      6  C5  UNL d   1       2.766   2.318   0.784  0.00  0.00     0.003 A 
ATOM      7  C6  UNL d   1       1.878   1.243   0.742  0.00  0.00    -0.001 A 
ENDROOT
TORSDOF 0
ENDMDL
