MODEL 1
REMARK minimizedAffinity -2.80808139
REMARK minimizedRMSD -1
REMARK  2 active torsions:
REMARK  status: ('A' for Active; 'I' for Inactive)
REMARK    1  A    between atoms: C1_2  and  C2_3 
REMARK    2  A    between atoms: C2_3  and  C3_4 
ROOT
ATOM      1  C3  UNL d   1       0.039  -0.466   0.094  0.00  0.00    -0.075 A 
ATOM      2  C4  UNL d   1       1.201  -1.242  -0.026  0.00  0.00     0.002 A 
ATOM      3  C5  UNL d   1       1.143  -2.629   0.107  0.00  0.00     0.002 A 
ATOM      4  C6  UNL d   1      -0.073  -3.257   0.370  0.00  0.00    -0.004 A 
ATOM      5  C7  UNL d   1      -1.231  -2.494   0.507  0.00  0.00     0.002 A 
ATOM      6  C8  UNL d   1      -1.177  -1.106   0.370  0.00  0.00     0.002 A 
ENDROOT
BRANCH   1   7
ATOM      7  C2  UNL d   1       0.090   1.034  -0.077  0.00  0.00     0.056 C 
BRANCH   7   8
ATOM      8  C1  UNL d   1      -0.058   1.817   1.232  0.00  0.00     0.007 C 
ATOM      9  C   UNL d   1       0.342   3.281   1.104  0.00  0.00     0.009 C 
ENDBRANCH   7   8
ENDBRANCH   1   7
TORSDOF 2
ENDMDL
