MODEL 1
REMARK minimizedAffinity -3.41667914
REMARK minimizedRMSD -1
REMARK  2 active torsions:
REMARK  status: ('A' for Active; 'I' for Inactive)
REMARK    1  A    between atoms: C1_2  and  C2_3 
REMARK    2  A    between atoms: C2_3  and  C3_4 
ROOT
ATOM      1  C3  UNL d   1       0.566  -1.024   0.514  0.00  0.00    -0.075 A 
ATOM      2  C4  UNL d   1      -0.186  -0.307   1.456  0.00  0.00     0.002 A 
ATOM      3  C5  UNL d   1      -0.652   0.975   1.164  0.00  0.00     0.002 A 
ATOM      4  C6  UNL d   1      -0.363   1.560  -0.067  0.00  0.00    -0.004 A 
ATOM      5  C7  UNL d   1       0.397   0.864  -1.004  0.00  0.00     0.002 A 
ATOM      6  C8  UNL d   1       0.861  -0.421  -0.716  0.00  0.00     0.002 A 
ENDROOT
BRANCH   1   7
ATOM      7  C2  UNL d   1       1.048  -2.423   0.813  0.00  0.00     0.056 C 
BRANCH   7   8
ATOM      8  C1  UNL d   1       0.124  -3.527   0.288  0.00  0.00     0.007 C 
ATOM      9  C   UNL d   1      -1.332  -3.093   0.186  0.00  0.00     0.009 C 
ENDBRANCH   7   8
ENDBRANCH   1   7
TORSDOF 2
ENDMDL
