MODEL 1
REMARK minimizedAffinity -2.07171178
REMARK minimizedRMSD -1
REMARK  2 active torsions:
REMARK  status: ('A' for Active; 'I' for Inactive)
REMARK    1  A    between atoms: C1_2  and  C2_3 
REMARK    2  A    between atoms: C2_3  and  C3_4 
ROOT
ATOM      1  C3  UNL d   1       0.609  -0.376  -0.217  0.00  0.00    -0.075 A 
ATOM      2  C4  UNL d   1       0.490  -0.509  -1.608  0.00  0.00     0.002 A 
ATOM      3  C5  UNL d   1       0.483  -1.772  -2.200  0.00  0.00     0.002 A 
ATOM      4  C6  UNL d   1       0.604  -2.915  -1.413  0.00  0.00    -0.004 A 
ATOM      5  C7  UNL d   1       0.739  -2.794  -0.032  0.00  0.00     0.002 A 
ATOM      6  C8  UNL d   1       0.742  -1.531   0.564  0.00  0.00     0.002 A 
ENDROOT
BRANCH   1   7
ATOM      7  C2  UNL d   1       0.588   0.987   0.434  0.00  0.00     0.056 C 
BRANCH   7   8
ATOM      8  C1  UNL d   1      -0.818   1.494   0.774  0.00  0.00     0.007 C 
ATOM      9  C   UNL d   1      -1.799   0.374   1.094  0.00  0.00     0.009 C 
ENDBRANCH   7   8
ENDBRANCH   1   7
TORSDOF 2
ENDMDL
