MODEL 1
REMARK minimizedAffinity -2.87680721
REMARK minimizedRMSD -1
REMARK  2 active torsions:
REMARK  status: ('A' for Active; 'I' for Inactive)
REMARK    1  A    between atoms: C1_2  and  C2_3 
REMARK    2  A    between atoms: C2_3  and  C3_4 
ROOT
ATOM      1  C3  UNL d   1       0.269   1.038   0.001  0.00  0.00    -0.075 A 
ATOM      2  C4  UNL d   1      -0.151   0.154   1.005  0.00  0.00     0.002 A 
ATOM      3  C5  UNL d   1      -0.057  -1.226   0.820  0.00  0.00     0.002 A 
ATOM      4  C6  UNL d   1       0.448  -1.738  -0.373  0.00  0.00    -0.004 A 
ATOM      5  C7  UNL d   1       0.854  -0.869  -1.384  0.00  0.00     0.002 A 
ATOM      6  C8  UNL d   1       0.764   0.512  -1.199  0.00  0.00     0.002 A 
ENDROOT
BRANCH   1   7
ATOM      7  C2  UNL d   1       0.197   2.532   0.208  0.00  0.00     0.056 C 
BRANCH   7   8
ATOM      8  C1  UNL d   1       1.529   3.170   0.616  0.00  0.00     0.007 C 
ATOM      9  C   UNL d   1       1.578   3.572   2.084  0.00  0.00     0.009 C 
ENDBRANCH   7   8
ENDBRANCH   1   7
TORSDOF 2
ENDMDL
