MODEL 1
REMARK minimizedAffinity -3.10719776
REMARK minimizedRMSD -1
REMARK  2 active torsions:
REMARK  status: ('A' for Active; 'I' for Inactive)
REMARK    1  A    between atoms: C1_2  and  C2_3 
REMARK    2  A    between atoms: C2_3  and  C3_4 
ROOT
ATOM      1  C3  UNL d   1       0.148  -0.795  -0.147  0.00  0.00    -0.075 A 
ATOM      2  C4  UNL d   1       1.326  -1.548  -0.042  0.00  0.00     0.002 A 
ATOM      3  C5  UNL d   1       1.277  -2.890   0.337  0.00  0.00     0.002 A 
ATOM      4  C6  UNL d   1       0.054  -3.492   0.625  0.00  0.00    -0.004 A 
ATOM      5  C7  UNL d   1      -1.121  -2.748   0.540  0.00  0.00     0.002 A 
ATOM      6  C8  UNL d   1      -1.075  -1.406   0.157  0.00  0.00     0.002 A 
ENDROOT
BRANCH   1   7
ATOM      7  C2  UNL d   1       0.192   0.650  -0.585  0.00  0.00     0.056 C 
BRANCH   7   8
ATOM      8  C1  UNL d   1      -0.228   0.873  -2.041  0.00  0.00     0.007 C 
ATOM      9  C   UNL d   1       0.370  -0.148  -3.001  0.00  0.00     0.009 C 
ENDBRANCH   7   8
ENDBRANCH   1   7
TORSDOF 2
ENDMDL
