MODEL 1
REMARK minimizedAffinity -4.91935778
REMARK minimizedRMSD -1
REMARK  2 active torsions:
REMARK  status: ('A' for Active; 'I' for Inactive)
REMARK    1  A    between atoms: C1_2  and  C2_3 
REMARK    2  A    between atoms: C2_3  and  C3_4 
ROOT
ATOM      1  C3  UNL d   1      -0.030   1.057  -0.140  0.00  0.00    -0.075 A 
ATOM      2  C4  UNL d   1       0.174   0.170   0.927  0.00  0.00     0.002 A 
ATOM      3  C5  UNL d   1       0.241  -1.205   0.702  0.00  0.00     0.002 A 
ATOM      4  C6  UNL d   1       0.095  -1.711  -0.588  0.00  0.00    -0.004 A 
ATOM      5  C7  UNL d   1      -0.124  -0.840  -1.653  0.00  0.00     0.002 A 
ATOM      6  C8  UNL d   1      -0.187   0.537  -1.431  0.00  0.00     0.002 A 
ENDROOT
BRANCH   1   7
ATOM      7  C2  UNL d   1      -0.074   2.549   0.094  0.00  0.00     0.056 C 
BRANCH   7   8
ATOM      8  C1  UNL d   1       1.127   3.094   0.873  0.00  0.00     0.007 C 
ATOM      9  C   UNL d   1       1.850   4.222   0.149  0.00  0.00     0.009 C 
ENDBRANCH   7   8
ENDBRANCH   1   7
TORSDOF 2
ENDMDL
