MODEL 1
REMARK minimizedAffinity -3.38556099
REMARK minimizedRMSD -1
REMARK  2 active torsions:
REMARK  status: ('A' for Active; 'I' for Inactive)
REMARK    1  A    between atoms: C1_2  and  C2_3 
REMARK    2  A    between atoms: C2_3  and  C3_4 
ROOT
ATOM      1  C3  UNL d   1       0.850   2.147  -0.591  0.00  0.00    -0.075 A 
ATOM      2  C4  UNL d   1       2.139   2.446  -1.055  0.00  0.00     0.002 A 
ATOM      3  C5  UNL d   1       2.816   3.574  -0.588  0.00  0.00     0.002 A 
ATOM      4  C6  UNL d   1       2.209   4.420   0.337  0.00  0.00    -0.004 A 
ATOM      5  C7  UNL d   1       0.922   4.142   0.792  0.00  0.00     0.002 A 
ATOM      6  C8  UNL d   1       0.245   3.012   0.330  0.00  0.00     0.002 A 
ENDROOT
BRANCH   1   7
ATOM      7  C2  UNL d   1       0.124   0.913  -1.070  0.00  0.00     0.056 C 
BRANCH   7   8
ATOM      8  C1  UNL d   1       0.559  -0.378  -0.368  0.00  0.00     0.007 C 
ATOM      9  C   UNL d   1      -0.177  -0.626   0.942  0.00  0.00     0.009 C 
ENDBRANCH   7   8
ENDBRANCH   1   7
TORSDOF 2
ENDMDL
