MODEL 1
REMARK minimizedAffinity -3.71459627
REMARK minimizedRMSD -1
REMARK  2 active torsions:
REMARK  status: ('A' for Active; 'I' for Inactive)
REMARK    1  A    between atoms: C1_2  and  C2_3 
REMARK    2  A    between atoms: C2_3  and  C3_4 
ROOT
ATOM      1  C3  UNL d   1      -0.040   0.071  -0.146  0.00  0.00    -0.075 A 
ATOM      2  C4  UNL d   1      -1.190  -0.145   0.627  0.00  0.00     0.002 A 
ATOM      3  C5  UNL d   1      -1.439  -1.396   1.192  0.00  0.00     0.002 A 
ATOM      4  C6  UNL d   1      -0.550  -2.447   0.984  0.00  0.00    -0.004 A 
ATOM      5  C7  UNL d   1       0.588  -2.249   0.204  0.00  0.00     0.002 A 
ATOM      6  C8  UNL d   1       0.842  -0.997  -0.359  0.00  0.00     0.002 A 
ENDROOT
BRANCH   1   7
ATOM      7  C2  UNL d   1       0.251   1.430  -0.736  0.00  0.00     0.056 C 
BRANCH   7   8
ATOM      8  C1  UNL d   1       1.584   2.035  -0.283  0.00  0.00     0.007 C 
ATOM      9  C   UNL d   1       1.419   3.325   0.509  0.00  0.00     0.009 C 
ENDBRANCH   7   8
ENDBRANCH   1   7
TORSDOF 2
ENDMDL
