MODEL 1
REMARK minimizedAffinity -3.963799
REMARK minimizedRMSD -1
REMARK  2 active torsions:
REMARK  status: ('A' for Active; 'I' for Inactive)
REMARK    1  A    between atoms: C1_2  and  C2_3 
REMARK    2  A    between atoms: C2_3  and  C3_4 
ROOT
ATOM      1  C3  UNL d   1      -0.198   0.243   0.202  0.00  0.00    -0.075 A 
ATOM      2  C4  UNL d   1      -1.281  -0.163   0.994  0.00  0.00     0.002 A 
ATOM      3  C5  UNL d   1      -1.484  -1.514   1.279  0.00  0.00     0.002 A 
ATOM      4  C6  UNL d   1      -0.615  -2.474   0.767  0.00  0.00    -0.004 A 
ATOM      5  C7  UNL d   1       0.455  -2.084  -0.035  0.00  0.00     0.002 A 
ATOM      6  C8  UNL d   1       0.663  -0.733  -0.318  0.00  0.00     0.002 A 
ENDROOT
BRANCH   1   7
ATOM      7  C2  UNL d   1       0.044   1.706  -0.085  0.00  0.00     0.056 C 
BRANCH   7   8
ATOM      8  C1  UNL d   1       1.510   2.134   0.050  0.00  0.00     0.007 C 
ATOM      9  C   UNL d   1       1.684   3.451   0.795  0.00  0.00     0.009 C 
ENDBRANCH   7   8
ENDBRANCH   1   7
TORSDOF 2
ENDMDL
