MODEL 1
REMARK minimizedAffinity -0.598715067
REMARK minimizedRMSD -1
REMARK  2 active torsions:
REMARK  status: ('A' for Active; 'I' for Inactive)
REMARK    1  A    between atoms: C1_2  and  C2_3 
REMARK    2  A    between atoms: C2_3  and  C3_4 
ROOT
ATOM      1  C3  UNL d   1       0.817   2.664   0.012  0.00  0.00    -0.075 A 
ATOM      2  C4  UNL d   1       2.035   2.858  -0.657  0.00  0.00     0.002 A 
ATOM      3  C5  UNL d   1       3.067   3.578  -0.054  0.00  0.00     0.002 A 
ATOM      4  C6  UNL d   1       2.892   4.121   1.217  0.00  0.00    -0.004 A 
ATOM      5  C7  UNL d   1       1.681   3.948   1.884  0.00  0.00     0.002 A 
ATOM      6  C8  UNL d   1       0.648   3.225   1.285  0.00  0.00     0.002 A 
ENDROOT
BRANCH   1   7
ATOM      7  C2  UNL d   1      -0.293   1.861  -0.623  0.00  0.00     0.056 C 
BRANCH   7   8
ATOM      8  C1  UNL d   1       0.102   0.424  -0.978  0.00  0.00     0.007 C 
ATOM      9  C   UNL d   1      -0.304  -0.590   0.083  0.00  0.00     0.009 C 
ENDBRANCH   7   8
ENDBRANCH   1   7
TORSDOF 2
ENDMDL
