MODEL 1
REMARK minimizedAffinity -4.55342531
REMARK minimizedRMSD -1
REMARK  2 active torsions:
REMARK  status: ('A' for Active; 'I' for Inactive)
REMARK    1  A    between atoms: C1_2  and  C2_3 
REMARK    2  A    between atoms: C2_3  and  C3_4 
ROOT
ATOM      1  C3  UNL d   1       0.007  -0.016  -0.215  0.00  0.00    -0.075 A 
ATOM      2  C4  UNL d   1       0.571  -0.967  -1.078  0.00  0.00     0.002 A 
ATOM      3  C5  UNL d   1       0.420  -2.331  -0.825  0.00  0.00     0.002 A 
ATOM      4  C6  UNL d   1      -0.287  -2.760   0.296  0.00  0.00    -0.004 A 
ATOM      5  C7  UNL d   1      -0.837  -1.824   1.169  0.00  0.00     0.002 A 
ATOM      6  C8  UNL d   1      -0.691  -0.459   0.916  0.00  0.00     0.002 A 
ENDROOT
BRANCH   1   7
ATOM      7  C2  UNL d   1       0.142   1.461  -0.499  0.00  0.00     0.056 C 
BRANCH   7   8
ATOM      8  C1  UNL d   1       1.541   2.023  -0.226  0.00  0.00     0.007 C 
ATOM      9  C   UNL d   1       1.523   3.307   0.593  0.00  0.00     0.009 C 
ENDBRANCH   7   8
ENDBRANCH   1   7
TORSDOF 2
ENDMDL
