MODEL 1
REMARK minimizedAffinity -0.876747966
REMARK minimizedRMSD -1
REMARK  2 active torsions:
REMARK  status: ('A' for Active; 'I' for Inactive)
REMARK    1  A    between atoms: C1_2  and  C2_3 
REMARK    2  A    between atoms: C2_3  and  C3_4 
ROOT
ATOM      1  C3  UNL d   1       0.017  -0.420   0.189  0.00  0.00    -0.075 A 
ATOM      2  C4  UNL d   1       1.185  -1.187   0.063  0.00  0.00     0.002 A 
ATOM      3  C5  UNL d   1       1.135  -2.577   0.168  0.00  0.00     0.002 A 
ATOM      4  C6  UNL d   1      -0.079  -3.217   0.409  0.00  0.00    -0.004 A 
ATOM      5  C7  UNL d   1      -1.243  -2.464   0.552  0.00  0.00     0.002 A 
ATOM      6  C8  UNL d   1      -1.196  -1.073   0.443  0.00  0.00     0.002 A 
ENDROOT
BRANCH   1   7
ATOM      7  C2  UNL d   1       0.061   1.082   0.047  0.00  0.00     0.056 C 
BRANCH   7   8
ATOM      8  C1  UNL d   1       1.470   1.678   0.143  0.00  0.00     0.007 C 
ATOM      9  C   UNL d   1       1.510   3.010   0.881  0.00  0.00     0.009 C 
ENDBRANCH   7   8
ENDBRANCH   1   7
TORSDOF 2
ENDMDL
