MODEL 1
REMARK minimizedAffinity -6.21101284
REMARK minimizedRMSD -1
REMARK  2 active torsions:
REMARK  status: ('A' for Active; 'I' for Inactive)
REMARK    1  A    between atoms: C1_2  and  C2_3 
REMARK    2  A    between atoms: C2_3  and  C3_4 
ROOT
ATOM      1  C3  UNL d   1      -0.036   0.361  -0.068  0.00  0.00    -0.075 A 
ATOM      2  C4  UNL d   1      -0.993   0.418   0.956  0.00  0.00     0.002 A 
ATOM      3  C5  UNL d   1      -1.416  -0.748   1.596  0.00  0.00     0.002 A 
ATOM      4  C6  UNL d   1      -0.898  -1.983   1.213  0.00  0.00    -0.004 A 
ATOM      5  C7  UNL d   1       0.041  -2.053   0.186  0.00  0.00     0.002 A 
ATOM      6  C8  UNL d   1       0.469  -0.888  -0.453  0.00  0.00     0.002 A 
ENDROOT
BRANCH   1   7
ATOM      7  C2  UNL d   1       0.448   1.621  -0.744  0.00  0.00     0.056 C 
BRANCH   7   8
ATOM      8  C1  UNL d   1       1.113   2.623   0.207  0.00  0.00     0.007 C 
ATOM      9  C   UNL d   1       2.591   2.841  -0.090  0.00  0.00     0.009 C 
ENDBRANCH   7   8
ENDBRANCH   1   7
TORSDOF 2
ENDMDL
