MODEL 1
REMARK minimizedAffinity -4.93370581
REMARK minimizedRMSD -1
REMARK  0 active torsions:
REMARK  status: ('A' for Active; 'I' for Inactive)
ROOT
ATOM      1  C2' OXE d   1       2.140  -0.386  -0.494  0.00  0.00     0.078 C 
ATOM      2  C1' OXE d   1      -0.234   1.111  -0.419  0.00  0.00     0.078 C 
ATOM      3  C1  OXE d   1       0.007   0.117   0.690  0.00  0.00    -0.078 A 
ATOM      4  C2  OXE d   1       1.148  -0.644   0.620  0.00  0.00    -0.078 A 
ATOM      5  C3  OXE d   1       1.446  -1.536   1.646  0.00  0.00     0.003 A 
ATOM      6  C4  OXE d   1       0.519  -1.776   2.668  0.00  0.00    -0.002 A 
ATOM      7  C5  OXE d   1      -0.669  -1.040   2.736  0.00  0.00    -0.002 A 
ATOM      8  C6  OXE d   1      -0.920  -0.061   1.781  0.00  0.00     0.003 A 
ENDROOT
TORSDOF 0
ENDMDL
