MODEL 1
REMARK minimizedAffinity -2.11214423
REMARK minimizedRMSD -1
REMARK  0 active torsions:
REMARK  status: ('A' for Active; 'I' for Inactive)
ROOT
ATOM      1  C2' OXE d   1      -0.875   1.816   0.404  0.00  0.00     0.078 C 
ATOM      2  C1' OXE d   1      -0.940  -0.568   1.885  0.00  0.00     0.078 C 
ATOM      3  C1  OXE d   1       0.199  -0.373   0.916  0.00  0.00    -0.078 A 
ATOM      4  C2  OXE d   1       0.197   0.776   0.161  0.00  0.00    -0.078 A 
ATOM      5  C3  OXE d   1       1.253   1.031  -0.709  0.00  0.00     0.003 A 
ATOM      6  C4  OXE d   1       2.235   0.059  -0.935  0.00  0.00    -0.002 A 
ATOM      7  C5  OXE d   1       2.234  -1.135  -0.206  0.00  0.00    -0.002 A 
ATOM      8  C6  OXE d   1       1.249  -1.348   0.752  0.00  0.00     0.003 A 
ENDROOT
TORSDOF 0
ENDMDL
