MODEL 1
REMARK minimizedAffinity -4.15933371
REMARK minimizedRMSD -1
REMARK  0 active torsions:
REMARK  status: ('A' for Active; 'I' for Inactive)
ROOT
ATOM      1  C2' OXE d   1       1.966   0.030  -0.569  0.00  0.00     0.078 C 
ATOM      2  C1' OXE d   1      -0.673   0.854  -0.079  0.00  0.00     0.078 C 
ATOM      3  C1  OXE d   1      -0.059  -0.144   0.871  0.00  0.00    -0.078 A 
ATOM      4  C2  OXE d   1       1.216  -0.577   0.597  0.00  0.00    -0.078 A 
ATOM      5  C3  OXE d   1       1.848  -1.456   1.471  0.00  0.00     0.003 A 
ATOM      6  C4  OXE d   1       1.144  -2.020   2.541  0.00  0.00    -0.002 A 
ATOM      7  C5  OXE d   1      -0.169  -1.623   2.816  0.00  0.00    -0.002 A 
ATOM      8  C6  OXE d   1      -0.769  -0.656   2.017  0.00  0.00     0.003 A 
ENDROOT
TORSDOF 0
ENDMDL
