MODEL 1
REMARK minimizedAffinity -1.99349928
REMARK minimizedRMSD -1
REMARK  0 active torsions:
REMARK  status: ('A' for Active; 'I' for Inactive)
ROOT
ATOM      1  C2' OXE d   1       1.497  -2.931   1.926  0.00  0.00     0.078 C 
ATOM      2  C1' OXE d   1      -0.767  -1.588   2.902  0.00  0.00     0.078 C 
ATOM      3  C1  OXE d   1      -0.117  -1.054   1.650  0.00  0.00    -0.078 A 
ATOM      4  C2  OXE d   1       1.018  -1.689   1.206  0.00  0.00    -0.078 A 
ATOM      5  C3  OXE d   1       1.625  -1.270   0.026  0.00  0.00     0.003 A 
ATOM      6  C4  OXE d   1       1.181  -0.115  -0.629  0.00  0.00    -0.002 A 
ATOM      7  C5  OXE d   1       0.051   0.571  -0.171  0.00  0.00    -0.002 A 
ATOM      8  C6  OXE d   1      -0.634   0.091   0.941  0.00  0.00     0.003 A 
ENDROOT
TORSDOF 0
ENDMDL
