MODEL 1
REMARK minimizedAffinity -5.78408909
REMARK minimizedRMSD -1
REMARK  0 active torsions:
REMARK  status: ('A' for Active; 'I' for Inactive)
ROOT
ATOM      1  C2' OXE d   1      -0.439   1.060  -0.610  0.00  0.00     0.078 C 
ATOM      2  C1' OXE d   1       2.311   0.562  -0.878  0.00  0.00     0.078 C 
ATOM      3  C1  OXE d   1       1.511  -0.365   0.002  0.00  0.00    -0.078 A 
ATOM      4  C2  OXE d   1       0.175  -0.086   0.164  0.00  0.00    -0.078 A 
ATOM      5  C3  OXE d   1      -0.620  -0.942   0.922  0.00  0.00     0.003 A 
ATOM      6  C4  OXE d   1      -0.043  -1.994   1.643  0.00  0.00    -0.002 A 
ATOM      7  C5  OXE d   1       1.323  -2.271   1.523  0.00  0.00    -0.002 A 
ATOM      8  C6  OXE d   1       2.104  -1.494   0.675  0.00  0.00     0.003 A 
ENDROOT
TORSDOF 0
ENDMDL
