MODEL 1
REMARK minimizedAffinity -4.09647465
REMARK minimizedRMSD -1
REMARK  0 active torsions:
REMARK  status: ('A' for Active; 'I' for Inactive)
ROOT
ATOM      1  C2' OXE d   1       1.935   0.055  -0.735  0.00  0.00     0.078 C 
ATOM      2  C1' OXE d   1      -0.674   1.007  -0.321  0.00  0.00     0.078 C 
ATOM      3  C1  OXE d   1      -0.098   0.063   0.706  0.00  0.00    -0.078 A 
ATOM      4  C2  OXE d   1       1.161  -0.434   0.471  0.00  0.00    -0.078 A 
ATOM      5  C3  OXE d   1       1.761  -1.265   1.413  0.00  0.00     0.003 A 
ATOM      6  C4  OXE d   1       1.035  -1.721   2.520  0.00  0.00    -0.002 A 
ATOM      7  C5  OXE d   1      -0.264  -1.258   2.757  0.00  0.00    -0.002 A 
ATOM      8  C6  OXE d   1      -0.828  -0.334   1.884  0.00  0.00     0.003 A 
ENDROOT
TORSDOF 0
ENDMDL
