MODEL 1
REMARK minimizedAffinity 0.340389937
REMARK minimizedRMSD -1
REMARK  0 active torsions:
REMARK  status: ('A' for Active; 'I' for Inactive)
ROOT
ATOM      1  C2' OXE d   1       0.270   0.773   0.030  0.00  0.00     0.078 C 
ATOM      2  C1' OXE d   1      -1.500  -1.126  -1.038  0.00  0.00     0.078 C 
ATOM      3  C1  OXE d   1      -1.576   0.284  -1.570  0.00  0.00    -0.078 A 
ATOM      4  C2  OXE d   1      -0.738   1.217  -1.008  0.00  0.00    -0.078 A 
ATOM      5  C3  OXE d   1      -0.729   2.519  -1.500  0.00  0.00     0.003 A 
ATOM      6  C4  OXE d   1      -1.671   2.924  -2.453  0.00  0.00    -0.002 A 
ATOM      7  C5  OXE d   1      -2.560   1.998  -3.010  0.00  0.00    -0.002 A 
ATOM      8  C6  OXE d   1      -2.497   0.668  -2.611  0.00  0.00     0.003 A 
ENDROOT
TORSDOF 0
ENDMDL
