MODEL 1
REMARK minimizedAffinity -2.87782121
REMARK minimizedRMSD -1
REMARK  0 active torsions:
REMARK  status: ('A' for Active; 'I' for Inactive)
ROOT
ATOM      1  C2' OXE d   1      -0.540  -1.238   3.304  0.00  0.00     0.078 C 
ATOM      2  C1' OXE d   1      -1.310   0.776   1.506  0.00  0.00     0.078 C 
ATOM      3  C1  OXE d   1      -0.171  -0.127   1.105  0.00  0.00    -0.078 A 
ATOM      4  C2  OXE d   1       0.230  -1.080   2.010  0.00  0.00    -0.078 A 
ATOM      5  C3  OXE d   1       1.240  -1.974   1.668  0.00  0.00     0.003 A 
ATOM      6  C4  OXE d   1       1.953  -1.815   0.474  0.00  0.00    -0.002 A 
ATOM      7  C5  OXE d   1       1.587  -0.826  -0.445  0.00  0.00    -0.002 A 
ATOM      8  C6  OXE d   1       0.502  -0.003  -0.165  0.00  0.00     0.003 A 
ENDROOT
TORSDOF 0
ENDMDL
