MODEL 1
REMARK minimizedAffinity -2.25240159
REMARK minimizedRMSD -1
REMARK  0 active torsions:
REMARK  status: ('A' for Active; 'I' for Inactive)
ROOT
ATOM      1  C2' OXE d   1       0.310   1.215  -0.211  0.00  0.00     0.078 C 
ATOM      2  C1' OXE d   1      -1.850   2.231   1.266  0.00  0.00     0.078 C 
ATOM      3  C1  OXE d   1      -2.091   1.880  -0.181  0.00  0.00    -0.078 A 
ATOM      4  C2  OXE d   1      -1.016   1.427  -0.908  0.00  0.00    -0.078 A 
ATOM      5  C3  OXE d   1      -1.196   1.037  -2.233  0.00  0.00     0.003 A 
ATOM      6  C4  OXE d   1      -2.423   1.246  -2.873  0.00  0.00    -0.002 A 
ATOM      7  C5  OXE d   1      -3.520   1.743  -2.161  0.00  0.00    -0.002 A 
ATOM      8  C6  OXE d   1      -3.382   2.024  -0.806  0.00  0.00     0.003 A 
ENDROOT
TORSDOF 0
ENDMDL
