MODEL 1
REMARK minimizedAffinity -3.7371192
REMARK minimizedRMSD -1
REMARK  0 active torsions:
REMARK  status: ('A' for Active; 'I' for Inactive)
ROOT
ATOM      1  C2' OXE d   1      -0.966   0.901  -0.286  0.00  0.00     0.078 C 
ATOM      2  C1' OXE d   1      -0.725  -1.129   1.638  0.00  0.00     0.078 C 
ATOM      3  C1  OXE d   1       0.435  -0.906   0.701  0.00  0.00    -0.078 A 
ATOM      4  C2  OXE d   1       0.290   0.058  -0.267  0.00  0.00    -0.078 A 
ATOM      5  C3  OXE d   1       1.351   0.341  -1.123  0.00  0.00     0.003 A 
ATOM      6  C4  OXE d   1       2.506  -0.451  -1.106  0.00  0.00    -0.002 A 
ATOM      7  C5  OXE d   1       2.658  -1.464  -0.154  0.00  0.00    -0.002 A 
ATOM      8  C6  OXE d   1       1.652  -1.676   0.782  0.00  0.00     0.003 A 
ENDROOT
TORSDOF 0
ENDMDL
