MODEL 1
REMARK minimizedAffinity -3.65676165
REMARK minimizedRMSD -1
REMARK  0 active torsions:
REMARK  status: ('A' for Active; 'I' for Inactive)
ROOT
ATOM      1  C2' OXE d   1      -0.422   1.063  -0.604  0.00  0.00     0.078 C 
ATOM      2  C1' OXE d   1       2.053  -0.214  -0.956  0.00  0.00     0.078 C 
ATOM      3  C1  OXE d   1       1.170  -0.688   0.172  0.00  0.00    -0.078 A 
ATOM      4  C2  OXE d   1      -0.018  -0.027   0.366  0.00  0.00    -0.078 A 
ATOM      5  C3  OXE d   1      -0.895  -0.459   1.357  0.00  0.00     0.003 A 
ATOM      6  C4  OXE d   1      -0.509  -1.462   2.255  0.00  0.00    -0.002 A 
ATOM      7  C5  OXE d   1       0.714  -2.122   2.100  0.00  0.00    -0.002 A 
ATOM      8  C6  OXE d   1       1.545  -1.777   1.040  0.00  0.00     0.003 A 
ENDROOT
TORSDOF 0
ENDMDL
