MODEL 1
REMARK minimizedAffinity -1.28668022
REMARK minimizedRMSD -1
REMARK  0 active torsions:
REMARK  status: ('A' for Active; 'I' for Inactive)
ROOT
ATOM      1  C2' OXE d   1       0.280   1.714   0.259  0.00  0.00     0.078 C 
ATOM      2  C1' OXE d   1      -0.143  -0.745  -1.026  0.00  0.00     0.078 C 
ATOM      3  C1  OXE d   1      -0.968   0.434  -1.476  0.00  0.00    -0.078 A 
ATOM      4  C2  OXE d   1      -0.787   1.623  -0.810  0.00  0.00    -0.078 A 
ATOM      5  C3  OXE d   1      -1.484   2.756  -1.221  0.00  0.00     0.003 A 
ATOM      6  C4  OXE d   1      -2.477   2.660  -2.203  0.00  0.00    -0.002 A 
ATOM      7  C5  OXE d   1      -2.705   1.450  -2.867  0.00  0.00    -0.002 A 
ATOM      8  C6  OXE d   1      -1.931   0.340  -2.545  0.00  0.00     0.003 A 
ENDROOT
TORSDOF 0
ENDMDL
