MODEL 1
REMARK minimizedAffinity -3.10665941
REMARK minimizedRMSD -1
REMARK  0 active torsions:
REMARK  status: ('A' for Active; 'I' for Inactive)
ROOT
ATOM      1  C2' OXE d   1      -0.584  -1.023   2.345  0.00  0.00     0.078 C 
ATOM      2  C1' OXE d   1       1.658  -1.813   0.851  0.00  0.00     0.078 C 
ATOM      3  C1  OXE d   1       0.853  -0.642   0.345  0.00  0.00    -0.078 A 
ATOM      4  C2  OXE d   1      -0.269  -0.292   1.057  0.00  0.00    -0.078 A 
ATOM      5  C3  OXE d   1      -1.017   0.814   0.665  0.00  0.00     0.003 A 
ATOM      6  C4  OXE d   1      -0.726   1.479  -0.532  0.00  0.00    -0.002 A 
ATOM      7  C5  OXE d   1       0.389   1.114  -1.293  0.00  0.00    -0.002 A 
ATOM      8  C6  OXE d   1       1.212   0.085  -0.847  0.00  0.00     0.003 A 
ENDROOT
TORSDOF 0
ENDMDL
