MODEL 1
REMARK minimizedAffinity -3.60275197
REMARK minimizedRMSD -1
REMARK  0 active torsions:
REMARK  status: ('A' for Active; 'I' for Inactive)
ROOT
ATOM      1  C2' OXE d   1      -2.372   0.890  -1.683  0.00  0.00     0.078 C 
ATOM      2  C1' OXE d   1      -1.110   2.223   0.441  0.00  0.00     0.078 C 
ATOM      3  C1  OXE d   1      -0.416   1.020  -0.146  0.00  0.00    -0.078 A 
ATOM      4  C2  OXE d   1      -1.063   0.346  -1.154  0.00  0.00    -0.078 A 
ATOM      5  C3  OXE d   1      -0.441  -0.738  -1.768  0.00  0.00     0.003 A 
ATOM      6  C4  OXE d   1       0.765  -1.241  -1.266  0.00  0.00    -0.002 A 
ATOM      7  C5  OXE d   1       1.422  -0.593  -0.214  0.00  0.00    -0.002 A 
ATOM      8  C6  OXE d   1       0.867   0.561   0.328  0.00  0.00     0.003 A 
ENDROOT
TORSDOF 0
ENDMDL
