MODEL 1
REMARK minimizedAffinity -3.98739672
REMARK minimizedRMSD -1
REMARK  0 active torsions:
REMARK  status: ('A' for Active; 'I' for Inactive)
ROOT
ATOM      1  C2' OXE d   1       0.531  -2.236   3.176  0.00  0.00     0.078 C 
ATOM      2  C1' OXE d   1      -1.495  -0.461   2.387  0.00  0.00     0.078 C 
ATOM      3  C1  OXE d   1      -0.246  -0.523   1.543  0.00  0.00    -0.078 A 
ATOM      4  C2  OXE d   1       0.759  -1.360   1.963  0.00  0.00    -0.078 A 
ATOM      5  C3  OXE d   1       1.910  -1.496   1.192  0.00  0.00     0.003 A 
ATOM      6  C4  OXE d   1       2.117  -0.675   0.077  0.00  0.00    -0.002 A 
ATOM      7  C5  OXE d   1       1.123   0.213  -0.346  0.00  0.00    -0.002 A 
ATOM      8  C6  OXE d   1      -0.080   0.270   0.350  0.00  0.00     0.003 A 
ENDROOT
TORSDOF 0
ENDMDL
