MODEL 1
REMARK minimizedAffinity -2.74023223
REMARK minimizedRMSD -1
REMARK  0 active torsions:
REMARK  status: ('A' for Active; 'I' for Inactive)
ROOT
ATOM      1  C2' OXE d   1      -1.393   2.018   0.536  0.00  0.00     0.078 C 
ATOM      2  C1' OXE d   1       0.328   0.100  -0.577  0.00  0.00     0.078 C 
ATOM      3  C1  OXE d   1      -0.577   0.860  -1.514  0.00  0.00    -0.078 A 
ATOM      4  C2  OXE d   1      -1.449   1.764  -0.955  0.00  0.00    -0.078 A 
ATOM      5  C3  OXE d   1      -2.268   2.531  -1.779  0.00  0.00     0.003 A 
ATOM      6  C4  OXE d   1      -2.321   2.283  -3.156  0.00  0.00    -0.002 A 
ATOM      7  C5  OXE d   1      -1.470   1.339  -3.740  0.00  0.00    -0.002 A 
ATOM      8  C6  OXE d   1      -0.564   0.651  -2.940  0.00  0.00     0.003 A 
ENDROOT
TORSDOF 0
ENDMDL
