MODEL 1
REMARK minimizedAffinity -0.559680104
REMARK minimizedRMSD -1
REMARK  0 active torsions:
REMARK  status: ('A' for Active; 'I' for Inactive)
ROOT
ATOM      1  C2' OXE d   1      -1.192   1.518   0.348  0.00  0.00     0.078 C 
ATOM      2  C1' OXE d   1      -1.330  -0.667   2.105  0.00  0.00     0.078 C 
ATOM      3  C1  OXE d   1      -0.094  -0.528   1.252  0.00  0.00    -0.078 A 
ATOM      4  C2  OXE d   1      -0.056   0.518   0.361  0.00  0.00    -0.078 A 
ATOM      5  C3  OXE d   1       1.084   0.724  -0.411  0.00  0.00     0.003 A 
ATOM      6  C4  OXE d   1       2.126  -0.211  -0.401  0.00  0.00    -0.002 A 
ATOM      7  C5  OXE d   1       2.089  -1.305   0.470  0.00  0.00    -0.002 A 
ATOM      8  C6  OXE d   1       1.008  -1.454   1.332  0.00  0.00     0.003 A 
ENDROOT
TORSDOF 0
ENDMDL
