MODEL 1
REMARK minimizedAffinity -1.26015222
REMARK minimizedRMSD -1
REMARK  0 active torsions:
REMARK  status: ('A' for Active; 'I' for Inactive)
ROOT
ATOM      1  C   UNL d   1      -1.483   1.881   1.606  0.00  0.00     0.172 C 
ATOM      2  N   UNL d   1      -0.741   1.232   0.551  0.00  0.00    -0.070 N 
ATOM      3  C1  UNL d   1      -0.464  -0.107   0.477  0.00  0.00    -0.004 A 
ATOM      4  C2  UNL d   1       0.261  -0.325  -0.676  0.00  0.00    -0.047 A 
ATOM      5  C3  UNL d   1       0.425   0.927  -1.315  0.00  0.00    -0.047 A 
ATOM      6  C4  UNL d   1      -0.205   1.873  -0.535  0.00  0.00    -0.004 A 
ENDROOT
TORSDOF 0
ENDMDL
