MODEL 1
REMARK minimizedAffinity 2.98046827
REMARK minimizedRMSD -1
REMARK  0 active torsions:
REMARK  status: ('A' for Active; 'I' for Inactive)
ROOT
ATOM      1  C   UNL d   1       0.832  -0.733   1.560  0.00  0.00     0.172 C 
ATOM      2  N   UNL d   1       0.163  -0.092   0.452  0.00  0.00    -0.070 N 
ATOM      3  C1  UNL d   1       0.235   1.239   0.138  0.00  0.00    -0.004 A 
ATOM      4  C2  UNL d   1      -0.540   1.451  -0.982  0.00  0.00    -0.047 A 
ATOM      5  C3  UNL d   1      -1.097   0.205  -1.354  0.00  0.00    -0.047 A 
ATOM      6  C4  UNL d   1      -0.646  -0.733  -0.449  0.00  0.00    -0.004 A 
ENDROOT
TORSDOF 0
ENDMDL
