MODEL 1
REMARK minimizedAffinity -4.10310841
REMARK minimizedRMSD -1
REMARK  0 active torsions:
REMARK  status: ('A' for Active; 'I' for Inactive)
ROOT
ATOM      1  C   UNL d   1      -0.302  -0.911   1.216  0.00  0.00     0.172 C 
ATOM      2  N   UNL d   1      -0.849   0.402   0.968  0.00  0.00    -0.070 N 
ATOM      3  C1  UNL d   1      -1.632   1.118   1.835  0.00  0.00    -0.004 A 
ATOM      4  C2  UNL d   1      -1.946   2.315   1.229  0.00  0.00    -0.047 A 
ATOM      5  C3  UNL d   1      -1.332   2.320  -0.045  0.00  0.00    -0.047 A 
ATOM      6  C4  UNL d   1      -0.659   1.124  -0.181  0.00  0.00    -0.004 A 
ENDROOT
TORSDOF 0
ENDMDL
