MODEL 1
REMARK minimizedAffinity -4.06178474
REMARK minimizedRMSD -1
REMARK  0 active torsions:
REMARK  status: ('A' for Active; 'I' for Inactive)
ROOT
ATOM      1  C   UNL d   1      -0.273  -0.153   0.081  0.00  0.00     0.172 C 
ATOM      2  N   UNL d   1      -0.459   1.259   0.319  0.00  0.00    -0.070 N 
ATOM      3  C1  UNL d   1      -1.118   1.808   1.386  0.00  0.00    -0.004 A 
ATOM      4  C2  UNL d   1      -1.076   3.179   1.248  0.00  0.00    -0.047 A 
ATOM      5  C3  UNL d   1      -0.369   3.463   0.056  0.00  0.00    -0.047 A 
ATOM      6  C4  UNL d   1       0.002   2.257  -0.499  0.00  0.00    -0.004 A 
ENDROOT
TORSDOF 0
ENDMDL
