MODEL 1
REMARK minimizedAffinity -1.67645228
REMARK minimizedRMSD -1
REMARK  0 active torsions:
REMARK  status: ('A' for Active; 'I' for Inactive)
ROOT
ATOM      1  C   UNL d   1       0.353  -2.662  -3.428  0.00  0.00     0.172 C 
ATOM      2  N   UNL d   1       0.830  -2.191  -2.149  0.00  0.00    -0.070 N 
ATOM      3  C1  UNL d   1       0.767  -0.899  -1.700  0.00  0.00    -0.004 A 
ATOM      4  C2  UNL d   1       1.324  -0.862  -0.440  0.00  0.00    -0.047 A 
ATOM      5  C3  UNL d   1       1.736  -2.178  -0.121  0.00  0.00    -0.047 A 
ATOM      6  C4  UNL d   1       1.419  -2.980  -1.197  0.00  0.00    -0.004 A 
ENDROOT
TORSDOF 0
ENDMDL
