MODEL 1
REMARK minimizedAffinity -0.938784182
REMARK minimizedRMSD -1
REMARK  0 active torsions:
REMARK  status: ('A' for Active; 'I' for Inactive)
ROOT
ATOM      1  C   UNL d   1       1.218  -1.012  -0.763  0.00  0.00     0.172 C 
ATOM      2  N   UNL d   1       0.716  -2.150  -1.497  0.00  0.00    -0.070 N 
ATOM      3  C1  UNL d   1       1.295  -3.390  -1.542  0.00  0.00    -0.004 A 
ATOM      4  C2  UNL d   1       0.514  -4.192  -2.345  0.00  0.00    -0.047 A 
ATOM      5  C3  UNL d   1      -0.572  -3.407  -2.799  0.00  0.00    -0.047 A 
ATOM      6  C4  UNL d   1      -0.422  -2.147  -2.259  0.00  0.00    -0.004 A 
ENDROOT
TORSDOF 0
ENDMDL
