MODEL 1
REMARK minimizedAffinity -3.97644401
REMARK minimizedRMSD -1
REMARK  0 active torsions:
REMARK  status: ('A' for Active; 'I' for Inactive)
ROOT
ATOM      1  C   UNL d   1       0.731  -0.654  -0.310  0.00  0.00     0.172 C 
ATOM      2  N   UNL d   1      -0.227   0.210   0.339  0.00  0.00    -0.070 N 
ATOM      3  C1  UNL d   1      -0.859   1.278  -0.240  0.00  0.00    -0.004 A 
ATOM      4  C2  UNL d   1      -1.692   1.839   0.705  0.00  0.00    -0.047 A 
ATOM      5  C3  UNL d   1      -1.555   1.082   1.892  0.00  0.00    -0.047 A 
ATOM      6  C4  UNL d   1      -0.642   0.080   1.638  0.00  0.00    -0.004 A 
ENDROOT
TORSDOF 0
ENDMDL
