MODEL 1
REMARK minimizedAffinity -1.16901803
REMARK minimizedRMSD -1
REMARK  0 active torsions:
REMARK  status: ('A' for Active; 'I' for Inactive)
ROOT
ATOM      1  C   UNL d   1      -0.195   0.045  -0.293  0.00  0.00     0.172 C 
ATOM      2  N   UNL d   1      -0.693   1.116   0.538  0.00  0.00    -0.070 N 
ATOM      3  C1  UNL d   1      -0.917   2.404   0.132  0.00  0.00    -0.004 A 
ATOM      4  C2  UNL d   1      -1.390   3.113   1.215  0.00  0.00    -0.047 A 
ATOM      5  C3  UNL d   1      -1.452   2.220   2.311  0.00  0.00    -0.047 A 
ATOM      6  C4  UNL d   1      -1.016   0.990   1.864  0.00  0.00    -0.004 A 
ENDROOT
TORSDOF 0
ENDMDL
