MODEL 1
REMARK minimizedAffinity -4.00216389
REMARK minimizedRMSD -1
REMARK  0 active torsions:
REMARK  status: ('A' for Active; 'I' for Inactive)
ROOT
ATOM      1  C   UNL d   1       0.368  -0.311  -0.037  0.00  0.00     0.172 C 
ATOM      2  N   UNL d   1      -0.370   0.873   0.339  0.00  0.00    -0.070 N 
ATOM      3  C1  UNL d   1      -1.317   0.943   1.325  0.00  0.00    -0.004 A 
ATOM      4  C2  UNL d   1      -1.782   2.240   1.371  0.00  0.00    -0.047 A 
ATOM      5  C3  UNL d   1      -1.091   2.973   0.378  0.00  0.00    -0.047 A 
ATOM      6  C4  UNL d   1      -0.223   2.103  -0.246  0.00  0.00    -0.004 A 
ENDROOT
TORSDOF 0
ENDMDL
