MODEL 1
REMARK minimizedAffinity -3.02451062
REMARK minimizedRMSD -1
REMARK  0 active torsions:
REMARK  status: ('A' for Active; 'I' for Inactive)
ROOT
ATOM      1  C   UNL d   1       0.618  -0.754  -0.025  0.00  0.00     0.172 C 
ATOM      2  N   UNL d   1      -0.221  -0.016   0.891  0.00  0.00    -0.070 N 
ATOM      3  C1  UNL d   1      -0.552  -0.407   2.161  0.00  0.00    -0.004 A 
ATOM      4  C2  UNL d   1      -1.363   0.566   2.704  0.00  0.00    -0.047 A 
ATOM      5  C3  UNL d   1      -1.526   1.576   1.726  0.00  0.00    -0.047 A 
ATOM      6  C4  UNL d   1      -0.808   1.190   0.614  0.00  0.00    -0.004 A 
ENDROOT
TORSDOF 0
ENDMDL
