MODEL 1
REMARK minimizedAffinity -1.26430929
REMARK minimizedRMSD -1
REMARK  0 active torsions:
REMARK  status: ('A' for Active; 'I' for Inactive)
ROOT
ATOM      1  C   UNL d   1      -1.897   1.822   0.659  0.00  0.00     0.172 C 
ATOM      2  N   UNL d   1      -0.914   0.933   0.086  0.00  0.00    -0.070 N 
ATOM      3  C1  UNL d   1      -0.398  -0.182   0.690  0.00  0.00    -0.004 A 
ATOM      4  C2  UNL d   1       0.506  -0.753  -0.180  0.00  0.00    -0.047 A 
ATOM      5  C3  UNL d   1       0.535   0.047  -1.346  0.00  0.00    -0.047 A 
ATOM      6  C4  UNL d   1      -0.354   1.084  -1.155  0.00  0.00    -0.004 A 
ENDROOT
TORSDOF 0
ENDMDL
