MODEL 1
REMARK minimizedAffinity -2.96076202
REMARK minimizedRMSD -1
REMARK  0 active torsions:
REMARK  status: ('A' for Active; 'I' for Inactive)
ROOT
ATOM      1  C   UNL d   1      -1.967   1.890   1.343  0.00  0.00     0.172 C 
ATOM      2  N   UNL d   1      -1.004   0.895   0.936  0.00  0.00    -0.070 N 
ATOM      3  C1  UNL d   1      -0.523   0.721  -0.335  0.00  0.00    -0.004 A 
ATOM      4  C2  UNL d   1       0.373  -0.326  -0.308  0.00  0.00    -0.047 A 
ATOM      5  C3  UNL d   1       0.431  -0.799   1.025  0.00  0.00    -0.047 A 
ATOM      6  C4  UNL d   1      -0.431  -0.026   1.773  0.00  0.00    -0.004 A 
ENDROOT
TORSDOF 0
ENDMDL
