MODEL 1
REMARK minimizedAffinity -2.61788583
REMARK minimizedRMSD -1
REMARK  0 active torsions:
REMARK  status: ('A' for Active; 'I' for Inactive)
ROOT
ATOM      1  C   UNL d   1      -0.475   1.952   3.711  0.00  0.00     0.172 C 
ATOM      2  N   UNL d   1      -1.014   1.623   2.413  0.00  0.00    -0.070 N 
ATOM      3  C1  UNL d   1      -1.859   2.409   1.677  0.00  0.00    -0.004 A 
ATOM      4  C2  UNL d   1      -2.141   1.743   0.503  0.00  0.00    -0.047 A 
ATOM      5  C3  UNL d   1      -1.441   0.513   0.536  0.00  0.00    -0.047 A 
ATOM      6  C4  UNL d   1      -0.752   0.465   1.729  0.00  0.00    -0.004 A 
ENDROOT
TORSDOF 0
ENDMDL
