MODEL 1
REMARK minimizedAffinity -3.47215128
REMARK minimizedRMSD -1
REMARK  0 active torsions:
REMARK  status: ('A' for Active; 'I' for Inactive)
ROOT
ATOM      1  C   UNL d   1       0.798  -0.591  -0.507  0.00  0.00     0.172 C 
ATOM      2  N   UNL d   1      -0.110   0.049   0.415  0.00  0.00    -0.070 N 
ATOM      3  C1  UNL d   1      -0.989   1.052   0.104  0.00  0.00    -0.004 A 
ATOM      4  C2  UNL d   1      -1.671   1.387   1.253  0.00  0.00    -0.047 A 
ATOM      5  C3  UNL d   1      -1.185   0.558   2.292  0.00  0.00    -0.047 A 
ATOM      6  C4  UNL d   1      -0.219  -0.261   1.745  0.00  0.00    -0.004 A 
ENDROOT
TORSDOF 0
ENDMDL
