MODEL 1
REMARK minimizedAffinity -2.45324039
REMARK minimizedRMSD -1
REMARK  0 active torsions:
REMARK  status: ('A' for Active; 'I' for Inactive)
ROOT
ATOM      1  C   UNL d   1       0.297   0.708  -1.143  0.00  0.00     0.172 C 
ATOM      2  N   UNL d   1       0.483  -0.668  -1.539  0.00  0.00    -0.070 N 
ATOM      3  C1  UNL d   1       0.091  -1.216  -2.731  0.00  0.00    -0.004 A 
ATOM      4  C2  UNL d   1       0.448  -2.547  -2.723  0.00  0.00    -0.047 A 
ATOM      5  C3  UNL d   1       1.076  -2.809  -1.482  0.00  0.00    -0.047 A 
ATOM      6  C4  UNL d   1       1.084  -1.629  -0.768  0.00  0.00    -0.004 A 
ENDROOT
TORSDOF 0
ENDMDL
