MODEL 1
REMARK minimizedAffinity -1.89620113
REMARK minimizedRMSD -1
REMARK  0 active torsions:
REMARK  status: ('A' for Active; 'I' for Inactive)
ROOT
ATOM      1  C   UNL d   1      -1.453   1.811   0.586  0.00  0.00     0.172 C 
ATOM      2  N   UNL d   1      -0.649   0.704   0.125  0.00  0.00    -0.070 N 
ATOM      3  C1  UNL d   1      -0.031   0.618  -1.094  0.00  0.00    -0.004 A 
ATOM      4  C2  UNL d   1       0.634  -0.587  -1.147  0.00  0.00    -0.047 A 
ATOM      5  C3  UNL d   1       0.408  -1.250   0.083  0.00  0.00    -0.047 A 
ATOM      6  C4  UNL d   1      -0.389  -0.429   0.851  0.00  0.00    -0.004 A 
ENDROOT
TORSDOF 0
ENDMDL
