MODEL 1
REMARK minimizedAffinity -2.71081519
REMARK minimizedRMSD -1
REMARK  0 active torsions:
REMARK  status: ('A' for Active; 'I' for Inactive)
ROOT
ATOM      1  C   UNL d   1      -1.819   2.760   1.122  0.00  0.00     0.172 C 
ATOM      2  N   UNL d   1      -1.162   1.475   1.118  0.00  0.00    -0.070 N 
ATOM      3  C1  UNL d   1      -0.445   0.948   0.077  0.00  0.00    -0.004 A 
ATOM      4  C2  UNL d   1       0.019  -0.290   0.468  0.00  0.00    -0.047 A 
ATOM      5  C3  UNL d   1      -0.437  -0.515   1.789  0.00  0.00    -0.047 A 
ATOM      6  C4  UNL d   1      -1.165   0.593   2.167  0.00  0.00    -0.004 A 
ENDROOT
TORSDOF 0
ENDMDL
