MODEL 1
REMARK minimizedAffinity -3.77280474
REMARK minimizedRMSD -1
REMARK  0 active torsions:
REMARK  status: ('A' for Active; 'I' for Inactive)
ROOT
ATOM      1  C   UNL d   1       0.122  -0.089  -0.699  0.00  0.00     0.172 C 
ATOM      2  N   UNL d   1      -0.472   1.029  -0.005  0.00  0.00    -0.070 N 
ATOM      3  C1  UNL d   1      -0.212   2.351  -0.252  0.00  0.00    -0.004 A 
ATOM      4  C2  UNL d   1      -0.975   3.101   0.617  0.00  0.00    -0.047 A 
ATOM      5  C3  UNL d   1      -1.718   2.198   1.415  0.00  0.00    -0.047 A 
ATOM      6  C4  UNL d   1      -1.387   0.923   1.009  0.00  0.00    -0.004 A 
ENDROOT
TORSDOF 0
ENDMDL
