MODEL 1
REMARK minimizedAffinity -1.75861168
REMARK minimizedRMSD -1
REMARK  1 active torsions:
REMARK  status: ('A' for Active; 'I' for Inactive)
REMARK    1  A    between atoms: C3_4  and  O_7 
ROOT
ATOM      1  C   UNL d   1       0.508  -5.009   6.000  0.00  0.00    -0.033 A 
ATOM      2  C1  UNL d   1       0.697  -3.625   6.000  0.00  0.00     0.039 A 
ATOM      3  C2  UNL d   1       1.988  -3.095   5.969  0.00  0.00    -0.080 A 
ATOM      4  C3  UNL d   1       3.080  -3.958   5.937  0.00  0.00     0.150 A 
ATOM      5  C4  UNL d   1       2.900  -5.337   5.933  0.00  0.00    -0.007 A 
ATOM      6  C5  UNL d   1       1.610  -5.864   5.965  0.00  0.00     0.039 A 
ENDROOT
BRANCH   4   7
ATOM      7  O   UNL d   1       4.360  -3.487   5.911  0.00  0.00    -0.526 OA
ATOM      8  H5  UNL d   1       4.331  -2.516   5.947  0.00  0.00     0.418 HD
ENDBRANCH   4   7
TORSDOF 1
ENDMDL
