MODEL 1
REMARK minimizedAffinity 2.67607355
REMARK minimizedRMSD -1
REMARK  1 active torsions:
REMARK  status: ('A' for Active; 'I' for Inactive)
REMARK    1  A    between atoms: C3_4  and  O_7 
ROOT
ATOM      1  C   UNL d   1      -1.503  -2.021  -1.461  0.00  0.00    -0.033 A 
ATOM      2  C1  UNL d   1      -1.503  -2.362  -0.107  0.00  0.00     0.039 A 
ATOM      3  C2  UNL d   1      -1.376  -3.698   0.278  0.00  0.00    -0.080 A 
ATOM      4  C3  UNL d   1      -1.249  -4.682  -0.699  0.00  0.00     0.150 A 
ATOM      5  C4  UNL d   1      -1.245  -4.349  -2.050  0.00  0.00    -0.007 A 
ATOM      6  C5  UNL d   1      -1.373  -3.015  -2.432  0.00  0.00     0.039 A 
ENDROOT
BRANCH   4   7
ATOM      7  O   UNL d   1      -1.127  -6.000  -0.372  0.00  0.00    -0.526 OA
ATOM      8  H5  UNL d   1      -1.175  -6.083   0.595  0.00  0.00     0.418 HD
ENDBRANCH   4   7
TORSDOF 1
ENDMDL
