MODEL 1
REMARK minimizedAffinity 4.30236435
REMARK minimizedRMSD -1
REMARK  1 active torsions:
REMARK  status: ('A' for Active; 'I' for Inactive)
REMARK    1  A    between atoms: C3_4  and  O_7 
ROOT
ATOM      1  C   UNL d   1      -2.287   0.107   1.968  0.00  0.00    -0.033 A 
ATOM      2  C1  UNL d   1      -1.385   0.892   2.690  0.00  0.00     0.039 A 
ATOM      3  C2  UNL d   1      -1.167   0.639   4.046  0.00  0.00    -0.080 A 
ATOM      4  C3  UNL d   1      -1.854  -0.400   4.667  0.00  0.00     0.150 A 
ATOM      5  C4  UNL d   1      -2.751  -1.188   3.953  0.00  0.00    -0.007 A 
ATOM      6  C5  UNL d   1      -2.969  -0.934   2.599  0.00  0.00     0.039 A 
ENDROOT
BRANCH   4   7
ATOM      7  O   UNL d   1      -1.678  -0.682   5.989  0.00  0.00    -0.526 OA
ATOM      8  H5  UNL d   1      -1.052  -0.038   6.360  0.00  0.00     0.418 HD
ENDBRANCH   4   7
TORSDOF 1
ENDMDL
