MODEL 1
REMARK minimizedAffinity 0.808569849
REMARK minimizedRMSD -1
REMARK  1 active torsions:
REMARK  status: ('A' for Active; 'I' for Inactive)
REMARK    1  A    between atoms: C3_4  and  O_7 
ROOT
ATOM      1  C   UNL d   1      -4.366   0.185   0.765  0.00  0.00    -0.033 A 
ATOM      2  C1  UNL d   1      -3.811  -0.277  -0.429  0.00  0.00     0.039 A 
ATOM      3  C2  UNL d   1      -3.066  -1.458  -0.444  0.00  0.00    -0.080 A 
ATOM      4  C3  UNL d   1      -2.886  -2.167   0.740  0.00  0.00     0.150 A 
ATOM      5  C4  UNL d   1      -3.440  -1.714   1.933  0.00  0.00    -0.007 A 
ATOM      6  C5  UNL d   1      -4.182  -0.534   1.946  0.00  0.00     0.039 A 
ENDROOT
BRANCH   4   7
ATOM      7  O   UNL d   1      -2.163  -3.322   0.777  0.00  0.00    -0.526 OA
ATOM      8  H5  UNL d   1      -1.817  -3.497  -0.115  0.00  0.00     0.418 HD
ENDBRANCH   4   7
TORSDOF 1
ENDMDL
