MODEL 1
REMARK minimizedAffinity -0.489865005
REMARK minimizedRMSD -1
REMARK  1 active torsions:
REMARK  status: ('A' for Active; 'I' for Inactive)
REMARK    1  A    between atoms: C3_4  and  O_7 
ROOT
ATOM      1  C   UNL d   1      -0.795  -5.991   5.902  0.00  0.00    -0.033 A 
ATOM      2  C1  UNL d   1      -2.063  -5.989   5.319  0.00  0.00     0.039 A 
ATOM      3  C2  UNL d   1      -2.195  -5.986   3.929  0.00  0.00    -0.080 A 
ATOM      4  C3  UNL d   1      -1.051  -5.986   3.134  0.00  0.00     0.150 A 
ATOM      5  C4  UNL d   1       0.216  -5.991   3.709  0.00  0.00    -0.007 A 
ATOM      6  C5  UNL d   1       0.345  -5.993   5.097  0.00  0.00     0.039 A 
ENDROOT
BRANCH   4   7
ATOM      7  O   UNL d   1      -1.129  -5.978   1.773  0.00  0.00    -0.526 OA
ATOM      8  H5  UNL d   1      -2.067  -5.946   1.519  0.00  0.00     0.418 HD
ENDBRANCH   4   7
TORSDOF 1
ENDMDL
