MODEL 1
REMARK minimizedAffinity -3.61525702
REMARK minimizedRMSD -1
REMARK  1 active torsions:
REMARK  status: ('A' for Active; 'I' for Inactive)
REMARK    1  A    between atoms: C3_4  and  O_7 
ROOT
ATOM      1  C   UNL d   1      -2.719   6.000   1.557  0.00  0.00    -0.033 A 
ATOM      2  C1  UNL d   1      -2.487   6.000   2.933  0.00  0.00     0.039 A 
ATOM      3  C2  UNL d   1      -3.563   5.996   3.824  0.00  0.00    -0.080 A 
ATOM      4  C3  UNL d   1      -4.863   5.990   3.326  0.00  0.00     0.150 A 
ATOM      5  C4  UNL d   1      -5.101   5.986   1.955  0.00  0.00    -0.007 A 
ATOM      6  C5  UNL d   1      -4.026   5.991   1.068  0.00  0.00     0.039 A 
ENDROOT
BRANCH   4   7
ATOM      7  O   UNL d   1      -5.944   5.990   4.156  0.00  0.00    -0.526 OA
ATOM      8  H5  UNL d   1      -5.627   6.023   5.074  0.00  0.00     0.418 HD
ENDBRANCH   4   7
TORSDOF 1
ENDMDL
