MODEL 1
REMARK minimizedAffinity -2.92172551
REMARK minimizedRMSD -1
REMARK  0 active torsions:
REMARK  status: ('A' for Active; 'I' for Inactive)
ROOT
ATOM      1  C   UNL d   1      -0.752   1.519   2.339  0.00  0.00     0.172 C 
ATOM      2  N   UNL d   1      -0.380   0.721   1.195  0.00  0.00    -0.070 N 
ATOM      3  C1  UNL d   1      -1.221   0.324   0.190  0.00  0.00    -0.004 A 
ATOM      4  C2  UNL d   1      -0.485  -0.417  -0.709  0.00  0.00    -0.047 A 
ATOM      5  C3  UNL d   1       0.845  -0.469  -0.227  0.00  0.00    -0.047 A 
ATOM      6  C4  UNL d   1       0.882   0.244   0.953  0.00  0.00    -0.004 A 
ENDROOT
TORSDOF 0
ENDMDL
