MODEL 1
REMARK minimizedAffinity -2.68035865
REMARK minimizedRMSD -1
REMARK  0 active torsions:
REMARK  status: ('A' for Active; 'I' for Inactive)
ROOT
ATOM      1  C   UNL d   1      -0.943   1.338   2.450  0.00  0.00     0.172 C 
ATOM      2  N   UNL d   1      -0.476   0.558   1.328  0.00  0.00    -0.070 N 
ATOM      3  C1  UNL d   1       0.803   0.102   1.151  0.00  0.00    -0.004 A 
ATOM      4  C2  UNL d   1       0.841  -0.598  -0.036  0.00  0.00    -0.047 A 
ATOM      5  C3  UNL d   1      -0.460  -0.559  -0.592  0.00  0.00    -0.047 A 
ATOM      6  C4  UNL d   1      -1.255   0.163   0.273  0.00  0.00    -0.004 A 
ENDROOT
TORSDOF 0
ENDMDL
