MODEL 1
REMARK minimizedAffinity -2.06903243
REMARK minimizedRMSD -1
REMARK  0 active torsions:
REMARK  status: ('A' for Active; 'I' for Inactive)
ROOT
ATOM      1  C   UNL d   1       0.225  -0.344  -0.547  0.00  0.00     0.172 C 
ATOM      2  N   UNL d   1      -0.110   0.131   0.775  0.00  0.00    -0.070 N 
ATOM      3  C1  UNL d   1       0.515   1.152   1.438  0.00  0.00    -0.004 A 
ATOM      4  C2  UNL d   1      -0.097   1.297   2.664  0.00  0.00    -0.047 A 
ATOM      5  C3  UNL d   1      -1.126   0.328   2.740  0.00  0.00    -0.047 A 
ATOM      6  C4  UNL d   1      -1.112  -0.380   1.557  0.00  0.00    -0.004 A 
ENDROOT
TORSDOF 0
ENDMDL
