MODEL 1
REMARK minimizedAffinity -2.73152184
REMARK minimizedRMSD -1
REMARK  0 active torsions:
REMARK  status: ('A' for Active; 'I' for Inactive)
ROOT
ATOM      1  C   UNL d   1       0.804  -0.718  -1.344  0.00  0.00     0.172 C 
ATOM      2  N   UNL d   1       0.928  -0.000  -0.097  0.00  0.00    -0.070 N 
ATOM      3  C1  UNL d   1       1.816  -0.287   0.904  0.00  0.00    -0.004 A 
ATOM      4  C2  UNL d   1       1.618   0.625   1.919  0.00  0.00    -0.047 A 
ATOM      5  C3  UNL d   1       0.574   1.489   1.513  0.00  0.00    -0.047 A 
ATOM      6  C4  UNL d   1       0.164   1.080   0.261  0.00  0.00    -0.004 A 
ENDROOT
TORSDOF 0
ENDMDL
