MODEL 1
REMARK minimizedAffinity -1.88822865
REMARK minimizedRMSD -1
REMARK  0 active torsions:
REMARK  status: ('A' for Active; 'I' for Inactive)
ROOT
ATOM      1  C   UNL d   1      -0.109   1.332   1.665  0.00  0.00     0.172 C 
ATOM      2  N   UNL d   1       0.364   0.429   0.643  0.00  0.00    -0.070 N 
ATOM      3  C1  UNL d   1      -0.201   0.254  -0.592  0.00  0.00    -0.004 A 
ATOM      4  C2  UNL d   1       0.544  -0.689  -1.268  0.00  0.00    -0.047 A 
ATOM      5  C3  UNL d   1       1.592  -1.095  -0.409  0.00  0.00    -0.047 A 
ATOM      6  C4  UNL d   1       1.457  -0.388   0.767  0.00  0.00    -0.004 A 
ENDROOT
TORSDOF 0
ENDMDL
