MODEL 1
REMARK minimizedAffinity -3.40518332
REMARK minimizedRMSD -1
REMARK  0 active torsions:
REMARK  status: ('A' for Active; 'I' for Inactive)
ROOT
ATOM      1  C   UNL d   1       0.380  -0.527  -0.930  0.00  0.00     0.172 C 
ATOM      2  N   UNL d   1      -0.304   0.075   0.190  0.00  0.00    -0.070 N 
ATOM      3  C1  UNL d   1      -1.661   0.201   0.322  0.00  0.00    -0.004 A 
ATOM      4  C2  UNL d   1      -1.912   0.826   1.524  0.00  0.00    -0.047 A 
ATOM      5  C3  UNL d   1      -0.662   1.086   2.135  0.00  0.00    -0.047 A 
ATOM      6  C4  UNL d   1       0.316   0.610   1.288  0.00  0.00    -0.004 A 
ENDROOT
TORSDOF 0
ENDMDL
