MODEL 1
REMARK minimizedAffinity -3.30810809
REMARK minimizedRMSD -1
REMARK  0 active torsions:
REMARK  status: ('A' for Active; 'I' for Inactive)
ROOT
ATOM      1  C   UNL d   1       0.480  -0.157  -0.906  0.00  0.00     0.172 C 
ATOM      2  N   UNL d   1      -0.113   0.180   0.367  0.00  0.00    -0.070 N 
ATOM      3  C1  UNL d   1       0.563   0.645   1.464  0.00  0.00    -0.004 A 
ATOM      4  C2  UNL d   1      -0.356   0.847   2.471  0.00  0.00    -0.047 A 
ATOM      5  C3  UNL d   1      -1.628   0.490   1.962  0.00  0.00    -0.047 A 
ATOM      6  C4  UNL d   1      -1.448   0.082   0.657  0.00  0.00    -0.004 A 
ENDROOT
TORSDOF 0
ENDMDL
