MODEL 1
REMARK minimizedAffinity -1.00569868
REMARK minimizedRMSD -1
REMARK  0 active torsions:
REMARK  status: ('A' for Active; 'I' for Inactive)
ROOT
ATOM      1  C   UNL d   1      -1.318   0.968   2.405  0.00  0.00     0.172 C 
ATOM      2  N   UNL d   1      -0.621   0.403   1.274  0.00  0.00    -0.070 N 
ATOM      3  C1  UNL d   1       0.658  -0.088   1.288  0.00  0.00    -0.004 A 
ATOM      4  C2  UNL d   1       0.952  -0.534   0.018  0.00  0.00    -0.047 A 
ATOM      5  C3  UNL d   1      -0.188  -0.303  -0.787  0.00  0.00    -0.047 A 
ATOM      6  C4  UNL d   1      -1.147   0.278   0.015  0.00  0.00    -0.004 A 
ENDROOT
TORSDOF 0
ENDMDL
