MODEL 1
REMARK minimizedAffinity 5.96808243
REMARK minimizedRMSD -1
REMARK  0 active torsions:
REMARK  status: ('A' for Active; 'I' for Inactive)
ROOT
ATOM      1  C   UNL d   1      -2.464   5.974  -1.963  0.00  0.00     0.023 A 
ATOM      2  C1  UNL d   1      -1.155   5.963  -1.482  0.00  0.00     0.003 A 
ATOM      3  C2  UNL d   1      -0.082   5.969  -2.375  0.00  0.00     0.048 A 
ATOM      4  C3  UNL d   1      -0.324   5.988  -3.748  0.00  0.00     0.023 A 
ATOM      5  C4  UNL d   1      -1.633   6.000  -4.234  0.00  0.00     0.048 A 
ATOM      6  C5  UNL d   1      -2.703   5.993  -3.338  0.00  0.00     0.003 A 
ATOM      7  I   UNL d   1       1.272   5.997  -5.079  0.00  0.00    -0.146 I 
ENDROOT
TORSDOF 0
ENDMDL
