MODEL 1
REMARK minimizedAffinity -2.57160091
REMARK minimizedRMSD -1
REMARK  0 active torsions:
REMARK  status: ('A' for Active; 'I' for Inactive)
ROOT
ATOM      1  C   UNL d   1      -3.915   5.995  -2.659  0.00  0.00     0.023 A 
ATOM      2  C1  UNL d   1      -2.579   5.995  -2.259  0.00  0.00     0.003 A 
ATOM      3  C2  UNL d   1      -1.562   5.995  -3.216  0.00  0.00     0.048 A 
ATOM      4  C3  UNL d   1      -1.889   5.996  -4.572  0.00  0.00     0.023 A 
ATOM      5  C4  UNL d   1      -3.224   5.996  -4.977  0.00  0.00     0.048 A 
ATOM      6  C5  UNL d   1      -4.238   5.996  -4.017  0.00  0.00     0.003 A 
ATOM      7  I   UNL d   1      -0.377   5.996  -5.998  0.00  0.00    -0.146 I 
ENDROOT
TORSDOF 0
ENDMDL
