MODEL 1
REMARK minimizedAffinity -3.48692966
REMARK minimizedRMSD -1
REMARK  0 active torsions:
REMARK  status: ('A' for Active; 'I' for Inactive)
ROOT
ATOM      1  C   UNL d   1      -1.222   5.983  -4.416  0.00  0.00     0.023 A 
ATOM      2  C1  UNL d   1      -0.763   5.987  -5.733  0.00  0.00     0.003 A 
ATOM      3  C2  UNL d   1       0.608   5.992  -5.996  0.00  0.00     0.048 A 
ATOM      4  C3  UNL d   1       1.516   5.992  -4.938  0.00  0.00     0.023 A 
ATOM      5  C4  UNL d   1       1.061   5.988  -3.618  0.00  0.00     0.048 A 
ATOM      6  C5  UNL d   1      -0.310   5.984  -3.359  0.00  0.00     0.003 A 
ATOM      7  I   UNL d   1       3.557   6.000  -5.327  0.00  0.00    -0.146 I 
ENDROOT
TORSDOF 0
ENDMDL
