MODEL 1
REMARK minimizedAffinity 4.36541224
REMARK minimizedRMSD -1
REMARK  0 active torsions:
REMARK  status: ('A' for Active; 'I' for Inactive)
ROOT
ATOM      1  C   UNL d   1      -0.444   5.902  -3.817  0.00  0.00     0.023 A 
ATOM      2  C1  UNL d   1       0.707   5.950  -3.031  0.00  0.00     0.003 A 
ATOM      3  C2  UNL d   1       1.967   5.951  -3.634  0.00  0.00     0.048 A 
ATOM      4  C3  UNL d   1       2.067   5.904  -5.024  0.00  0.00     0.023 A 
ATOM      5  C4  UNL d   1       0.918   5.857  -5.815  0.00  0.00     0.048 A 
ATOM      6  C5  UNL d   1      -0.339   5.856  -5.207  0.00  0.00     0.003 A 
ATOM      7  I   UNL d   1       3.940   5.906  -5.925  0.00  0.00    -0.146 I 
ENDROOT
TORSDOF 0
ENDMDL
