MODEL 1
REMARK minimizedAffinity -0.643125057
REMARK minimizedRMSD -1
REMARK  0 active torsions:
REMARK  status: ('A' for Active; 'I' for Inactive)
ROOT
ATOM      1  C   UNL d   1      -0.325   5.970  -4.133  0.00  0.00     0.023 A 
ATOM      2  C1  UNL d   1      -0.092   5.993  -5.508  0.00  0.00     0.003 A 
ATOM      3  C2  UNL d   1       1.217   6.000  -5.995  0.00  0.00     0.048 A 
ATOM      4  C3  UNL d   1       2.287   5.983  -5.102  0.00  0.00     0.023 A 
ATOM      5  C4  UNL d   1       2.058   5.960  -3.725  0.00  0.00     0.048 A 
ATOM      6  C5  UNL d   1       0.748   5.954  -3.242  0.00  0.00     0.003 A 
ATOM      7  I   UNL d   1       4.236   5.994  -5.824  0.00  0.00    -0.146 I 
ENDROOT
TORSDOF 0
ENDMDL
