MODEL 1
REMARK minimizedAffinity 0.78780508
REMARK minimizedRMSD -1
REMARK  0 active torsions:
REMARK  status: ('A' for Active; 'I' for Inactive)
ROOT
ATOM      1  C   UNL d   1       5.997   4.377  -4.614  0.00  0.00     0.023 A 
ATOM      2  C1  UNL d   1       5.786   5.534  -5.365  0.00  0.00     0.003 A 
ATOM      3  C2  UNL d   1       4.488   6.000  -5.581  0.00  0.00     0.048 A 
ATOM      4  C3  UNL d   1       3.405   5.305  -5.044  0.00  0.00     0.023 A 
ATOM      5  C4  UNL d   1       3.611   4.148  -4.291  0.00  0.00     0.048 A 
ATOM      6  C5  UNL d   1       4.911   3.685  -4.078  0.00  0.00     0.003 A 
ATOM      7  I   UNL d   1       1.472   5.997  -5.364  0.00  0.00    -0.146 I 
ENDROOT
TORSDOF 0
ENDMDL
