MODEL 1
REMARK minimizedAffinity -1.23269451
REMARK minimizedRMSD -1
REMARK  0 active torsions:
REMARK  status: ('A' for Active; 'I' for Inactive)
ROOT
ATOM      1  C   UNL d   1       1.151   5.024  -5.044  0.00  0.00     0.023 A 
ATOM      2  C1  UNL d   1      -0.070   4.602  -5.571  0.00  0.00     0.003 A 
ATOM      3  C2  UNL d   1      -1.257   4.876  -4.889  0.00  0.00     0.048 A 
ATOM      4  C3  UNL d   1      -1.217   5.573  -3.683  0.00  0.00     0.023 A 
ATOM      5  C4  UNL d   1       0.002   5.998  -3.152  0.00  0.00     0.048 A 
ATOM      6  C5  UNL d   1       1.187   5.721  -3.837  0.00  0.00     0.003 A 
ATOM      7  I   UNL d   1      -2.984   5.982  -2.667  0.00  0.00    -0.146 I 
ENDROOT
TORSDOF 0
ENDMDL
