MODEL 1
REMARK minimizedAffinity -1.01910257
REMARK minimizedRMSD -1
REMARK  0 active torsions:
REMARK  status: ('A' for Active; 'I' for Inactive)
ROOT
ATOM      1  C   UNL d   1      -1.463   5.997  -4.052  0.00  0.00     0.023 A 
ATOM      2  C1  UNL d   1      -0.342   5.999  -3.221  0.00  0.00     0.003 A 
ATOM      3  C2  UNL d   1       0.939   5.997  -3.775  0.00  0.00     0.048 A 
ATOM      4  C3  UNL d   1       1.093   5.995  -5.161  0.00  0.00     0.023 A 
ATOM      5  C4  UNL d   1      -0.025   5.995  -5.996  0.00  0.00     0.048 A 
ATOM      6  C5  UNL d   1      -1.304   5.995  -5.438  0.00  0.00     0.003 A 
ATOM      7  I   UNL d   1       3.000   5.994  -5.988  0.00  0.00    -0.146 I 
ENDROOT
TORSDOF 0
ENDMDL
