MODEL 1
REMARK minimizedAffinity 3.66648984
REMARK minimizedRMSD -1
REMARK  0 active torsions:
REMARK  status: ('A' for Active; 'I' for Inactive)
ROOT
ATOM      1  C   UNL d   1       1.836   2.260  -0.528  0.00  0.00     0.023 A 
ATOM      2  C1  UNL d   1       1.366   1.343  -1.467  0.00  0.00     0.003 A 
ATOM      3  C2  UNL d   1       0.655   0.216  -1.050  0.00  0.00     0.048 A 
ATOM      4  C3  UNL d   1       0.417   0.013   0.309  0.00  0.00     0.023 A 
ATOM      5  C4  UNL d   1       0.884   0.929   1.253  0.00  0.00     0.048 A 
ATOM      6  C5  UNL d   1       1.596   2.054   0.831  0.00  0.00     0.003 A 
ATOM      7  I   UNL d   1      -0.642  -1.663   0.934  0.00  0.00    -0.146 I 
ENDROOT
TORSDOF 0
ENDMDL
