MODEL 1
REMARK minimizedAffinity 6.51978731
REMARK minimizedRMSD -1
REMARK  0 active torsions:
REMARK  status: ('A' for Active; 'I' for Inactive)
ROOT
ATOM      1  C   UNL d   1       0.615   2.369   2.328  0.00  0.00     0.023 A 
ATOM      2  C1  UNL d   1       1.228   2.992   1.240  0.00  0.00     0.003 A 
ATOM      3  C2  UNL d   1       1.368   2.309   0.030  0.00  0.00     0.048 A 
ATOM      4  C3  UNL d   1       0.892   1.003  -0.086  0.00  0.00     0.023 A 
ATOM      5  C4  UNL d   1       0.278   0.376   0.999  0.00  0.00     0.048 A 
ATOM      6  C5  UNL d   1       0.141   1.062   2.207  0.00  0.00     0.003 A 
ATOM      7  I   UNL d   1       1.100  -0.015  -1.886  0.00  0.00    -0.146 I 
ENDROOT
TORSDOF 0
ENDMDL
