MODEL 1
REMARK minimizedAffinity -2.38344073
REMARK minimizedRMSD -1
REMARK  0 active torsions:
REMARK  status: ('A' for Active; 'I' for Inactive)
ROOT
ATOM      1  C   UNL d   1      -4.120   5.990  -2.471  0.00  0.00     0.023 A 
ATOM      2  C1  UNL d   1      -3.995   5.989  -3.860  0.00  0.00     0.003 A 
ATOM      3  C2  UNL d   1      -2.730   5.992  -4.449  0.00  0.00     0.048 A 
ATOM      4  C3  UNL d   1      -1.592   5.994  -3.643  0.00  0.00     0.023 A 
ATOM      5  C4  UNL d   1      -1.711   5.994  -2.253  0.00  0.00     0.048 A 
ATOM      6  C5  UNL d   1      -2.979   5.993  -1.668  0.00  0.00     0.003 A 
ATOM      7  I   UNL d   1       0.294   5.998  -4.518  0.00  0.00    -0.146 I 
ENDROOT
TORSDOF 0
ENDMDL
