MODEL 1
REMARK minimizedAffinity 5.06289339
REMARK minimizedRMSD -1
REMARK  0 active torsions:
REMARK  status: ('A' for Active; 'I' for Inactive)
ROOT
ATOM      1  C   UNL d   1       5.783   3.975  -3.707  0.00  0.00     0.023 A 
ATOM      2  C1  UNL d   1       4.778   3.164  -4.235  0.00  0.00     0.003 A 
ATOM      3  C2  UNL d   1       3.688   3.739  -4.891  0.00  0.00     0.048 A 
ATOM      4  C3  UNL d   1       3.609   5.126  -5.017  0.00  0.00     0.023 A 
ATOM      5  C4  UNL d   1       4.613   5.941  -4.491  0.00  0.00     0.048 A 
ATOM      6  C5  UNL d   1       5.701   5.362  -3.835  0.00  0.00     0.003 A 
ATOM      7  I   UNL d   1       1.988   5.984  -5.993  0.00  0.00    -0.146 I 
ENDROOT
TORSDOF 0
ENDMDL
