MODEL 1
REMARK minimizedAffinity 5.99467564
REMARK minimizedRMSD -1
REMARK  0 active torsions:
REMARK  status: ('A' for Active; 'I' for Inactive)
ROOT
ATOM      1  C   UNL d   1       1.382   2.035  -0.726  0.00  0.00     0.023 A 
ATOM      2  C1  UNL d   1       1.299   2.943   0.330  0.00  0.00     0.003 A 
ATOM      3  C2  UNL d   1       0.751   2.547   1.552  0.00  0.00     0.048 A 
ATOM      4  C3  UNL d   1       0.288   1.241   1.711  0.00  0.00     0.023 A 
ATOM      5  C4  UNL d   1       0.370   0.329   0.657  0.00  0.00     0.048 A 
ATOM      6  C5  UNL d   1       0.918   0.730  -0.563  0.00  0.00     0.003 A 
ATOM      7  I   UNL d   1      -0.528   0.649   3.528  0.00  0.00    -0.146 I 
ENDROOT
TORSDOF 0
ENDMDL
