MODEL 1
REMARK minimizedAffinity 0.451059908
REMARK minimizedRMSD -1
REMARK  0 active torsions:
REMARK  status: ('A' for Active; 'I' for Inactive)
ROOT
ATOM      1  C   UNL d   1       0.746   2.969   1.978  0.00  0.00     0.023 A 
ATOM      2  C1  UNL d   1       1.404   3.261   0.783  0.00  0.00     0.003 A 
ATOM      3  C2  UNL d   1       1.587   2.264  -0.177  0.00  0.00     0.048 A 
ATOM      4  C3  UNL d   1       1.108   0.976   0.064  0.00  0.00     0.023 A 
ATOM      5  C4  UNL d   1       0.448   0.680   1.257  0.00  0.00     0.048 A 
ATOM      6  C5  UNL d   1       0.269   1.680   2.215  0.00  0.00     0.003 A 
ATOM      7  I   UNL d   1       1.379  -0.510  -1.363  0.00  0.00    -0.146 I 
ENDROOT
TORSDOF 0
ENDMDL
