MODEL 1
REMARK minimizedAffinity 3.4239831
REMARK minimizedRMSD -1
REMARK  0 active torsions:
REMARK  status: ('A' for Active; 'I' for Inactive)
ROOT
ATOM      1  C   UNL d   1      -3.421   5.997  -2.375  0.00  0.00     0.023 A 
ATOM      2  C1  UNL d   1      -3.583   5.993  -3.761  0.00  0.00     0.003 A 
ATOM      3  C2  UNL d   1      -2.464   5.995  -4.596  0.00  0.00     0.048 A 
ATOM      4  C3  UNL d   1      -1.185   5.998  -4.039  0.00  0.00     0.023 A 
ATOM      5  C4  UNL d   1      -1.018   6.000  -2.653  0.00  0.00     0.048 A 
ATOM      6  C5  UNL d   1      -2.140   6.000  -1.822  0.00  0.00     0.003 A 
ATOM      7  I   UNL d   1       0.482   5.999  -5.279  0.00  0.00    -0.146 I 
ENDROOT
TORSDOF 0
ENDMDL
