MODEL 1
REMARK minimizedAffinity 9.29710102
REMARK minimizedRMSD -1
REMARK  0 active torsions:
REMARK  status: ('A' for Active; 'I' for Inactive)
ROOT
ATOM      1  C   UNL d   1      -1.772  -0.220  -2.900  0.00  0.00     0.023 A 
ATOM      2  C1  UNL d   1      -2.472  -1.252  -3.525  0.00  0.00     0.003 A 
ATOM      3  C2  UNL d   1      -3.340  -2.057  -2.784  0.00  0.00     0.048 A 
ATOM      4  C3  UNL d   1      -3.503  -1.824  -1.419  0.00  0.00     0.023 A 
ATOM      5  C4  UNL d   1      -2.805  -0.792  -0.789  0.00  0.00     0.048 A 
ATOM      6  C5  UNL d   1      -1.938   0.010  -1.534  0.00  0.00     0.003 A 
ATOM      7  I   UNL d   1      -4.794  -3.022  -0.314  0.00  0.00    -0.146 I 
ENDROOT
TORSDOF 0
ENDMDL
