MODEL 1
REMARK minimizedAffinity 5.56958961
REMARK minimizedRMSD -1
REMARK  0 active torsions:
REMARK  status: ('A' for Active; 'I' for Inactive)
ROOT
ATOM      1  C   UNL d   1       1.376   2.643  -0.161  0.00  0.00     0.023 A 
ATOM      2  C1  UNL d   1       1.240   2.361   1.198  0.00  0.00     0.003 A 
ATOM      3  C2  UNL d   1       0.679   1.150   1.609  0.00  0.00     0.048 A 
ATOM      4  C3  UNL d   1       0.258   0.224   0.654  0.00  0.00     0.023 A 
ATOM      5  C4  UNL d   1       0.394   0.501  -0.707  0.00  0.00     0.048 A 
ATOM      6  C5  UNL d   1       0.954   1.714  -1.112  0.00  0.00     0.003 A 
ATOM      7  I   UNL d   1      -0.577  -1.579   1.263  0.00  0.00    -0.146 I 
ENDROOT
TORSDOF 0
ENDMDL
