MODEL 1
REMARK minimizedAffinity 8.78976345
REMARK minimizedRMSD -1
REMARK  0 active torsions:
REMARK  status: ('A' for Active; 'I' for Inactive)
ROOT
ATOM      1  C2' OXE d   1      -4.561  -0.152   2.392  0.00  0.00     0.078 C 
ATOM      2  C1' OXE d   1      -5.999  -2.509   1.887  0.00  0.00     0.078 C 
ATOM      3  C1  OXE d   1      -5.624  -2.207   3.316  0.00  0.00    -0.078 A 
ATOM      4  C2  OXE d   1      -4.880  -1.075   3.548  0.00  0.00    -0.078 A 
ATOM      5  C3  OXE d   1      -4.553  -0.720   4.854  0.00  0.00     0.003 A 
ATOM      6  C4  OXE d   1      -4.843  -1.584   5.917  0.00  0.00    -0.002 A 
ATOM      7  C5  OXE d   1      -5.566  -2.762   5.698  0.00  0.00    -0.002 A 
ATOM      8  C6  OXE d   1      -6.000  -3.066   4.412  0.00  0.00     0.003 A 
ENDROOT
TORSDOF 0
ENDMDL
