MODEL 1
REMARK minimizedAffinity 0.736127913
REMARK minimizedRMSD -1
REMARK  0 active torsions:
REMARK  status: ('A' for Active; 'I' for Inactive)
ROOT
ATOM      1  C2' OXE d   1       0.455  -0.301   1.535  0.00  0.00     0.078 C 
ATOM      2  C1' OXE d   1      -0.341   0.557  -1.017  0.00  0.00     0.078 C 
ATOM      3  C1  OXE d   1       0.068   1.609  -0.016  0.00  0.00    -0.078 A 
ATOM      4  C2  OXE d   1       0.411   1.184   1.244  0.00  0.00    -0.078 A 
ATOM      5  C3  OXE d   1       0.848   2.108   2.189  0.00  0.00     0.003 A 
ATOM      6  C4  OXE d   1       0.794   3.480   1.915  0.00  0.00    -0.002 A 
ATOM      7  C5  OXE d   1       0.410   3.938   0.650  0.00  0.00    -0.002 A 
ATOM      8  C6  OXE d   1       0.085   3.015  -0.338  0.00  0.00     0.003 A 
ENDROOT
TORSDOF 0
ENDMDL
