MODEL 1
REMARK minimizedAffinity 3.13263655
REMARK minimizedRMSD -1
REMARK  0 active torsions:
REMARK  status: ('A' for Active; 'I' for Inactive)
ROOT
ATOM      1  C2' OXE d   1      -1.784   5.116  -2.787  0.00  0.00     0.078 C 
ATOM      2  C1' OXE d   1      -4.162   3.858  -3.588  0.00  0.00     0.078 C 
ATOM      3  C1  OXE d   1      -3.057   2.990  -3.041  0.00  0.00    -0.078 A 
ATOM      4  C2  OXE d   1      -1.880   3.608  -2.695  0.00  0.00    -0.078 A 
ATOM      5  C3  OXE d   1      -0.848   2.862  -2.133  0.00  0.00     0.003 A 
ATOM      6  C4  OXE d   1      -0.940   1.467  -2.061  0.00  0.00    -0.002 A 
ATOM      7  C5  OXE d   1      -2.115   0.812  -2.445  0.00  0.00    -0.002 A 
ATOM      8  C6  OXE d   1      -3.196   1.561  -2.896  0.00  0.00     0.003 A 
ENDROOT
TORSDOF 0
ENDMDL
