MODEL 1
REMARK minimizedAffinity 2.65983582
REMARK minimizedRMSD -1
REMARK  0 active torsions:
REMARK  status: ('A' for Active; 'I' for Inactive)
ROOT
ATOM      1  C2' OXE d   1      -3.849   3.903  -3.093  0.00  0.00     0.078 C 
ATOM      2  C1' OXE d   1      -1.146   3.855  -2.337  0.00  0.00     0.078 C 
ATOM      3  C1  OXE d   1      -1.943   2.585  -2.179  0.00  0.00    -0.078 A 
ATOM      4  C2  OXE d   1      -3.277   2.630  -2.508  0.00  0.00    -0.078 A 
ATOM      5  C3  OXE d   1      -4.045   1.472  -2.432  0.00  0.00     0.003 A 
ATOM      6  C4  OXE d   1      -3.511   0.301  -1.880  0.00  0.00    -0.002 A 
ATOM      7  C5  OXE d   1      -2.165   0.245  -1.502  0.00  0.00    -0.002 A 
ATOM      8  C6  OXE d   1      -1.358   1.363  -1.684  0.00  0.00     0.003 A 
ENDROOT
TORSDOF 0
ENDMDL
