MODEL 1
REMARK minimizedAffinity 13.445385
REMARK minimizedRMSD -1
REMARK  0 active torsions:
REMARK  status: ('A' for Active; 'I' for Inactive)
ROOT
ATOM      1  C2' OXE d   1      -3.542   3.532  -2.841  0.00  0.00     0.078 C 
ATOM      2  C1' OXE d   1      -0.892   3.417  -1.922  0.00  0.00     0.078 C 
ATOM      3  C1  OXE d   1      -1.639   2.116  -2.080  0.00  0.00    -0.078 A 
ATOM      4  C2  OXE d   1      -2.950   2.185  -2.486  0.00  0.00    -0.078 A 
ATOM      5  C3  OXE d   1      -3.668   1.012  -2.700  0.00  0.00     0.003 A 
ATOM      6  C4  OXE d   1      -3.117  -0.229  -2.360  0.00  0.00    -0.002 A 
ATOM      7  C5  OXE d   1      -1.796  -0.319  -1.907  0.00  0.00    -0.002 A 
ATOM      8  C6  OXE d   1      -1.032   0.838  -1.802  0.00  0.00     0.003 A 
ENDROOT
TORSDOF 0
ENDMDL
