MODEL 1
REMARK minimizedAffinity 3.06247497
REMARK minimizedRMSD -1
REMARK  0 active torsions:
REMARK  status: ('A' for Active; 'I' for Inactive)
ROOT
ATOM      1  C2' OXE d   1       0.013   0.243   1.658  0.00  0.00     0.078 C 
ATOM      2  C1' OXE d   1       1.009   2.733   2.488  0.00  0.00     0.078 C 
ATOM      3  C1  OXE d   1       0.484   2.620   1.078  0.00  0.00    -0.078 A 
ATOM      4  C2  OXE d   1       0.042   1.386   0.666  0.00  0.00    -0.078 A 
ATOM      5  C3  OXE d   1      -0.504   1.239  -0.606  0.00  0.00     0.003 A 
ATOM      6  C4  OXE d   1      -0.465   2.298  -1.521  0.00  0.00    -0.002 A 
ATOM      7  C5  OXE d   1       0.018   3.553  -1.134  0.00  0.00    -0.002 A 
ATOM      8  C6  OXE d   1       0.456   3.741   0.172  0.00  0.00     0.003 A 
ENDROOT
TORSDOF 0
ENDMDL
