MODEL 1
REMARK minimizedAffinity -4.54264832
REMARK minimizedRMSD -1
REMARK  0 active torsions:
REMARK  status: ('A' for Active; 'I' for Inactive)
ROOT
ATOM      1  C2' OXE d   1      -0.301   0.997  -1.164  0.00  0.00     0.078 C 
ATOM      2  C1' OXE d   1      -0.038   0.166   1.504  0.00  0.00     0.078 C 
ATOM      3  C1  OXE d   1       0.171   1.628   1.199  0.00  0.00    -0.078 A 
ATOM      4  C2  OXE d   1       0.086   2.018  -0.116  0.00  0.00    -0.078 A 
ATOM      5  C3  OXE d   1       0.216   3.364  -0.445  0.00  0.00     0.003 A 
ATOM      6  C4  OXE d   1       0.584   4.300   0.529  0.00  0.00    -0.002 A 
ATOM      7  C5  OXE d   1       0.714   3.918   1.868  0.00  0.00    -0.002 A 
ATOM      8  C6  OXE d   1       0.470   2.596   2.226  0.00  0.00     0.003 A 
ENDROOT
TORSDOF 0
ENDMDL
