MODEL 1
REMARK minimizedAffinity 7.09066725
REMARK minimizedRMSD -1
REMARK  0 active torsions:
REMARK  status: ('A' for Active; 'I' for Inactive)
ROOT
ATOM      1  C   UNL d   1       1.303   4.114  -5.600  0.00  0.00     0.023 A 
ATOM      2  C1  UNL d   1       2.398   3.279  -5.379  0.00  0.00     0.003 A 
ATOM      3  C2  UNL d   1       3.694   3.794  -5.442  0.00  0.00     0.048 A 
ATOM      4  C3  UNL d   1       3.888   5.145  -5.725  0.00  0.00     0.023 A 
ATOM      5  C4  UNL d   1       2.796   5.985  -5.946  0.00  0.00     0.048 A 
ATOM      6  C5  UNL d   1       1.501   5.466  -5.884  0.00  0.00     0.003 A 
ATOM      7  I   UNL d   1       5.817   5.914  -5.819  0.00  0.00    -0.146 I 
ENDROOT
TORSDOF 0
ENDMDL
