MODEL 1
REMARK minimizedAffinity 5.52648592
REMARK minimizedRMSD -1
REMARK  0 active torsions:
REMARK  status: ('A' for Active; 'I' for Inactive)
ROOT
ATOM      1  C   UNL d   1       3.323  -3.710   0.630  0.00  0.00     0.023 A 
ATOM      2  C1  UNL d   1       3.565  -3.505   1.988  0.00  0.00     0.003 A 
ATOM      3  C2  UNL d   1       2.824  -2.556   2.695  0.00  0.00     0.048 A 
ATOM      4  C3  UNL d   1       1.842  -1.816   2.038  0.00  0.00     0.023 A 
ATOM      5  C4  UNL d   1       1.596  -2.017   0.679  0.00  0.00     0.048 A 
ATOM      6  C5  UNL d   1       2.340  -2.967  -0.024  0.00  0.00     0.003 A 
ATOM      7  I   UNL d   1       0.737  -0.403   3.088  0.00  0.00    -0.146 I 
ENDROOT
TORSDOF 0
ENDMDL
