MODEL 1
REMARK minimizedAffinity 7.2185545
REMARK minimizedRMSD -1
REMARK  0 active torsions:
REMARK  status: ('A' for Active; 'I' for Inactive)
ROOT
ATOM      1  C   UNL d   1      -4.731  -2.036  -3.179  0.00  0.00     0.023 A 
ATOM      2  C1  UNL d   1      -5.370  -1.116  -4.010  0.00  0.00     0.003 A 
ATOM      3  C2  UNL d   1      -5.008   0.232  -3.970  0.00  0.00     0.048 A 
ATOM      4  C3  UNL d   1      -4.005   0.653  -3.097  0.00  0.00     0.023 A 
ATOM      5  C4  UNL d   1      -3.362  -0.264  -2.264  0.00  0.00     0.048 A 
ATOM      6  C5  UNL d   1      -3.728  -1.611  -2.307  0.00  0.00     0.003 A 
ATOM      7  I   UNL d   1      -3.464   2.659  -3.036  0.00  0.00    -0.146 I 
ENDROOT
TORSDOF 0
ENDMDL
