MODEL 1
REMARK minimizedAffinity 9.45291233
REMARK minimizedRMSD -1
REMARK  0 active torsions:
REMARK  status: ('A' for Active; 'I' for Inactive)
ROOT
ATOM      1  C   UNL d   1       1.186   4.047  -5.452  0.00  0.00     0.023 A 
ATOM      2  C1  UNL d   1       1.331   5.431  -5.561  0.00  0.00     0.003 A 
ATOM      3  C2  UNL d   1       2.600   5.991  -5.717  0.00  0.00     0.048 A 
ATOM      4  C3  UNL d   1       3.721   5.162  -5.765  0.00  0.00     0.023 A 
ATOM      5  C4  UNL d   1       3.581   3.778  -5.657  0.00  0.00     0.048 A 
ATOM      6  C5  UNL d   1       2.310   3.222  -5.500  0.00  0.00     0.003 A 
ATOM      7  I   UNL d   1       5.611   5.994  -5.997  0.00  0.00    -0.146 I 
ENDROOT
TORSDOF 0
ENDMDL
