MODEL 1
REMARK minimizedAffinity 2.32767439
REMARK minimizedRMSD -1
REMARK  0 active torsions:
REMARK  status: ('A' for Active; 'I' for Inactive)
ROOT
ATOM      1  C   UNL d   1       3.304  -4.111   0.505  0.00  0.00     0.023 A 
ATOM      2  C1  UNL d   1       3.947  -5.021   1.344  0.00  0.00     0.003 A 
ATOM      3  C2  UNL d   1       4.422  -4.608   2.591  0.00  0.00     0.048 A 
ATOM      4  C3  UNL d   1       4.249  -3.284   2.992  0.00  0.00     0.023 A 
ATOM      5  C4  UNL d   1       3.605  -2.370   2.156  0.00  0.00     0.048 A 
ATOM      6  C5  UNL d   1       3.133  -2.788   0.911  0.00  0.00     0.003 A 
ATOM      7  I   UNL d   1       4.955  -2.667   4.847  0.00  0.00    -0.146 I 
ENDROOT
TORSDOF 0
ENDMDL
