MODEL 1
REMARK minimizedAffinity 5.43099833
REMARK minimizedRMSD -1
REMARK  0 active torsions:
REMARK  status: ('A' for Active; 'I' for Inactive)
ROOT
ATOM      1  C   UNL d   1       2.928  -3.096  -0.086  0.00  0.00     0.023 A 
ATOM      2  C1  UNL d   1       4.210  -3.590   0.149  0.00  0.00     0.003 A 
ATOM      3  C2  UNL d   1       4.731  -3.596   1.445  0.00  0.00     0.048 A 
ATOM      4  C3  UNL d   1       3.962  -3.107   2.501  0.00  0.00     0.023 A 
ATOM      5  C4  UNL d   1       2.678  -2.612   2.270  0.00  0.00     0.048 A 
ATOM      6  C5  UNL d   1       2.162  -2.607   0.973  0.00  0.00     0.003 A 
ATOM      7  I   UNL d   1       4.735  -3.116   4.431  0.00  0.00    -0.146 I 
ENDROOT
TORSDOF 0
ENDMDL
