MODEL 1
REMARK minimizedAffinity 2.75043631
REMARK minimizedRMSD -1
REMARK  0 active torsions:
REMARK  status: ('A' for Active; 'I' for Inactive)
ROOT
ATOM      1  C   UNL d   1       1.744  -2.733   1.164  0.00  0.00     0.023 A 
ATOM      2  C1  UNL d   1       1.533  -1.863   2.234  0.00  0.00     0.003 A 
ATOM      3  C2  UNL d   1       2.415  -1.860   3.317  0.00  0.00     0.048 A 
ATOM      4  C3  UNL d   1       3.506  -2.728   3.323  0.00  0.00     0.023 A 
ATOM      5  C4  UNL d   1       3.722  -3.599   2.254  0.00  0.00     0.048 A 
ATOM      6  C5  UNL d   1       2.837  -3.599   1.174  0.00  0.00     0.003 A 
ATOM      7  I   UNL d   1       4.820  -2.724   4.933  0.00  0.00    -0.146 I 
ENDROOT
TORSDOF 0
ENDMDL
