MODEL 1
REMARK minimizedAffinity -1.36962962
REMARK minimizedRMSD -1
REMARK  0 active torsions:
REMARK  status: ('A' for Active; 'I' for Inactive)
ROOT
ATOM      1  C   UNL d   1       2.317   5.307  -5.988  0.00  0.00     0.023 A 
ATOM      2  C1  UNL d   1       2.055   3.937  -5.991  0.00  0.00     0.003 A 
ATOM      3  C2  UNL d   1       3.110   3.023  -5.992  0.00  0.00     0.048 A 
ATOM      4  C3  UNL d   1       4.425   3.485  -5.989  0.00  0.00     0.023 A 
ATOM      5  C4  UNL d   1       4.693   4.855  -5.985  0.00  0.00     0.048 A 
ATOM      6  C5  UNL d   1       3.635   5.766  -5.985  0.00  0.00     0.003 A 
ATOM      7  I   UNL d   1       5.998   2.126  -5.989  0.00  0.00    -0.146 I 
ENDROOT
TORSDOF 0
ENDMDL
