MODEL 1
REMARK minimizedAffinity 9.89575005
REMARK minimizedRMSD -1
REMARK  0 active torsions:
REMARK  status: ('A' for Active; 'I' for Inactive)
ROOT
ATOM      1  C   UNL d   1       3.106  -3.380   1.933  0.00  0.00     0.023 A 
ATOM      2  C1  UNL d   1       2.659  -3.770   0.670  0.00  0.00     0.003 A 
ATOM      3  C2  UNL d   1       3.488  -4.521  -0.165  0.00  0.00     0.048 A 
ATOM      4  C3  UNL d   1       4.764  -4.881   0.269  0.00  0.00     0.023 A 
ATOM      5  C4  UNL d   1       5.215  -4.495   1.532  0.00  0.00     0.048 A 
ATOM      6  C5  UNL d   1       4.383  -3.743   2.363  0.00  0.00     0.003 A 
ATOM      7  I   UNL d   1       6.000  -6.000  -0.971  0.00  0.00    -0.146 I 
ENDROOT
TORSDOF 0
ENDMDL
