MODEL 1
REMARK minimizedAffinity 2.93036032
REMARK minimizedRMSD -1
REMARK  0 active torsions:
REMARK  status: ('A' for Active; 'I' for Inactive)
ROOT
ATOM      1  C   UNL d   1       3.879  -3.217   0.264  0.00  0.00     0.023 A 
ATOM      2  C1  UNL d   1       2.899  -3.099   1.250  0.00  0.00     0.003 A 
ATOM      3  C2  UNL d   1       3.244  -3.225   2.598  0.00  0.00     0.048 A 
ATOM      4  C3  UNL d   1       4.570  -3.469   2.952  0.00  0.00     0.023 A 
ATOM      5  C4  UNL d   1       5.554  -3.588   1.969  0.00  0.00     0.048 A 
ATOM      6  C5  UNL d   1       5.205  -3.462   0.623  0.00  0.00     0.003 A 
ATOM      7  I   UNL d   1       5.085  -3.657   4.957  0.00  0.00    -0.146 I 
ENDROOT
TORSDOF 0
ENDMDL
