MODEL 1
REMARK minimizedAffinity 2.86423922
REMARK minimizedRMSD -1
REMARK  0 active torsions:
REMARK  status: ('A' for Active; 'I' for Inactive)
ROOT
ATOM      1  C2' OXE d   1      -0.750  -3.543  -2.430  0.00  0.00     0.078 C 
ATOM      2  C1' OXE d   1      -0.762  -0.765  -2.029  0.00  0.00     0.078 C 
ATOM      3  C1  OXE d   1      -0.967  -1.274  -3.434  0.00  0.00    -0.078 A 
ATOM      4  C2  OXE d   1      -0.913  -2.633  -3.628  0.00  0.00    -0.078 A 
ATOM      5  C3  OXE d   1      -1.150  -3.158  -4.895  0.00  0.00     0.003 A 
ATOM      6  C4  OXE d   1      -1.290  -2.309  -6.000  0.00  0.00    -0.002 A 
ATOM      7  C5  OXE d   1      -1.309  -0.921  -5.830  0.00  0.00    -0.002 A 
ATOM      8  C6  OXE d   1      -1.191  -0.389  -4.551  0.00  0.00     0.003 A 
ENDROOT
TORSDOF 0
ENDMDL
