MODEL 1
REMARK minimizedAffinity -0.651595056
REMARK minimizedRMSD -1
REMARK  0 active torsions:
REMARK  status: ('A' for Active; 'I' for Inactive)
ROOT
ATOM      1  C2' OXE d   1       2.552   2.298   1.197  0.00  0.00     0.078 C 
ATOM      2  C1' OXE d   1       2.513  -0.446   1.788  0.00  0.00     0.078 C 
ATOM      3  C1  OXE d   1       1.439   0.093   0.877  0.00  0.00    -0.078 A 
ATOM      4  C2  OXE d   1       1.438   1.445   0.630  0.00  0.00    -0.078 A 
ATOM      5  C3  OXE d   1       0.502   1.985  -0.248  0.00  0.00     0.003 A 
ATOM      6  C4  OXE d   1      -0.531   1.190  -0.760  0.00  0.00    -0.002 A 
ATOM      7  C5  OXE d   1      -0.572  -0.182  -0.489  0.00  0.00    -0.002 A 
ATOM      8  C6  OXE d   1       0.428  -0.753   0.291  0.00  0.00     0.003 A 
ENDROOT
TORSDOF 0
ENDMDL
