MODEL 1
REMARK minimizedAffinity -3.79978967
REMARK minimizedRMSD -1
REMARK  0 active torsions:
REMARK  status: ('A' for Active; 'I' for Inactive)
ROOT
ATOM      1  C2' OXE d   1      -0.368  -1.494  -1.570  0.00  0.00     0.078 C 
ATOM      2  C1' OXE d   1      -0.884   0.924  -0.241  0.00  0.00     0.078 C 
ATOM      3  C1  OXE d   1       0.415   0.219   0.060  0.00  0.00    -0.078 A 
ATOM      4  C2  OXE d   1       0.638  -0.987  -0.559  0.00  0.00    -0.078 A 
ATOM      5  C3  OXE d   1       1.844  -1.653  -0.358  0.00  0.00     0.003 A 
ATOM      6  C4  OXE d   1       2.764  -1.182   0.585  0.00  0.00    -0.002 A 
ATOM      7  C5  OXE d   1       2.539   0.024   1.257  0.00  0.00    -0.002 A 
ATOM      8  C6  OXE d   1       1.391   0.757   0.975  0.00  0.00     0.003 A 
ENDROOT
TORSDOF 0
ENDMDL
