MODEL 1
REMARK minimizedAffinity -4.65898371
REMARK minimizedRMSD -1
REMARK  0 active torsions:
REMARK  status: ('A' for Active; 'I' for Inactive)
ROOT
ATOM      1  C2' OXE d   1       0.021  -1.515  -1.736  0.00  0.00     0.078 C 
ATOM      2  C1' OXE d   1      -0.530   0.740  -0.156  0.00  0.00     0.078 C 
ATOM      3  C1  OXE d   1       0.768   0.011   0.086  0.00  0.00    -0.078 A 
ATOM      4  C2  OXE d   1       1.008  -1.118  -0.659  0.00  0.00    -0.078 A 
ATOM      5  C3  OXE d   1       2.215  -1.797  -0.514  0.00  0.00     0.003 A 
ATOM      6  C4  OXE d   1       3.118  -1.430   0.491  0.00  0.00    -0.002 A 
ATOM      7  C5  OXE d   1       2.875  -0.306   1.288  0.00  0.00    -0.002 A 
ATOM      8  C6  OXE d   1       1.727   0.448   1.070  0.00  0.00     0.003 A 
ENDROOT
TORSDOF 0
ENDMDL
