MODEL 1
REMARK minimizedAffinity -5.35809135
REMARK minimizedRMSD -1
REMARK  0 active torsions:
REMARK  status: ('A' for Active; 'I' for Inactive)
ROOT
ATOM      1  C2' OXE d   1       3.147  -1.514   1.125  0.00  0.00     0.078 C 
ATOM      2  C1' OXE d   1       2.044   1.034   0.709  0.00  0.00     0.078 C 
ATOM      3  C1  OXE d   1       1.449  -0.124  -0.053  0.00  0.00    -0.078 A 
ATOM      4  C2  OXE d   1       2.025  -1.359   0.122  0.00  0.00    -0.078 A 
ATOM      5  C3  OXE d   1       1.479  -2.470  -0.515  0.00  0.00     0.003 A 
ATOM      6  C4  OXE d   1       0.448  -2.316  -1.449  0.00  0.00    -0.002 A 
ATOM      7  C5  OXE d   1      -0.127  -1.061  -1.672  0.00  0.00    -0.002 A 
ATOM      8  C6  OXE d   1       0.332   0.036  -0.952  0.00  0.00     0.003 A 
ENDROOT
TORSDOF 0
ENDMDL
