MODEL 1
REMARK minimizedAffinity -3.42661786
REMARK minimizedRMSD -1
REMARK  0 active torsions:
REMARK  status: ('A' for Active; 'I' for Inactive)
ROOT
ATOM      1  C2' OXE d   1       2.509   1.449   1.142  0.00  0.00     0.078 C 
ATOM      2  C1' OXE d   1       3.912  -0.891   0.482  0.00  0.00     0.078 C 
ATOM      3  C1  OXE d   1       2.458  -0.809   0.091  0.00  0.00    -0.078 A 
ATOM      4  C2  OXE d   1       1.767   0.320   0.460  0.00  0.00    -0.078 A 
ATOM      5  C3  OXE d   1       0.437   0.471   0.076  0.00  0.00     0.003 A 
ATOM      6  C4  OXE d   1      -0.245  -0.581  -0.546  0.00  0.00    -0.002 A 
ATOM      7  C5  OXE d   1       0.430  -1.756  -0.895  0.00  0.00    -0.002 A 
ATOM      8  C6  OXE d   1       1.789  -1.869  -0.622  0.00  0.00     0.003 A 
ENDROOT
TORSDOF 0
ENDMDL
