MODEL 1
REMARK minimizedAffinity -0.869937897
REMARK minimizedRMSD -1
REMARK  0 active torsions:
REMARK  status: ('A' for Active; 'I' for Inactive)
ROOT
ATOM      1  C2' OXE d   1       0.194  -0.945  -1.736  0.00  0.00     0.078 C 
ATOM      2  C1' OXE d   1       2.733  -2.142  -1.722  0.00  0.00     0.078 C 
ATOM      3  C1  OXE d   1       2.335  -1.322  -0.520  0.00  0.00    -0.078 A 
ATOM      4  C2  OXE d   1       1.109  -0.702  -0.556  0.00  0.00    -0.078 A 
ATOM      5  C3  OXE d   1       0.670   0.021   0.550  0.00  0.00     0.003 A 
ATOM      6  C4  OXE d   1       1.527   0.249   1.633  0.00  0.00    -0.002 A 
ATOM      7  C5  OXE d   1       2.795  -0.341   1.672  0.00  0.00    -0.002 A 
ATOM      8  C6  OXE d   1       3.197  -1.162   0.625  0.00  0.00     0.003 A 
ENDROOT
TORSDOF 0
ENDMDL
