MODEL 1
REMARK minimizedAffinity -2.69782424
REMARK minimizedRMSD -1
REMARK  0 active torsions:
REMARK  status: ('A' for Active; 'I' for Inactive)
ROOT
ATOM      1  C2' OXE d   1       2.226  -2.593  -1.786  0.00  0.00     0.078 C 
ATOM      2  C1' OXE d   1      -0.362  -1.587  -1.376  0.00  0.00     0.078 C 
ATOM      3  C1  OXE d   1       0.750  -1.039  -0.516  0.00  0.00    -0.078 A 
ATOM      4  C2  OXE d   1       2.005  -1.570  -0.692  0.00  0.00    -0.078 A 
ATOM      5  C3  OXE d   1       3.076  -1.062   0.036  0.00  0.00     0.003 A 
ATOM      6  C4  OXE d   1       2.861  -0.123   1.053  0.00  0.00    -0.002 A 
ATOM      7  C5  OXE d   1       1.584   0.402   1.275  0.00  0.00    -0.002 A 
ATOM      8  C6  OXE d   1       0.527  -0.013   0.472  0.00  0.00     0.003 A 
ENDROOT
TORSDOF 0
ENDMDL
