MODEL 1
REMARK minimizedAffinity -1.10211921
REMARK minimizedRMSD -1
REMARK  0 active torsions:
REMARK  status: ('A' for Active; 'I' for Inactive)
ROOT
ATOM      1  C2' OXE d   1      -1.115  -1.593   0.915  0.00  0.00     0.078 C 
ATOM      2  C1' OXE d   1      -2.743   0.680   0.661  0.00  0.00     0.078 C 
ATOM      3  C1  OXE d   1      -1.254   0.858   0.493  0.00  0.00    -0.078 A 
ATOM      4  C2  OXE d   1      -0.461  -0.251   0.665  0.00  0.00    -0.078 A 
ATOM      5  C3  OXE d   1       0.913  -0.153   0.468  0.00  0.00     0.003 A 
ATOM      6  C4  OXE d   1       1.510   1.094   0.247  0.00  0.00    -0.002 A 
ATOM      7  C5  OXE d   1       0.725   2.243   0.108  0.00  0.00    -0.002 A 
ATOM      8  C6  OXE d   1      -0.660   2.136   0.185  0.00  0.00     0.003 A 
ENDROOT
TORSDOF 0
ENDMDL
