MODEL 1
REMARK minimizedAffinity 17.0881405
REMARK minimizedRMSD -1
REMARK  0 active torsions:
REMARK  status: ('A' for Active; 'I' for Inactive)
ROOT
ATOM      1  C1  DEN d   1       4.716   4.220  -0.993  0.00  0.00     0.130 A 
ATOM      2  C2  DEN d   1       5.993   3.983  -1.662  0.00  0.00    -0.031 A 
ATOM      3  C3  DEN d   1       5.994   2.595  -2.165  0.00  0.00     0.027 A 
ATOM      4  C4  DEN d   1       4.152   0.800  -1.980  0.00  0.00     0.027 A 
ATOM      5  C5  DEN d   1       2.893   0.530  -1.490  0.00  0.00    -0.003 A 
ATOM      6  C6  DEN d   1       2.173   1.452  -0.777  0.00  0.00     0.001 A 
ATOM      7  C7  DEN d   1       2.689   2.704  -0.572  0.00  0.00     0.017 A 
ATOM      8  C8  DEN d   1       3.961   2.982  -1.056  0.00  0.00    -0.094 A 
ATOM      9  C9  DEN d   1       4.667   2.040  -1.785  0.00  0.00    -0.072 A 
ENDROOT
TORSDOF 0
ENDMDL
