MODEL 1
REMARK minimizedAffinity 11.9913111
REMARK minimizedRMSD -1
REMARK  0 active torsions:
REMARK  status: ('A' for Active; 'I' for Inactive)
ROOT
ATOM      1  C1  DEN d   1       1.629   3.412   1.993  0.00  0.00     0.130 A 
ATOM      2  C2  DEN d   1       1.935   3.275   3.414  0.00  0.00    -0.031 A 
ATOM      3  C3  DEN d   1       2.487   1.924   3.634  0.00  0.00     0.027 A 
ATOM      4  C4  DEN d   1       2.902   0.042   1.920  0.00  0.00     0.027 A 
ATOM      5  C5  DEN d   1       2.789  -0.314   0.594  0.00  0.00    -0.003 A 
ATOM      6  C6  DEN d   1       2.254   0.527  -0.345  0.00  0.00     0.001 A 
ATOM      7  C7  DEN d   1       1.854   1.785   0.021  0.00  0.00     0.017 A 
ATOM      8  C8  DEN d   1       1.958   2.149   1.358  0.00  0.00    -0.094 A 
ATOM      9  C9  DEN d   1       2.512   1.288   2.289  0.00  0.00    -0.072 A 
ENDROOT
TORSDOF 0
ENDMDL
