MODEL 1
REMARK minimizedAffinity 5.92020464
REMARK minimizedRMSD -1
REMARK  0 active torsions:
REMARK  status: ('A' for Active; 'I' for Inactive)
ROOT
ATOM      1  C1  DEN d   1      -0.052   0.709   3.860  0.00  0.00     0.130 A 
ATOM      2  C2  DEN d   1       1.035  -0.258   3.740  0.00  0.00    -0.031 A 
ATOM      3  C3  DEN d   1       1.723  -0.015   2.455  0.00  0.00     0.027 A 
ATOM      4  C4  DEN d   1       1.215   1.759   0.654  0.00  0.00     0.027 A 
ATOM      5  C5  DEN d   1       0.380   2.798   0.305  0.00  0.00    -0.003 A 
ATOM      6  C6  DEN d   1      -0.669   3.188   1.094  0.00  0.00     0.001 A 
ATOM      7  C7  DEN d   1      -0.884   2.564   2.295  0.00  0.00     0.017 A 
ATOM      8  C8  DEN d   1      -0.051   1.511   2.650  0.00  0.00    -0.094 A 
ATOM      9  C9  DEN d   1       1.012   1.140   1.844  0.00  0.00    -0.072 A 
ENDROOT
TORSDOF 0
ENDMDL
