MODEL 1
REMARK minimizedAffinity 0.458794862
REMARK minimizedRMSD -1
REMARK  0 active torsions:
REMARK  status: ('A' for Active; 'I' for Inactive)
ROOT
ATOM      1  C1  DEN d   1      -5.594   2.471  -2.856  0.00  0.00     0.130 A 
ATOM      2  C2  DEN d   1      -5.161   2.304  -1.471  0.00  0.00    -0.031 A 
ATOM      3  C3  DEN d   1      -3.815   1.698  -1.483  0.00  0.00     0.027 A 
ATOM      4  C4  DEN d   1      -2.363   1.010  -3.501  0.00  0.00     0.027 A 
ATOM      5  C5  DEN d   1      -2.310   0.947  -4.876  0.00  0.00    -0.003 A 
ATOM      6  C6  DEN d   1      -3.353   1.352  -5.667  0.00  0.00     0.001 A 
ATOM      7  C7  DEN d   1      -4.477   1.882  -5.089  0.00  0.00     0.017 A 
ATOM      8  C8  DEN d   1      -4.540   1.942  -3.703  0.00  0.00    -0.094 A 
ATOM      9  C9  DEN d   1      -3.471   1.538  -2.922  0.00  0.00    -0.072 A 
ENDROOT
TORSDOF 0
ENDMDL
