MODEL 1
REMARK minimizedAffinity 11.3245802
REMARK minimizedRMSD -1
REMARK  0 active torsions:
REMARK  status: ('A' for Active; 'I' for Inactive)
ROOT
ATOM      1  C1  DEN d   1      -0.704   1.646   3.341  0.00  0.00     0.130 A 
ATOM      2  C2  DEN d   1       0.289   0.596   3.547  0.00  0.00    -0.031 A 
ATOM      3  C3  DEN d   1       1.161   0.551   2.356  0.00  0.00     0.027 A 
ATOM      4  C4  DEN d   1       1.073   2.003   0.226  0.00  0.00     0.027 A 
ATOM      5  C5  DEN d   1       0.398   3.020  -0.413  0.00  0.00    -0.003 A 
ATOM      6  C6  DEN d   1      -0.703   3.622   0.136  0.00  0.00     0.001 A 
ATOM      7  C7  DEN d   1      -1.136   3.243   1.379  0.00  0.00     0.017 A 
ATOM      8  C8  DEN d   1      -0.464   2.213   2.026  0.00  0.00    -0.094 A 
ATOM      9  C9  DEN d   1       0.654   1.626   1.460  0.00  0.00    -0.072 A 
ENDROOT
TORSDOF 0
ENDMDL
