MODEL 1
REMARK minimizedAffinity 15.9418783
REMARK minimizedRMSD -1
REMARK  0 active torsions:
REMARK  status: ('A' for Active; 'I' for Inactive)
ROOT
ATOM      1  C1  DEN d   1       2.934  -2.445   0.733  0.00  0.00     0.130 A 
ATOM      2  C2  DEN d   1       3.299  -1.099   0.300  0.00  0.00    -0.031 A 
ATOM      3  C3  DEN d   1       2.365  -0.695  -0.770  0.00  0.00     0.027 A 
ATOM      4  C4  DEN d   1       0.396  -2.013  -1.789  0.00  0.00     0.027 A 
ATOM      5  C5  DEN d   1      -0.296  -3.204  -1.753  0.00  0.00    -0.003 A 
ATOM      6  C6  DEN d   1       0.059  -4.230  -0.918  0.00  0.00     0.001 A 
ATOM      7  C7  DEN d   1       1.106  -4.067  -0.050  0.00  0.00     0.017 A 
ATOM      8  C8  DEN d   1       1.813  -2.872  -0.085  0.00  0.00    -0.094 A 
ATOM      9  C9  DEN d   1       1.431  -1.843  -0.929  0.00  0.00    -0.072 A 
ENDROOT
TORSDOF 0
ENDMDL
