MODEL 1
REMARK minimizedAffinity 12.101347
REMARK minimizedRMSD -1
REMARK  0 active torsions:
REMARK  status: ('A' for Active; 'I' for Inactive)
ROOT
ATOM      1  C1  DEN d   1      -1.040   1.224  -2.315  0.00  0.00     0.130 A 
ATOM      2  C2  DEN d   1      -2.450   0.845  -2.309  0.00  0.00    -0.031 A 
ATOM      3  C3  DEN d   1      -2.894   0.760  -0.903  0.00  0.00     0.027 A 
ATOM      4  C4  DEN d   1      -1.543   1.181   1.254  0.00  0.00     0.027 A 
ATOM      5  C5  DEN d   1      -0.304   1.515   1.755  0.00  0.00    -0.003 A 
ATOM      6  C6  DEN d   1       0.776   1.740   0.943  0.00  0.00     0.001 A 
ATOM      7  C7  DEN d   1       0.627   1.679  -0.417  0.00  0.00     0.017 A 
ATOM      8  C8  DEN d   1      -0.617   1.335  -0.930  0.00  0.00    -0.094 A 
ATOM      9  C9  DEN d   1      -1.700   1.123  -0.093  0.00  0.00    -0.072 A 
ENDROOT
TORSDOF 0
ENDMDL
