MODEL 1
REMARK minimizedAffinity 2.59234619
REMARK minimizedRMSD -1
REMARK  0 active torsions:
REMARK  status: ('A' for Active; 'I' for Inactive)
ROOT
ATOM      1  C1  DEN d   1       3.708  -1.406   0.337  0.00  0.00     0.130 A 
ATOM      2  C2  DEN d   1       2.458  -2.158   0.384  0.00  0.00    -0.031 A 
ATOM      3  C3  DEN d   1       1.342  -1.194   0.320  0.00  0.00     0.027 A 
ATOM      4  C4  DEN d   1       1.428   1.378   0.149  0.00  0.00     0.027 A 
ATOM      5  C5  DEN d   1       2.263   2.472   0.090  0.00  0.00    -0.003 A 
ATOM      6  C6  DEN d   1       3.626   2.354   0.143  0.00  0.00     0.001 A 
ATOM      7  C7  DEN d   1       4.197   1.110   0.213  0.00  0.00     0.017 A 
ATOM      8  C8  DEN d   1       3.362   0.003   0.280  0.00  0.00    -0.094 A 
ATOM      9  C9  DEN d   1       1.986   0.143   0.213  0.00  0.00    -0.072 A 
ENDROOT
TORSDOF 0
ENDMDL
