MODEL 1
REMARK minimizedAffinity 1.58314192
REMARK minimizedRMSD -1
REMARK  0 active torsions:
REMARK  status: ('A' for Active; 'I' for Inactive)
ROOT
ATOM      1  C1  DEN d   1      -0.066  -0.519  -2.821  0.00  0.00     0.130 A 
ATOM      2  C2  DEN d   1      -1.133   0.459  -3.011  0.00  0.00    -0.031 A 
ATOM      3  C3  DEN d   1      -1.070   1.426  -1.896  0.00  0.00     0.027 A 
ATOM      4  C4  DEN d   1       0.572   1.506   0.091  0.00  0.00     0.027 A 
ATOM      5  C5  DEN d   1       1.645   0.881   0.686  0.00  0.00    -0.003 A 
ATOM      6  C6  DEN d   1       2.197  -0.265   0.177  0.00  0.00     0.001 A 
ATOM      7  C7  DEN d   1       1.706  -0.796  -0.986  0.00  0.00     0.017 A 
ATOM      8  C8  DEN d   1       0.620  -0.175  -1.588  0.00  0.00    -0.094 A 
ATOM      9  C9  DEN d   1       0.084   0.989  -1.065  0.00  0.00    -0.072 A 
ENDROOT
TORSDOF 0
ENDMDL
