MODEL 1
REMARK minimizedAffinity 0.920984864
REMARK minimizedRMSD -1
REMARK  0 active torsions:
REMARK  status: ('A' for Active; 'I' for Inactive)
ROOT
ATOM      1  C1  DEN d   1       0.871  -0.033   0.041  0.00  0.00     0.130 A 
ATOM      2  C2  DEN d   1       1.474  -1.351  -0.138  0.00  0.00    -0.031 A 
ATOM      3  C3  DEN d   1       2.941  -1.184  -0.155  0.00  0.00     0.027 A 
ATOM      4  C4  DEN d   1       4.331   0.976   0.084  0.00  0.00     0.027 A 
ATOM      5  C5  DEN d   1       4.263   2.342   0.244  0.00  0.00    -0.003 A 
ATOM      6  C6  DEN d   1       3.069   3.011   0.313  0.00  0.00     0.001 A 
ATOM      7  C7  DEN d   1       1.894   2.309   0.267  0.00  0.00     0.017 A 
ATOM      8  C8  DEN d   1       1.954   0.932   0.098  0.00  0.00    -0.094 A 
ATOM      9  C9  DEN d   1       3.171   0.273   0.042  0.00  0.00    -0.072 A 
ENDROOT
TORSDOF 0
ENDMDL
