MODEL 1
REMARK minimizedAffinity -3.08225036
REMARK minimizedRMSD -1
REMARK  1 active torsions:
REMARK  status: ('A' for Active; 'I' for Inactive)
REMARK    1  A    between atoms: C1_2  and  C2_3 
ROOT
ATOM      1  C2  UNL d   1       1.141   0.033   0.367  0.00  0.00    -0.076 A 
ATOM      2  C3  UNL d   1       2.056   0.107   1.432  0.00  0.00     0.004 A 
ATOM      3  C4  UNL d   1       2.837  -0.992   1.785  0.00  0.00    -0.003 A 
ATOM      4  C5  UNL d   1       2.716  -2.184   1.079  0.00  0.00     0.000 A 
ATOM      5  C6  UNL d   1       1.826  -2.270   0.008  0.00  0.00     0.000 A 
ATOM      6  C7  UNL d   1       1.044  -1.166  -0.371  0.00  0.00    -0.073 A 
ATOM      7  C8  UNL d   1       0.096  -1.316  -1.530  0.00  0.00     0.078 C 
ENDROOT
BRANCH   1   8
ATOM      8  C1  UNL d   1       0.302   1.250   0.047  0.00  0.00     0.053 C 
ATOM      9  C   UNL d   1       1.099   2.543   0.118  0.00  0.00     0.018 C 
ENDBRANCH   1   8
TORSDOF 1
ENDMDL
