MODEL 1
REMARK minimizedAffinity -3.96352887
REMARK minimizedRMSD -1
REMARK  1 active torsions:
REMARK  status: ('A' for Active; 'I' for Inactive)
REMARK    1  A    between atoms: C1_2  and  C2_3 
ROOT
ATOM      1  C2  UNL d   1       0.197  -0.479  -0.032  0.00  0.00    -0.076 A 
ATOM      2  C3  UNL d   1       1.094   0.025   0.926  0.00  0.00     0.004 A 
ATOM      3  C4  UNL d   1       2.254  -0.672   1.259  0.00  0.00    -0.003 A 
ATOM      4  C5  UNL d   1       2.536  -1.884   0.640  0.00  0.00     0.000 A 
ATOM      5  C6  UNL d   1       1.666  -2.391  -0.325  0.00  0.00     0.000 A 
ATOM      6  C7  UNL d   1       0.501  -1.693  -0.685  0.00  0.00    -0.073 A 
ATOM      7  C8  UNL d   1      -0.405  -2.289  -1.727  0.00  0.00     0.078 C 
ENDROOT
BRANCH   1   8
ATOM      8  C1  UNL d   1      -1.059   0.307  -0.333  0.00  0.00     0.053 C 
ATOM      9  C   UNL d   1      -2.043   0.299   0.827  0.00  0.00     0.018 C 
ENDBRANCH   1   8
TORSDOF 1
ENDMDL
