MODEL 1
REMARK minimizedAffinity -3.59751916
REMARK minimizedRMSD -1
REMARK  1 active torsions:
REMARK  status: ('A' for Active; 'I' for Inactive)
REMARK    1  A    between atoms: C1_2  and  C2_3 
ROOT
ATOM      1  C2  UNL d   1      -0.271   0.731  -0.285  0.00  0.00    -0.076 A 
ATOM      2  C3  UNL d   1       0.659   1.733   0.042  0.00  0.00     0.004 A 
ATOM      3  C4  UNL d   1       1.985   1.415   0.331  0.00  0.00    -0.003 A 
ATOM      4  C5  UNL d   1       2.403   0.089   0.296  0.00  0.00     0.000 A 
ATOM      5  C6  UNL d   1       1.498  -0.916  -0.044  0.00  0.00     0.000 A 
ATOM      6  C7  UNL d   1       0.162  -0.611  -0.353  0.00  0.00    -0.073 A 
ATOM      7  C8  UNL d   1      -0.773  -1.735  -0.708  0.00  0.00     0.078 C 
ENDROOT
BRANCH   1   8
ATOM      8  C1  UNL d   1      -1.702   1.133  -0.562  0.00  0.00     0.053 C 
ATOM      9  C   UNL d   1      -2.554   1.160   0.698  0.00  0.00     0.018 C 
ENDBRANCH   1   8
TORSDOF 1
ENDMDL
