MODEL 1
REMARK minimizedAffinity -2.97628665
REMARK minimizedRMSD -1
REMARK  1 active torsions:
REMARK  status: ('A' for Active; 'I' for Inactive)
REMARK    1  A    between atoms: C1_2  and  C2_3 
ROOT
ATOM      1  C2  UNL d   1       1.080  -0.901   0.011  0.00  0.00    -0.076 A 
ATOM      2  C3  UNL d   1      -0.016  -1.660  -0.433  0.00  0.00     0.004 A 
ATOM      3  C4  UNL d   1      -1.270  -1.076  -0.608  0.00  0.00    -0.003 A 
ATOM      4  C5  UNL d   1      -1.447   0.277  -0.341  0.00  0.00     0.000 A 
ATOM      5  C6  UNL d   1      -0.367   1.049   0.083  0.00  0.00     0.000 A 
ATOM      6  C7  UNL d   1       0.908   0.480   0.249  0.00  0.00    -0.073 A 
ATOM      7  C8  UNL d   1       2.036   1.358   0.715  0.00  0.00     0.078 C 
ENDROOT
BRANCH   1   8
ATOM      8  C1  UNL d   1       2.409  -1.594   0.209  0.00  0.00     0.053 C 
ATOM      9  C   UNL d   1       3.031  -2.045  -1.104  0.00  0.00     0.018 C 
ENDBRANCH   1   8
TORSDOF 1
ENDMDL
