MODEL 1
REMARK minimizedAffinity -4.59045219
REMARK minimizedRMSD -1
REMARK  1 active torsions:
REMARK  status: ('A' for Active; 'I' for Inactive)
REMARK    1  A    between atoms: C1_2  and  C2_3 
ROOT
ATOM      1  C2  UNL d   1       0.573   0.110  -0.277  0.00  0.00    -0.076 A 
ATOM      2  C3  UNL d   1       0.255  -1.248  -0.452  0.00  0.00     0.004 A 
ATOM      3  C4  UNL d   1       1.229  -2.236  -0.314  0.00  0.00    -0.003 A 
ATOM      4  C5  UNL d   1       2.536  -1.882   0.002  0.00  0.00     0.000 A 
ATOM      5  C6  UNL d   1       2.865  -0.541   0.197  0.00  0.00     0.000 A 
ATOM      6  C7  UNL d   1       1.892   0.466   0.078  0.00  0.00    -0.073 A 
ATOM      7  C8  UNL d   1       2.304   1.897   0.293  0.00  0.00     0.078 C 
ENDROOT
BRANCH   1   8
ATOM      8  C1  UNL d   1      -0.518   1.139  -0.465  0.00  0.00     0.053 C 
ATOM      9  C   UNL d   1      -1.908   0.562  -0.243  0.00  0.00     0.018 C 
ENDBRANCH   1   8
TORSDOF 1
ENDMDL
