MODEL 1
REMARK minimizedAffinity 6.59199142
REMARK minimizedRMSD -1
REMARK  0 active torsions:
REMARK  status: ('A' for Active; 'I' for Inactive)
ROOT
ATOM      1  C1  DEN d   1      -3.885  -2.260   0.046  0.00  0.00     0.130 A 
ATOM      2  C2  DEN d   1      -2.657  -3.045  -0.034  0.00  0.00    -0.031 A 
ATOM      3  C3  DEN d   1      -1.590  -2.296   0.659  0.00  0.00     0.027 A 
ATOM      4  C4  DEN d   1      -1.721  -0.010   1.847  0.00  0.00     0.027 A 
ATOM      5  C5  DEN d   1      -2.550   1.042   2.167  0.00  0.00    -0.003 A 
ATOM      6  C6  DEN d   1      -3.862   1.083   1.777  0.00  0.00     0.001 A 
ATOM      7  C7  DEN d   1      -4.397   0.031   1.082  0.00  0.00     0.017 A 
ATOM      8  C8  DEN d   1      -3.566  -1.031   0.749  0.00  0.00    -0.094 A 
ATOM      9  C9  DEN d   1      -2.245  -1.059   1.163  0.00  0.00    -0.072 A 
ENDROOT
TORSDOF 0
ENDMDL
