MODEL 1
REMARK minimizedAffinity 3.5465076
REMARK minimizedRMSD -1
REMARK  0 active torsions:
REMARK  status: ('A' for Active; 'I' for Inactive)
ROOT
ATOM      1  C1  DEN d   1      -0.870   1.114   3.528  0.00  0.00     0.130 A 
ATOM      2  C2  DEN d   1       0.092   0.190   2.934  0.00  0.00    -0.031 A 
ATOM      3  C3  DEN d   1      -0.462  -0.284   1.650  0.00  0.00     0.027 A 
ATOM      4  C4  DEN d   1      -2.704   0.323   0.529  0.00  0.00     0.027 A 
ATOM      5  C5  DEN d   1      -3.862   1.057   0.659  0.00  0.00    -0.003 A 
ATOM      6  C6  DEN d   1      -4.117   1.830   1.761  0.00  0.00     0.001 A 
ATOM      7  C7  DEN d   1      -3.181   1.920   2.757  0.00  0.00     0.017 A 
ATOM      8  C8  DEN d   1      -2.014   1.176   2.637  0.00  0.00    -0.094 A 
ATOM      9  C9  DEN d   1      -1.770   0.411   1.509  0.00  0.00    -0.072 A 
ENDROOT
TORSDOF 0
ENDMDL
