MODEL 1
REMARK minimizedAffinity -3.3650074
REMARK minimizedRMSD -1
REMARK  0 active torsions:
REMARK  status: ('A' for Active; 'I' for Inactive)
ROOT
ATOM      1  C1  DEN d   1       0.433  -1.110   2.834  0.00  0.00     0.130 A 
ATOM      2  C2  DEN d   1       1.248  -0.051   3.424  0.00  0.00    -0.031 A 
ATOM      3  C3  DEN d   1       0.531   1.228   3.248  0.00  0.00     0.027 A 
ATOM      4  C4  DEN d   1      -1.751   1.668   2.131  0.00  0.00     0.027 A 
ATOM      5  C5  DEN d   1      -2.812   1.083   1.475  0.00  0.00    -0.003 A 
ATOM      6  C6  DEN d   1      -2.848  -0.258   1.197  0.00  0.00     0.001 A 
ATOM      7  C7  DEN d   1      -1.826  -1.066   1.618  0.00  0.00     0.017 A 
ATOM      8  C8  DEN d   1      -0.750  -0.482   2.274  0.00  0.00    -0.094 A 
ATOM      9  C9  DEN d   1      -0.737   0.873   2.556  0.00  0.00    -0.072 A 
ENDROOT
TORSDOF 0
ENDMDL
