MODEL 1
REMARK minimizedAffinity 10.5808916
REMARK minimizedRMSD -1
REMARK  0 active torsions:
REMARK  status: ('A' for Active; 'I' for Inactive)
ROOT
ATOM      1  C1  DEN d   1      -3.480  -0.822   5.152  0.00  0.00     0.130 A 
ATOM      2  C2  DEN d   1      -4.796  -0.286   5.488  0.00  0.00    -0.031 A 
ATOM      3  C3  DEN d   1      -5.226   0.595   4.384  0.00  0.00     0.027 A 
ATOM      4  C4  DEN d   1      -3.991   1.173   2.195  0.00  0.00     0.027 A 
ATOM      5  C5  DEN d   1      -2.839   0.969   1.468  0.00  0.00    -0.003 A 
ATOM      6  C6  DEN d   1      -1.813   0.187   1.930  0.00  0.00     0.001 A 
ATOM      7  C7  DEN d   1      -1.939  -0.456   3.133  0.00  0.00     0.017 A 
ATOM      8  C8  DEN d   1      -3.095  -0.249   3.874  0.00  0.00    -0.094 A 
ATOM      9  C9  DEN d   1      -4.125   0.535   3.385  0.00  0.00    -0.072 A 
ENDROOT
TORSDOF 0
ENDMDL
