MODEL 1
REMARK minimizedAffinity 12.5495071
REMARK minimizedRMSD -1
REMARK  0 active torsions:
REMARK  status: ('A' for Active; 'I' for Inactive)
ROOT
ATOM      1  C1  DEN d   1      -4.647  -1.301  -0.349  0.00  0.00     0.130 A 
ATOM      2  C2  DEN d   1      -4.005  -2.603  -0.192  0.00  0.00    -0.031 A 
ATOM      3  C3  DEN d   1      -2.760  -2.409   0.578  0.00  0.00     0.027 A 
ATOM      4  C4  DEN d   1      -1.772  -0.230   1.542  0.00  0.00     0.027 A 
ATOM      5  C5  DEN d   1      -1.952   1.131   1.655  0.00  0.00    -0.003 A 
ATOM      6  C6  DEN d   1      -3.017   1.776   1.084  0.00  0.00     0.001 A 
ATOM      7  C7  DEN d   1      -3.967   1.054   0.411  0.00  0.00     0.017 A 
ATOM      8  C8  DEN d   1      -3.788  -0.318   0.287  0.00  0.00    -0.094 A 
ATOM      9  C9  DEN d   1      -2.711  -0.953   0.882  0.00  0.00    -0.072 A 
ENDROOT
TORSDOF 0
ENDMDL
