MODEL 1
REMARK minimizedAffinity 8.93373585
REMARK minimizedRMSD -1
REMARK  0 active torsions:
REMARK  status: ('A' for Active; 'I' for Inactive)
ROOT
ATOM      1  C1  DEN d   1      -1.115   0.347   0.967  0.00  0.00     0.130 A 
ATOM      2  C2  DEN d   1      -0.260   0.200   2.142  0.00  0.00    -0.031 A 
ATOM      3  C3  DEN d   1      -1.124   0.223   3.340  0.00  0.00     0.027 A 
ATOM      4  C4  DEN d   1      -3.687   0.467   3.489  0.00  0.00     0.027 A 
ATOM      5  C5  DEN d   1      -4.843   0.631   2.759  0.00  0.00    -0.003 A 
ATOM      6  C6  DEN d   1      -4.834   0.746   1.394  0.00  0.00     0.001 A 
ATOM      7  C7  DEN d   1      -3.650   0.652   0.712  0.00  0.00     0.017 A 
ATOM      8  C8  DEN d   1      -2.479   0.494   1.442  0.00  0.00    -0.094 A 
ATOM      9  C9  DEN d   1      -2.510   0.367   2.821  0.00  0.00    -0.072 A 
ENDROOT
TORSDOF 0
ENDMDL
