MODEL 1
REMARK minimizedAffinity 9.1430769
REMARK minimizedRMSD -1
REMARK  0 active torsions:
REMARK  status: ('A' for Active; 'I' for Inactive)
ROOT
ATOM      1  C1  DEN d   1       4.597  -6.000   1.024  0.00  0.00     0.130 A 
ATOM      2  C2  DEN d   1       5.089  -5.964   2.399  0.00  0.00    -0.031 A 
ATOM      3  C3  DEN d   1       3.921  -5.948   3.302  0.00  0.00     0.027 A 
ATOM      4  C4  DEN d   1       1.411  -5.980   2.708  0.00  0.00     0.027 A 
ATOM      5  C5  DEN d   1       0.502  -5.999   1.673  0.00  0.00    -0.003 A 
ATOM      6  C6  DEN d   1       0.891  -5.985   0.360  0.00  0.00     0.001 A 
ATOM      7  C7  DEN d   1       2.225  -5.997   0.047  0.00  0.00     0.017 A 
ATOM      8  C8  DEN d   1       3.147  -5.971   1.085  0.00  0.00    -0.094 A 
ATOM      9  C9  DEN d   1       2.734  -5.997   2.406  0.00  0.00    -0.072 A 
ENDROOT
TORSDOF 0
ENDMDL
