MODEL 1
REMARK minimizedAffinity 2.91826439
REMARK minimizedRMSD -1
REMARK  0 active torsions:
REMARK  status: ('A' for Active; 'I' for Inactive)
ROOT
ATOM      1  C1  DEN d   1       4.918  -6.000   1.148  0.00  0.00     0.130 A 
ATOM      2  C2  DEN d   1       5.877  -5.962   2.249  0.00  0.00    -0.031 A 
ATOM      3  C3  DEN d   1       5.119  -5.945   3.515  0.00  0.00     0.027 A 
ATOM      4  C4  DEN d   1       2.565  -5.979   3.878  0.00  0.00     0.027 A 
ATOM      5  C5  DEN d   1       1.342  -5.999   3.245  0.00  0.00    -0.003 A 
ATOM      6  C6  DEN d   1       1.225  -5.987   1.881  0.00  0.00     0.001 A 
ATOM      7  C7  DEN d   1       2.353  -5.999   1.103  0.00  0.00     0.017 A 
ATOM      8  C8  DEN d   1       3.590  -5.971   1.733  0.00  0.00    -0.094 A 
ATOM      9  C9  DEN d   1       3.687  -5.996   3.114  0.00  0.00    -0.072 A 
ENDROOT
TORSDOF 0
ENDMDL
