MODEL 1
REMARK minimizedAffinity 0.392671078
REMARK minimizedRMSD -1
REMARK  0 active torsions:
REMARK  status: ('A' for Active; 'I' for Inactive)
ROOT
ATOM      1  C1  DEN d   1       2.045   0.067   3.520  0.00  0.00     0.130 A 
ATOM      2  C2  DEN d   1       0.666   0.507   3.330  0.00  0.00    -0.031 A 
ATOM      3  C3  DEN d   1       0.474   0.803   1.896  0.00  0.00     0.027 A 
ATOM      4  C4  DEN d   1       2.170   0.616  -0.039  0.00  0.00     0.027 A 
ATOM      5  C5  DEN d   1       3.469   0.297  -0.366  0.00  0.00    -0.003 A 
ATOM      6  C6  DEN d   1       4.386  -0.085   0.576  0.00  0.00     0.001 A 
ATOM      7  C7  DEN d   1       4.005  -0.202   1.887  0.00  0.00     0.017 A 
ATOM      8  C8  DEN d   1       2.698   0.125   2.225  0.00  0.00    -0.094 A 
ATOM      9  C9  DEN d   1       1.783   0.498   1.256  0.00  0.00    -0.072 A 
ENDROOT
TORSDOF 0
ENDMDL
