MODEL 1
REMARK minimizedAffinity 4.7936821
REMARK minimizedRMSD -1
REMARK  0 active torsions:
REMARK  status: ('A' for Active; 'I' for Inactive)
ROOT
ATOM      1  C1  DEN d   1      -3.848   0.526   4.874  0.00  0.00     0.130 A 
ATOM      2  C2  DEN d   1      -5.250   0.664   4.490  0.00  0.00    -0.031 A 
ATOM      3  C3  DEN d   1      -5.317   0.722   3.016  0.00  0.00     0.027 A 
ATOM      4  C4  DEN d   1      -3.395   0.605   1.300  0.00  0.00     0.027 A 
ATOM      5  C5  DEN d   1      -2.030   0.500   1.149  0.00  0.00    -0.003 A 
ATOM      6  C6  DEN d   1      -1.179   0.431   2.220  0.00  0.00     0.001 A 
ATOM      7  C7  DEN d   1      -1.689   0.420   3.492  0.00  0.00     0.017 A 
ATOM      8  C8  DEN d   1      -3.064   0.534   3.652  0.00  0.00    -0.094 A 
ATOM      9  C9  DEN d   1      -3.908   0.590   2.556  0.00  0.00    -0.072 A 
ENDROOT
TORSDOF 0
ENDMDL
