MODEL 1
REMARK minimizedAffinity 8.96937656
REMARK minimizedRMSD -1
REMARK  0 active torsions:
REMARK  status: ('A' for Active; 'I' for Inactive)
ROOT
ATOM      1  C1  DEN d   1       0.180   0.333   0.703  0.00  0.00     0.130 A 
ATOM      2  C2  DEN d   1       1.591   0.011   0.894  0.00  0.00    -0.031 A 
ATOM      3  C3  DEN d   1       1.999   0.516   2.221  0.00  0.00     0.027 A 
ATOM      4  C4  DEN d   1       0.587   1.752   3.990  0.00  0.00     0.027 A 
ATOM      5  C5  DEN d   1      -0.661   2.262   4.275  0.00  0.00    -0.003 A 
ATOM      6  C6  DEN d   1      -1.698   2.195   3.383  0.00  0.00     0.001 A 
ATOM      7  C7  DEN d   1      -1.519   1.565   2.180  0.00  0.00     0.017 A 
ATOM      8  C8  DEN d   1      -0.262   1.055   1.883  0.00  0.00    -0.094 A 
ATOM      9  C9  DEN d   1       0.771   1.122   2.803  0.00  0.00    -0.072 A 
ENDROOT
TORSDOF 0
ENDMDL
