MODEL 1
REMARK minimizedAffinity 5.87279081
REMARK minimizedRMSD -1
REMARK  0 active torsions:
REMARK  status: ('A' for Active; 'I' for Inactive)
ROOT
ATOM      1  C2' OXE d   1       1.701   0.937   0.072  0.00  0.00     0.078 C 
ATOM      2  C1' OXE d   1       2.789  -1.644  -0.115  0.00  0.00     0.078 C 
ATOM      3  C1  OXE d   1       3.745  -0.478  -0.087  0.00  0.00    -0.078 A 
ATOM      4  C2  OXE d   1       3.203   0.784  -0.042  0.00  0.00    -0.078 A 
ATOM      5  C3  OXE d   1       4.041   1.892   0.041  0.00  0.00     0.003 A 
ATOM      6  C4  OXE d   1       5.428   1.742  -0.076  0.00  0.00    -0.002 A 
ATOM      7  C5  OXE d   1       5.999   0.468  -0.162  0.00  0.00    -0.002 A 
ATOM      8  C6  OXE d   1       5.176  -0.652  -0.126  0.00  0.00     0.003 A 
ENDROOT
TORSDOF 0
ENDMDL
