MODEL 1
REMARK minimizedAffinity 7.7048049
REMARK minimizedRMSD -1
REMARK  0 active torsions:
REMARK  status: ('A' for Active; 'I' for Inactive)
ROOT
ATOM      1  C2' OXE d   1      -5.282   2.817   2.739  0.00  0.00     0.078 C 
ATOM      2  C1' OXE d   1      -4.039   0.672   1.424  0.00  0.00     0.078 C 
ATOM      3  C1  OXE d   1      -3.158   1.656   2.152  0.00  0.00    -0.078 A 
ATOM      4  C2  OXE d   1      -3.772   2.728   2.754  0.00  0.00    -0.078 A 
ATOM      5  C3  OXE d   1      -3.011   3.636   3.485  0.00  0.00     0.003 A 
ATOM      6  C4  OXE d   1      -1.614   3.553   3.485  0.00  0.00    -0.002 A 
ATOM      7  C5  OXE d   1      -0.966   2.490   2.845  0.00  0.00    -0.002 A 
ATOM      8  C6  OXE d   1      -1.724   1.512   2.212  0.00  0.00     0.003 A 
ENDROOT
TORSDOF 0
ENDMDL
