MODEL 1
REMARK minimizedAffinity 17.7704811
REMARK minimizedRMSD -1
REMARK  0 active torsions:
REMARK  status: ('A' for Active; 'I' for Inactive)
ROOT
ATOM      1  C2' OXE d   1      -0.621  -3.071  -0.622  0.00  0.00     0.078 C 
ATOM      2  C1' OXE d   1      -0.358  -2.437  -3.344  0.00  0.00     0.078 C 
ATOM      3  C1  OXE d   1       0.900  -2.731  -2.566  0.00  0.00    -0.078 A 
ATOM      4  C2  OXE d   1       0.766  -2.995  -1.224  0.00  0.00    -0.078 A 
ATOM      5  C3  OXE d   1       1.889  -3.327  -0.471  0.00  0.00     0.003 A 
ATOM      6  C4  OXE d   1       3.169  -3.245  -1.033  0.00  0.00    -0.002 A 
ATOM      7  C5  OXE d   1       3.330  -2.939  -2.389  0.00  0.00    -0.002 A 
ATOM      8  C6  OXE d   1       2.206  -2.722  -3.177  0.00  0.00     0.003 A 
ENDROOT
TORSDOF 0
ENDMDL
