MODEL 1
REMARK minimizedAffinity 7.72354937
REMARK minimizedRMSD -1
REMARK  0 active torsions:
REMARK  status: ('A' for Active; 'I' for Inactive)
ROOT
ATOM      1  C2' OXE d   1      -1.474  -3.529   3.768  0.00  0.00     0.078 C 
ATOM      2  C1' OXE d   1      -2.017  -5.928   5.121  0.00  0.00     0.078 C 
ATOM      3  C1  OXE d   1      -0.622  -5.365   5.221  0.00  0.00    -0.078 A 
ATOM      4  C2  OXE d   1      -0.352  -4.216   4.517  0.00  0.00    -0.078 A 
ATOM      5  C3  OXE d   1       0.904  -3.624   4.618  0.00  0.00     0.003 A 
ATOM      6  C4  OXE d   1       1.939  -4.271   5.306  0.00  0.00    -0.002 A 
ATOM      7  C5  OXE d   1       1.696  -5.463   5.996  0.00  0.00    -0.002 A 
ATOM      8  C6  OXE d   1       0.413  -5.999   5.999  0.00  0.00     0.003 A 
ENDROOT
TORSDOF 0
ENDMDL
