MODEL 1
REMARK minimizedAffinity 0.482890874
REMARK minimizedRMSD -1
REMARK  0 active torsions:
REMARK  status: ('A' for Active; 'I' for Inactive)
ROOT
ATOM      1  C1  DEN d   1      -1.907  -1.115   1.813  0.00  0.00     0.130 A 
ATOM      2  C2  DEN d   1      -1.058  -2.264   1.507  0.00  0.00    -0.031 A 
ATOM      3  C3  DEN d   1      -0.165  -1.887   0.393  0.00  0.00     0.027 A 
ATOM      4  C4  DEN d   1      -0.012   0.352  -0.879  0.00  0.00     0.027 A 
ATOM      5  C5  DEN d   1      -0.537   1.620  -0.985  0.00  0.00    -0.003 A 
ATOM      6  C6  DEN d   1      -1.571   2.051  -0.196  0.00  0.00     0.001 A 
ATOM      7  C7  DEN d   1      -2.082   1.221   0.766  0.00  0.00     0.017 A 
ATOM      8  C8  DEN d   1      -1.562  -0.062   0.875  0.00  0.00    -0.094 A 
ATOM      9  C9  DEN d   1      -0.509  -0.475   0.076  0.00  0.00    -0.072 A 
ENDROOT
TORSDOF 0
ENDMDL
