MODEL 1
REMARK minimizedAffinity -3.35846138
REMARK minimizedRMSD -1
REMARK  0 active torsions:
REMARK  status: ('A' for Active; 'I' for Inactive)
ROOT
ATOM      1  C1  DEN d   1      -3.324   1.878  -4.232  0.00  0.00     0.130 A 
ATOM      2  C2  DEN d   1      -3.162   0.974  -3.097  0.00  0.00    -0.031 A 
ATOM      3  C3  DEN d   1      -1.967   1.399  -2.340  0.00  0.00     0.027 A 
ATOM      4  C4  DEN d   1      -0.363   3.363  -2.812  0.00  0.00     0.027 A 
ATOM      5  C5  DEN d   1      -0.085   4.404  -3.669  0.00  0.00    -0.003 A 
ATOM      6  C6  DEN d   1      -0.842   4.654  -4.784  0.00  0.00     0.001 A 
ATOM      7  C7  DEN d   1      -1.940   3.879  -5.046  0.00  0.00     0.017 A 
ATOM      8  C8  DEN d   1      -2.222   2.822  -4.191  0.00  0.00    -0.094 A 
ATOM      9  C9  DEN d   1      -1.453   2.594  -3.063  0.00  0.00    -0.072 A 
ENDROOT
TORSDOF 0
ENDMDL
