MODEL 1
REMARK minimizedAffinity -3.32761288
REMARK minimizedRMSD -1
REMARK  0 active torsions:
REMARK  status: ('A' for Active; 'I' for Inactive)
ROOT
ATOM      1  C1  DEN d   1      -2.628   1.490  -3.737  0.00  0.00     0.130 A 
ATOM      2  C2  DEN d   1      -2.802   0.978  -2.381  0.00  0.00    -0.031 A 
ATOM      3  C3  DEN d   1      -1.946   1.775  -1.479  0.00  0.00     0.027 A 
ATOM      4  C4  DEN d   1      -0.382   3.745  -2.048  0.00  0.00     0.027 A 
ATOM      5  C5  DEN d   1       0.106   4.533  -3.067  0.00  0.00    -0.003 A 
ATOM      6  C6  DEN d   1      -0.254   4.341  -4.375  0.00  0.00     0.001 A 
ATOM      7  C7  DEN d   1      -1.162   3.366  -4.693  0.00  0.00     0.017 A 
ATOM      8  C8  DEN d   1      -1.653   2.563  -3.672  0.00  0.00    -0.094 A 
ATOM      9  C9  DEN d   1      -1.287   2.781  -2.354  0.00  0.00    -0.072 A 
ENDROOT
TORSDOF 0
ENDMDL
