MODEL 1
REMARK minimizedAffinity 0.239024207
REMARK minimizedRMSD -1
REMARK  0 active torsions:
REMARK  status: ('A' for Active; 'I' for Inactive)
ROOT
ATOM      1  C1  DEN d   1       2.293   2.132   0.016  0.00  0.00     0.130 A 
ATOM      2  C2  DEN d   1       1.587   3.400  -0.151  0.00  0.00    -0.031 A 
ATOM      3  C3  DEN d   1       0.149   3.105  -0.307  0.00  0.00     0.027 A 
ATOM      4  C4  DEN d   1      -1.049   0.821  -0.301  0.00  0.00     0.027 A 
ATOM      5  C5  DEN d   1      -0.868  -0.541  -0.203  0.00  0.00    -0.003 A 
ATOM      6  C6  DEN d   1       0.373  -1.105  -0.061  0.00  0.00     0.001 A 
ATOM      7  C7  DEN d   1       1.477  -0.300   0.034  0.00  0.00     0.017 A 
ATOM      8  C8  DEN d   1       1.303   1.074  -0.072  0.00  0.00    -0.094 A 
ATOM      9  C9  DEN d   1       0.040   1.625  -0.204  0.00  0.00    -0.072 A 
ENDROOT
TORSDOF 0
ENDMDL
