MODEL 1
REMARK minimizedAffinity -5.29801178
REMARK minimizedRMSD -1
REMARK  0 active torsions:
REMARK  status: ('A' for Active; 'I' for Inactive)
ROOT
ATOM      1  C1  DEN d   1       1.738   0.530  -0.768  0.00  0.00     0.130 A 
ATOM      2  C2  DEN d   1       0.341   0.159  -0.559  0.00  0.00    -0.031 A 
ATOM      3  C3  DEN d   1      -0.379   1.351  -0.067  0.00  0.00     0.027 A 
ATOM      4  C4  DEN d   1       0.528   3.723   0.384  0.00  0.00     0.027 A 
ATOM      5  C5  DEN d   1       1.654   4.517   0.365  0.00  0.00    -0.003 A 
ATOM      6  C6  DEN d   1       2.883   4.033   0.003  0.00  0.00     0.001 A 
ATOM      7  C7  DEN d   1       3.007   2.729  -0.399  0.00  0.00     0.017 A 
ATOM      8  C8  DEN d   1       1.878   1.921  -0.375  0.00  0.00    -0.094 A 
ATOM      9  C9  DEN d   1       0.642   2.432  -0.018  0.00  0.00    -0.072 A 
ENDROOT
TORSDOF 0
ENDMDL
