MODEL 1
REMARK minimizedAffinity 1.00725281
REMARK minimizedRMSD -1
REMARK  0 active torsions:
REMARK  status: ('A' for Active; 'I' for Inactive)
ROOT
ATOM      1  C1  DEN d   1      -1.447   0.720  -0.220  0.00  0.00     0.130 A 
ATOM      2  C2  DEN d   1       0.004   0.574  -0.146  0.00  0.00    -0.031 A 
ATOM      3  C3  DEN d   1       0.569   0.971  -1.451  0.00  0.00     0.027 A 
ATOM      4  C4  DEN d   1      -0.654   1.799  -3.565  0.00  0.00     0.027 A 
ATOM      5  C5  DEN d   1      -1.887   2.076  -4.112  0.00  0.00    -0.003 A 
ATOM      6  C6  DEN d   1      -3.053   1.891  -3.417  0.00  0.00     0.001 A 
ATOM      7  C7  DEN d   1      -3.007   1.456  -2.119  0.00  0.00     0.017 A 
ATOM      8  C8  DEN d   1      -1.768   1.167  -1.563  0.00  0.00    -0.094 A 
ATOM      9  C9  DEN d   1      -0.600   1.373  -2.278  0.00  0.00    -0.072 A 
ENDROOT
TORSDOF 0
ENDMDL
