MODEL 1
REMARK minimizedAffinity 7.82619238
REMARK minimizedRMSD -1
REMARK  0 active torsions:
REMARK  status: ('A' for Active; 'I' for Inactive)
ROOT
ATOM      1  C1  DEN d   1       4.039   1.905  -0.423  0.00  0.00     0.130 A 
ATOM      2  C2  DEN d   1       4.894   3.059  -0.157  0.00  0.00    -0.031 A 
ATOM      3  C3  DEN d   1       4.028   4.186   0.246  0.00  0.00     0.027 A 
ATOM      4  C4  DEN d   1       1.461   4.253   0.488  0.00  0.00     0.027 A 
ATOM      5  C5  DEN d   1       0.302   3.520   0.360  0.00  0.00    -0.003 A 
ATOM      6  C6  DEN d   1       0.304   2.219  -0.067  0.00  0.00     0.001 A 
ATOM      7  C7  DEN d   1       1.493   1.596  -0.339  0.00  0.00     0.017 A 
ATOM      8  C8  DEN d   1       2.666   2.330  -0.219  0.00  0.00    -0.094 A 
ATOM      9  C9  DEN d   1       2.643   3.641   0.226  0.00  0.00    -0.072 A 
ENDROOT
TORSDOF 0
ENDMDL
