MODEL 1
REMARK minimizedAffinity -0.93862468
REMARK minimizedRMSD -1
REMARK  0 active torsions:
REMARK  status: ('A' for Active; 'I' for Inactive)
ROOT
ATOM      1  C1  DEN d   1      -2.042   0.865   1.563  0.00  0.00     0.130 A 
ATOM      2  C2  DEN d   1      -2.236  -0.118   2.625  0.00  0.00    -0.031 A 
ATOM      3  C3  DEN d   1      -1.263  -1.210   2.420  0.00  0.00     0.027 A 
ATOM      4  C4  DEN d   1       0.518  -1.470   0.573  0.00  0.00     0.027 A 
ATOM      5  C5  DEN d   1       1.053  -0.896  -0.559  0.00  0.00    -0.003 A 
ATOM      6  C6  DEN d   1       0.576   0.278  -1.078  0.00  0.00     0.001 A 
ATOM      7  C7  DEN d   1      -0.439   0.940  -0.439  0.00  0.00     0.017 A 
ATOM      8  C8  DEN d   1      -0.988   0.364   0.699  0.00  0.00    -0.094 A 
ATOM      9  C9  DEN d   1      -0.484  -0.818   1.215  0.00  0.00    -0.072 A 
ENDROOT
TORSDOF 0
ENDMDL
