MODEL 1
REMARK minimizedAffinity -2.48514533
REMARK minimizedRMSD -1
REMARK  0 active torsions:
REMARK  status: ('A' for Active; 'I' for Inactive)
ROOT
ATOM      1  C1  DEN d   1      -0.920   4.042  -3.759  0.00  0.00     0.130 A 
ATOM      2  C2  DEN d   1      -1.774   3.325  -4.702  0.00  0.00    -0.031 A 
ATOM      3  C3  DEN d   1      -2.290   2.119  -4.024  0.00  0.00     0.027 A 
ATOM      4  C4  DEN d   1      -1.856   1.299  -1.617  0.00  0.00     0.027 A 
ATOM      5  C5  DEN d   1      -1.188   1.569  -0.443  0.00  0.00    -0.003 A 
ATOM      6  C6  DEN d   1      -0.364   2.654  -0.304  0.00  0.00     0.001 A 
ATOM      7  C7  DEN d   1      -0.222   3.536  -1.342  0.00  0.00     0.017 A 
ATOM      8  C8  DEN d   1      -0.886   3.267  -2.532  0.00  0.00    -0.094 A 
ATOM      9  C9  DEN d   1      -1.724   2.171  -2.649  0.00  0.00    -0.072 A 
ENDROOT
TORSDOF 0
ENDMDL
