MODEL 1
REMARK minimizedAffinity -4.5107007
REMARK minimizedRMSD -1
REMARK  0 active torsions:
REMARK  status: ('A' for Active; 'I' for Inactive)
ROOT
ATOM      1  C1  DEN d   1       0.007  -2.186   1.404  0.00  0.00     0.130 A 
ATOM      2  C2  DEN d   1       1.225  -2.932   1.102  0.00  0.00    -0.031 A 
ATOM      3  C3  DEN d   1       2.016  -2.144   0.136  0.00  0.00     0.027 A 
ATOM      4  C4  DEN d   1       1.477   0.151  -0.912  0.00  0.00     0.027 A 
ATOM      5  C5  DEN d   1       0.551   1.169  -0.969  0.00  0.00    -0.003 A 
ATOM      6  C6  DEN d   1      -0.627   1.125  -0.272  0.00  0.00     0.001 A 
ATOM      7  C7  DEN d   1      -0.890   0.061   0.549  0.00  0.00     0.017 A 
ATOM      8  C8  DEN d   1       0.035  -0.973   0.607  0.00  0.00    -0.094 A 
ATOM      9  C9  DEN d   1       1.226  -0.904  -0.096  0.00  0.00    -0.072 A 
ENDROOT
TORSDOF 0
ENDMDL
