MODEL 1
REMARK minimizedAffinity -3.01592135
REMARK minimizedRMSD -1
REMARK  0 active torsions:
REMARK  status: ('A' for Active; 'I' for Inactive)
ROOT
ATOM      1  C1  DEN d   1       0.715  -2.533   2.137  0.00  0.00     0.130 A 
ATOM      2  C2  DEN d   1       1.942  -2.833   1.405  0.00  0.00    -0.031 A 
ATOM      3  C3  DEN d   1       2.056  -1.871   0.290  0.00  0.00     0.027 A 
ATOM      4  C4  DEN d   1       0.461   0.047  -0.367  0.00  0.00     0.027 A 
ATOM      5  C5  DEN d   1      -0.719   0.684  -0.051  0.00  0.00    -0.003 A 
ATOM      6  C6  DEN d   1      -1.514   0.275   0.986  0.00  0.00     0.001 A 
ATOM      7  C7  DEN d   1      -1.117  -0.773   1.774  0.00  0.00     0.017 A 
ATOM      8  C8  DEN d   1       0.068  -1.424   1.458  0.00  0.00    -0.094 A 
ATOM      9  C9  DEN d   1       0.864  -0.989   0.412  0.00  0.00    -0.072 A 
ENDROOT
TORSDOF 0
ENDMDL
