MODEL 1
REMARK minimizedAffinity -3.01342583
REMARK minimizedRMSD -1
REMARK  0 active torsions:
REMARK  status: ('A' for Active; 'I' for Inactive)
ROOT
ATOM      1  C1  DEN d   1       1.011   1.224  -0.008  0.00  0.00     0.130 A 
ATOM      2  C2  DEN d   1      -0.041   1.548  -0.968  0.00  0.00    -0.031 A 
ATOM      3  C3  DEN d   1      -0.763   0.302  -1.293  0.00  0.00     0.027 A 
ATOM      4  C4  DEN d   1      -0.361  -2.085  -0.403  0.00  0.00     0.027 A 
ATOM      5  C5  DEN d   1       0.426  -2.858   0.421  0.00  0.00    -0.003 A 
ATOM      6  C6  DEN d   1       1.476  -2.335   1.129  0.00  0.00     0.001 A 
ATOM      7  C7  DEN d   1       1.740  -0.993   1.060  0.00  0.00     0.017 A 
ATOM      8  C8  DEN d   1       0.955  -0.208   0.225  0.00  0.00    -0.094 A 
ATOM      9  C9  DEN d   1      -0.110  -0.754  -0.473  0.00  0.00    -0.072 A 
ENDROOT
TORSDOF 0
ENDMDL
