MODEL 1
REMARK minimizedAffinity -3.30098987
REMARK minimizedRMSD -1
REMARK  0 active torsions:
REMARK  status: ('A' for Active; 'I' for Inactive)
ROOT
ATOM      1  C1  DEN d   1      -0.465   0.542  -0.359  0.00  0.00     0.130 A 
ATOM      2  C2  DEN d   1       0.582   1.456  -0.807  0.00  0.00    -0.031 A 
ATOM      3  C3  DEN d   1       1.888   0.852  -0.473  0.00  0.00     0.027 A 
ATOM      4  C4  DEN d   1       2.387  -1.397   0.686  0.00  0.00     0.027 A 
ATOM      5  C5  DEN d   1       1.821  -2.514   1.261  0.00  0.00    -0.003 A 
ATOM      6  C6  DEN d   1       0.464  -2.673   1.366  0.00  0.00     0.001 A 
ATOM      7  C7  DEN d   1      -0.373  -1.720   0.848  0.00  0.00     0.017 A 
ATOM      8  C8  DEN d   1       0.191  -0.588   0.274  0.00  0.00    -0.094 A 
ATOM      9  C9  DEN d   1       1.564  -0.452   0.166  0.00  0.00    -0.072 A 
ENDROOT
TORSDOF 0
ENDMDL
