MODEL 1
REMARK minimizedAffinity -6.50474691
REMARK minimizedRMSD -1
REMARK  0 active torsions:
REMARK  status: ('A' for Active; 'I' for Inactive)
ROOT
ATOM      1  C1  DEN d   1      -1.137   3.657  -4.851  0.00  0.00     0.130 A 
ATOM      2  C2  DEN d   1      -0.209   4.321  -3.940  0.00  0.00    -0.031 A 
ATOM      3  C3  DEN d   1      -0.637   4.026  -2.558  0.00  0.00     0.027 A 
ATOM      4  C4  DEN d   1      -2.633   2.609  -1.745  0.00  0.00     0.027 A 
ATOM      5  C5  DEN d   1      -3.712   1.854  -2.148  0.00  0.00    -0.003 A 
ATOM      6  C6  DEN d   1      -4.026   1.677  -3.469  0.00  0.00     0.001 A 
ATOM      7  C7  DEN d   1      -3.225   2.225  -4.437  0.00  0.00     0.017 A 
ATOM      8  C8  DEN d   1      -2.140   2.993  -4.038  0.00  0.00    -0.094 A 
ATOM      9  C9  DEN d   1      -1.832   3.151  -2.697  0.00  0.00    -0.072 A 
ENDROOT
TORSDOF 0
ENDMDL
