MODEL 1
REMARK minimizedAffinity -1.56389093
REMARK minimizedRMSD -1
REMARK  0 active torsions:
REMARK  status: ('A' for Active; 'I' for Inactive)
ROOT
ATOM      1  C1  DEN d   1       0.949   0.832   0.106  0.00  0.00     0.130 A 
ATOM      2  C2  DEN d   1      -0.271   0.418  -0.580  0.00  0.00    -0.031 A 
ATOM      3  C3  DEN d   1      -0.511  -1.005  -0.266  0.00  0.00     0.027 A 
ATOM      4  C4  DEN d   1       0.879  -2.596   1.213  0.00  0.00     0.027 A 
ATOM      5  C5  DEN d   1       2.007  -2.702   1.998  0.00  0.00    -0.003 A 
ATOM      6  C6  DEN d   1       2.872  -1.655   2.177  0.00  0.00     0.001 A 
ATOM      7  C7  DEN d   1       2.599  -0.443   1.601  0.00  0.00     0.017 A 
ATOM      8  C8  DEN d   1       1.468  -0.331   0.803  0.00  0.00    -0.094 A 
ATOM      9  C9  DEN d   1       0.600  -1.397   0.643  0.00  0.00    -0.072 A 
ENDROOT
TORSDOF 0
ENDMDL
