MODEL 1
REMARK minimizedAffinity -6.14314413
REMARK minimizedRMSD -1
REMARK  0 active torsions:
REMARK  status: ('A' for Active; 'I' for Inactive)
ROOT
ATOM      1  C1  DEN d   1       1.672   1.046  -0.147  0.00  0.00     0.130 A 
ATOM      2  C2  DEN d   1       0.394   1.753  -0.142  0.00  0.00    -0.031 A 
ATOM      3  C3  DEN d   1      -0.656   0.794   0.256  0.00  0.00     0.027 A 
ATOM      4  C4  DEN d   1      -0.427  -1.701   0.867  0.00  0.00     0.027 A 
ATOM      5  C5  DEN d   1       0.458  -2.749   0.995  0.00  0.00    -0.003 A 
ATOM      6  C6  DEN d   1       1.793  -2.615   0.721  0.00  0.00     0.001 A 
ATOM      7  C7  DEN d   1       2.290  -1.394   0.348  0.00  0.00     0.017 A 
ATOM      8  C8  DEN d   1       1.403  -0.335   0.209  0.00  0.00    -0.094 A 
ATOM      9  C9  DEN d   1       0.058  -0.488   0.503  0.00  0.00    -0.072 A 
ENDROOT
TORSDOF 0
ENDMDL
