MODEL 1
REMARK minimizedAffinity 6.94552517
REMARK minimizedRMSD -1
REMARK  0 active torsions:
REMARK  status: ('A' for Active; 'I' for Inactive)
ROOT
ATOM      1  C   UNL d   1       3.423   1.557   0.482  0.00  0.00     0.078 C 
ATOM      2  C1  UNL d   1       3.259   0.071   0.362  0.00  0.00    -0.077 A 
ATOM      3  C2  UNL d   1       4.372  -0.777   0.323  0.00  0.00    -0.001 A 
ATOM      4  C3  UNL d   1       4.204  -2.157   0.201  0.00  0.00     0.003 A 
ATOM      5  C4  UNL d   1       2.925  -2.702   0.117  0.00  0.00    -0.005 A 
ATOM      6  C5  UNL d   1       1.811  -1.866   0.153  0.00  0.00     0.003 A 
ATOM      7  C6  UNL d   1       1.976  -0.485   0.274  0.00  0.00    -0.001 A 
ENDROOT
TORSDOF 0
ENDMDL
