MODEL 1
REMARK minimizedAffinity 3.40869355
REMARK minimizedRMSD -1
REMARK  0 active torsions:
REMARK  status: ('A' for Active; 'I' for Inactive)
ROOT
ATOM      1  C   UNL d   1       2.072  -1.946   0.702  0.00  0.00     0.078 C 
ATOM      2  C1  UNL d   1       0.607  -1.646   0.602  0.00  0.00    -0.077 A 
ATOM      3  C2  UNL d   1      -0.291  -2.593   0.094  0.00  0.00    -0.001 A 
ATOM      4  C3  UNL d   1      -1.651  -2.296  -0.002  0.00  0.00     0.003 A 
ATOM      5  C4  UNL d   1      -2.127  -1.052   0.408  0.00  0.00    -0.005 A 
ATOM      6  C5  UNL d   1      -1.241  -0.103   0.913  0.00  0.00     0.003 A 
ATOM      7  C6  UNL d   1       0.120  -0.397   1.010  0.00  0.00    -0.001 A 
ENDROOT
TORSDOF 0
ENDMDL
