MODEL 1
REMARK minimizedAffinity -1.97946906
REMARK minimizedRMSD -1
REMARK  0 active torsions:
REMARK  status: ('A' for Active; 'I' for Inactive)
ROOT
ATOM      1  C   UNL d   1       1.073  -2.181   1.114  0.00  0.00     0.078 C 
ATOM      2  C1  UNL d   1      -0.227  -1.444   0.988  0.00  0.00    -0.077 A 
ATOM      3  C2  UNL d   1      -1.287  -1.975   0.242  0.00  0.00    -0.001 A 
ATOM      4  C3  UNL d   1      -2.488  -1.274   0.125  0.00  0.00     0.003 A 
ATOM      5  C4  UNL d   1      -2.640  -0.038   0.751  0.00  0.00    -0.005 A 
ATOM      6  C5  UNL d   1      -1.590   0.499   1.493  0.00  0.00     0.003 A 
ATOM      7  C6  UNL d   1      -0.388  -0.201   1.611  0.00  0.00    -0.001 A 
ENDROOT
TORSDOF 0
ENDMDL
