MODEL 1
REMARK minimizedAffinity 17.1883087
REMARK minimizedRMSD -1
REMARK  0 active torsions:
REMARK  status: ('A' for Active; 'I' for Inactive)
ROOT
ATOM      1  C   UNL d   1       5.079  -1.819   0.648  0.00  0.00     0.078 C 
ATOM      2  C1  UNL d   1       4.018  -0.765   0.543  0.00  0.00    -0.077 A 
ATOM      3  C2  UNL d   1       2.693  -1.103   0.239  0.00  0.00    -0.001 A 
ATOM      4  C3  UNL d   1       1.717  -0.111   0.135  0.00  0.00     0.003 A 
ATOM      5  C4  UNL d   1       2.056   1.226   0.332  0.00  0.00    -0.005 A 
ATOM      6  C5  UNL d   1       3.372   1.573   0.632  0.00  0.00     0.003 A 
ATOM      7  C6  UNL d   1       4.349   0.582   0.736  0.00  0.00    -0.001 A 
ENDROOT
TORSDOF 0
ENDMDL
