MODEL 1
REMARK minimizedAffinity -1.6259824
REMARK minimizedRMSD -1
REMARK  0 active torsions:
REMARK  status: ('A' for Active; 'I' for Inactive)
ROOT
ATOM      1  C   UNL d   1      -1.492  -2.154   0.378  0.00  0.00     0.078 C 
ATOM      2  C1  UNL d   1      -1.161  -0.730   0.044  0.00  0.00    -0.077 A 
ATOM      3  C2  UNL d   1      -1.685  -0.117  -1.100  0.00  0.00    -0.001 A 
ATOM      4  C3  UNL d   1      -1.361   1.206  -1.403  0.00  0.00     0.003 A 
ATOM      5  C4  UNL d   1      -0.509   1.927  -0.568  0.00  0.00    -0.005 A 
ATOM      6  C5  UNL d   1       0.019   1.324   0.572  0.00  0.00     0.003 A 
ATOM      7  C6  UNL d   1      -0.304   0.001   0.877  0.00  0.00    -0.001 A 
ENDROOT
TORSDOF 0
ENDMDL
