MODEL 1
REMARK minimizedAffinity 2.18176389
REMARK minimizedRMSD -1
REMARK  0 active torsions:
REMARK  status: ('A' for Active; 'I' for Inactive)
ROOT
ATOM      1  C   UNL d   1       3.655   1.597   0.912  0.00  0.00     0.078 C 
ATOM      2  C1  UNL d   1       3.640   1.534  -0.586  0.00  0.00    -0.077 A 
ATOM      3  C2  UNL d   1       2.621   0.859  -1.270  0.00  0.00    -0.001 A 
ATOM      4  C3  UNL d   1       2.625   0.801  -2.664  0.00  0.00     0.003 A 
ATOM      5  C4  UNL d   1       3.646   1.414  -3.388  0.00  0.00    -0.005 A 
ATOM      6  C5  UNL d   1       4.665   2.086  -2.716  0.00  0.00     0.003 A 
ATOM      7  C6  UNL d   1       4.663   2.146  -1.322  0.00  0.00    -0.001 A 
ENDROOT
TORSDOF 0
ENDMDL
