MODEL 1
REMARK minimizedAffinity 5.16370296
REMARK minimizedRMSD -1
REMARK  0 active torsions:
REMARK  status: ('A' for Active; 'I' for Inactive)
ROOT
ATOM      1  C   UNL d   1       1.013  -1.859   2.182  0.00  0.00     0.078 C 
ATOM      2  C1  UNL d   1      -0.330  -1.499   1.619  0.00  0.00    -0.077 A 
ATOM      3  C2  UNL d   1      -1.066  -2.420   0.864  0.00  0.00    -0.001 A 
ATOM      4  C3  UNL d   1      -2.310  -2.067   0.339  0.00  0.00     0.003 A 
ATOM      5  C4  UNL d   1      -2.828  -0.793   0.561  0.00  0.00    -0.005 A 
ATOM      6  C5  UNL d   1      -2.102   0.131   1.309  0.00  0.00     0.003 A 
ATOM      7  C6  UNL d   1      -0.857  -0.220   1.835  0.00  0.00    -0.001 A 
ENDROOT
TORSDOF 0
ENDMDL
