MODEL 1
REMARK minimizedAffinity 3.70127559
REMARK minimizedRMSD -1
REMARK  0 active torsions:
REMARK  status: ('A' for Active; 'I' for Inactive)
ROOT
ATOM      1  C   UNL d   1       1.332  -2.217   0.617  0.00  0.00     0.078 C 
ATOM      2  C1  UNL d   1      -0.001  -1.533   0.671  0.00  0.00    -0.077 A 
ATOM      3  C2  UNL d   1      -0.175  -0.349   1.399  0.00  0.00    -0.001 A 
ATOM      4  C3  UNL d   1      -1.425   0.271   1.449  0.00  0.00     0.003 A 
ATOM      5  C4  UNL d   1      -2.509  -0.285   0.774  0.00  0.00    -0.005 A 
ATOM      6  C5  UNL d   1      -2.346  -1.463   0.049  0.00  0.00     0.003 A 
ATOM      7  C6  UNL d   1      -1.098  -2.086  -0.002  0.00  0.00    -0.001 A 
ENDROOT
TORSDOF 0
ENDMDL
