MODEL 1
REMARK minimizedAffinity 6.0493288
REMARK minimizedRMSD -1
REMARK  0 active torsions:
REMARK  status: ('A' for Active; 'I' for Inactive)
ROOT
ATOM      1  C   UNL d   1       0.696  -2.239   1.220  0.00  0.00     0.078 C 
ATOM      2  C1  UNL d   1      -0.533  -1.452   0.875  0.00  0.00    -0.077 A 
ATOM      3  C2  UNL d   1      -0.790  -0.215   1.479  0.00  0.00    -0.001 A 
ATOM      4  C3  UNL d   1      -1.943   0.502   1.156  0.00  0.00     0.003 A 
ATOM      5  C4  UNL d   1      -2.849  -0.010   0.229  0.00  0.00    -0.005 A 
ATOM      6  C5  UNL d   1      -2.602  -1.241  -0.376  0.00  0.00     0.003 A 
ATOM      7  C6  UNL d   1      -1.450  -1.960  -0.054  0.00  0.00    -0.001 A 
ENDROOT
TORSDOF 0
ENDMDL
