MODEL 1
REMARK minimizedAffinity 2.4051652
REMARK minimizedRMSD -1
REMARK  0 active torsions:
REMARK  status: ('A' for Active; 'I' for Inactive)
ROOT
ATOM      1  C   UNL d   1       0.695  -2.125   1.497  0.00  0.00     0.078 C 
ATOM      2  C1  UNL d   1      -0.472  -1.230   1.208  0.00  0.00    -0.077 A 
ATOM      3  C2  UNL d   1      -0.473   0.109   1.619  0.00  0.00    -0.001 A 
ATOM      4  C3  UNL d   1      -1.571   0.929   1.352  0.00  0.00     0.003 A 
ATOM      5  C4  UNL d   1      -2.677   0.418   0.675  0.00  0.00    -0.005 A 
ATOM      6  C5  UNL d   1      -2.686  -0.913   0.265  0.00  0.00     0.003 A 
ATOM      7  C6  UNL d   1      -1.589  -1.734   0.531  0.00  0.00    -0.001 A 
ENDROOT
TORSDOF 0
ENDMDL
