MODEL 1
REMARK minimizedAffinity 3.55114698
REMARK minimizedRMSD -1
REMARK  0 active torsions:
REMARK  status: ('A' for Active; 'I' for Inactive)
ROOT
ATOM      1  C   UNL d   1      -4.677   0.474   3.241  0.00  0.00     0.078 C 
ATOM      2  C1  UNL d   1      -3.443   0.164   2.448  0.00  0.00    -0.077 A 
ATOM      3  C2  UNL d   1      -3.492   0.045   1.054  0.00  0.00    -0.001 A 
ATOM      4  C3  UNL d   1      -2.337  -0.253   0.329  0.00  0.00     0.003 A 
ATOM      5  C4  UNL d   1      -1.124  -0.437   0.990  0.00  0.00    -0.005 A 
ATOM      6  C5  UNL d   1      -1.066  -0.323   2.378  0.00  0.00     0.003 A 
ATOM      7  C6  UNL d   1      -2.220  -0.024   3.104  0.00  0.00    -0.001 A 
ENDROOT
TORSDOF 0
ENDMDL
