MODEL 1
REMARK minimizedAffinity -1.12950337
REMARK minimizedRMSD -1
REMARK  0 active torsions:
REMARK  status: ('A' for Active; 'I' for Inactive)
ROOT
ATOM      1  C   UNL d   1       4.079   1.069   0.861  0.00  0.00     0.078 C 
ATOM      2  C1  UNL d   1       4.400   2.486   1.234  0.00  0.00    -0.077 A 
ATOM      3  C2  UNL d   1       5.107   3.319   0.359  0.00  0.00    -0.001 A 
ATOM      4  C3  UNL d   1       5.407   4.633   0.723  0.00  0.00     0.003 A 
ATOM      5  C4  UNL d   1       5.006   5.124   1.963  0.00  0.00    -0.005 A 
ATOM      6  C5  UNL d   1       4.304   4.301   2.842  0.00  0.00     0.003 A 
ATOM      7  C6  UNL d   1       4.002   2.988   2.479  0.00  0.00    -0.001 A 
ENDROOT
TORSDOF 0
ENDMDL
