MODEL 1
REMARK minimizedAffinity 7.65481091
REMARK minimizedRMSD -1
REMARK  0 active torsions:
REMARK  status: ('A' for Active; 'I' for Inactive)
ROOT
ATOM      1  C   UNL d   1       0.861  -1.697  -2.523  0.00  0.00     0.078 C 
ATOM      2  C1  UNL d   1       0.164  -1.365  -1.237  0.00  0.00    -0.077 A 
ATOM      3  C2  UNL d   1      -1.145  -1.798  -0.993  0.00  0.00    -0.001 A 
ATOM      4  C3  UNL d   1      -1.785  -1.473   0.204  0.00  0.00     0.003 A 
ATOM      5  C4  UNL d   1      -1.124  -0.713   1.166  0.00  0.00    -0.005 A 
ATOM      6  C5  UNL d   1       0.178  -0.275   0.932  0.00  0.00     0.003 A 
ATOM      7  C6  UNL d   1       0.820  -0.599  -0.265  0.00  0.00    -0.001 A 
ENDROOT
TORSDOF 0
ENDMDL
