MODEL 1
REMARK minimizedAffinity -1.75895226
REMARK minimizedRMSD -1
REMARK  0 active torsions:
REMARK  status: ('A' for Active; 'I' for Inactive)
ROOT
ATOM      1  C   UNL d   1      -5.953  -3.551  -5.342  0.00  0.00     0.078 C 
ATOM      2  C1  UNL d   1      -5.307  -2.280  -4.876  0.00  0.00    -0.077 A 
ATOM      3  C2  UNL d   1      -4.009  -1.941  -5.278  0.00  0.00    -0.001 A 
ATOM      4  C3  UNL d   1      -3.417  -0.760  -4.828  0.00  0.00     0.003 A 
ATOM      5  C4  UNL d   1      -4.115   0.091  -3.974  0.00  0.00    -0.005 A 
ATOM      6  C5  UNL d   1      -5.406  -0.239  -3.567  0.00  0.00     0.003 A 
ATOM      7  C6  UNL d   1      -6.000  -1.420  -4.015  0.00  0.00    -0.001 A 
ENDROOT
TORSDOF 0
ENDMDL
