MODEL 1
REMARK minimizedAffinity 8.82573795
REMARK minimizedRMSD -1
REMARK  0 active torsions:
REMARK  status: ('A' for Active; 'I' for Inactive)
ROOT
ATOM      1  C   UNL d   1       0.732  -1.603   2.376  0.00  0.00     0.078 C 
ATOM      2  C1  UNL d   1      -0.616  -1.420   1.744  0.00  0.00    -0.077 A 
ATOM      3  C2  UNL d   1      -1.405  -0.302   2.038  0.00  0.00    -0.001 A 
ATOM      4  C3  UNL d   1      -2.661  -0.150   1.450  0.00  0.00     0.003 A 
ATOM      5  C4  UNL d   1      -3.141  -1.113   0.565  0.00  0.00    -0.005 A 
ATOM      6  C5  UNL d   1      -2.364  -2.231   0.268  0.00  0.00     0.003 A 
ATOM      7  C6  UNL d   1      -1.107  -2.385   0.855  0.00  0.00    -0.001 A 
ENDROOT
TORSDOF 0
ENDMDL
