MODEL 1
REMARK minimizedAffinity 5.997715
REMARK minimizedRMSD -1
REMARK  0 active torsions:
REMARK  status: ('A' for Active; 'I' for Inactive)
ROOT
ATOM      1  C   UNL d   1      -5.999  -2.914  -4.969  0.00  0.00     0.078 C 
ATOM      2  C1  UNL d   1      -5.274  -1.759  -4.346  0.00  0.00    -0.077 A 
ATOM      3  C2  UNL d   1      -3.874  -1.702  -4.344  0.00  0.00    -0.001 A 
ATOM      4  C3  UNL d   1      -3.212  -0.626  -3.753  0.00  0.00     0.003 A 
ATOM      5  C4  UNL d   1      -3.940   0.402  -3.157  0.00  0.00    -0.005 A 
ATOM      6  C5  UNL d   1      -5.333   0.354  -3.152  0.00  0.00     0.003 A 
ATOM      7  C6  UNL d   1      -5.997  -0.722  -3.744  0.00  0.00    -0.001 A 
ENDROOT
TORSDOF 0
ENDMDL
