MODEL 1
REMARK minimizedAffinity -1.76257861
REMARK minimizedRMSD -1
REMARK  0 active torsions:
REMARK  status: ('A' for Active; 'I' for Inactive)
ROOT
ATOM      1  C   UNL d   1       3.842   1.352  -0.530  0.00  0.00     0.078 C 
ATOM      2  C1  UNL d   1       2.405   1.087  -0.196  0.00  0.00    -0.077 A 
ATOM      3  C2  UNL d   1       1.458   2.119  -0.211  0.00  0.00    -0.001 A 
ATOM      4  C3  UNL d   1       0.125   1.860   0.111  0.00  0.00     0.003 A 
ATOM      5  C4  UNL d   1      -0.273   0.569   0.453  0.00  0.00    -0.005 A 
ATOM      6  C5  UNL d   1       0.662  -0.464   0.474  0.00  0.00     0.003 A 
ATOM      7  C6  UNL d   1       1.995  -0.206   0.151  0.00  0.00    -0.001 A 
ENDROOT
TORSDOF 0
ENDMDL
