MODEL 1
REMARK minimizedAffinity 0.407601237
REMARK minimizedRMSD -1
REMARK  0 active torsions:
REMARK  status: ('A' for Active; 'I' for Inactive)
ROOT
ATOM      1  C   UNL d   1       0.004  -2.775   1.238  0.00  0.00     0.078 C 
ATOM      2  C1  UNL d   1       0.017  -1.338   0.810  0.00  0.00    -0.077 A 
ATOM      3  C2  UNL d   1       1.127  -0.791   0.153  0.00  0.00    -0.001 A 
ATOM      4  C3  UNL d   1       1.129   0.551  -0.231  0.00  0.00     0.003 A 
ATOM      5  C4  UNL d   1       0.025   1.358   0.038  0.00  0.00    -0.005 A 
ATOM      6  C5  UNL d   1      -1.083   0.823   0.692  0.00  0.00     0.003 A 
ATOM      7  C6  UNL d   1      -1.087  -0.519   1.077  0.00  0.00    -0.001 A 
ENDROOT
TORSDOF 0
ENDMDL
