MODEL 1
REMARK minimizedAffinity 0.768370867
REMARK minimizedRMSD -1
REMARK  0 active torsions:
REMARK  status: ('A' for Active; 'I' for Inactive)
ROOT
ATOM      1  C   UNL d   1      -3.652   1.028   3.429  0.00  0.00     0.078 C 
ATOM      2  C1  UNL d   1      -2.606   0.403   2.554  0.00  0.00    -0.077 A 
ATOM      3  C2  UNL d   1      -1.386  -0.031   3.087  0.00  0.00    -0.001 A 
ATOM      4  C3  UNL d   1      -0.418  -0.602   2.260  0.00  0.00     0.003 A 
ATOM      5  C4  UNL d   1      -0.659  -0.743   0.894  0.00  0.00    -0.005 A 
ATOM      6  C5  UNL d   1      -1.869  -0.312   0.355  0.00  0.00     0.003 A 
ATOM      7  C6  UNL d   1      -2.839   0.260   1.181  0.00  0.00    -0.001 A 
ENDROOT
TORSDOF 0
ENDMDL
