MODEL 1
REMARK minimizedAffinity 18.0895538
REMARK minimizedRMSD -1
REMARK  0 active torsions:
REMARK  status: ('A' for Active; 'I' for Inactive)
ROOT
ATOM      1  C   UNL d   1       0.443   1.710  -5.666  0.00  0.00    -0.002 A 
ATOM      2  C1  UNL d   1      -0.795   1.275  -5.214  0.00  0.00     0.010 A 
ATOM      3  C2  UNL d   1      -1.843   2.179  -5.034  0.00  0.00     0.041 A 
ATOM      4  C3  UNL d   1      -1.625   3.541  -5.322  0.00  0.00    -0.075 A 
ATOM      5  S   UNL d   1      -2.762   4.829  -5.177  0.00  0.00     0.015 SA
ATOM      6  C4  UNL d   1      -1.632   5.987  -5.714  0.00  0.00     0.022 A 
ATOM      7  C5  UNL d   1      -0.412   5.422  -6.000  0.00  0.00     0.026 A 
ATOM      8  C6  UNL d   1      -0.388   4.003  -5.779  0.00  0.00    -0.082 A 
ATOM      9  C7  UNL d   1       0.656   3.061  -5.950  0.00  0.00     0.045 A 
ENDROOT
TORSDOF 0
ENDMDL
