MODEL 1
REMARK minimizedAffinity 0.716596782
REMARK minimizedRMSD -1
REMARK  0 active torsions:
REMARK  status: ('A' for Active; 'I' for Inactive)
ROOT
ATOM      1  C   UNL d   1      -5.973   2.290  -0.479  0.00  0.00    -0.002 A 
ATOM      2  C1  UNL d   1      -5.999   3.508   0.185  0.00  0.00     0.010 A 
ATOM      3  C2  UNL d   1      -5.911   4.707  -0.525  0.00  0.00     0.041 A 
ATOM      4  C3  UNL d   1      -5.797   4.660  -1.929  0.00  0.00    -0.075 A 
ATOM      5  S   UNL d   1      -5.676   6.000  -3.007  0.00  0.00     0.015 SA
ATOM      6  C4  UNL d   1      -5.587   4.987  -4.375  0.00  0.00     0.022 A 
ATOM      7  C5  UNL d   1      -5.646   3.656  -4.035  0.00  0.00     0.026 A 
ATOM      8  C6  UNL d   1      -5.769   3.446  -2.620  0.00  0.00    -0.082 A 
ATOM      9  C7  UNL d   1      -5.859   2.248  -1.871  0.00  0.00     0.045 A 
ENDROOT
TORSDOF 0
ENDMDL
