MODEL 1
REMARK minimizedAffinity 3.68138647
REMARK minimizedRMSD -1
REMARK  0 active torsions:
REMARK  status: ('A' for Active; 'I' for Inactive)
ROOT
ATOM      1  C   UNL d   1       0.092  -1.792  -0.971  0.00  0.00    -0.002 A 
ATOM      2  C1  UNL d   1       0.019  -2.089   0.382  0.00  0.00     0.010 A 
ATOM      3  C2  UNL d   1      -0.192  -1.078   1.321  0.00  0.00     0.041 A 
ATOM      4  C3  UNL d   1      -0.331   0.251   0.872  0.00  0.00    -0.075 A 
ATOM      5  S   UNL d   1      -0.597   1.652   1.840  0.00  0.00     0.015 SA
ATOM      6  C4  UNL d   1      -0.621   2.679   0.479  0.00  0.00     0.022 A 
ATOM      7  C5  UNL d   1      -0.432   1.985  -0.693  0.00  0.00     0.026 A 
ATOM      8  C6  UNL d   1      -0.263   0.574  -0.486  0.00  0.00    -0.082 A 
ATOM      9  C7  UNL d   1      -0.047  -0.474  -1.413  0.00  0.00     0.045 A 
ENDROOT
TORSDOF 0
ENDMDL
