MODEL 1
REMARK minimizedAffinity 7.83651352
REMARK minimizedRMSD -1
REMARK  0 active torsions:
REMARK  status: ('A' for Active; 'I' for Inactive)
ROOT
ATOM      1  C   UNL d   1       0.675   0.660   0.809  0.00  0.00    -0.002 A 
ATOM      2  C1  UNL d   1      -0.098   1.696   1.315  0.00  0.00     0.010 A 
ATOM      3  C2  UNL d   1       0.503   2.821   1.881  0.00  0.00     0.041 A 
ATOM      4  C3  UNL d   1       1.910   2.891   1.928  0.00  0.00    -0.075 A 
ATOM      5  S   UNL d   1       2.866   4.172   2.574  0.00  0.00     0.015 SA
ATOM      6  C4  UNL d   1       4.324   3.376   2.193  0.00  0.00     0.022 A 
ATOM      7  C5  UNL d   1       4.105   2.161   1.588  0.00  0.00     0.026 A 
ATOM      8  C6  UNL d   1       2.710   1.861   1.425  0.00  0.00    -0.082 A 
ATOM      9  C7  UNL d   1       2.070   0.733   0.858  0.00  0.00     0.045 A 
ENDROOT
TORSDOF 0
ENDMDL
