MODEL 1
REMARK minimizedAffinity 0.276804775
REMARK minimizedRMSD -1
REMARK  0 active torsions:
REMARK  status: ('A' for Active; 'I' for Inactive)
ROOT
ATOM      1  C   UNL d   1      -2.046  -2.932   1.590  0.00  0.00    -0.002 A 
ATOM      2  C1  UNL d   1      -2.053  -1.726   0.903  0.00  0.00     0.010 A 
ATOM      3  C2  UNL d   1      -2.332  -1.690  -0.464  0.00  0.00     0.041 A 
ATOM      4  C3  UNL d   1      -2.610  -2.897  -1.136  0.00  0.00    -0.075 A 
ATOM      5  S   UNL d   1      -2.980  -3.095  -2.808  0.00  0.00     0.015 SA
ATOM      6  C4  UNL d   1      -3.139  -4.784  -2.649  0.00  0.00     0.022 A 
ATOM      7  C5  UNL d   1      -2.918  -5.204  -1.359  0.00  0.00     0.026 A 
ATOM      8  C6  UNL d   1      -2.610  -4.123  -0.465  0.00  0.00    -0.082 A 
ATOM      9  C7  UNL d   1      -2.321  -4.127   0.921  0.00  0.00     0.045 A 
ENDROOT
TORSDOF 0
ENDMDL
