MODEL 1
REMARK minimizedAffinity 15.4921265
REMARK minimizedRMSD -1
REMARK  0 active torsions:
REMARK  status: ('A' for Active; 'I' for Inactive)
ROOT
ATOM      1  C   UNL d   1      -4.483  -0.831   2.883  0.00  0.00    -0.002 A 
ATOM      2  C1  UNL d   1      -4.249  -1.293   4.171  0.00  0.00     0.010 A 
ATOM      3  C2  UNL d   1      -3.252  -2.239   4.415  0.00  0.00     0.041 A 
ATOM      4  C3  UNL d   1      -2.486  -2.717   3.334  0.00  0.00    -0.075 A 
ATOM      5  S   UNL d   1      -1.211  -3.877   3.395  0.00  0.00     0.015 SA
ATOM      6  C4  UNL d   1      -0.947  -3.786   1.714  0.00  0.00     0.022 A 
ATOM      7  C5  UNL d   1      -1.802  -2.897   1.105  0.00  0.00     0.026 A 
ATOM      8  C6  UNL d   1      -2.702  -2.266   2.029  0.00  0.00    -0.082 A 
ATOM      9  C7  UNL d   1      -3.721  -1.307   1.813  0.00  0.00     0.045 A 
ENDROOT
TORSDOF 0
ENDMDL
