MODEL 1
REMARK minimizedAffinity 7.33974123
REMARK minimizedRMSD -1
REMARK  0 active torsions:
REMARK  status: ('A' for Active; 'I' for Inactive)
ROOT
ATOM      1  C   UNL d   1       0.757   1.754  -0.008  0.00  0.00    -0.002 A 
ATOM      2  C1  UNL d   1       1.458   0.939   0.869  0.00  0.00     0.010 A 
ATOM      3  C2  UNL d   1       0.822  -0.127   1.509  0.00  0.00     0.041 A 
ATOM      4  C3  UNL d   1      -0.542  -0.363   1.249  0.00  0.00    -0.075 A 
ATOM      5  S   UNL d   1      -1.527  -1.610   1.918  0.00  0.00     0.015 SA
ATOM      6  C4  UNL d   1      -2.902  -1.089   1.055  0.00  0.00     0.022 A 
ATOM      7  C5  UNL d   1      -2.633   0.008   0.271  0.00  0.00     0.026 A 
ATOM      8  C6  UNL d   1      -1.269   0.444   0.370  0.00  0.00    -0.082 A 
ATOM      9  C7  UNL d   1      -0.597   1.518  -0.263  0.00  0.00     0.045 A 
ENDROOT
TORSDOF 0
ENDMDL
