MODEL 1
REMARK minimizedAffinity 1.67473269
REMARK minimizedRMSD -1
REMARK  0 active torsions:
REMARK  status: ('A' for Active; 'I' for Inactive)
ROOT
ATOM      1  N1  IND d   1       1.043  -0.455   4.146  0.00  0.00    -0.196 N 
ATOM      2  C2  IND d   1       0.903  -1.798   3.930  0.00  0.00     0.054 A 
ATOM      3  C3  IND d   1       1.581  -2.169   2.821  0.00  0.00    -0.031 A 
ATOM      4  C4  IND d   1       3.070  -0.758   1.266  0.00  0.00     0.051 A 
ATOM      5  C5  IND d   1       3.475   0.527   1.036  0.00  0.00    -0.031 A 
ATOM      6  C6  IND d   1       3.084   1.571   1.849  0.00  0.00     0.015 A 
ATOM      7  C7  IND d   1       2.279   1.366   2.933  0.00  0.00    -0.016 A 
ATOM      8  C8  IND d   1       1.860   0.063   3.166  0.00  0.00    -0.047 A 
ATOM      9  C9  IND d   1       2.219  -0.994   2.320  0.00  0.00    -0.096 A 
ATOM     10  HN1 IND d   1       0.681  -0.009   4.786  0.00  0.00     0.298 HD
ENDROOT
TORSDOF 0
ENDMDL
