MODEL 1
REMARK minimizedAffinity 2.978405
REMARK minimizedRMSD -1
REMARK  0 active torsions:
REMARK  status: ('A' for Active; 'I' for Inactive)
ROOT
ATOM      1  N1  IND d   1       3.022  -5.953  -5.767  0.00  0.00    -0.196 N 
ATOM      2  C2  IND d   1       1.656  -5.967  -5.805  0.00  0.00     0.054 A 
ATOM      3  C3  IND d   1       1.151  -6.000  -4.552  0.00  0.00    -0.031 A 
ATOM      4  C4  IND d   1       2.380  -5.933  -2.291  0.00  0.00     0.051 A 
ATOM      5  C5  IND d   1       3.633  -5.954  -1.744  0.00  0.00    -0.031 A 
ATOM      6  C6  IND d   1       4.769  -5.972  -2.527  0.00  0.00     0.015 A 
ATOM      7  C7  IND d   1       4.695  -5.960  -3.891  0.00  0.00    -0.016 A 
ATOM      8  C8  IND d   1       3.424  -5.947  -4.449  0.00  0.00    -0.047 A 
ATOM      9  C9  IND d   1       2.267  -5.970  -3.660  0.00  0.00    -0.096 A 
ATOM     10  HN1 IND d   1       3.543  -5.949  -6.451  0.00  0.00     0.298 HD
ENDROOT
TORSDOF 0
ENDMDL
