MODEL 1
REMARK minimizedAffinity -1.91918552
REMARK minimizedRMSD -1
REMARK  0 active torsions:
REMARK  status: ('A' for Active; 'I' for Inactive)
ROOT
ATOM      1  N1  IND d   1       3.859  -5.745  -5.321  0.00  0.00    -0.196 N 
ATOM      2  C2  IND d   1       2.676  -5.843  -5.998  0.00  0.00     0.054 A 
ATOM      3  C3  IND d   1       1.649  -5.992  -5.131  0.00  0.00    -0.031 A 
ATOM      4  C4  IND d   1       1.670  -6.000  -2.557  0.00  0.00     0.051 A 
ATOM      5  C5  IND d   1       2.520  -5.977  -1.486  0.00  0.00    -0.031 A 
ATOM      6  C6  IND d   1       3.887  -5.871  -1.642  0.00  0.00     0.015 A 
ATOM      7  C7  IND d   1       4.456  -5.772  -2.880  0.00  0.00    -0.016 A 
ATOM      8  C8  IND d   1       3.597  -5.802  -3.970  0.00  0.00    -0.047 A 
ATOM      9  C9  IND d   1       2.213  -5.952  -3.819  0.00  0.00    -0.096 A 
ATOM     10  HN1 IND d   1       4.636  -5.662  -5.679  0.00  0.00     0.298 HD
ENDROOT
TORSDOF 0
ENDMDL
