MODEL 1
REMARK minimizedAffinity 0.723406374
REMARK minimizedRMSD -1
REMARK  0 active torsions:
REMARK  status: ('A' for Active; 'I' for Inactive)
ROOT
ATOM      1  N1  IND d   1       4.845  -5.992  -1.892  0.00  0.00    -0.196 N 
ATOM      2  C2  IND d   1       3.531  -5.993  -1.516  0.00  0.00     0.054 A 
ATOM      3  C3  IND d   1       2.730  -5.956  -2.605  0.00  0.00    -0.031 A 
ATOM      4  C4  IND d   1       3.361  -5.994  -5.101  0.00  0.00     0.051 A 
ATOM      5  C5  IND d   1       4.439  -5.957  -5.940  0.00  0.00    -0.031 A 
ATOM      6  C6  IND d   1       5.733  -5.932  -5.463  0.00  0.00     0.015 A 
ATOM      7  C7  IND d   1       6.000  -5.955  -4.124  0.00  0.00    -0.016 A 
ATOM      8  C8  IND d   1       4.908  -5.985  -3.268  0.00  0.00    -0.047 A 
ATOM      9  C9  IND d   1       3.591  -5.968  -3.745  0.00  0.00    -0.096 A 
ATOM     10  HN1 IND d   1       5.520  -5.996  -1.359  0.00  0.00     0.298 HD
ENDROOT
TORSDOF 0
ENDMDL
