MODEL 1
REMARK minimizedAffinity 4.45885515
REMARK minimizedRMSD -1
REMARK  0 active torsions:
REMARK  status: ('A' for Active; 'I' for Inactive)
ROOT
ATOM      1  N1  IND d   1       1.394  -2.253   2.047  0.00  0.00    -0.196 N 
ATOM      2  C2  IND d   1       1.851  -1.071   1.536  0.00  0.00     0.054 A 
ATOM      3  C3  IND d   1       3.020  -0.726   2.119  0.00  0.00    -0.031 A 
ATOM      4  C4  IND d   1       4.417  -2.005   3.863  0.00  0.00     0.051 A 
ATOM      5  C5  IND d   1       4.392  -3.116   4.659  0.00  0.00    -0.031 A 
ATOM      6  C6  IND d   1       3.346  -4.016   4.622  0.00  0.00     0.015 A 
ATOM      7  C7  IND d   1       2.288  -3.843   3.776  0.00  0.00    -0.016 A 
ATOM      8  C8  IND d   1       2.307  -2.713   2.971  0.00  0.00    -0.047 A 
ATOM      9  C9  IND d   1       3.345  -1.774   3.035  0.00  0.00    -0.096 A 
ATOM     10  HN1 IND d   1       0.661  -2.645   1.828  0.00  0.00     0.298 HD
ENDROOT
TORSDOF 0
ENDMDL
