MODEL 1
REMARK minimizedAffinity 7.47244215
REMARK minimizedRMSD -1
REMARK  0 active torsions:
REMARK  status: ('A' for Active; 'I' for Inactive)
ROOT
ATOM      1  N1  IND d   1       5.740  -5.979  -0.492  0.00  0.00    -0.196 N 
ATOM      2  C2  IND d   1       5.679  -5.979  -1.858  0.00  0.00     0.054 A 
ATOM      3  C3  IND d   1       4.392  -6.000  -2.271  0.00  0.00    -0.031 A 
ATOM      4  C4  IND d   1       2.227  -5.934  -0.880  0.00  0.00     0.051 A 
ATOM      5  C5  IND d   1       1.773  -5.965   0.409  0.00  0.00    -0.031 A 
ATOM      6  C6  IND d   1       2.636  -6.000   1.485  0.00  0.00     0.015 A 
ATOM      7  C7  IND d   1       3.991  -5.994   1.312  0.00  0.00    -0.016 A 
ATOM      8  C8  IND d   1       4.455  -5.970   0.004  0.00  0.00    -0.047 A 
ATOM      9  C9  IND d   1       3.584  -5.977  -1.093  0.00  0.00    -0.096 A 
ATOM     10  HN1 IND d   1       6.460  -5.984  -0.022  0.00  0.00     0.298 HD
ENDROOT
TORSDOF 0
ENDMDL
