MODEL 1
REMARK minimizedAffinity 1.39656973
REMARK minimizedRMSD -1
REMARK  0 active torsions:
REMARK  status: ('A' for Active; 'I' for Inactive)
ROOT
ATOM      1  N1  IND d   1       2.606  -5.998  -2.341  0.00  0.00    -0.196 N 
ATOM      2  C2  IND d   1       3.710  -5.981  -1.534  0.00  0.00     0.054 A 
ATOM      3  C3  IND d   1       4.837  -5.973  -2.280  0.00  0.00    -0.031 A 
ATOM      4  C4  IND d   1       5.105  -5.880  -4.839  0.00  0.00     0.051 A 
ATOM      5  C5  IND d   1       4.384  -5.916  -5.999  0.00  0.00    -0.031 A 
ATOM      6  C6  IND d   1       3.006  -5.980  -6.000  0.00  0.00     0.015 A 
ATOM      7  C7  IND d   1       2.293  -5.999  -4.834  0.00  0.00    -0.016 A 
ATOM      8  C8  IND d   1       3.022  -5.969  -3.654  0.00  0.00    -0.047 A 
ATOM      9  C9  IND d   1       4.423  -5.947  -3.647  0.00  0.00    -0.096 A 
ATOM     10  HN1 IND d   1       1.789  -6.022  -2.073  0.00  0.00     0.298 HD
ENDROOT
TORSDOF 0
ENDMDL
