MODEL 1
REMARK minimizedAffinity 10.6356907
REMARK minimizedRMSD -1
REMARK  0 active torsions:
REMARK  status: ('A' for Active; 'I' for Inactive)
ROOT
ATOM      1  N1  IND d   1       0.975  -1.867   2.170  0.00  0.00    -0.196 N 
ATOM      2  C2  IND d   1       1.844  -0.813   2.106  0.00  0.00     0.054 A 
ATOM      3  C3  IND d   1       2.932  -1.053   2.872  0.00  0.00    -0.031 A 
ATOM      4  C4  IND d   1       3.542  -3.150   4.235  0.00  0.00     0.051 A 
ATOM      5  C5  IND d   1       3.045  -4.361   4.629  0.00  0.00    -0.031 A 
ATOM      6  C6  IND d   1       1.809  -4.812   4.213  0.00  0.00     0.015 A 
ATOM      7  C7  IND d   1       1.026  -4.071   3.375  0.00  0.00    -0.016 A 
ATOM      8  C8  IND d   1       1.524  -2.838   2.978  0.00  0.00    -0.047 A 
ATOM      9  C9  IND d   1       2.759  -2.356   3.431  0.00  0.00    -0.096 A 
ATOM     10  HN1 IND d   1       0.214  -1.914   1.773  0.00  0.00     0.298 HD
ENDROOT
TORSDOF 0
ENDMDL
