MODEL 1
REMARK minimizedAffinity 8.34090233
REMARK minimizedRMSD -1
REMARK  0 active torsions:
REMARK  status: ('A' for Active; 'I' for Inactive)
ROOT
ATOM      1  N1  IND d   1       1.968  -6.000  -2.334  0.00  0.00    -0.196 N 
ATOM      2  C2  IND d   1       3.074  -5.988  -1.532  0.00  0.00     0.054 A 
ATOM      3  C3  IND d   1       4.199  -5.985  -2.282  0.00  0.00    -0.031 A 
ATOM      4  C4  IND d   1       4.458  -5.895  -4.841  0.00  0.00     0.051 A 
ATOM      5  C5  IND d   1       3.732  -5.928  -5.999  0.00  0.00    -0.031 A 
ATOM      6  C6  IND d   1       2.354  -5.985  -5.994  0.00  0.00     0.015 A 
ATOM      7  C7  IND d   1       1.645  -6.000  -4.826  0.00  0.00    -0.016 A 
ATOM      8  C8  IND d   1       2.379  -5.974  -3.649  0.00  0.00    -0.047 A 
ATOM      9  C9  IND d   1       3.780  -5.959  -3.647  0.00  0.00    -0.096 A 
ATOM     10  HN1 IND d   1       1.152  -6.020  -2.063  0.00  0.00     0.298 HD
ENDROOT
TORSDOF 0
ENDMDL
