MODEL 1
REMARK minimizedAffinity 1.0102948
REMARK minimizedRMSD -1
REMARK  0 active torsions:
REMARK  status: ('A' for Active; 'I' for Inactive)
ROOT
ATOM      1  N1  IND d   1       4.098  -5.915  -3.503  0.00  0.00    -0.196 N 
ATOM      2  C2  IND d   1       3.089  -5.936  -4.425  0.00  0.00     0.054 A 
ATOM      3  C3  IND d   1       1.888  -5.999  -3.807  0.00  0.00    -0.031 A 
ATOM      4  C4  IND d   1       1.340  -5.975  -1.292  0.00  0.00     0.051 A 
ATOM      5  C5  IND d   1       1.931  -6.000  -0.060  0.00  0.00    -0.031 A 
ATOM      6  C6  IND d   1       3.303  -5.995   0.090  0.00  0.00     0.015 A 
ATOM      7  C7  IND d   1       4.138  -5.953  -0.991  0.00  0.00    -0.016 A 
ATOM      8  C8  IND d   1       3.541  -5.935  -2.243  0.00  0.00    -0.047 A 
ATOM      9  C9  IND d   1       2.150  -5.983  -2.403  0.00  0.00    -0.096 A 
ATOM     10  HN1 IND d   1       4.939  -5.893  -3.680  0.00  0.00     0.298 HD
ENDROOT
TORSDOF 0
ENDMDL
