MODEL 1
REMARK minimizedAffinity -3.24032283
REMARK minimizedRMSD -1
REMARK  0 active torsions:
REMARK  status: ('A' for Active; 'I' for Inactive)
ROOT
ATOM      1  C   UNL d   1      -0.385   3.147  -0.368  0.00  0.00     0.124 A 
ATOM      2  C1  UNL d   1       0.550   2.220  -0.806  0.00  0.00     0.062 A 
ATOM      3  C2  UNL d   1       0.625   0.965  -0.208  0.00  0.00     0.162 A 
ATOM      4  C3  UNL d   1      -0.240   0.629   0.833  0.00  0.00    -0.034 A 
ATOM      5  C4  UNL d   1      -1.178   1.567   1.268  0.00  0.00     0.162 A 
ATOM      6  C5  UNL d   1      -1.248   2.820   0.668  0.00  0.00     0.062 A 
ATOM      7  F   UNL d   1      -2.153   3.715   1.092  0.00  0.00    -0.097 F 
ATOM      8  F1  UNL d   1      -2.025   1.277   2.267  0.00  0.00    -0.096 F 
ATOM      9  I   UNL d   1      -0.133  -1.246   1.729  0.00  0.00    -0.060 I 
ATOM     10  F2  UNL d   1       1.538   0.089  -0.652  0.00  0.00    -0.096 F 
ATOM     11  F3  UNL d   1       1.386   2.534  -1.806  0.00  0.00    -0.097 F 
ATOM     12  F4  UNL d   1      -0.454   4.354  -0.944  0.00  0.00    -0.092 F 
ENDROOT
TORSDOF 0
ENDMDL
