MODEL 1
REMARK minimizedAffinity -4.17789507
REMARK minimizedRMSD -1
REMARK  0 active torsions:
REMARK  status: ('A' for Active; 'I' for Inactive)
ROOT
ATOM      1  C   UNL d   1      -1.091   2.722   1.189  0.00  0.00     0.124 A 
ATOM      2  C1  UNL d   1      -0.949   1.529   1.885  0.00  0.00     0.062 A 
ATOM      3  C2  UNL d   1      -0.448   0.400   1.243  0.00  0.00     0.162 A 
ATOM      4  C3  UNL d   1      -0.085   0.459  -0.103  0.00  0.00    -0.034 A 
ATOM      5  C4  UNL d   1      -0.232   1.662  -0.796  0.00  0.00     0.162 A 
ATOM      6  C5  UNL d   1      -0.733   2.787  -0.150  0.00  0.00     0.062 A 
ATOM      7  F   UNL d   1      -0.870   3.939  -0.823  0.00  0.00    -0.097 F 
ATOM      8  F1  UNL d   1       0.108   1.753  -2.090  0.00  0.00    -0.096 F 
ATOM      9  I   UNL d   1       0.664  -1.227  -1.066  0.00  0.00    -0.060 I 
ATOM     10  F2  UNL d   1      -0.321  -0.739   1.939  0.00  0.00    -0.096 F 
ATOM     11  F3  UNL d   1      -1.296   1.463   3.178  0.00  0.00    -0.097 F 
ATOM     12  F4  UNL d   1      -1.574   3.806   1.809  0.00  0.00    -0.092 F 
ENDROOT
TORSDOF 0
ENDMDL
