MODEL 1
REMARK minimizedAffinity 2.69433498
REMARK minimizedRMSD -1
REMARK  0 active torsions:
REMARK  status: ('A' for Active; 'I' for Inactive)
ROOT
ATOM      1  C   UNL d   1      -1.258   2.284   1.328  0.00  0.00     0.124 A 
ATOM      2  C1  UNL d   1      -1.605   1.997   0.015  0.00  0.00     0.062 A 
ATOM      3  C2  UNL d   1      -1.134   0.838  -0.597  0.00  0.00     0.162 A 
ATOM      4  C3  UNL d   1      -0.312  -0.043   0.105  0.00  0.00    -0.034 A 
ATOM      5  C4  UNL d   1       0.033   0.252   1.425  0.00  0.00     0.162 A 
ATOM      6  C5  UNL d   1      -0.440   1.411   2.032  0.00  0.00     0.062 A 
ATOM      7  F   UNL d   1      -0.104   1.687   3.300  0.00  0.00    -0.097 F 
ATOM      8  F1  UNL d   1       0.821  -0.574   2.129  0.00  0.00    -0.096 F 
ATOM      9  I   UNL d   1       0.394  -1.777  -0.805  0.00  0.00    -0.060 I 
ATOM     10  F2  UNL d   1      -1.485   0.587  -1.866  0.00  0.00    -0.096 F 
ATOM     11  F3  UNL d   1      -2.395   2.839  -0.668  0.00  0.00    -0.097 F 
ATOM     12  F4  UNL d   1      -1.712   3.400   1.913  0.00  0.00    -0.092 F 
ENDROOT
TORSDOF 0
ENDMDL
