MODEL 1
REMARK minimizedAffinity -0.568183959
REMARK minimizedRMSD -1
REMARK  0 active torsions:
REMARK  status: ('A' for Active; 'I' for Inactive)
ROOT
ATOM      1  C   UNL d   1      -0.276   1.180   1.164  0.00  0.00     0.124 A 
ATOM      2  C1  UNL d   1      -0.753  -0.017   1.679  0.00  0.00     0.062 A 
ATOM      3  C2  UNL d   1      -0.569  -1.204   0.976  0.00  0.00     0.162 A 
ATOM      4  C3  UNL d   1       0.097  -1.200  -0.250  0.00  0.00    -0.034 A 
ATOM      5  C4  UNL d   1       0.573   0.008  -0.761  0.00  0.00     0.162 A 
ATOM      6  C5  UNL d   1       0.387   1.192  -0.055  0.00  0.00     0.062 A 
ATOM      7  F   UNL d   1       0.849   2.347  -0.554  0.00  0.00    -0.097 F 
ATOM      8  F1  UNL d   1       1.218   0.048  -1.937  0.00  0.00    -0.096 F 
ATOM      9  I   UNL d   1       0.374  -2.973  -1.304  0.00  0.00    -0.060 I 
ATOM     10  F2  UNL d   1      -1.041  -2.347   1.498  0.00  0.00    -0.096 F 
ATOM     11  F3  UNL d   1      -1.394  -0.031   2.857  0.00  0.00    -0.097 F 
ATOM     12  F4  UNL d   1      -0.455   2.321   1.842  0.00  0.00    -0.092 F 
ENDROOT
TORSDOF 0
ENDMDL
