MODEL 1
REMARK minimizedAffinity -2.79251695
REMARK minimizedRMSD -1
REMARK  0 active torsions:
REMARK  status: ('A' for Active; 'I' for Inactive)
ROOT
ATOM      1  C   UNL d   1      -0.237   2.813   0.819  0.00  0.00     0.124 A 
ATOM      2  C1  UNL d   1      -0.483   1.612   1.470  0.00  0.00     0.062 A 
ATOM      3  C2  UNL d   1      -0.085   0.410   0.893  0.00  0.00     0.162 A 
ATOM      4  C3  UNL d   1       0.564   0.402  -0.342  0.00  0.00    -0.034 A 
ATOM      5  C4  UNL d   1       0.807   1.614  -0.991  0.00  0.00     0.162 A 
ATOM      6  C5  UNL d   1       0.407   2.813  -0.410  0.00  0.00     0.062 A 
ATOM      7  F   UNL d   1       0.645   3.972  -1.041  0.00  0.00    -0.097 F 
ATOM      8  F1  UNL d   1       1.429   1.642  -2.179  0.00  0.00    -0.096 F 
ATOM      9  I   UNL d   1       1.161  -1.394  -1.207  0.00  0.00    -0.060 I 
ATOM     10  F2  UNL d   1      -0.335  -0.736   1.544  0.00  0.00    -0.096 F 
ATOM     11  F3  UNL d   1      -1.106   1.610   2.657  0.00  0.00    -0.097 F 
ATOM     12  F4  UNL d   1      -0.622   3.969   1.375  0.00  0.00    -0.092 F 
ENDROOT
TORSDOF 0
ENDMDL
