MODEL 1
REMARK minimizedAffinity -1.74561918
REMARK minimizedRMSD -1
REMARK  0 active torsions:
REMARK  status: ('A' for Active; 'I' for Inactive)
ROOT
ATOM      1  C   UNL d   1      -0.389  -0.190   1.596  0.00  0.00     0.124 A 
ATOM      2  C1  UNL d   1      -1.140   0.959   1.803  0.00  0.00     0.062 A 
ATOM      3  C2  UNL d   1      -1.060   2.019   0.905  0.00  0.00     0.162 A 
ATOM      4  C3  UNL d   1      -0.226   1.935  -0.210  0.00  0.00    -0.034 A 
ATOM      5  C4  UNL d   1       0.527   0.777  -0.411  0.00  0.00     0.162 A 
ATOM      6  C5  UNL d   1       0.444  -0.280   0.489  0.00  0.00     0.062 A 
ATOM      7  F   UNL d   1       1.170  -1.389   0.288  0.00  0.00    -0.097 F 
ATOM      8  F1  UNL d   1       1.339   0.663  -1.473  0.00  0.00    -0.096 F 
ATOM      9  I   UNL d   1      -0.104   3.518  -1.556  0.00  0.00    -0.060 I 
ATOM     10  F2  UNL d   1      -1.797   3.117   1.130  0.00  0.00    -0.096 F 
ATOM     11  F3  UNL d   1      -1.945   1.048   2.872  0.00  0.00    -0.097 F 
ATOM     12  F4  UNL d   1      -0.467  -1.208   2.462  0.00  0.00    -0.092 F 
ENDROOT
TORSDOF 0
ENDMDL
