MODEL 1
REMARK minimizedAffinity -0.808847427
REMARK minimizedRMSD -1
REMARK  0 active torsions:
REMARK  status: ('A' for Active; 'I' for Inactive)
ROOT
ATOM      1  C   UNL d   1      -1.185   2.366   0.684  0.00  0.00     0.124 A 
ATOM      2  C1  UNL d   1      -0.445   2.360  -0.490  0.00  0.00     0.062 A 
ATOM      3  C2  UNL d   1       0.246   1.216  -0.876  0.00  0.00     0.162 A 
ATOM      4  C3  UNL d   1       0.200   0.066  -0.087  0.00  0.00    -0.034 A 
ATOM      5  C4  UNL d   1      -0.545   0.080   1.093  0.00  0.00     0.162 A 
ATOM      6  C5  UNL d   1      -1.235   1.227   1.474  0.00  0.00     0.062 A 
ATOM      7  F   UNL d   1      -1.949   1.231   2.609  0.00  0.00    -0.097 F 
ATOM      8  F1  UNL d   1      -0.611  -1.007   1.875  0.00  0.00    -0.096 F 
ATOM      9  I   UNL d   1       1.232  -1.648  -0.661  0.00  0.00    -0.060 I 
ATOM     10  F2  UNL d   1       0.953   1.238  -2.016  0.00  0.00    -0.096 F 
ATOM     11  F3  UNL d   1      -0.395   3.460  -1.255  0.00  0.00    -0.097 F 
ATOM     12  F4  UNL d   1      -1.849   3.469   1.053  0.00  0.00    -0.092 F 
ENDROOT
TORSDOF 0
ENDMDL
