MODEL 1
REMARK minimizedAffinity -0.180944696
REMARK minimizedRMSD -1
REMARK  0 active torsions:
REMARK  status: ('A' for Active; 'I' for Inactive)
ROOT
ATOM      1  C   UNL d   1       0.645  -0.536   0.355  0.00  0.00     0.124 A 
ATOM      2  C1  UNL d   1       0.277   0.377  -0.623  0.00  0.00     0.062 A 
ATOM      3  C2  UNL d   1      -0.608   1.407  -0.321  0.00  0.00     0.162 A 
ATOM      4  C3  UNL d   1      -1.131   1.531   0.967  0.00  0.00    -0.034 A 
ATOM      5  C4  UNL d   1      -0.756   0.608   1.945  0.00  0.00     0.162 A 
ATOM      6  C5  UNL d   1       0.129  -0.420   1.638  0.00  0.00     0.062 A 
ATOM      7  F   UNL d   1       0.484  -1.301   2.584  0.00  0.00    -0.097 F 
ATOM      8  F1  UNL d   1      -1.240   0.698   3.193  0.00  0.00    -0.096 F 
ATOM      9  I   UNL d   1      -2.455   3.071   1.423  0.00  0.00    -0.060 I 
ATOM     10  F2  UNL d   1      -0.947   2.276  -1.285  0.00  0.00    -0.096 F 
ATOM     11  F3  UNL d   1       0.774   0.266  -1.864  0.00  0.00    -0.097 F 
ATOM     12  F4  UNL d   1       1.497  -1.528   0.061  0.00  0.00    -0.092 F 
ENDROOT
TORSDOF 0
ENDMDL
