MODEL 1
REMARK minimizedAffinity -3.98381615
REMARK minimizedRMSD -1
REMARK  0 active torsions:
REMARK  status: ('A' for Active; 'I' for Inactive)
ROOT
ATOM      1  C   UNL d   1      -1.113   2.827   0.707  0.00  0.00     0.124 A 
ATOM      2  C1  UNL d   1      -1.470   1.585   1.213  0.00  0.00     0.062 A 
ATOM      3  C2  UNL d   1      -0.818   0.436   0.774  0.00  0.00     0.162 A 
ATOM      4  C3  UNL d   1       0.199   0.524  -0.176  0.00  0.00    -0.034 A 
ATOM      5  C4  UNL d   1       0.552   1.777  -0.681  0.00  0.00     0.162 A 
ATOM      6  C5  UNL d   1      -0.102   2.922  -0.239  0.00  0.00     0.062 A 
ATOM      7  F   UNL d   1       0.244   4.121  -0.729  0.00  0.00    -0.097 F 
ATOM      8  F1  UNL d   1       1.526   1.898  -1.596  0.00  0.00    -0.096 F 
ATOM      9  I   UNL d   1       1.176  -1.191  -0.836  0.00  0.00    -0.060 I 
ATOM     10  F2  UNL d   1      -1.184  -0.751   1.280  0.00  0.00    -0.096 F 
ATOM     11  F3  UNL d   1      -2.446   1.491   2.127  0.00  0.00    -0.097 F 
ATOM     12  F4  UNL d   1      -1.742   3.931   1.131  0.00  0.00    -0.092 F 
ENDROOT
TORSDOF 0
ENDMDL
