MODEL 1
REMARK minimizedAffinity -2.97369289
REMARK minimizedRMSD -1
REMARK  0 active torsions:
REMARK  status: ('A' for Active; 'I' for Inactive)
ROOT
ATOM      1  C   UNL d   1      -1.333   2.226   0.667  0.00  0.00     0.124 A 
ATOM      2  C1  UNL d   1      -0.241   2.207  -0.190  0.00  0.00     0.062 A 
ATOM      3  C2  UNL d   1       0.329   0.996  -0.570  0.00  0.00     0.162 A 
ATOM      4  C3  UNL d   1      -0.191  -0.208  -0.094  0.00  0.00    -0.034 A 
ATOM      5  C4  UNL d   1      -1.289  -0.181   0.768  0.00  0.00     0.162 A 
ATOM      6  C5  UNL d   1      -1.856   1.032   1.145  0.00  0.00     0.062 A 
ATOM      7  F   UNL d   1      -2.910   1.048   1.973  0.00  0.00    -0.097 F 
ATOM      8  F1  UNL d   1      -1.815  -1.319   1.244  0.00  0.00    -0.096 F 
ATOM      9  I   UNL d   1       0.659  -2.021  -0.661  0.00  0.00    -0.060 I 
ATOM     10  F2  UNL d   1       1.384   1.008  -1.399  0.00  0.00    -0.096 F 
ATOM     11  F3  UNL d   1       0.266   3.359  -0.652  0.00  0.00    -0.097 F 
ATOM     12  F4  UNL d   1      -1.879   3.393   1.032  0.00  0.00    -0.092 F 
ENDROOT
TORSDOF 0
ENDMDL
