MODEL 1
REMARK minimizedAffinity -3.57083178
REMARK minimizedRMSD -1
REMARK  0 active torsions:
REMARK  status: ('A' for Active; 'I' for Inactive)
ROOT
ATOM      1  C   UNL d   1      -1.244   2.132   0.919  0.00  0.00     0.124 A 
ATOM      2  C1  UNL d   1      -0.545   2.174  -0.279  0.00  0.00     0.062 A 
ATOM      3  C2  UNL d   1       0.401   1.197  -0.573  0.00  0.00     0.162 A 
ATOM      4  C3  UNL d   1       0.654   0.167   0.334  0.00  0.00    -0.034 A 
ATOM      5  C4  UNL d   1      -0.053   0.131   1.537  0.00  0.00     0.162 A 
ATOM      6  C5  UNL d   1      -0.998   1.111   1.826  0.00  0.00     0.062 A 
ATOM      7  F   UNL d   1      -1.672   1.068   2.984  0.00  0.00    -0.097 F 
ATOM      8  F1  UNL d   1       0.164  -0.845   2.431  0.00  0.00    -0.096 F 
ATOM      9  I   UNL d   1       2.068  -1.297  -0.101  0.00  0.00    -0.060 I 
ATOM     10  F2  UNL d   1       1.062   1.263  -1.738  0.00  0.00    -0.096 F 
ATOM     11  F3  UNL d   1      -0.780   3.160  -1.157  0.00  0.00    -0.097 F 
ATOM     12  F4  UNL d   1      -2.153   3.074   1.199  0.00  0.00    -0.092 F 
ENDROOT
TORSDOF 0
ENDMDL
