MODEL 1
REMARK minimizedAffinity 1.25219142
REMARK minimizedRMSD -1
REMARK  0 active torsions:
REMARK  status: ('A' for Active; 'I' for Inactive)
ROOT
ATOM      1  C   UNL d   1      -0.960   0.115   2.055  0.00  0.00     0.124 A 
ATOM      2  C1  UNL d   1       0.299  -0.281   1.626  0.00  0.00     0.062 A 
ATOM      3  C2  UNL d   1       0.884   0.325   0.518  0.00  0.00     0.162 A 
ATOM      4  C3  UNL d   1       0.211   1.335  -0.169  0.00  0.00    -0.034 A 
ATOM      5  C4  UNL d   1      -1.056   1.727   0.267  0.00  0.00     0.162 A 
ATOM      6  C5  UNL d   1      -1.637   1.118   1.375  0.00  0.00     0.062 A 
ATOM      7  F   UNL d   1      -2.854   1.502   1.788  0.00  0.00    -0.097 F 
ATOM      8  F1  UNL d   1      -1.732   2.695  -0.370  0.00  0.00    -0.096 F 
ATOM      9  I   UNL d   1       1.082   2.244  -1.826  0.00  0.00    -0.060 I 
ATOM     10  F2  UNL d   1       2.102  -0.077   0.127  0.00  0.00    -0.096 F 
ATOM     11  F3  UNL d   1       0.954  -1.251   2.281  0.00  0.00    -0.097 F 
ATOM     12  F4  UNL d   1      -1.521  -0.471   3.120  0.00  0.00    -0.092 F 
ENDROOT
TORSDOF 0
ENDMDL
