MODEL 1
REMARK minimizedAffinity 0.100632586
REMARK minimizedRMSD -1
REMARK  0 active torsions:
REMARK  status: ('A' for Active; 'I' for Inactive)
ROOT
ATOM      1  C   UNL d   1      -0.347   1.682   0.929  0.00  0.00     0.124 A 
ATOM      2  C1  UNL d   1       0.241   1.692  -0.328  0.00  0.00     0.062 A 
ATOM      3  C2  UNL d   1       0.590   0.496  -0.948  0.00  0.00     0.162 A 
ATOM      4  C3  UNL d   1       0.350  -0.722  -0.311  0.00  0.00    -0.034 A 
ATOM      5  C4  UNL d   1      -0.240  -0.725   0.954  0.00  0.00     0.162 A 
ATOM      6  C5  UNL d   1      -0.587   0.474   1.569  0.00  0.00     0.062 A 
ATOM      7  F   UNL d   1      -1.155   0.461   2.783  0.00  0.00    -0.097 F 
ATOM      8  F1  UNL d   1      -0.485  -1.878   1.594  0.00  0.00    -0.096 F 
ATOM      9  I   UNL d   1       0.871  -2.514  -1.234  0.00  0.00    -0.060 I 
ATOM     10  F2  UNL d   1       1.156   0.536  -2.163  0.00  0.00    -0.096 F 
ATOM     11  F3  UNL d   1       0.474   2.858  -0.948  0.00  0.00    -0.097 F 
ATOM     12  F4  UNL d   1      -0.681   2.834   1.523  0.00  0.00    -0.092 F 
ENDROOT
TORSDOF 0
ENDMDL
