MODEL 1
REMARK minimizedAffinity -3.4508853
REMARK minimizedRMSD -1
REMARK  0 active torsions:
REMARK  status: ('A' for Active; 'I' for Inactive)
ROOT
ATOM      1  C   UNL d   1       0.897  -0.268   0.132  0.00  0.00     0.124 A 
ATOM      2  C1  UNL d   1       0.327  -0.270   1.397  0.00  0.00     0.062 A 
ATOM      3  C2  UNL d   1      -0.572   0.728   1.761  0.00  0.00     0.162 A 
ATOM      4  C3  UNL d   1      -0.909   1.736   0.857  0.00  0.00    -0.034 A 
ATOM      5  C4  UNL d   1      -0.330   1.732  -0.413  0.00  0.00     0.162 A 
ATOM      6  C5  UNL d   1       0.568   0.732  -0.772  0.00  0.00     0.062 A 
ATOM      7  F   UNL d   1       1.118   0.736  -1.995  0.00  0.00    -0.097 F 
ATOM      8  F1  UNL d   1      -0.631   2.686  -1.307  0.00  0.00    -0.096 F 
ATOM      9  I   UNL d   1      -2.253   3.230   1.397  0.00  0.00    -0.060 I 
ATOM     10  F2  UNL d   1      -1.108   0.702   2.991  0.00  0.00    -0.096 F 
ATOM     11  F3  UNL d   1       0.644  -1.234   2.273  0.00  0.00    -0.097 F 
ATOM     12  F4  UNL d   1       1.763  -1.229  -0.215  0.00  0.00    -0.092 F 
ENDROOT
TORSDOF 0
ENDMDL
