MODEL 1
REMARK minimizedAffinity -3.92609692
REMARK minimizedRMSD -1
REMARK  0 active torsions:
REMARK  status: ('A' for Active; 'I' for Inactive)
ROOT
ATOM      1  N1  IND d   1      -2.316   5.956   5.029  0.00  0.00    -0.196 N 
ATOM      2  C2  IND d   1      -3.281   5.966   5.998  0.00  0.00     0.054 A 
ATOM      3  C3  IND d   1      -4.510   5.999   5.437  0.00  0.00    -0.031 A 
ATOM      4  C4  IND d   1      -5.176   5.939   2.951  0.00  0.00     0.051 A 
ATOM      5  C5  IND d   1      -4.644   5.964   1.692  0.00  0.00    -0.031 A 
ATOM      6  C6  IND d   1      -3.282   5.986   1.477  0.00  0.00     0.015 A 
ATOM      7  C7  IND d   1      -2.396   5.971   2.517  0.00  0.00    -0.016 A 
ATOM      8  C8  IND d   1      -2.933   5.953   3.797  0.00  0.00    -0.047 A 
ATOM      9  C9  IND d   1      -4.315   5.974   4.022  0.00  0.00    -0.096 A 
ATOM     10  HN1 IND d   1      -1.467   5.953   5.166  0.00  0.00     0.298 HD
ENDROOT
TORSDOF 0
ENDMDL
