MODEL 1
REMARK minimizedAffinity -1.05297554
REMARK minimizedRMSD -1
REMARK  0 active torsions:
REMARK  status: ('A' for Active; 'I' for Inactive)
ROOT
ATOM      1  N1  IND d   1      -3.145   4.819   5.555  0.00  0.00    -0.196 N 
ATOM      2  C2  IND d   1      -3.751   6.000   5.230  0.00  0.00     0.054 A 
ATOM      3  C3  IND d   1      -4.117   5.999   3.929  0.00  0.00    -0.031 A 
ATOM      4  C4  IND d   1      -3.909   4.128   2.173  0.00  0.00     0.051 A 
ATOM      5  C5  IND d   1      -3.391   2.877   1.988  0.00  0.00    -0.031 A 
ATOM      6  C6  IND d   1      -2.753   2.194   3.004  0.00  0.00     0.015 A 
ATOM      7  C7  IND d   1      -2.620   2.735   4.251  0.00  0.00    -0.016 A 
ATOM      8  C8  IND d   1      -3.139   4.008   4.441  0.00  0.00    -0.047 A 
ATOM      9  C9  IND d   1      -3.750   4.723   3.402  0.00  0.00    -0.096 A 
ATOM     10  HN1 IND d   1      -2.821   4.616   6.325  0.00  0.00     0.298 HD
ENDROOT
TORSDOF 0
ENDMDL
