MODEL 1
REMARK minimizedAffinity -1.05337131
REMARK minimizedRMSD -1
REMARK  0 active torsions:
REMARK  status: ('A' for Active; 'I' for Inactive)
ROOT
ATOM      1  N1  IND d   1      -5.537   6.000   3.125  0.00  0.00    -0.196 N 
ATOM      2  C2  IND d   1      -4.990   5.999   1.872  0.00  0.00     0.054 A 
ATOM      3  C3  IND d   1      -3.937   5.153   1.819  0.00  0.00    -0.031 A 
ATOM      4  C4  IND d   1      -2.999   3.592   3.639  0.00  0.00     0.051 A 
ATOM      5  C5  IND d   1      -3.143   3.268   4.959  0.00  0.00    -0.031 A 
ATOM      6  C6  IND d   1      -4.114   3.847   5.750  0.00  0.00     0.015 A 
ATOM      7  C7  IND d   1      -4.988   4.768   5.246  0.00  0.00    -0.016 A 
ATOM      8  C8  IND d   1      -4.840   5.105   3.908  0.00  0.00    -0.047 A 
ATOM      9  C9  IND d   1      -3.829   4.552   3.111  0.00  0.00    -0.096 A 
ATOM     10  HN1 IND d   1      -6.203   6.478   3.381  0.00  0.00     0.298 HD
ENDROOT
TORSDOF 0
ENDMDL
