MODEL 1
REMARK minimizedAffinity -2.894449
REMARK minimizedRMSD -1
REMARK  0 active torsions:
REMARK  status: ('A' for Active; 'I' for Inactive)
ROOT
ATOM      1  N1  IND d   1      -2.257   5.993   4.721  0.00  0.00    -0.196 N 
ATOM      2  C2  IND d   1      -3.094   5.985   5.802  0.00  0.00     0.054 A 
ATOM      3  C3  IND d   1      -4.384   5.983   5.398  0.00  0.00    -0.031 A 
ATOM      4  C4  IND d   1      -5.352   5.890   3.014  0.00  0.00     0.051 A 
ATOM      5  C5  IND d   1      -4.981   5.920   1.699  0.00  0.00    -0.031 A 
ATOM      6  C6  IND d   1      -3.656   5.974   1.316  0.00  0.00     0.015 A 
ATOM      7  C7  IND d   1      -2.648   5.989   2.238  0.00  0.00    -0.016 A 
ATOM      8  C8  IND d   1      -3.021   5.966   3.575  0.00  0.00    -0.047 A 
ATOM      9  C9  IND d   1      -4.365   5.954   3.970  0.00  0.00    -0.096 A 
ATOM     10  HN1 IND d   1      -1.398   6.012   4.751  0.00  0.00     0.298 HD
ENDROOT
TORSDOF 0
ENDMDL
