MODEL 1
REMARK minimizedAffinity -3.39505696
REMARK minimizedRMSD -1
REMARK  0 active torsions:
REMARK  status: ('A' for Active; 'I' for Inactive)
ROOT
ATOM      1  N1  IND d   1      -4.864   5.620   5.133  0.00  0.00    -0.196 N 
ATOM      2  C2  IND d   1      -3.630   5.852   5.673  0.00  0.00     0.054 A 
ATOM      3  C3  IND d   1      -2.708   5.999   4.695  0.00  0.00    -0.031 A 
ATOM      4  C4  IND d   1      -3.021   6.000   2.140  0.00  0.00     0.051 A 
ATOM      5  C5  IND d   1      -3.960   5.791   1.169  0.00  0.00    -0.031 A 
ATOM      6  C6  IND d   1      -5.276   5.512   1.477  0.00  0.00     0.015 A 
ATOM      7  C7  IND d   1      -5.706   5.442   2.772  0.00  0.00    -0.016 A 
ATOM      8  C8  IND d   1      -4.753   5.646   3.760  0.00  0.00    -0.047 A 
ATOM      9  C9  IND d   1      -3.408   5.888   3.454  0.00  0.00    -0.096 A 
ATOM     10  HN1 IND d   1      -5.588   5.482   5.576  0.00  0.00     0.298 HD
ENDROOT
TORSDOF 0
ENDMDL
