MODEL 1
REMARK minimizedAffinity -1.92229235
REMARK minimizedRMSD -1
REMARK  0 active torsions:
REMARK  status: ('A' for Active; 'I' for Inactive)
ROOT
ATOM      1  N1  IND d   1      -4.700   5.598   5.590  0.00  0.00    -0.196 N 
ATOM      2  C2  IND d   1      -3.409   5.842   5.966  0.00  0.00     0.054 A 
ATOM      3  C3  IND d   1      -2.624   6.000   4.877  0.00  0.00    -0.031 A 
ATOM      4  C4  IND d   1      -3.266   6.000   2.384  0.00  0.00     0.051 A 
ATOM      5  C5  IND d   1      -4.321   5.782   1.544  0.00  0.00    -0.031 A 
ATOM      6  C6  IND d   1      -5.583   5.488   2.019  0.00  0.00     0.015 A 
ATOM      7  C7  IND d   1      -5.840   5.412   3.358  0.00  0.00    -0.016 A 
ATOM      8  C8  IND d   1      -4.769   5.626   4.215  0.00  0.00    -0.047 A 
ATOM      9  C9  IND d   1      -3.477   5.882   3.738  0.00  0.00    -0.096 A 
ATOM     10  HN1 IND d   1      -5.359   5.451   6.123  0.00  0.00     0.298 HD
ENDROOT
TORSDOF 0
ENDMDL
