MODEL 1
REMARK minimizedAffinity -0.472074598
REMARK minimizedRMSD -1
REMARK  0 active torsions:
REMARK  status: ('A' for Active; 'I' for Inactive)
ROOT
ATOM      1  N1  IND d   1      -3.118   5.894   5.088  0.00  0.00    -0.196 N 
ATOM      2  C2  IND d   1      -4.139   5.904   5.997  0.00  0.00     0.054 A 
ATOM      3  C3  IND d   1      -5.332   5.968   5.362  0.00  0.00    -0.031 A 
ATOM      4  C4  IND d   1      -5.845   5.961   2.840  0.00  0.00     0.051 A 
ATOM      5  C5  IND d   1      -5.236   5.998   1.617  0.00  0.00    -0.031 A 
ATOM      6  C6  IND d   1      -3.862   5.999   1.485  0.00  0.00     0.015 A 
ATOM      7  C7  IND d   1      -3.043   5.952   2.577  0.00  0.00    -0.016 A 
ATOM      8  C8  IND d   1      -3.657   5.922   3.821  0.00  0.00    -0.047 A 
ATOM      9  C9  IND d   1      -5.050   5.963   3.962  0.00  0.00    -0.096 A 
ATOM     10  HN1 IND d   1      -2.279   5.873   5.277  0.00  0.00     0.298 HD
ENDROOT
TORSDOF 0
ENDMDL
