MODEL 1
REMARK minimizedAffinity -1.41897583
REMARK minimizedRMSD -1
REMARK  0 active torsions:
REMARK  status: ('A' for Active; 'I' for Inactive)
ROOT
ATOM      1  N1  IND d   1      -2.394   5.992   4.892  0.00  0.00    -0.196 N 
ATOM      2  C2  IND d   1      -3.198   5.989   5.998  0.00  0.00     0.054 A 
ATOM      3  C3  IND d   1      -4.500   5.999   5.634  0.00  0.00    -0.031 A 
ATOM      4  C4  IND d   1      -5.540   5.921   3.280  0.00  0.00     0.051 A 
ATOM      5  C5  IND d   1      -5.209   5.951   1.955  0.00  0.00    -0.031 A 
ATOM      6  C6  IND d   1      -3.896   5.995   1.532  0.00  0.00     0.015 A 
ATOM      7  C7  IND d   1      -2.861   5.999   2.423  0.00  0.00    -0.016 A 
ATOM      8  C8  IND d   1      -3.193   5.975   3.770  0.00  0.00    -0.047 A 
ATOM      9  C9  IND d   1      -4.525   5.973   4.206  0.00  0.00    -0.096 A 
ATOM     10  HN1 IND d   1      -1.535   6.004   4.897  0.00  0.00     0.298 HD
ENDROOT
TORSDOF 0
ENDMDL
