MODEL 1
REMARK minimizedAffinity 0.197899342
REMARK minimizedRMSD -1
REMARK  0 active torsions:
REMARK  status: ('A' for Active; 'I' for Inactive)
ROOT
ATOM      1  N1  IND d   1      -3.953   5.775   5.631  0.00  0.00    -0.196 N 
ATOM      2  C2  IND d   1      -2.642   5.925   5.985  0.00  0.00     0.054 A 
ATOM      3  C3  IND d   1      -1.863   6.000   4.882  0.00  0.00    -0.031 A 
ATOM      4  C4  IND d   1      -2.541   6.000   2.399  0.00  0.00     0.051 A 
ATOM      5  C5  IND d   1      -3.622   5.848   1.577  0.00  0.00    -0.031 A 
ATOM      6  C6  IND d   1      -4.896   5.662   2.075  0.00  0.00     0.015 A 
ATOM      7  C7  IND d   1      -5.138   5.633   3.420  0.00  0.00    -0.016 A 
ATOM      8  C8  IND d   1      -4.041   5.781   4.257  0.00  0.00    -0.047 A 
ATOM      9  C9  IND d   1      -2.740   5.927   3.757  0.00  0.00    -0.096 A 
ATOM     10  HN1 IND d   1      -4.613   5.690   6.176  0.00  0.00     0.298 HD
ENDROOT
TORSDOF 0
ENDMDL
