MODEL 1
REMARK minimizedAffinity -0.0103134913
REMARK minimizedRMSD -1
REMARK  0 active torsions:
REMARK  status: ('A' for Active; 'I' for Inactive)
ROOT
ATOM      1  N1  IND d   1      -4.493   5.959   5.612  0.00  0.00    -0.196 N 
ATOM      2  C2  IND d   1      -3.182   5.927   5.999  0.00  0.00     0.054 A 
ATOM      3  C3  IND d   1      -2.372   5.897   4.917  0.00  0.00    -0.031 A 
ATOM      4  C4  IND d   1      -2.979   5.995   2.417  0.00  0.00     0.051 A 
ATOM      5  C5  IND d   1      -4.050   5.994   1.568  0.00  0.00    -0.031 A 
ATOM      6  C6  IND d   1      -5.349   5.984   2.032  0.00  0.00     0.015 A 
ATOM      7  C7  IND d   1      -5.627   5.986   3.370  0.00  0.00    -0.016 A 
ATOM      8  C8  IND d   1      -4.543   5.979   4.235  0.00  0.00    -0.047 A 
ATOM      9  C9  IND d   1      -3.222   5.946   3.769  0.00  0.00    -0.096 A 
ATOM     10  HN1 IND d   1      -5.172   5.964   6.139  0.00  0.00     0.298 HD
ENDROOT
TORSDOF 0
ENDMDL
