MODEL 1
REMARK minimizedAffinity -1.68071783
REMARK minimizedRMSD -1
REMARK  0 active torsions:
REMARK  status: ('A' for Active; 'I' for Inactive)
ROOT
ATOM      1  N1  IND d   1      -4.403   5.765   5.509  0.00  0.00    -0.196 N 
ATOM      2  C2  IND d   1      -3.136   5.918   5.999  0.00  0.00     0.054 A 
ATOM      3  C3  IND d   1      -2.245   5.996   4.985  0.00  0.00    -0.031 A 
ATOM      4  C4  IND d   1      -2.658   5.998   2.443  0.00  0.00     0.051 A 
ATOM      5  C5  IND d   1      -3.646   5.845   1.512  0.00  0.00    -0.031 A 
ATOM      6  C6  IND d   1      -4.965   5.656   1.873  0.00  0.00     0.015 A 
ATOM      7  C7  IND d   1      -5.347   5.625   3.185  0.00  0.00    -0.016 A 
ATOM      8  C8  IND d   1      -4.345   5.773   4.133  0.00  0.00    -0.047 A 
ATOM      9  C9  IND d   1      -2.999   5.922   3.773  0.00  0.00    -0.096 A 
ATOM     10  HN1 IND d   1      -5.116   5.678   5.981  0.00  0.00     0.298 HD
ENDROOT
TORSDOF 0
ENDMDL
