MODEL 1
REMARK minimizedAffinity 3.33604741
REMARK minimizedRMSD -1
REMARK  0 active torsions:
REMARK  status: ('A' for Active; 'I' for Inactive)
ROOT
ATOM      1  N1  IND d   1      -2.349   2.363   3.707  0.00  0.00    -0.196 N 
ATOM      2  C2  IND d   1      -2.661   1.575   2.635  0.00  0.00     0.054 A 
ATOM      3  C3  IND d   1      -3.209   2.318   1.648  0.00  0.00    -0.031 A 
ATOM      4  C4  IND d   1      -3.596   4.861   1.538  0.00  0.00     0.051 A 
ATOM      5  C5  IND d   1      -3.506   5.998   2.291  0.00  0.00    -0.031 A 
ATOM      6  C6  IND d   1      -3.013   5.981   3.579  0.00  0.00     0.015 A 
ATOM      7  C7  IND d   1      -2.579   4.824   4.162  0.00  0.00    -0.016 A 
ATOM      8  C8  IND d   1      -2.676   3.666   3.403  0.00  0.00    -0.047 A 
ATOM      9  C9  IND d   1      -3.215   3.670   2.110  0.00  0.00    -0.096 A 
ATOM     10  HN1 IND d   1      -2.007   2.091   4.447  0.00  0.00     0.298 HD
ENDROOT
TORSDOF 0
ENDMDL
