MODEL 1
REMARK minimizedAffinity 8.11077785
REMARK minimizedRMSD -1
REMARK  0 active torsions:
REMARK  status: ('A' for Active; 'I' for Inactive)
ROOT
ATOM      1  N1  IND d   1      -4.182   5.888   2.802  0.00  0.00    -0.196 N 
ATOM      2  C2  IND d   1      -5.314   5.846   3.567  0.00  0.00     0.054 A 
ATOM      3  C3  IND d   1      -4.992   5.797   4.880  0.00  0.00    -0.031 A 
ATOM      4  C4  IND d   1      -2.675   5.879   6.000  0.00  0.00     0.051 A 
ATOM      5  C5  IND d   1      -1.339   5.882   5.712  0.00  0.00    -0.031 A 
ATOM      6  C6  IND d   1      -0.873   5.890   4.413  0.00  0.00     0.015 A 
ATOM      7  C7  IND d   1      -1.730   5.907   3.349  0.00  0.00    -0.016 A 
ATOM      8  C8  IND d   1      -3.087   5.897   3.637  0.00  0.00    -0.047 A 
ATOM      9  C9  IND d   1      -3.566   5.846   4.953  0.00  0.00    -0.096 A 
ATOM     10  HN1 IND d   1      -4.158   5.905   1.942  0.00  0.00     0.298 HD
ENDROOT
TORSDOF 0
ENDMDL
