MODEL 1
REMARK minimizedAffinity 1.35727108
REMARK minimizedRMSD -1
REMARK  0 active torsions:
REMARK  status: ('A' for Active; 'I' for Inactive)
ROOT
ATOM      1  N1  IND d   1       5.317   0.749  -3.775  0.00  0.00    -0.196 N 
ATOM      2  C2  IND d   1       5.999   0.671  -4.957  0.00  0.00     0.054 A 
ATOM      3  C3  IND d   1       5.142   0.743  -6.000  0.00  0.00    -0.031 A 
ATOM      4  C4  IND d   1       2.592   1.092  -6.000  0.00  0.00     0.051 A 
ATOM      5  C5  IND d   1       1.517   1.183  -5.161  0.00  0.00    -0.031 A 
ATOM      6  C6  IND d   1       1.657   1.135  -3.789  0.00  0.00     0.015 A 
ATOM      7  C7  IND d   1       2.884   1.005  -3.202  0.00  0.00    -0.016 A 
ATOM      8  C8  IND d   1       3.977   0.906  -4.051  0.00  0.00    -0.047 A 
ATOM      9  C9  IND d   1       3.837   0.912  -5.445  0.00  0.00    -0.096 A 
ATOM     10  HN1 IND d   1       5.667   0.706  -2.990  0.00  0.00     0.298 HD
ENDROOT
TORSDOF 0
ENDMDL
