MODEL 1
REMARK minimizedAffinity 2.6067214
REMARK minimizedRMSD -1
REMARK  0 active torsions:
REMARK  status: ('A' for Active; 'I' for Inactive)
ROOT
ATOM      1  N1  IND d   1       1.146   1.399  -4.518  0.00  0.00    -0.196 N 
ATOM      2  C2  IND d   1       1.388   1.031  -3.224  0.00  0.00     0.054 A 
ATOM      3  C3  IND d   1       2.003   2.034  -2.557  0.00  0.00    -0.031 A 
ATOM      4  C4  IND d   1       2.616   4.400  -3.364  0.00  0.00     0.051 A 
ATOM      5  C5  IND d   1       2.626   5.188  -4.481  0.00  0.00    -0.031 A 
ATOM      6  C6  IND d   1       2.130   4.746  -5.690  0.00  0.00     0.015 A 
ATOM      7  C7  IND d   1       1.594   3.497  -5.826  0.00  0.00    -0.016 A 
ATOM      8  C8  IND d   1       1.589   2.691  -4.696  0.00  0.00    -0.047 A 
ATOM      9  C9  IND d   1       2.129   3.119  -3.477  0.00  0.00    -0.096 A 
ATOM     10  HN1 IND d   1       0.779   0.906  -5.119  0.00  0.00     0.298 HD
ENDROOT
TORSDOF 0
ENDMDL
