MODEL 1
REMARK minimizedAffinity -1.20217657
REMARK minimizedRMSD -1
REMARK  0 active torsions:
REMARK  status: ('A' for Active; 'I' for Inactive)
ROOT
ATOM      1  N1  IND d   1       4.196   6.000  -1.245  0.00  0.00    -0.196 N 
ATOM      2  C2  IND d   1       3.031   5.330  -1.496  0.00  0.00     0.054 A 
ATOM      3  C3  IND d   1       2.731   4.506  -0.467  0.00  0.00    -0.031 A 
ATOM      4  C4  IND d   1       3.956   4.174   1.773  0.00  0.00     0.051 A 
ATOM      5  C5  IND d   1       5.088   4.539   2.446  0.00  0.00    -0.031 A 
ATOM      6  C6  IND d   1       5.998   5.430   1.913  0.00  0.00     0.015 A 
ATOM      7  C7  IND d   1       5.802   6.000   0.687  0.00  0.00    -0.016 A 
ATOM      8  C8  IND d   1       4.658   5.626  -0.002  0.00  0.00    -0.047 A 
ATOM      9  C9  IND d   1       3.753   4.690   0.515  0.00  0.00    -0.096 A 
ATOM     10  HN1 IND d   1       4.577   6.560  -1.774  0.00  0.00     0.298 HD
ENDROOT
TORSDOF 0
ENDMDL
