MODEL 1
REMARK minimizedAffinity -2.00708413
REMARK minimizedRMSD -1
REMARK  0 active torsions:
REMARK  status: ('A' for Active; 'I' for Inactive)
ROOT
ATOM      1  N1  IND d   1      -4.460   5.993   5.289  0.00  0.00    -0.196 N 
ATOM      2  C2  IND d   1      -3.230   5.970   5.884  0.00  0.00     0.054 A 
ATOM      3  C3  IND d   1      -2.255   5.931   4.948  0.00  0.00    -0.031 A 
ATOM      4  C4  IND d   1      -2.448   6.000   2.382  0.00  0.00     0.051 A 
ATOM      5  C5  IND d   1      -3.367   5.986   1.370  0.00  0.00    -0.031 A 
ATOM      6  C6  IND d   1      -4.725   5.977   1.618  0.00  0.00     0.015 A 
ATOM      7  C7  IND d   1      -5.216   5.993   2.893  0.00  0.00    -0.016 A 
ATOM      8  C8  IND d   1      -4.286   5.999   3.922  0.00  0.00    -0.047 A 
ATOM      9  C9  IND d   1      -2.907   5.966   3.677  0.00  0.00    -0.096 A 
ATOM     10  HN1 IND d   1      -5.216   6.003   5.699  0.00  0.00     0.298 HD
ENDROOT
TORSDOF 0
ENDMDL
