MODEL 1
REMARK minimizedAffinity 11.3362627
REMARK minimizedRMSD -1
REMARK  0 active torsions:
REMARK  status: ('A' for Active; 'I' for Inactive)
ROOT
ATOM      1  C   UNL d   1       2.590  -2.963   0.682  0.00  0.00     0.023 A 
ATOM      2  C1  UNL d   1       2.301  -3.466   1.951  0.00  0.00     0.003 A 
ATOM      3  C2  UNL d   1       1.394  -2.801   2.777  0.00  0.00     0.048 A 
ATOM      4  C3  UNL d   1       0.777  -1.633   2.329  0.00  0.00     0.023 A 
ATOM      5  C4  UNL d   1       1.062  -1.126   1.060  0.00  0.00     0.048 A 
ATOM      6  C5  UNL d   1       1.971  -1.795   0.237  0.00  0.00     0.003 A 
ATOM      7  I   UNL d   1      -0.574  -0.641   3.557  0.00  0.00    -0.146 I 
ENDROOT
TORSDOF 0
ENDMDL
