MODEL 1
REMARK minimizedAffinity 4.97968626
REMARK minimizedRMSD -1
REMARK  0 active torsions:
REMARK  status: ('A' for Active; 'I' for Inactive)
ROOT
ATOM      1  C   UNL d   1       0.365  -1.358   1.803  0.00  0.00     0.023 A 
ATOM      2  C1  UNL d   1       0.029  -2.423   2.639  0.00  0.00     0.003 A 
ATOM      3  C2  UNL d   1       0.789  -3.594   2.620  0.00  0.00     0.048 A 
ATOM      4  C3  UNL d   1       1.885  -3.693   1.764  0.00  0.00     0.023 A 
ATOM      5  C4  UNL d   1       2.226  -2.630   0.927  0.00  0.00     0.048 A 
ATOM      6  C5  UNL d   1       1.463  -1.461   0.948  0.00  0.00     0.003 A 
ATOM      7  I   UNL d   1       3.018  -5.435   1.734  0.00  0.00    -0.146 I 
ENDROOT
TORSDOF 0
ENDMDL
