MODEL 1
REMARK minimizedAffinity 2.16519785
REMARK minimizedRMSD -1
REMARK  0 active torsions:
REMARK  status: ('A' for Active; 'I' for Inactive)
ROOT
ATOM      1  C   UNL d   1       4.051   3.173   2.554  0.00  0.00     0.023 A 
ATOM      2  C1  UNL d   1       3.223   2.254   1.910  0.00  0.00     0.003 A 
ATOM      3  C2  UNL d   1       3.780   1.199   1.184  0.00  0.00     0.048 A 
ATOM      4  C3  UNL d   1       5.166   1.069   1.107  0.00  0.00     0.023 A 
ATOM      5  C4  UNL d   1       5.999   1.986   1.750  0.00  0.00     0.048 A 
ATOM      6  C5  UNL d   1       5.437   3.040   2.474  0.00  0.00     0.003 A 
ATOM      7  I   UNL d   1       5.998  -0.500   0.027  0.00  0.00    -0.146 I 
ENDROOT
TORSDOF 0
ENDMDL
