MODEL 1
REMARK minimizedAffinity 11.0266571
REMARK minimizedRMSD -1
REMARK  0 active torsions:
REMARK  status: ('A' for Active; 'I' for Inactive)
ROOT
ATOM      1  C   UNL d   1       1.345  -3.408   1.128  0.00  0.00     0.023 A 
ATOM      2  C1  UNL d   1       2.183  -4.500   1.357  0.00  0.00     0.003 A 
ATOM      3  C2  UNL d   1       3.039  -4.505   2.460  0.00  0.00     0.048 A 
ATOM      4  C3  UNL d   1       3.053  -3.416   3.331  0.00  0.00     0.023 A 
ATOM      5  C4  UNL d   1       2.216  -2.321   3.106  0.00  0.00     0.048 A 
ATOM      6  C5  UNL d   1       1.362  -2.320   2.001  0.00  0.00     0.003 A 
ATOM      7  I   UNL d   1       4.326  -3.421   4.973  0.00  0.00    -0.146 I 
ENDROOT
TORSDOF 0
ENDMDL
