MODEL 1
REMARK minimizedAffinity 8.9722681
REMARK minimizedRMSD -1
REMARK  0 active torsions:
REMARK  status: ('A' for Active; 'I' for Inactive)
ROOT
ATOM      1  C   UNL d   1       5.802  -0.565  -0.804  0.00  0.00     0.023 A 
ATOM      2  C1  UNL d   1       5.722   0.767  -1.212  0.00  0.00     0.003 A 
ATOM      3  C2  UNL d   1       5.777   1.792  -0.266  0.00  0.00     0.048 A 
ATOM      4  C3  UNL d   1       5.914   1.480   1.086  0.00  0.00     0.023 A 
ATOM      5  C4  UNL d   1       5.995   0.149   1.499  0.00  0.00     0.048 A 
ATOM      6  C5  UNL d   1       5.938  -0.874   0.549  0.00  0.00     0.003 A 
ATOM      7  I   UNL d   1       5.997   3.005   2.495  0.00  0.00    -0.146 I 
ENDROOT
TORSDOF 0
ENDMDL
