MODEL 1
REMARK minimizedAffinity 1.38627541
REMARK minimizedRMSD -1
REMARK  0 active torsions:
REMARK  status: ('A' for Active; 'I' for Inactive)
ROOT
ATOM      1  C   UNL d   1       1.492   0.937  -0.295  0.00  0.00     0.023 A 
ATOM      2  C1  UNL d   1       2.408  -0.101  -0.116  0.00  0.00     0.003 A 
ATOM      3  C2  UNL d   1       3.702   0.177   0.328  0.00  0.00     0.048 A 
ATOM      4  C3  UNL d   1       4.074   1.495   0.593  0.00  0.00     0.023 A 
ATOM      5  C4  UNL d   1       3.161   2.536   0.415  0.00  0.00     0.048 A 
ATOM      6  C5  UNL d   1       1.869   2.253  -0.030  0.00  0.00     0.003 A 
ATOM      7  I   UNL d   1       6.000   1.911   1.254  0.00  0.00    -0.146 I 
ENDROOT
TORSDOF 0
ENDMDL
