MODEL 1
REMARK minimizedAffinity 1.47269714
REMARK minimizedRMSD -1
REMARK  0 active torsions:
REMARK  status: ('A' for Active; 'I' for Inactive)
ROOT
ATOM      1  C   UNL d   1       5.997   3.596   0.909  0.00  0.00     0.023 A 
ATOM      2  C1  UNL d   1       5.999   3.888  -0.455  0.00  0.00     0.003 A 
ATOM      3  C2  UNL d   1       5.999   2.853  -1.392  0.00  0.00     0.048 A 
ATOM      4  C3  UNL d   1       5.996   1.528  -0.958  0.00  0.00     0.023 A 
ATOM      5  C4  UNL d   1       5.993   1.231   0.406  0.00  0.00     0.048 A 
ATOM      6  C5  UNL d   1       5.994   2.269   1.339  0.00  0.00     0.003 A 
ATOM      7  I   UNL d   1       5.996  -0.015  -2.351  0.00  0.00    -0.146 I 
ENDROOT
TORSDOF 0
ENDMDL
