MODEL 1
REMARK minimizedAffinity 3.4953146
REMARK minimizedRMSD -1
REMARK  0 active torsions:
REMARK  status: ('A' for Active; 'I' for Inactive)
ROOT
ATOM      1  C   UNL d   1       3.066  -4.015   0.604  0.00  0.00     0.023 A 
ATOM      2  C1  UNL d   1       3.235  -2.637   0.740  0.00  0.00     0.003 A 
ATOM      3  C2  UNL d   1       2.318  -1.889   1.482  0.00  0.00     0.048 A 
ATOM      4  C3  UNL d   1       1.234  -2.527   2.085  0.00  0.00     0.023 A 
ATOM      5  C4  UNL d   1       1.061  -3.905   1.952  0.00  0.00     0.048 A 
ATOM      6  C5  UNL d   1       1.981  -4.648   1.209  0.00  0.00     0.003 A 
ATOM      7  I   UNL d   1      -0.132  -1.416   3.190  0.00  0.00    -0.146 I 
ENDROOT
TORSDOF 0
ENDMDL
