MODEL 1
REMARK minimizedAffinity 2.02614951
REMARK minimizedRMSD -1
REMARK  0 active torsions:
REMARK  status: ('A' for Active; 'I' for Inactive)
ROOT
ATOM      1  C   UNL d   1       5.926   0.897  -4.342  0.00  0.00     0.023 A 
ATOM      2  C1  UNL d   1       5.976   2.100  -3.637  0.00  0.00     0.003 A 
ATOM      3  C2  UNL d   1       5.997   2.092  -2.241  0.00  0.00     0.048 A 
ATOM      4  C3  UNL d   1       5.968   0.878  -1.556  0.00  0.00     0.023 A 
ATOM      5  C4  UNL d   1       5.919  -0.328  -2.257  0.00  0.00     0.048 A 
ATOM      6  C5  UNL d   1       5.898  -0.315  -3.653  0.00  0.00     0.003 A 
ATOM      7  I   UNL d   1       5.999   0.864   0.522  0.00  0.00    -0.146 I 
ENDROOT
TORSDOF 0
ENDMDL
