MODEL 1
REMARK minimizedAffinity -2.82786989
REMARK minimizedRMSD -1
REMARK  0 active torsions:
REMARK  status: ('A' for Active; 'I' for Inactive)
ROOT
ATOM      1  C2' OXE d   1       1.353  -2.264  -0.329  0.00  0.00     0.078 C 
ATOM      2  C1' OXE d   1      -0.359  -0.041  -0.239  0.00  0.00     0.078 C 
ATOM      3  C1  OXE d   1       1.128   0.213  -0.205  0.00  0.00    -0.078 A 
ATOM      4  C2  OXE d   1       1.957  -0.882  -0.202  0.00  0.00    -0.078 A 
ATOM      5  C3  OXE d   1       3.337  -0.703  -0.227  0.00  0.00     0.003 A 
ATOM      6  C4  OXE d   1       3.887   0.578  -0.099  0.00  0.00    -0.002 A 
ATOM      7  C5  OXE d   1       3.060   1.706  -0.060  0.00  0.00    -0.002 A 
ATOM      8  C6  OXE d   1       1.682   1.544  -0.155  0.00  0.00     0.003 A 
ENDROOT
TORSDOF 0
ENDMDL
