MODEL 1
REMARK minimizedAffinity -4.07591534
REMARK minimizedRMSD -1
REMARK  0 active torsions:
REMARK  status: ('A' for Active; 'I' for Inactive)
ROOT
ATOM      1  C2' OXE d   1       2.328  -1.593   1.644  0.00  0.00     0.078 C 
ATOM      2  C1' OXE d   1       1.571  -2.530  -0.891  0.00  0.00     0.078 C 
ATOM      3  C1  OXE d   1       0.954  -1.244  -0.404  0.00  0.00    -0.078 A 
ATOM      4  C2  OXE d   1       1.294  -0.817   0.858  0.00  0.00    -0.078 A 
ATOM      5  C3  OXE d   1       0.796   0.392   1.334  0.00  0.00     0.003 A 
ATOM      6  C4  OXE d   1      -0.168   1.099   0.605  0.00  0.00    -0.002 A 
ATOM      7  C5  OXE d   1      -0.558   0.661  -0.665  0.00  0.00    -0.002 A 
ATOM      8  C6  OXE d   1       0.023  -0.483  -1.201  0.00  0.00     0.003 A 
ENDROOT
TORSDOF 0
ENDMDL
