MODEL 1
REMARK minimizedAffinity -2.62787414
REMARK minimizedRMSD -1
REMARK  0 active torsions:
REMARK  status: ('A' for Active; 'I' for Inactive)
ROOT
ATOM      1  C2' OXE d   1      -0.709   0.859   0.086  0.00  0.00     0.078 C 
ATOM      2  C1' OXE d   1       1.840   2.010  -0.153  0.00  0.00     0.078 C 
ATOM      3  C1  OXE d   1       1.744   0.505  -0.169  0.00  0.00    -0.078 A 
ATOM      4  C2  OXE d   1       0.498  -0.050  -0.005  0.00  0.00    -0.078 A 
ATOM      5  C3  OXE d   1       0.346  -1.433  -0.067  0.00  0.00     0.003 A 
ATOM      6  C4  OXE d   1       1.468  -2.267  -0.141  0.00  0.00    -0.002 A 
ATOM      7  C5  OXE d   1       2.750  -1.722  -0.270  0.00  0.00    -0.002 A 
ATOM      8  C6  OXE d   1       2.901  -0.341  -0.328  0.00  0.00     0.003 A 
ENDROOT
TORSDOF 0
ENDMDL
