MODEL 1
REMARK minimizedAffinity -3.79914737
REMARK minimizedRMSD -1
REMARK  0 active torsions:
REMARK  status: ('A' for Active; 'I' for Inactive)
ROOT
ATOM      1  C2' OXE d   1       2.587  -1.096   1.115  0.00  0.00     0.078 C 
ATOM      2  C1' OXE d   1       2.280   1.690   1.273  0.00  0.00     0.078 C 
ATOM      3  C1  OXE d   1       1.191   0.900   0.590  0.00  0.00    -0.078 A 
ATOM      4  C2  OXE d   1       1.372  -0.457   0.476  0.00  0.00    -0.078 A 
ATOM      5  C3  OXE d   1       0.373  -1.240  -0.096  0.00  0.00     0.003 A 
ATOM      6  C4  OXE d   1      -0.743  -0.640  -0.693  0.00  0.00    -0.002 A 
ATOM      7  C5  OXE d   1      -0.927   0.745  -0.623  0.00  0.00    -0.002 A 
ATOM      8  C6  OXE d   1       0.008   1.523   0.051  0.00  0.00     0.003 A 
ENDROOT
TORSDOF 0
ENDMDL
