MODEL 1
REMARK minimizedAffinity -3.2894516
REMARK minimizedRMSD -1
REMARK  0 active torsions:
REMARK  status: ('A' for Active; 'I' for Inactive)
ROOT
ATOM      1  C2' OXE d   1      -2.464   2.298   1.732  0.00  0.00     0.078 C 
ATOM      2  C1' OXE d   1      -1.677   0.901  -0.573  0.00  0.00     0.078 C 
ATOM      3  C1  OXE d   1      -2.950   0.468   0.112  0.00  0.00    -0.078 A 
ATOM      4  C2  OXE d   1      -3.302   1.127   1.265  0.00  0.00    -0.078 A 
ATOM      5  C3  OXE d   1      -4.495   0.804   1.907  0.00  0.00     0.003 A 
ATOM      6  C4  OXE d   1      -5.259  -0.286   1.475  0.00  0.00    -0.002 A 
ATOM      7  C5  OXE d   1      -4.897  -0.996   0.325  0.00  0.00    -0.002 A 
ATOM      8  C6  OXE d   1      -3.771  -0.605  -0.391  0.00  0.00     0.003 A 
ENDROOT
TORSDOF 0
ENDMDL
