MODEL 1
REMARK minimizedAffinity -5.69349909
REMARK minimizedRMSD -1
REMARK  0 active torsions:
REMARK  status: ('A' for Active; 'I' for Inactive)
ROOT
ATOM      1  C2' OXE d   1       1.041  -2.150   0.126  0.00  0.00     0.078 C 
ATOM      2  C1' OXE d   1      -0.193   0.249  -0.647  0.00  0.00     0.078 C 
ATOM      3  C1  OXE d   1       1.255   0.306  -0.228  0.00  0.00    -0.078 A 
ATOM      4  C2  OXE d   1       1.837  -0.865   0.194  0.00  0.00    -0.078 A 
ATOM      5  C3  OXE d   1       3.186  -0.879   0.539  0.00  0.00     0.003 A 
ATOM      6  C4  OXE d   1       3.912   0.316   0.609  0.00  0.00    -0.002 A 
ATOM      7  C5  OXE d   1       3.326   1.526   0.222  0.00  0.00    -0.002 A 
ATOM      8  C6  OXE d   1       2.014   1.532  -0.239  0.00  0.00     0.003 A 
ENDROOT
TORSDOF 0
ENDMDL
