MODEL 1
REMARK minimizedAffinity -2.81920981
REMARK minimizedRMSD -1
REMARK  0 active torsions:
REMARK  status: ('A' for Active; 'I' for Inactive)
ROOT
ATOM      1  C2' OXE d   1       1.529  -2.034  -0.174  0.00  0.00     0.078 C 
ATOM      2  C1' OXE d   1      -0.425  -0.031  -0.392  0.00  0.00     0.078 C 
ATOM      3  C1  OXE d   1       1.022   0.394  -0.401  0.00  0.00    -0.078 A 
ATOM      4  C2  OXE d   1       1.970  -0.588  -0.247  0.00  0.00    -0.078 A 
ATOM      5  C3  OXE d   1       3.321  -0.257  -0.303  0.00  0.00     0.003 A 
ATOM      6  C4  OXE d   1       3.721   1.083  -0.360  0.00  0.00    -0.002 A 
ATOM      7  C5  OXE d   1       2.770   2.103  -0.478  0.00  0.00    -0.002 A 
ATOM      8  C6  OXE d   1       1.421   1.773  -0.542  0.00  0.00     0.003 A 
ENDROOT
TORSDOF 0
ENDMDL
