MODEL 1
REMARK minimizedAffinity -5.58503723
REMARK minimizedRMSD -1
REMARK  0 active torsions:
REMARK  status: ('A' for Active; 'I' for Inactive)
ROOT
ATOM      1  C2' OXE d   1       1.148   2.434   0.114  0.00  0.00     0.078 C 
ATOM      2  C1' OXE d   1      -0.818   0.654  -0.807  0.00  0.00     0.078 C 
ATOM      3  C1  OXE d   1       0.424   0.069  -0.181  0.00  0.00    -0.078 A 
ATOM      4  C2  OXE d   1       1.401   0.946   0.224  0.00  0.00    -0.078 A 
ATOM      5  C3  OXE d   1       2.542   0.462   0.857  0.00  0.00     0.003 A 
ATOM      6  C4  OXE d   1       2.773  -0.916   0.946  0.00  0.00    -0.002 A 
ATOM      7  C5  OXE d   1       1.809  -1.828   0.503  0.00  0.00    -0.002 A 
ATOM      8  C6  OXE d   1       0.612  -1.352  -0.023  0.00  0.00     0.003 A 
ENDROOT
TORSDOF 0
ENDMDL
