MODEL 1
REMARK minimizedAffinity -2.78082466
REMARK minimizedRMSD -1
REMARK  0 active torsions:
REMARK  status: ('A' for Active; 'I' for Inactive)
ROOT
ATOM      1  C1  BNZ d   1       0.150  -1.672   2.355  0.00  0.00     0.000 A 
ATOM      2  C2  BNZ d   1       0.828  -2.861   2.404  0.00  0.00     0.000 A 
ATOM      3  C3  BNZ d   1       1.745  -3.184   1.443  0.00  0.00     0.000 A 
ATOM      4  C4  BNZ d   1       1.954  -2.337   0.415  0.00  0.00     0.000 A 
ATOM      5  C5  BNZ d   1       1.272  -1.138   0.347  0.00  0.00     0.000 A 
ATOM      6  C6  BNZ d   1       0.378  -0.799   1.336  0.00  0.00     0.000 A 
ENDROOT
TORSDOF 0
ENDMDL
