MODEL 1
REMARK minimizedAffinity 0.550595462
REMARK minimizedRMSD -1
REMARK  0 active torsions:
REMARK  status: ('A' for Active; 'I' for Inactive)
ROOT
ATOM      1  C1  BNZ d   1      -1.800  -0.276   0.856  0.00  0.00     0.000 A 
ATOM      2  C2  BNZ d   1      -2.139  -0.207   2.181  0.00  0.00     0.000 A 
ATOM      3  C3  BNZ d   1      -1.404  -0.867   3.126  0.00  0.00     0.000 A 
ATOM      4  C4  BNZ d   1      -0.357  -1.626   2.742  0.00  0.00     0.000 A 
ATOM      5  C5  BNZ d   1      -0.009  -1.712   1.409  0.00  0.00     0.000 A 
ATOM      6  C6  BNZ d   1      -0.727  -1.016   0.464  0.00  0.00     0.000 A 
ENDROOT
TORSDOF 0
ENDMDL
