MODEL 1
REMARK minimizedAffinity 0.618169844
REMARK minimizedRMSD -1
REMARK  0 active torsions:
REMARK  status: ('A' for Active; 'I' for Inactive)
ROOT
ATOM      1  C1  BNZ d   1       4.804  -2.248  -0.529  0.00  0.00     0.000 A 
ATOM      2  C2  BNZ d   1       4.964  -3.509  -0.018  0.00  0.00     0.000 A 
ATOM      3  C3  BNZ d   1       3.890  -4.223   0.435  0.00  0.00     0.000 A 
ATOM      4  C4  BNZ d   1       2.664  -3.661   0.413  0.00  0.00     0.000 A 
ATOM      5  C5  BNZ d   1       2.487  -2.388  -0.091  0.00  0.00     0.000 A 
ATOM      6  C6  BNZ d   1       3.565  -1.687  -0.581  0.00  0.00     0.000 A 
ENDROOT
TORSDOF 0
ENDMDL
