MODEL 1
REMARK minimizedAffinity -2.15950823
REMARK minimizedRMSD -1
REMARK  0 active torsions:
REMARK  status: ('A' for Active; 'I' for Inactive)
ROOT
ATOM      1  C1  BNZ d   1       1.263   1.446  -1.094  0.00  0.00     0.000 A 
ATOM      2  C2  BNZ d   1       0.093   1.470  -0.382  0.00  0.00     0.000 A 
ATOM      3  C3  BNZ d   1      -0.481   0.311   0.058  0.00  0.00     0.000 A 
ATOM      4  C4  BNZ d   1       0.092  -0.871  -0.247  0.00  0.00     0.000 A 
ATOM      5  C5  BNZ d   1       1.267  -0.912  -0.971  0.00  0.00     0.000 A 
ATOM      6  C6  BNZ d   1       1.863   0.259  -1.380  0.00  0.00     0.000 A 
ENDROOT
TORSDOF 0
ENDMDL
