MODEL 1
REMARK minimizedAffinity -0.634606361
REMARK minimizedRMSD -1
REMARK  0 active torsions:
REMARK  status: ('A' for Active; 'I' for Inactive)
ROOT
ATOM      1  C1  BNZ d   1       2.931  -3.661   0.095  0.00  0.00     0.000 A 
ATOM      2  C2  BNZ d   1       1.895  -3.629   0.990  0.00  0.00     0.000 A 
ATOM      3  C3  BNZ d   1       1.617  -4.712   1.777  0.00  0.00     0.000 A 
ATOM      4  C4  BNZ d   1       2.349  -5.836   1.641  0.00  0.00     0.000 A 
ATOM      5  C5  BNZ d   1       3.391  -5.886   0.736  0.00  0.00     0.000 A 
ATOM      6  C6  BNZ d   1       3.692  -4.782  -0.027  0.00  0.00     0.000 A 
ENDROOT
TORSDOF 0
ENDMDL
