MODEL 1
REMARK minimizedAffinity 1.32322609
REMARK minimizedRMSD -1
REMARK  0 active torsions:
REMARK  status: ('A' for Active; 'I' for Inactive)
ROOT
ATOM      1  C1  BNZ d   1       3.732  -2.725  -0.520  0.00  0.00     0.000 A 
ATOM      2  C2  BNZ d   1       4.214  -3.963  -0.185  0.00  0.00     0.000 A 
ATOM      3  C3  BNZ d   1       3.455  -4.837   0.541  0.00  0.00     0.000 A 
ATOM      4  C4  BNZ d   1       2.232  -4.458   0.966  0.00  0.00     0.000 A 
ATOM      5  C5  BNZ d   1       1.736  -3.211   0.645  0.00  0.00     0.000 A 
ATOM      6  C6  BNZ d   1       2.488  -2.348  -0.120  0.00  0.00     0.000 A 
ENDROOT
TORSDOF 0
ENDMDL
