MODEL 1
REMARK minimizedAffinity 0.253840566
REMARK minimizedRMSD -1
REMARK  0 active torsions:
REMARK  status: ('A' for Active; 'I' for Inactive)
ROOT
ATOM      1  C1  BNZ d   1      -1.154  -1.074   2.425  0.00  0.00     0.000 A 
ATOM      2  C2  BNZ d   1      -1.704  -0.327   1.417  0.00  0.00     0.000 A 
ATOM      3  C3  BNZ d   1      -1.109  -0.264   0.188  0.00  0.00     0.000 A 
ATOM      4  C4  BNZ d   1       0.054  -0.914  -0.020  0.00  0.00     0.000 A 
ATOM      5  C5  BNZ d   1       0.626  -1.664   0.989  0.00  0.00     0.000 A 
ATOM      6  C6  BNZ d   1       0.004  -1.757   2.213  0.00  0.00     0.000 A 
ENDROOT
TORSDOF 0
ENDMDL
