MODEL 1
REMARK minimizedAffinity 3.38436842
REMARK minimizedRMSD -1
REMARK  0 active torsions:
REMARK  status: ('A' for Active; 'I' for Inactive)
ROOT
ATOM      1  C1  BNZ d   1      -0.423  -0.570  -0.630  0.00  0.00     0.000 A 
ATOM      2  C2  BNZ d   1      -1.753  -0.251  -0.568  0.00  0.00     0.000 A 
ATOM      3  C3  BNZ d   1      -2.420  -0.260   0.625  0.00  0.00     0.000 A 
ATOM      4  C4  BNZ d   1      -1.767  -0.627   1.747  0.00  0.00     0.000 A 
ATOM      5  C5  BNZ d   1      -0.428  -0.960   1.699  0.00  0.00     0.000 A 
ATOM      6  C6  BNZ d   1       0.250  -0.912   0.502  0.00  0.00     0.000 A 
ENDROOT
TORSDOF 0
ENDMDL
