MODEL 1
REMARK minimizedAffinity 1.34320498
REMARK minimizedRMSD -1
REMARK  0 active torsions:
REMARK  status: ('A' for Active; 'I' for Inactive)
ROOT
ATOM      1  C1  BNZ d   1      -1.794   0.236   2.561  0.00  0.00     0.000 A 
ATOM      2  C2  BNZ d   1      -3.036   0.175   1.988  0.00  0.00     0.000 A 
ATOM      3  C3  BNZ d   1      -3.202  -0.333   0.730  0.00  0.00     0.000 A 
ATOM      4  C4  BNZ d   1      -2.123  -0.740   0.031  0.00  0.00     0.000 A 
ATOM      5  C5  BNZ d   1      -0.863  -0.676   0.591  0.00  0.00     0.000 A 
ATOM      6  C6  BNZ d   1      -0.704  -0.200   1.873  0.00  0.00     0.000 A 
ENDROOT
TORSDOF 0
ENDMDL
