MODEL 1
REMARK minimizedAffinity -3.41964483
REMARK minimizedRMSD -1
REMARK  1 active torsions:
REMARK  status: ('A' for Active; 'I' for Inactive)
REMARK    1  A    between atoms: C1_2  and  C2_3 
ROOT
ATOM      1  C2  UNL d   1       0.371   0.246   0.808  0.00  0.00    -0.077 A 
ATOM      2  C3  UNL d   1       1.049   1.391   1.250  0.00  0.00     0.002 A 
ATOM      3  C4  UNL d   1       1.420   2.386   0.344  0.00  0.00     0.002 A 
ATOM      4  C5  UNL d   1       1.114   2.249  -1.008  0.00  0.00    -0.004 A 
ATOM      5  C6  UNL d   1       0.442   1.113  -1.458  0.00  0.00     0.002 A 
ATOM      6  C7  UNL d   1       0.071   0.117  -0.554  0.00  0.00     0.002 A 
ENDROOT
BRANCH   1   7
ATOM      7  C1  UNL d   1      -0.074  -0.805   1.791  0.00  0.00     0.055 C 
ATOM      8  C   UNL d   1      -0.710  -1.992   1.082  0.00  0.00     0.019 C 
ENDBRANCH   1   7
TORSDOF 1
ENDMDL
