MODEL 1
REMARK minimizedAffinity -4.25169516
REMARK minimizedRMSD -1
REMARK  1 active torsions:
REMARK  status: ('A' for Active; 'I' for Inactive)
REMARK    1  A    between atoms: C1_2  and  C2_3 
ROOT
ATOM      1  C2  UNL d   1      -0.044  -0.049  -0.168  0.00  0.00    -0.077 A 
ATOM      2  C3  UNL d   1       0.618  -1.126  -0.774  0.00  0.00     0.002 A 
ATOM      3  C4  UNL d   1       0.381  -2.433  -0.343  0.00  0.00     0.002 A 
ATOM      4  C5  UNL d   1      -0.521  -2.675   0.691  0.00  0.00    -0.004 A 
ATOM      5  C6  UNL d   1      -1.183  -1.610   1.300  0.00  0.00     0.002 A 
ATOM      6  C7  UNL d   1      -0.946  -0.303   0.872  0.00  0.00     0.002 A 
ENDROOT
BRANCH   1   7
ATOM      7  C1  UNL d   1       0.174   1.357  -0.664  0.00  0.00     0.055 C 
ATOM      8  C   UNL d   1       0.619   2.278   0.462  0.00  0.00     0.019 C 
ENDBRANCH   1   7
TORSDOF 1
ENDMDL
