MODEL 1
REMARK minimizedAffinity -5.84290504
REMARK minimizedRMSD -1
REMARK  1 active torsions:
REMARK  status: ('A' for Active; 'I' for Inactive)
REMARK    1  A    between atoms: C1_2  and  C2_3 
ROOT
ATOM      1  C2  UNL d   1       0.156  -0.191  -0.182  0.00  0.00    -0.077 A 
ATOM      2  C3  UNL d   1       0.706  -0.990  -1.193  0.00  0.00     0.002 A 
ATOM      3  C4  UNL d   1       0.732  -2.380  -1.060  0.00  0.00     0.002 A 
ATOM      4  C5  UNL d   1       0.205  -2.981   0.081  0.00  0.00    -0.004 A 
ATOM      5  C6  UNL d   1      -0.343  -2.195   1.094  0.00  0.00     0.002 A 
ATOM      6  C7  UNL d   1      -0.368  -0.806   0.962  0.00  0.00     0.002 A 
ENDROOT
BRANCH   1   7
ATOM      7  C1  UNL d   1       0.082   1.305  -0.346  0.00  0.00     0.055 C 
ATOM      8  C   UNL d   1       1.312   1.987   0.235  0.00  0.00     0.019 C 
ENDBRANCH   1   7
TORSDOF 1
ENDMDL
