MODEL 1
REMARK minimizedAffinity -5.02169943
REMARK minimizedRMSD -1
REMARK  1 active torsions:
REMARK  status: ('A' for Active; 'I' for Inactive)
REMARK    1  A    between atoms: C1_2  and  C2_3 
ROOT
ATOM      1  C2  UNL d   1       0.353  -0.891   0.358  0.00  0.00    -0.077 A 
ATOM      2  C3  UNL d   1       0.437  -2.245   0.005  0.00  0.00     0.002 A 
ATOM      3  C4  UNL d   1      -0.595  -3.126   0.336  0.00  0.00     0.002 A 
ATOM      4  C5  UNL d   1      -1.718  -2.662   1.018  0.00  0.00    -0.004 A 
ATOM      5  C6  UNL d   1      -1.809  -1.318   1.376  0.00  0.00     0.002 A 
ATOM      6  C7  UNL d   1      -0.779  -0.436   1.047  0.00  0.00     0.002 A 
ENDROOT
BRANCH   1   7
ATOM      7  C1  UNL d   1       1.442   0.071  -0.041  0.00  0.00     0.055 C 
ATOM      8  C   UNL d   1       0.922   1.500  -0.103  0.00  0.00     0.019 C 
ENDBRANCH   1   7
TORSDOF 1
ENDMDL
