MODEL 1
REMARK minimizedAffinity -4.53306961
REMARK minimizedRMSD -1
REMARK  1 active torsions:
REMARK  status: ('A' for Active; 'I' for Inactive)
REMARK    1  A    between atoms: N_2  and  C1_3 
ROOT
ATOM      1  C1  UNL d   1      -0.169  -0.617  -0.138  0.00  0.00     0.143 A 
ATOM      2  C2  UNL d   1       1.153  -0.252  -0.414  0.00  0.00    -0.057 A 
ATOM      3  C3  UNL d   1       1.755   0.836   0.229  0.00  0.00     0.033 A 
ATOM      4  C4  UNL d   1       1.034   1.599   1.141  0.00  0.00    -0.042 A 
ATOM      5  C5  UNL d   1      -0.290   1.271   1.412  0.00  0.00     0.033 A 
ATOM      6  C6  UNL d   1      -0.884   0.179   0.771  0.00  0.00    -0.057 A 
ENDROOT
BRANCH   1   7
ATOM      7  N   UNL d   1      -0.855  -1.627  -0.816  0.00  0.00    -0.732 N 
ATOM      8  C   UNL d   1      -1.397  -1.392  -2.137  0.00  0.00     0.284 C 
ATOM      9  H3  UNL d   1      -0.416  -2.538  -0.703  0.00  0.00     0.395 HD
ENDBRANCH   1   7
TORSDOF 1
ENDMDL
