MODEL 1
REMARK minimizedAffinity -2.02492285
REMARK minimizedRMSD -1
REMARK  1 active torsions:
REMARK  status: ('A' for Active; 'I' for Inactive)
REMARK    1  A    between atoms: N_2  and  C1_3 
ROOT
ATOM      1  C1  UNL d   1       0.039  -0.267  -0.382  0.00  0.00     0.143 A 
ATOM      2  C2  UNL d   1       1.248   0.412  -0.200  0.00  0.00    -0.057 A 
ATOM      3  C3  UNL d   1       1.378   1.419   0.764  0.00  0.00     0.033 A 
ATOM      4  C4  UNL d   1       0.288   1.785   1.546  0.00  0.00    -0.042 A 
ATOM      5  C5  UNL d   1      -0.931   1.142   1.365  0.00  0.00     0.033 A 
ATOM      6  C6  UNL d   1      -1.052   0.132   0.405  0.00  0.00    -0.057 A 
ENDROOT
BRANCH   1   7
ATOM      7  N   UNL d   1      -0.181  -1.208  -1.391  0.00  0.00    -0.732 N 
ATOM      8  C   UNL d   1      -1.526  -1.547  -1.803  0.00  0.00     0.284 C 
ATOM      9  H3  UNL d   1       0.479  -1.115  -2.160  0.00  0.00     0.395 HD
ENDBRANCH   1   7
TORSDOF 1
ENDMDL
