MODEL 1
REMARK minimizedAffinity -2.20349932
REMARK minimizedRMSD -1
REMARK  1 active torsions:
REMARK  status: ('A' for Active; 'I' for Inactive)
REMARK    1  A    between atoms: N_2  and  C1_3 
ROOT
ATOM      1  C1  UNL d   1       0.096   0.534   1.023  0.00  0.00     0.143 A 
ATOM      2  C2  UNL d   1       0.933   0.562  -0.098  0.00  0.00    -0.057 A 
ATOM      3  C3  UNL d   1       1.832   1.615  -0.307  0.00  0.00     0.033 A 
ATOM      4  C4  UNL d   1       1.890   2.677   0.590  0.00  0.00    -0.042 A 
ATOM      5  C5  UNL d   1       1.049   2.682   1.698  0.00  0.00     0.033 A 
ATOM      6  C6  UNL d   1       0.158   1.625   1.904  0.00  0.00    -0.057 A 
ENDROOT
BRANCH   1   7
ATOM      7  N   UNL d   1      -0.888  -0.435   1.235  0.00  0.00    -0.732 N 
ATOM      8  C   UNL d   1      -2.081  -0.120   1.991  0.00  0.00     0.284 C 
ATOM      9  H3  UNL d   1      -1.058  -1.003   0.408  0.00  0.00     0.395 HD
ENDBRANCH   1   7
TORSDOF 1
ENDMDL
