MODEL 1
REMARK minimizedAffinity -2.98254704
REMARK minimizedRMSD -1
REMARK  1 active torsions:
REMARK  status: ('A' for Active; 'I' for Inactive)
REMARK    1  A    between atoms: N_2  and  C1_3 
ROOT
ATOM      1  C1  UNL d   1      -0.010   0.007  -0.513  0.00  0.00     0.143 A 
ATOM      2  C2  UNL d   1      -1.029   0.567   0.266  0.00  0.00    -0.057 A 
ATOM      3  C3  UNL d   1      -0.744   1.487   1.281  0.00  0.00     0.033 A 
ATOM      4  C4  UNL d   1       0.572   1.844   1.556  0.00  0.00    -0.042 A 
ATOM      5  C5  UNL d   1       1.602   1.281   0.812  0.00  0.00     0.033 A 
ATOM      6  C6  UNL d   1       1.311   0.368  -0.206  0.00  0.00    -0.057 A 
ENDROOT
BRANCH   1   7
ATOM      7  N   UNL d   1      -0.221  -0.987  -1.472  0.00  0.00    -0.732 N 
ATOM      8  C   UNL d   1      -1.486  -1.084  -2.167  0.00  0.00     0.284 C 
ATOM      9  H3  UNL d   1       0.592  -1.133  -2.065  0.00  0.00     0.395 HD
ENDBRANCH   1   7
TORSDOF 1
ENDMDL
