MODEL 1
REMARK minimizedAffinity -2.53581214
REMARK minimizedRMSD -1
REMARK  1 active torsions:
REMARK  status: ('A' for Active; 'I' for Inactive)
REMARK    1  A    between atoms: N_2  and  C1_3 
ROOT
ATOM      1  C1  UNL d   1       0.220  -0.066  -0.117  0.00  0.00     0.143 A 
ATOM      2  C2  UNL d   1      -0.578   0.423   0.923  0.00  0.00    -0.057 A 
ATOM      3  C3  UNL d   1      -0.252   1.608   1.593  0.00  0.00     0.033 A 
ATOM      4  C4  UNL d   1       0.898   2.313   1.253  0.00  0.00    -0.042 A 
ATOM      5  C5  UNL d   1       1.720   1.832   0.239  0.00  0.00     0.033 A 
ATOM      6  C6  UNL d   1       1.385   0.652  -0.431  0.00  0.00    -0.057 A 
ENDROOT
BRANCH   1   7
ATOM      7  N   UNL d   1       0.003  -1.289  -0.755  0.00  0.00    -0.732 N 
ATOM      8  C   UNL d   1      -1.122  -1.466  -1.648  0.00  0.00     0.284 C 
ATOM      9  H3  UNL d   1       0.867  -1.714  -1.086  0.00  0.00     0.395 HD
ENDBRANCH   1   7
TORSDOF 1
ENDMDL
