MODEL 1
REMARK minimizedAffinity -4.75948811
REMARK minimizedRMSD -1
REMARK  1 active torsions:
REMARK  status: ('A' for Active; 'I' for Inactive)
REMARK    1  A    between atoms: N_2  and  C1_3 
ROOT
ATOM      1  C1  UNL d   1       0.074   0.095  -0.021  0.00  0.00     0.143 A 
ATOM      2  C2  UNL d   1       0.851   1.175  -0.453  0.00  0.00    -0.057 A 
ATOM      3  C3  UNL d   1       0.926   2.359   0.290  0.00  0.00     0.033 A 
ATOM      4  C4  UNL d   1       0.199   2.494   1.469  0.00  0.00    -0.042 A 
ATOM      5  C5  UNL d   1      -0.599   1.443   1.905  0.00  0.00     0.033 A 
ATOM      6  C6  UNL d   1      -0.664   0.260   1.161  0.00  0.00    -0.057 A 
ENDROOT
BRANCH   1   7
ATOM      7  N   UNL d   1      -0.119  -1.072  -0.766  0.00  0.00    -0.732 N 
ATOM      8  C   UNL d   1      -1.374  -1.313  -1.445  0.00  0.00     0.284 C 
ATOM      9  H3  UNL d   1       0.703  -1.327  -1.308  0.00  0.00     0.395 HD
ENDBRANCH   1   7
TORSDOF 1
ENDMDL
