MODEL 1
REMARK minimizedAffinity -4.48439407
REMARK minimizedRMSD -1
REMARK  1 active torsions:
REMARK  status: ('A' for Active; 'I' for Inactive)
REMARK    1  A    between atoms: N_2  and  C1_3 
ROOT
ATOM      1  C1  UNL d   1      -0.090   0.263   0.198  0.00  0.00     0.143 A 
ATOM      2  C2  UNL d   1      -0.279   0.635   1.533  0.00  0.00    -0.057 A 
ATOM      3  C3  UNL d   1       0.115   1.895   1.999  0.00  0.00     0.033 A 
ATOM      4  C4  UNL d   1       0.734   2.798   1.140  0.00  0.00    -0.042 A 
ATOM      5  C5  UNL d   1       0.955   2.440  -0.185  0.00  0.00     0.033 A 
ATOM      6  C6  UNL d   1       0.553   1.183  -0.645  0.00  0.00    -0.057 A 
ENDROOT
BRANCH   1   7
ATOM      7  N   UNL d   1      -0.370  -1.011  -0.302  0.00  0.00    -0.732 N 
ATOM      8  C   UNL d   1      -1.050  -1.173  -1.569  0.00  0.00     0.284 C 
ATOM      9  H3  UNL d   1       0.397  -1.663  -0.155  0.00  0.00     0.395 HD
ENDBRANCH   1   7
TORSDOF 1
ENDMDL
