MODEL 1
REMARK minimizedAffinity -4.90457106
REMARK minimizedRMSD -1
REMARK  1 active torsions:
REMARK  status: ('A' for Active; 'I' for Inactive)
REMARK    1  A    between atoms: N_2  and  C1_3 
ROOT
ATOM      1  C1  UNL d   1      -0.529  -0.163  -0.073  0.00  0.00     0.143 A 
ATOM      2  C2  UNL d   1      -1.185   0.489   0.976  0.00  0.00    -0.057 A 
ATOM      3  C3  UNL d   1      -0.569   1.528   1.683  0.00  0.00     0.033 A 
ATOM      4  C4  UNL d   1       0.730   1.915   1.371  0.00  0.00    -0.042 A 
ATOM      5  C5  UNL d   1       1.411   1.263   0.349  0.00  0.00     0.033 A 
ATOM      6  C6  UNL d   1       0.788   0.231  -0.358  0.00  0.00    -0.057 A 
ENDROOT
BRANCH   1   7
ATOM      7  N   UNL d   1      -1.051  -1.269  -0.750  0.00  0.00    -0.732 N 
ATOM      8  C   UNL d   1      -1.484  -1.154  -2.126  0.00  0.00     0.284 C 
ATOM      9  H3  UNL d   1      -0.543  -2.126  -0.543  0.00  0.00     0.395 HD
ENDBRANCH   1   7
TORSDOF 1
ENDMDL
