MODEL 1
REMARK minimizedAffinity -5.07091665
REMARK minimizedRMSD -1
REMARK  1 active torsions:
REMARK  status: ('A' for Active; 'I' for Inactive)
REMARK    1  A    between atoms: N_2  and  C1_3 
ROOT
ATOM      1  C1  UNL d   1       0.227  -0.369  -0.067  0.00  0.00     0.143 A 
ATOM      2  C2  UNL d   1       1.319   0.502  -0.150  0.00  0.00    -0.057 A 
ATOM      3  C3  UNL d   1       1.400   1.643   0.656  0.00  0.00     0.033 A 
ATOM      4  C4  UNL d   1       0.374   1.950   1.544  0.00  0.00    -0.042 A 
ATOM      5  C5  UNL d   1      -0.732   1.112   1.626  0.00  0.00     0.033 A 
ATOM      6  C6  UNL d   1      -0.805  -0.030   0.822  0.00  0.00    -0.057 A 
ENDROOT
BRANCH   1   7
ATOM      7  N   UNL d   1       0.041  -1.467  -0.911  0.00  0.00    -0.732 N 
ATOM      8  C   UNL d   1      -1.290  -1.874  -1.308  0.00  0.00     0.284 C 
ATOM      9  H3  UNL d   1       0.728  -1.500  -1.661  0.00  0.00     0.395 HD
ENDBRANCH   1   7
TORSDOF 1
ENDMDL
