MODEL 1
REMARK minimizedAffinity -2.88798118
REMARK minimizedRMSD -1
REMARK  1 active torsions:
REMARK  status: ('A' for Active; 'I' for Inactive)
REMARK    1  A    between atoms: N_2  and  C1_3 
ROOT
ATOM      1  C1  UNL d   1      -0.428  -0.993  -0.755  0.00  0.00     0.143 A 
ATOM      2  C2  UNL d   1       0.924  -1.345  -0.673  0.00  0.00    -0.057 A 
ATOM      3  C3  UNL d   1       1.899  -0.403  -0.322  0.00  0.00     0.033 A 
ATOM      4  C4  UNL d   1       1.541   0.918  -0.074  0.00  0.00    -0.042 A 
ATOM      5  C5  UNL d   1       0.207   1.296  -0.175  0.00  0.00     0.033 A 
ATOM      6  C6  UNL d   1      -0.763   0.349  -0.519  0.00  0.00    -0.057 A 
ENDROOT
BRANCH   1   7
ATOM      7  N   UNL d   1      -1.431  -1.860  -1.195  0.00  0.00    -0.732 N 
ATOM      8  C   UNL d   1      -2.017  -1.703  -2.509  0.00  0.00     0.284 C 
ATOM      9  H3  UNL d   1      -1.252  -2.826  -0.933  0.00  0.00     0.395 HD
ENDBRANCH   1   7
TORSDOF 1
ENDMDL
