MODEL 1
REMARK minimizedAffinity -3.74188423
REMARK minimizedRMSD -1
REMARK  1 active torsions:
REMARK  status: ('A' for Active; 'I' for Inactive)
REMARK    1  A    between atoms: N_2  and  C1_3 
ROOT
ATOM      1  C1  UNL d   1      -0.182   0.149   0.118  0.00  0.00     0.143 A 
ATOM      2  C2  UNL d   1      -0.697   1.330   0.665  0.00  0.00    -0.057 A 
ATOM      3  C3  UNL d   1       0.146   2.381   1.046  0.00  0.00     0.033 A 
ATOM      4  C4  UNL d   1       1.525   2.257   0.914  0.00  0.00    -0.042 A 
ATOM      5  C5  UNL d   1       2.060   1.083   0.396  0.00  0.00     0.033 A 
ATOM      6  C6  UNL d   1       1.213   0.039   0.011  0.00  0.00    -0.057 A 
ENDROOT
BRANCH   1   7
ATOM      7  N   UNL d   1      -0.961  -0.970  -0.188  0.00  0.00    -0.732 N 
ATOM      8  C   UNL d   1      -1.422  -1.199  -1.541  0.00  0.00     0.284 C 
ATOM      9  H3  UNL d   1      -0.640  -1.809   0.289  0.00  0.00     0.395 HD
ENDBRANCH   1   7
TORSDOF 1
ENDMDL
