MODEL 1
REMARK minimizedAffinity -5.65212059
REMARK minimizedRMSD -1
REMARK  1 active torsions:
REMARK  status: ('A' for Active; 'I' for Inactive)
REMARK    1  A    between atoms: N_2  and  C1_3 
ROOT
ATOM      1  C1  UNL d   1       1.224   0.754   0.187  0.00  0.00     0.143 A 
ATOM      2  C2  UNL d   1       0.380   1.590   0.926  0.00  0.00    -0.057 A 
ATOM      3  C3  UNL d   1       0.861   2.758   1.529  0.00  0.00     0.033 A 
ATOM      4  C4  UNL d   1       2.206   3.097   1.428  0.00  0.00    -0.042 A 
ATOM      5  C5  UNL d   1       3.069   2.268   0.720  0.00  0.00     0.033 A 
ATOM      6  C6  UNL d   1       2.581   1.106   0.114  0.00  0.00    -0.057 A 
ENDROOT
BRANCH   1   7
ATOM      7  N   UNL d   1       0.827  -0.471  -0.353  0.00  0.00    -0.732 N 
ATOM      8  C   UNL d   1      -0.325  -1.171   0.174  0.00  0.00     0.284 C 
ATOM      9  H3  UNL d   1       0.895  -0.489  -1.368  0.00  0.00     0.395 HD
ENDBRANCH   1   7
TORSDOF 1
ENDMDL
