MODEL 1
REMARK minimizedAffinity 14.1937246
REMARK minimizedRMSD -1
REMARK  0 active torsions:
REMARK  status: ('A' for Active; 'I' for Inactive)
ROOT
ATOM      1  C2' OXE d   1      -5.401   5.082   0.620  0.00  0.00     0.078 C 
ATOM      2  C1' OXE d   1      -4.554   2.695   1.831  0.00  0.00     0.078 C 
ATOM      3  C1  OXE d   1      -5.072   3.793   2.726  0.00  0.00    -0.078 A 
ATOM      4  C2  OXE d   1      -5.440   4.974   2.129  0.00  0.00    -0.078 A 
ATOM      5  C3  OXE d   1      -5.976   6.000   2.903  0.00  0.00     0.003 A 
ATOM      6  C4  OXE d   1      -6.000   5.896   4.299  0.00  0.00    -0.002 A 
ATOM      7  C5  OXE d   1      -5.592   4.716   4.931  0.00  0.00    -0.002 A 
ATOM      8  C6  OXE d   1      -5.166   3.642   4.157  0.00  0.00     0.003 A 
ENDROOT
TORSDOF 0
ENDMDL
