MODEL 1
REMARK minimizedAffinity 5.06867695
REMARK minimizedRMSD -1
REMARK  0 active torsions:
REMARK  status: ('A' for Active; 'I' for Inactive)
ROOT
ATOM      1  C2' OXE d   1       4.057   1.059   1.002  0.00  0.00     0.078 C 
ATOM      2  C1' OXE d   1       3.427  -1.522   1.909  0.00  0.00     0.078 C 
ATOM      3  C1  OXE d   1       2.891  -1.098   0.564  0.00  0.00    -0.078 A 
ATOM      4  C2  OXE d   1       3.165   0.183   0.149  0.00  0.00    -0.078 A 
ATOM      5  C3  OXE d   1       2.741   0.607  -1.107  0.00  0.00     0.003 A 
ATOM      6  C4  OXE d   1       1.908  -0.206  -1.885  0.00  0.00    -0.002 A 
ATOM      7  C5  OXE d   1       1.583  -1.500  -1.464  0.00  0.00    -0.002 A 
ATOM      8  C6  OXE d   1       2.100  -1.975  -0.264  0.00  0.00     0.003 A 
ENDROOT
TORSDOF 0
ENDMDL
