MODEL 1
REMARK minimizedAffinity 12.3123217
REMARK minimizedRMSD -1
REMARK  0 active torsions:
REMARK  status: ('A' for Active; 'I' for Inactive)
ROOT
ATOM      1  C2' OXE d   1       4.506  -0.207   2.269  0.00  0.00     0.078 C 
ATOM      2  C1' OXE d   1       2.234  -1.814   1.906  0.00  0.00     0.078 C 
ATOM      3  C1  OXE d   1       2.453  -0.677   0.939  0.00  0.00    -0.078 A 
ATOM      4  C2  OXE d   1       3.542   0.132   1.152  0.00  0.00    -0.078 A 
ATOM      5  C3  OXE d   1       3.822   1.162   0.258  0.00  0.00     0.003 A 
ATOM      6  C4  OXE d   1       2.920   1.475  -0.766  0.00  0.00    -0.002 A 
ATOM      7  C5  OXE d   1       1.783   0.687  -0.977  0.00  0.00    -0.002 A 
ATOM      8  C6  OXE d   1       1.558  -0.416  -0.161  0.00  0.00     0.003 A 
ENDROOT
TORSDOF 0
ENDMDL
