MODEL 1
REMARK minimizedAffinity 7.547719
REMARK minimizedRMSD -1
REMARK  0 active torsions:
REMARK  status: ('A' for Active; 'I' for Inactive)
ROOT
ATOM      1  C2' OXE d   1      -5.326   5.919   5.286  0.00  0.00     0.078 C 
ATOM      2  C1' OXE d   1      -2.614   5.605   4.630  0.00  0.00     0.078 C 
ATOM      3  C1  OXE d   1      -3.629   4.846   3.811  0.00  0.00    -0.078 A 
ATOM      4  C2  OXE d   1      -4.950   4.970   4.169  0.00  0.00    -0.078 A 
ATOM      5  C3  OXE d   1      -5.931   4.335   3.413  0.00  0.00     0.003 A 
ATOM      6  C4  OXE d   1      -5.574   3.450   2.387  0.00  0.00    -0.002 A 
ATOM      7  C5  OXE d   1      -4.232   3.280   2.033  0.00  0.00    -0.002 A 
ATOM      8  C6  OXE d   1      -3.252   4.001   2.705  0.00  0.00     0.003 A 
ENDROOT
TORSDOF 0
ENDMDL
