MODEL 1
REMARK minimizedAffinity 9.63421822
REMARK minimizedRMSD -1
REMARK  0 active torsions:
REMARK  status: ('A' for Active; 'I' for Inactive)
ROOT
ATOM      1  C2' OXE d   1      -1.501   0.005  -3.706  0.00  0.00     0.078 C 
ATOM      2  C1' OXE d   1      -3.753  -0.867  -2.275  0.00  0.00     0.078 C 
ATOM      3  C1  OXE d   1      -3.984  -0.161  -3.588  0.00  0.00    -0.078 A 
ATOM      4  C2  OXE d   1      -2.878   0.303  -4.259  0.00  0.00    -0.078 A 
ATOM      5  C3  OXE d   1      -3.032   0.913  -5.501  0.00  0.00     0.003 A 
ATOM      6  C4  OXE d   1      -4.309   1.194  -6.000  0.00  0.00    -0.002 A 
ATOM      7  C5  OXE d   1      -5.450   0.764  -5.313  0.00  0.00    -0.002 A 
ATOM      8  C6  OXE d   1      -5.304   0.050  -4.129  0.00  0.00     0.003 A 
ENDROOT
TORSDOF 0
ENDMDL
