MODEL 1
REMARK minimizedAffinity 6.69600821
REMARK minimizedRMSD -1
REMARK  0 active torsions:
REMARK  status: ('A' for Active; 'I' for Inactive)
ROOT
ATOM      1  C2' OXE d   1       4.146   1.530   0.905  0.00  0.00     0.078 C 
ATOM      2  C1' OXE d   1       3.830  -1.147   1.690  0.00  0.00     0.078 C 
ATOM      3  C1  OXE d   1       2.968  -0.638   0.562  0.00  0.00    -0.078 A 
ATOM      4  C2  OXE d   1       3.096   0.686   0.216  0.00  0.00    -0.078 A 
ATOM      5  C3  OXE d   1       2.363   1.192  -0.854  0.00  0.00     0.003 A 
ATOM      6  C4  OXE d   1       1.387   0.408  -1.480  0.00  0.00    -0.002 A 
ATOM      7  C5  OXE d   1       1.213  -0.932  -1.116  0.00  0.00    -0.002 A 
ATOM      8  C6  OXE d   1       2.023  -1.481  -0.128  0.00  0.00     0.003 A 
ENDROOT
TORSDOF 0
ENDMDL
