MODEL 1
REMARK minimizedAffinity 8.43999672
REMARK minimizedRMSD -1
REMARK  0 active torsions:
REMARK  status: ('A' for Active; 'I' for Inactive)
ROOT
ATOM      1  C2' OXE d   1       2.231  -1.758   1.113  0.00  0.00     0.078 C 
ATOM      2  C1' OXE d   1       1.457  -0.819  -1.416  0.00  0.00     0.078 C 
ATOM      3  C1  OXE d   1       2.430   0.017  -0.623  0.00  0.00    -0.078 A 
ATOM      4  C2  OXE d   1       2.767  -0.427   0.633  0.00  0.00    -0.078 A 
ATOM      5  C3  OXE d   1       3.703   0.278   1.385  0.00  0.00     0.003 A 
ATOM      6  C4  OXE d   1       4.186   1.514   0.938  0.00  0.00    -0.002 A 
ATOM      7  C5  OXE d   1       3.825   2.004  -0.322  0.00  0.00    -0.002 A 
ATOM      8  C6  OXE d   1       2.983   1.249  -1.131  0.00  0.00     0.003 A 
ENDROOT
TORSDOF 0
ENDMDL
