MODEL 1
REMARK minimizedAffinity 6.38523054
REMARK minimizedRMSD -1
REMARK  0 active torsions:
REMARK  status: ('A' for Active; 'I' for Inactive)
ROOT
ATOM      1  C2' OXE d   1      -5.949   4.318   3.332  0.00  0.00     0.078 C 
ATOM      2  C1' OXE d   1      -5.999   5.283   5.968  0.00  0.00     0.078 C 
ATOM      3  C1  OXE d   1      -4.703   5.391   5.203  0.00  0.00    -0.078 A 
ATOM      4  C2  OXE d   1      -4.675   4.874   3.930  0.00  0.00    -0.078 A 
ATOM      5  C3  OXE d   1      -3.521   4.997   3.162  0.00  0.00     0.003 A 
ATOM      6  C4  OXE d   1      -2.344   5.504   3.726  0.00  0.00    -0.002 A 
ATOM      7  C5  OXE d   1      -2.340   5.999   5.035  0.00  0.00    -0.002 A 
ATOM      8  C6  OXE d   1      -3.520   5.990   5.771  0.00  0.00     0.003 A 
ENDROOT
TORSDOF 0
ENDMDL
