MODEL 1
REMARK minimizedAffinity 8.08357239
REMARK minimizedRMSD -1
REMARK  0 active torsions:
REMARK  status: ('A' for Active; 'I' for Inactive)
ROOT
ATOM      1  C2' OXE d   1      -3.441   6.000   5.973  0.00  0.00     0.078 C 
ATOM      2  C1' OXE d   1      -5.999   4.843   5.998  0.00  0.00     0.078 C 
ATOM      3  C1  OXE d   1      -5.294   4.964   4.670  0.00  0.00    -0.078 A 
ATOM      4  C2  OXE d   1      -4.063   5.574   4.660  0.00  0.00    -0.078 A 
ATOM      5  C3  OXE d   1      -3.347   5.662   3.470  0.00  0.00     0.003 A 
ATOM      6  C4  OXE d   1      -3.933   5.275   2.259  0.00  0.00    -0.002 A 
ATOM      7  C5  OXE d   1      -5.203   4.688   2.241  0.00  0.00    -0.002 A 
ATOM      8  C6  OXE d   1      -5.878   4.487   3.441  0.00  0.00     0.003 A 
ENDROOT
TORSDOF 0
ENDMDL
