MODEL 1
REMARK minimizedAffinity 7.9792676
REMARK minimizedRMSD -1
REMARK  0 active torsions:
REMARK  status: ('A' for Active; 'I' for Inactive)
ROOT
ATOM      1  C2' OXE d   1       0.751   0.302   1.531  0.00  0.00     0.078 C 
ATOM      2  C1' OXE d   1       0.017   0.683  -1.152  0.00  0.00     0.078 C 
ATOM      3  C1  OXE d   1       1.483   0.505  -0.842  0.00  0.00    -0.078 A 
ATOM      4  C2  OXE d   1       1.837   0.366   0.479  0.00  0.00    -0.078 A 
ATOM      5  C3  OXE d   1       3.169   0.144   0.815  0.00  0.00     0.003 A 
ATOM      6  C4  OXE d   1       4.169   0.215  -0.163  0.00  0.00    -0.002 A 
ATOM      7  C5  OXE d   1       3.833   0.395  -1.509  0.00  0.00    -0.002 A 
ATOM      8  C6  OXE d   1       2.494   0.499  -1.869  0.00  0.00     0.003 A 
ENDROOT
TORSDOF 0
ENDMDL
