MODEL 1
REMARK minimizedAffinity 7.21284914
REMARK minimizedRMSD -1
REMARK  0 active torsions:
REMARK  status: ('A' for Active; 'I' for Inactive)
ROOT
ATOM      1  C2' OXE d   1       3.742   1.475   1.352  0.00  0.00     0.078 C 
ATOM      2  C1' OXE d   1       3.848   1.330  -1.450  0.00  0.00     0.078 C 
ATOM      3  C1  OXE d   1       3.142   0.219  -0.714  0.00  0.00    -0.078 A 
ATOM      4  C2  OXE d   1       3.135   0.274   0.659  0.00  0.00    -0.078 A 
ATOM      5  C3  OXE d   1       2.450  -0.697   1.384  0.00  0.00     0.003 A 
ATOM      6  C4  OXE d   1       1.900  -1.809   0.736  0.00  0.00    -0.002 A 
ATOM      7  C5  OXE d   1       1.930  -1.905  -0.659  0.00  0.00    -0.002 A 
ATOM      8  C6  OXE d   1       2.509  -0.880  -1.400  0.00  0.00     0.003 A 
ENDROOT
TORSDOF 0
ENDMDL
