MODEL 1
REMARK minimizedAffinity 12.694396
REMARK minimizedRMSD -1
REMARK  0 active torsions:
REMARK  status: ('A' for Active; 'I' for Inactive)
ROOT
ATOM      1  C2' OXE d   1       1.325  -0.898  -1.384  0.00  0.00     0.078 C 
ATOM      2  C1' OXE d   1       2.042  -0.976   1.329  0.00  0.00     0.078 C 
ATOM      3  C1  OXE d   1       2.753   0.014   0.442  0.00  0.00    -0.078 A 
ATOM      4  C2  OXE d   1       2.430   0.013  -0.894  0.00  0.00    -0.078 A 
ATOM      5  C3  OXE d   1       3.017   0.944  -1.746  0.00  0.00     0.003 A 
ATOM      6  C4  OXE d   1       4.044   1.777  -1.287  0.00  0.00    -0.002 A 
ATOM      7  C5  OXE d   1       4.418   1.766   0.062  0.00  0.00    -0.002 A 
ATOM      8  C6  OXE d   1       3.754   0.922   0.946  0.00  0.00     0.003 A 
ENDROOT
TORSDOF 0
ENDMDL
