MODEL 1
REMARK minimizedAffinity 5.04392767
REMARK minimizedRMSD -1
REMARK  0 active torsions:
REMARK  status: ('A' for Active; 'I' for Inactive)
ROOT
ATOM      1  C2' OXE d   1      -4.918   5.926   6.000  0.00  0.00     0.078 C 
ATOM      2  C1' OXE d   1      -2.552   5.999   4.491  0.00  0.00     0.078 C 
ATOM      3  C1  OXE d   1      -3.729   5.250   3.918  0.00  0.00    -0.078 A 
ATOM      4  C2  OXE d   1      -4.867   5.180   4.684  0.00  0.00    -0.078 A 
ATOM      5  C3  OXE d   1      -6.000   4.547   4.179  0.00  0.00     0.003 A 
ATOM      6  C4  OXE d   1      -5.941   3.851   2.966  0.00  0.00    -0.002 A 
ATOM      7  C5  OXE d   1      -4.779   3.876   2.188  0.00  0.00    -0.002 A 
ATOM      8  C6  OXE d   1      -3.680   4.605   2.629  0.00  0.00     0.003 A 
ENDROOT
TORSDOF 0
ENDMDL
