MODEL 1
REMARK minimizedAffinity 25.2355785
REMARK minimizedRMSD -1
REMARK  0 active torsions:
REMARK  status: ('A' for Active; 'I' for Inactive)
ROOT
ATOM      1  C   UNL d   1      -2.975  -0.845   0.839  0.00  0.00     0.124 A 
ATOM      2  C1  UNL d   1      -2.347  -1.976   0.335  0.00  0.00     0.062 A 
ATOM      3  C2  UNL d   1      -1.084  -2.338   0.794  0.00  0.00     0.162 A 
ATOM      4  C3  UNL d   1      -0.440  -1.568   1.763  0.00  0.00    -0.034 A 
ATOM      5  C4  UNL d   1      -1.078  -0.432   2.264  0.00  0.00     0.162 A 
ATOM      6  C5  UNL d   1      -2.340  -0.074   1.802  0.00  0.00     0.062 A 
ATOM      7  F   UNL d   1      -2.945   1.019   2.289  0.00  0.00    -0.097 F 
ATOM      8  F1  UNL d   1      -0.487   0.331   3.196  0.00  0.00    -0.096 F 
ATOM      9  I   UNL d   1       1.449  -2.106   2.452  0.00  0.00    -0.060 I 
ATOM     10  F2  UNL d   1      -0.501  -3.435   0.290  0.00  0.00    -0.096 F 
ATOM     11  F3  UNL d   1      -2.958  -2.722  -0.596  0.00  0.00    -0.097 F 
ATOM     12  F4  UNL d   1      -4.190  -0.498   0.394  0.00  0.00    -0.092 F 
ENDROOT
TORSDOF 0
ENDMDL
