MODEL 1
REMARK minimizedAffinity 18.803112
REMARK minimizedRMSD -1
REMARK  0 active torsions:
REMARK  status: ('A' for Active; 'I' for Inactive)
ROOT
ATOM      1  C   UNL d   1       2.726   1.554  -0.924  0.00  0.00     0.124 A 
ATOM      2  C1  UNL d   1       2.626   1.813  -2.284  0.00  0.00     0.062 A 
ATOM      3  C2  UNL d   1       3.558   2.634  -2.911  0.00  0.00     0.162 A 
ATOM      4  C3  UNL d   1       4.600   3.203  -2.178  0.00  0.00    -0.034 A 
ATOM      5  C4  UNL d   1       4.693   2.939  -0.810  0.00  0.00     0.162 A 
ATOM      6  C5  UNL d   1       3.759   2.117  -0.188  0.00  0.00     0.062 A 
ATOM      7  F   UNL d   1       3.857   1.869   1.126  0.00  0.00    -0.097 F 
ATOM      8  F1  UNL d   1       5.682   3.470  -0.076  0.00  0.00    -0.096 F 
ATOM      9  I   UNL d   1       5.996   4.433  -3.111  0.00  0.00    -0.060 I 
ATOM     10  F2  UNL d   1       3.437   2.867  -4.226  0.00  0.00    -0.096 F 
ATOM     11  F3  UNL d   1       1.628   1.270  -2.997  0.00  0.00    -0.097 F 
ATOM     12  F4  UNL d   1       1.827   0.764  -0.323  0.00  0.00    -0.092 F 
ENDROOT
TORSDOF 0
ENDMDL
