MODEL 1
REMARK minimizedAffinity 18.9024868
REMARK minimizedRMSD -1
REMARK  0 active torsions:
REMARK  status: ('A' for Active; 'I' for Inactive)
ROOT
ATOM      1  C   UNL d   1      -0.483  -0.804   2.048  0.00  0.00     0.124 A 
ATOM      2  C1  UNL d   1      -0.371  -0.539   3.406  0.00  0.00     0.062 A 
ATOM      3  C2  UNL d   1      -1.369   0.172   4.065  0.00  0.00     0.162 A 
ATOM      4  C3  UNL d   1      -2.490   0.622   3.368  0.00  0.00    -0.034 A 
ATOM      5  C4  UNL d   1      -2.596   0.353   2.002  0.00  0.00     0.162 A 
ATOM      6  C5  UNL d   1      -1.595  -0.358   1.348  0.00  0.00     0.062 A 
ATOM      7  F   UNL d   1      -1.705  -0.613   0.036  0.00  0.00    -0.097 F 
ATOM      8  F1  UNL d   1      -3.660   0.771   1.301  0.00  0.00    -0.096 F 
ATOM      9  I   UNL d   1      -3.986   1.685   4.350  0.00  0.00    -0.060 I 
ATOM     10  F2  UNL d   1      -1.235   0.414   5.378  0.00  0.00    -0.096 F 
ATOM     11  F3  UNL d   1       0.703  -0.968   4.085  0.00  0.00    -0.097 F 
ATOM     12  F4  UNL d   1       0.480  -1.487   1.416  0.00  0.00    -0.092 F 
ENDROOT
TORSDOF 0
ENDMDL
