MODEL 1
REMARK minimizedAffinity 19.1446247
REMARK minimizedRMSD -1
REMARK  0 active torsions:
REMARK  status: ('A' for Active; 'I' for Inactive)
ROOT
ATOM      1  C   UNL d   1      -0.132  -1.326   3.259  0.00  0.00     0.124 A 
ATOM      2  C1  UNL d   1      -0.944  -0.377   3.865  0.00  0.00     0.062 A 
ATOM      3  C2  UNL d   1      -2.006   0.187   3.163  0.00  0.00     0.162 A 
ATOM      4  C3  UNL d   1      -2.263  -0.198   1.847  0.00  0.00    -0.034 A 
ATOM      5  C4  UNL d   1      -1.441  -1.152   1.244  0.00  0.00     0.162 A 
ATOM      6  C5  UNL d   1      -0.382  -1.713   1.950  0.00  0.00     0.062 A 
ATOM      7  F   UNL d   1       0.402  -2.630   1.363  0.00  0.00    -0.097 F 
ATOM      8  F1  UNL d   1      -1.660  -1.545  -0.020  0.00  0.00    -0.096 F 
ATOM      9  I   UNL d   1      -3.849   0.642   0.794  0.00  0.00    -0.060 I 
ATOM     10  F2  UNL d   1      -2.774   1.102   3.773  0.00  0.00    -0.096 F 
ATOM     11  F3  UNL d   1      -0.705  -0.001   5.129  0.00  0.00    -0.097 F 
ATOM     12  F4  UNL d   1       0.889  -1.866   3.936  0.00  0.00    -0.092 F 
ENDROOT
TORSDOF 0
ENDMDL
