MODEL 1
REMARK minimizedAffinity 32.0752487
REMARK minimizedRMSD -1
REMARK  0 active torsions:
REMARK  status: ('A' for Active; 'I' for Inactive)
ROOT
ATOM      1  C   UNL d   1      -4.054  -3.562   1.351  0.00  0.00     0.124 A 
ATOM      2  C1  UNL d   1      -4.747  -4.689   1.770  0.00  0.00     0.062 A 
ATOM      3  C2  UNL d   1      -5.302  -4.736   3.046  0.00  0.00     0.162 A 
ATOM      4  C3  UNL d   1      -5.168  -3.650   3.912  0.00  0.00    -0.034 A 
ATOM      5  C4  UNL d   1      -4.470  -2.520   3.483  0.00  0.00     0.162 A 
ATOM      6  C5  UNL d   1      -3.917  -2.478   2.208  0.00  0.00     0.062 A 
ATOM      7  F   UNL d   1      -3.248  -1.388   1.805  0.00  0.00    -0.097 F 
ATOM      8  F1  UNL d   1      -4.322  -1.459   4.290  0.00  0.00    -0.096 F 
ATOM      9  I   UNL d   1      -5.997  -3.716   5.819  0.00  0.00    -0.060 I 
ATOM     10  F2  UNL d   1      -5.966  -5.838   3.424  0.00  0.00    -0.096 F 
ATOM     11  F3  UNL d   1      -4.881  -5.737   0.945  0.00  0.00    -0.097 F 
ATOM     12  F4  UNL d   1      -3.520  -3.520   0.124  0.00  0.00    -0.092 F 
ENDROOT
TORSDOF 0
ENDMDL
