MODEL 1
REMARK minimizedAffinity 19.1165161
REMARK minimizedRMSD -1
REMARK  0 active torsions:
REMARK  status: ('A' for Active; 'I' for Inactive)
ROOT
ATOM      1  C   UNL d   1       0.855  -2.688   3.550  0.00  0.00     0.124 A 
ATOM      2  C1  UNL d   1       2.198  -2.364   3.676  0.00  0.00     0.062 A 
ATOM      3  C2  UNL d   1       2.753  -1.360   2.887  0.00  0.00     0.162 A 
ATOM      4  C3  UNL d   1       1.964  -0.672   1.965  0.00  0.00    -0.034 A 
ATOM      5  C4  UNL d   1       0.613  -1.005   1.844  0.00  0.00     0.162 A 
ATOM      6  C5  UNL d   1       0.064  -2.008   2.635  0.00  0.00     0.062 A 
ATOM      7  F   UNL d   1      -1.235  -2.320   2.512  0.00  0.00    -0.097 F 
ATOM      8  F1  UNL d   1      -0.174  -0.363   0.968  0.00  0.00    -0.096 F 
ATOM      9  I   UNL d   1       2.789   0.829   0.784  0.00  0.00    -0.060 I 
ATOM     10  F2  UNL d   1       4.055  -1.068   3.029  0.00  0.00    -0.096 F 
ATOM     11  F3  UNL d   1       2.965  -3.020   4.559  0.00  0.00    -0.097 F 
ATOM     12  F4  UNL d   1       0.324  -3.655   4.309  0.00  0.00    -0.092 F 
ENDROOT
TORSDOF 0
ENDMDL
