MODEL 1
REMARK minimizedAffinity 21.1007919
REMARK minimizedRMSD -1
REMARK  0 active torsions:
REMARK  status: ('A' for Active; 'I' for Inactive)
ROOT
ATOM      1  C   UNL d   1       2.270   1.886  -2.939  0.00  0.00     0.124 A 
ATOM      2  C1  UNL d   1       2.388   1.315  -1.679  0.00  0.00     0.062 A 
ATOM      3  C2  UNL d   1       3.452   1.660  -0.851  0.00  0.00     0.162 A 
ATOM      4  C3  UNL d   1       4.407   2.582  -1.280  0.00  0.00    -0.034 A 
ATOM      5  C4  UNL d   1       4.282   3.152  -2.548  0.00  0.00     0.162 A 
ATOM      6  C5  UNL d   1       3.217   2.804  -3.372  0.00  0.00     0.062 A 
ATOM      7  F   UNL d   1       3.105   3.356  -4.589  0.00  0.00    -0.097 F 
ATOM      8  F1  UNL d   1       5.183   4.041  -2.991  0.00  0.00    -0.096 F 
ATOM      9  I   UNL d   1       6.000   3.100  -0.044  0.00  0.00    -0.060 I 
ATOM     10  F2  UNL d   1       3.541   1.093   0.361  0.00  0.00    -0.096 F 
ATOM     11  F3  UNL d   1       1.475   0.428  -1.259  0.00  0.00    -0.097 F 
ATOM     12  F4  UNL d   1       1.246   1.552  -3.734  0.00  0.00    -0.092 F 
ENDROOT
TORSDOF 0
ENDMDL
