MODEL 1
REMARK minimizedAffinity 22.5884743
REMARK minimizedRMSD -1
REMARK  0 active torsions:
REMARK  status: ('A' for Active; 'I' for Inactive)
ROOT
ATOM      1  C   UNL d   1      -0.404  -0.768   3.582  0.00  0.00     0.124 A 
ATOM      2  C1  UNL d   1      -1.220  -0.278   2.571  0.00  0.00     0.062 A 
ATOM      3  C2  UNL d   1      -1.434  -1.029   1.418  0.00  0.00     0.162 A 
ATOM      4  C3  UNL d   1      -0.832  -2.278   1.270  0.00  0.00    -0.034 A 
ATOM      5  C4  UNL d   1      -0.012  -2.764   2.290  0.00  0.00     0.162 A 
ATOM      6  C5  UNL d   1       0.199  -2.010   3.440  0.00  0.00     0.062 A 
ATOM      7  F   UNL d   1       0.987  -2.485   4.415  0.00  0.00    -0.097 F 
ATOM      8  F1  UNL d   1       0.582  -3.961   2.180  0.00  0.00    -0.096 F 
ATOM      9  I   UNL d   1      -1.149  -3.403  -0.452  0.00  0.00    -0.060 I 
ATOM     10  F2  UNL d   1      -2.227  -0.530   0.458  0.00  0.00    -0.096 F 
ATOM     11  F3  UNL d   1      -1.803   0.922   2.705  0.00  0.00    -0.097 F 
ATOM     12  F4  UNL d   1      -0.199  -0.044   4.689  0.00  0.00    -0.092 F 
ENDROOT
TORSDOF 0
ENDMDL
