MODEL 1
REMARK minimizedAffinity 28.0149193
REMARK minimizedRMSD -1
REMARK  0 active torsions:
REMARK  status: ('A' for Active; 'I' for Inactive)
ROOT
ATOM      1  C   UNL d   1      -2.132  -0.309   1.819  0.00  0.00     0.124 A 
ATOM      2  C1  UNL d   1      -1.464  -1.329   1.155  0.00  0.00     0.062 A 
ATOM      3  C2  UNL d   1      -0.364  -1.945   1.746  0.00  0.00     0.162 A 
ATOM      4  C3  UNL d   1       0.074  -1.544   3.008  0.00  0.00    -0.034 A 
ATOM      5  C4  UNL d   1      -0.603  -0.517   3.669  0.00  0.00     0.162 A 
ATOM      6  C5  UNL d   1      -1.701   0.095   3.074  0.00  0.00     0.062 A 
ATOM      7  F   UNL d   1      -2.346   1.080   3.717  0.00  0.00    -0.097 F 
ATOM      8  F1  UNL d   1      -0.209  -0.107   4.883  0.00  0.00    -0.096 F 
ATOM      9  I   UNL d   1       1.718  -2.463   3.894  0.00  0.00    -0.060 I 
ATOM     10  F2  UNL d   1       0.263  -2.928   1.082  0.00  0.00    -0.096 F 
ATOM     11  F3  UNL d   1      -1.877  -1.721  -0.058  0.00  0.00    -0.097 F 
ATOM     12  F4  UNL d   1      -3.189   0.282   1.248  0.00  0.00    -0.092 F 
ENDROOT
TORSDOF 0
ENDMDL
