MODEL 1
REMARK minimizedAffinity 15.0943584
REMARK minimizedRMSD -1
REMARK  0 active torsions:
REMARK  status: ('A' for Active; 'I' for Inactive)
ROOT
ATOM      1  C   UNL d   1       4.609   4.528  -2.546  0.00  0.00     0.124 A 
ATOM      2  C1  UNL d   1       3.550   5.273  -2.046  0.00  0.00     0.062 A 
ATOM      3  C2  UNL d   1       2.322   5.271  -2.701  0.00  0.00     0.162 A 
ATOM      4  C3  UNL d   1       2.145   4.520  -3.863  0.00  0.00    -0.034 A 
ATOM      5  C4  UNL d   1       3.215   3.775  -4.361  0.00  0.00     0.162 A 
ATOM      6  C5  UNL d   1       4.441   3.780  -3.703  0.00  0.00     0.062 A 
ATOM      7  F   UNL d   1       5.463   3.060  -4.187  0.00  0.00    -0.097 F 
ATOM      8  F1  UNL d   1       3.080   3.042  -5.476  0.00  0.00    -0.096 F 
ATOM      9  I   UNL d   1       0.310   4.514  -4.845  0.00  0.00    -0.060 I 
ATOM     10  F2  UNL d   1       1.316   6.000  -2.195  0.00  0.00    -0.096 F 
ATOM     11  F3  UNL d   1       3.710   5.998  -0.929  0.00  0.00    -0.097 F 
ATOM     12  F4  UNL d   1       5.790   4.533  -1.915  0.00  0.00    -0.092 F 
ENDROOT
TORSDOF 0
ENDMDL
