MODEL 1
REMARK minimizedAffinity 27.1642799
REMARK minimizedRMSD -1
REMARK  0 active torsions:
REMARK  status: ('A' for Active; 'I' for Inactive)
ROOT
ATOM      1  C   UNL d   1       2.032   1.661  -1.926  0.00  0.00     0.124 A 
ATOM      2  C1  UNL d   1       2.379   1.457  -0.598  0.00  0.00     0.062 A 
ATOM      3  C2  UNL d   1       3.512   2.070  -0.069  0.00  0.00     0.162 A 
ATOM      4  C3  UNL d   1       4.305   2.893  -0.868  0.00  0.00    -0.034 A 
ATOM      5  C4  UNL d   1       3.950   3.092  -2.203  0.00  0.00     0.162 A 
ATOM      6  C5  UNL d   1       2.818   2.477  -2.728  0.00  0.00     0.062 A 
ATOM      7  F   UNL d   1       2.484   2.675  -4.011  0.00  0.00    -0.097 F 
ATOM      8  F1  UNL d   1       4.691   3.877  -3.000  0.00  0.00    -0.096 F 
ATOM      9  I   UNL d   1       5.999   3.811  -0.080  0.00  0.00    -0.060 I 
ATOM     10  F2  UNL d   1       3.823   1.856   1.218  0.00  0.00    -0.096 F 
ATOM     11  F3  UNL d   1       1.623   0.668   0.178  0.00  0.00    -0.097 F 
ATOM     12  F4  UNL d   1       0.943   1.069  -2.433  0.00  0.00    -0.092 F 
ENDROOT
TORSDOF 0
ENDMDL
