MODEL 1
REMARK minimizedAffinity 30.5615559
REMARK minimizedRMSD -1
REMARK  0 active torsions:
REMARK  status: ('A' for Active; 'I' for Inactive)
ROOT
ATOM      1  C   UNL d   1      -0.695  -0.710   3.734  0.00  0.00     0.124 A 
ATOM      2  C1  UNL d   1      -0.495  -2.025   4.129  0.00  0.00     0.062 A 
ATOM      3  C2  UNL d   1      -0.449  -3.042   3.179  0.00  0.00     0.162 A 
ATOM      4  C3  UNL d   1      -0.602  -2.747   1.825  0.00  0.00    -0.034 A 
ATOM      5  C4  UNL d   1      -0.804  -1.422   1.435  0.00  0.00     0.162 A 
ATOM      6  C5  UNL d   1      -0.849  -0.409   2.388  0.00  0.00     0.062 A 
ATOM      7  F   UNL d   1      -1.042   0.861   2.004  0.00  0.00    -0.097 F 
ATOM      8  F1  UNL d   1      -0.954  -1.103   0.141  0.00  0.00    -0.096 F 
ATOM      9  I   UNL d   1      -0.534  -4.265   0.402  0.00  0.00    -0.060 I 
ATOM     10  F2  UNL d   1      -0.255  -4.304   3.590  0.00  0.00    -0.096 F 
ATOM     11  F3  UNL d   1      -0.347  -2.318   5.429  0.00  0.00    -0.097 F 
ATOM     12  F4  UNL d   1      -0.739   0.266   4.649  0.00  0.00    -0.092 F 
ENDROOT
TORSDOF 0
ENDMDL
