MODEL 1
REMARK minimizedAffinity 25.5595436
REMARK minimizedRMSD -1
REMARK  0 active torsions:
REMARK  status: ('A' for Active; 'I' for Inactive)
ROOT
ATOM      1  C   UNL d   1      -0.893  -2.231   1.479  0.00  0.00     0.124 A 
ATOM      2  C1  UNL d   1      -0.216  -3.317   0.943  0.00  0.00     0.062 A 
ATOM      3  C2  UNL d   1       1.174  -3.309   0.869  0.00  0.00     0.162 A 
ATOM      4  C3  UNL d   1       1.897  -2.211   1.335  0.00  0.00    -0.034 A 
ATOM      5  C4  UNL d   1       1.210  -1.122   1.872  0.00  0.00     0.162 A 
ATOM      6  C5  UNL d   1      -0.180  -1.135   1.944  0.00  0.00     0.062 A 
ATOM      7  F   UNL d   1      -0.832  -0.084   2.462  0.00  0.00    -0.097 F 
ATOM      8  F1  UNL d   1       1.874  -0.050   2.329  0.00  0.00    -0.096 F 
ATOM      9  I   UNL d   1       3.976  -2.196   1.227  0.00  0.00    -0.060 I 
ATOM     10  F2  UNL d   1       1.802  -4.373   0.346  0.00  0.00    -0.096 F 
ATOM     11  F3  UNL d   1      -0.903  -4.377   0.492  0.00  0.00    -0.097 F 
ATOM     12  F4  UNL d   1      -2.230  -2.240   1.548  0.00  0.00    -0.092 F 
ENDROOT
TORSDOF 0
ENDMDL
