MODEL 1
REMARK minimizedAffinity 18.6129112
REMARK minimizedRMSD -1
REMARK  0 active torsions:
REMARK  status: ('A' for Active; 'I' for Inactive)
ROOT
ATOM      1  C   UNL d   1       0.139  -1.134   1.689  0.00  0.00     0.124 A 
ATOM      2  C1  UNL d   1      -0.594  -2.235   1.268  0.00  0.00     0.062 A 
ATOM      3  C2  UNL d   1       0.053  -3.420   0.930  0.00  0.00     0.162 A 
ATOM      4  C3  UNL d   1       1.443  -3.511   1.013  0.00  0.00    -0.034 A 
ATOM      5  C4  UNL d   1       2.174  -2.400   1.437  0.00  0.00     0.162 A 
ATOM      6  C5  UNL d   1       1.522  -1.218   1.773  0.00  0.00     0.062 A 
ATOM      7  F   UNL d   1       2.232  -0.155   2.179  0.00  0.00    -0.097 F 
ATOM      8  F1  UNL d   1       3.511  -2.453   1.528  0.00  0.00    -0.096 F 
ATOM      9  I   UNL d   1       2.415  -5.281   0.510  0.00  0.00    -0.060 I 
ATOM     10  F2  UNL d   1      -0.681  -4.468   0.527  0.00  0.00    -0.096 F 
ATOM     11  F3  UNL d   1      -1.930  -2.157   1.185  0.00  0.00    -0.097 F 
ATOM     12  F4  UNL d   1      -0.486   0.005   2.012  0.00  0.00    -0.092 F 
ENDROOT
TORSDOF 0
ENDMDL
