MODEL 1
REMARK minimizedAffinity 29.3847008
REMARK minimizedRMSD -1
REMARK  0 active torsions:
REMARK  status: ('A' for Active; 'I' for Inactive)
ROOT
ATOM      1  C   UNL d   1       2.234   2.253  -2.489  0.00  0.00     0.124 A 
ATOM      2  C1  UNL d   1       2.406   1.708  -1.224  0.00  0.00     0.062 A 
ATOM      3  C2  UNL d   1       3.481   2.103  -0.432  0.00  0.00     0.162 A 
ATOM      4  C3  UNL d   1       4.391   3.050  -0.903  0.00  0.00    -0.034 A 
ATOM      5  C4  UNL d   1       4.211   3.592  -2.177  0.00  0.00     0.162 A 
ATOM      6  C5  UNL d   1       3.136   3.194  -2.964  0.00  0.00     0.062 A 
ATOM      7  F   UNL d   1       2.970   3.721  -4.186  0.00  0.00    -0.097 F 
ATOM      8  F1  UNL d   1       5.067   4.504  -2.661  0.00  0.00    -0.096 F 
ATOM      9  I   UNL d   1       5.999   3.644   0.277  0.00  0.00    -0.060 I 
ATOM     10  F2  UNL d   1       3.623   1.561   0.786  0.00  0.00    -0.096 F 
ATOM     11  F3  UNL d   1       1.537   0.798  -0.763  0.00  0.00    -0.097 F 
ATOM     12  F4  UNL d   1       1.199   1.869  -3.249  0.00  0.00    -0.092 F 
ENDROOT
TORSDOF 0
ENDMDL
