MODEL 1
REMARK minimizedAffinity 15.0598021
REMARK minimizedRMSD -1
REMARK  0 active torsions:
REMARK  status: ('A' for Active; 'I' for Inactive)
ROOT
ATOM      1  C   UNL d   1       2.583   1.730  -1.739  0.00  0.00     0.124 A 
ATOM      2  C1  UNL d   1       1.476   1.030  -2.199  0.00  0.00     0.062 A 
ATOM      3  C2  UNL d   1       0.707   0.278  -1.316  0.00  0.00     0.162 A 
ATOM      4  C3  UNL d   1       1.041   0.224   0.037  0.00  0.00    -0.034 A 
ATOM      5  C4  UNL d   1       2.156   0.930   0.492  0.00  0.00     0.162 A 
ATOM      6  C5  UNL d   1       2.921   1.680  -0.394  0.00  0.00     0.062 A 
ATOM      7  F   UNL d   1       3.990   2.355   0.052  0.00  0.00    -0.097 F 
ATOM      8  F1  UNL d   1       2.505   0.899   1.787  0.00  0.00    -0.096 F 
ATOM      9  I   UNL d   1      -0.107  -0.899   1.362  0.00  0.00    -0.060 I 
ATOM     10  F2  UNL d   1      -0.357  -0.388  -1.788  0.00  0.00    -0.096 F 
ATOM     11  F3  UNL d   1       1.147   1.077  -3.498  0.00  0.00    -0.097 F 
ATOM     12  F4  UNL d   1       3.322   2.452  -2.592  0.00  0.00    -0.092 F 
ENDROOT
TORSDOF 0
ENDMDL
