MODEL 1
REMARK minimizedAffinity -2.14787316
REMARK minimizedRMSD -1
REMARK  0 active torsions:
REMARK  status: ('A' for Active; 'I' for Inactive)
ROOT
ATOM      1  C   UNL d   1       1.443  -1.141  -1.695  0.00  0.00     0.023 A 
ATOM      2  C1  UNL d   1       1.105  -1.924  -0.591  0.00  0.00     0.003 A 
ATOM      3  C2  UNL d   1       0.214  -1.434   0.367  0.00  0.00     0.048 A 
ATOM      4  C3  UNL d   1      -0.335  -0.162   0.213  0.00  0.00     0.023 A 
ATOM      5  C4  UNL d   1      -0.000   0.624  -0.890  0.00  0.00     0.048 A 
ATOM      6  C5  UNL d   1       0.891   0.131  -1.845  0.00  0.00     0.003 A 
ATOM      7  I   UNL d   1      -1.661   0.569   1.637  0.00  0.00    -0.146 I 
ENDROOT
TORSDOF 0
ENDMDL
