MODEL 1
REMARK minimizedAffinity -1.70567763
REMARK minimizedRMSD -1
REMARK  0 active torsions:
REMARK  status: ('A' for Active; 'I' for Inactive)
ROOT
ATOM      1  C   UNL d   1      -2.147   1.232   4.060  0.00  0.00     0.023 A 
ATOM      2  C1  UNL d   1      -0.965   1.835   3.631  0.00  0.00     0.003 A 
ATOM      3  C2  UNL d   1      -0.379   1.447   2.424  0.00  0.00     0.048 A 
ATOM      4  C3  UNL d   1      -0.981   0.456   1.650  0.00  0.00     0.023 A 
ATOM      5  C4  UNL d   1      -2.165  -0.150   2.075  0.00  0.00     0.048 A 
ATOM      6  C5  UNL d   1      -2.746   0.240   3.283  0.00  0.00     0.003 A 
ATOM      7  I   UNL d   1      -0.112  -0.124  -0.146  0.00  0.00    -0.146 I 
ENDROOT
TORSDOF 0
ENDMDL
