MODEL 1
REMARK minimizedAffinity -3.37868547
REMARK minimizedRMSD -1
REMARK  0 active torsions:
REMARK  status: ('A' for Active; 'I' for Inactive)
ROOT
ATOM      1  C   UNL d   1       3.026   0.944  -1.971  0.00  0.00     0.023 A 
ATOM      2  C1  UNL d   1       2.934  -0.443  -2.087  0.00  0.00     0.003 A 
ATOM      3  C2  UNL d   1       1.883  -1.129  -1.474  0.00  0.00     0.048 A 
ATOM      4  C3  UNL d   1       0.926  -0.421  -0.748  0.00  0.00     0.023 A 
ATOM      5  C4  UNL d   1       1.013   0.967  -0.630  0.00  0.00     0.048 A 
ATOM      6  C5  UNL d   1       2.066   1.648  -1.243  0.00  0.00     0.003 A 
ATOM      7  I   UNL d   1      -0.639  -1.439   0.164  0.00  0.00    -0.146 I 
ENDROOT
TORSDOF 0
ENDMDL
