MODEL 1
REMARK minimizedAffinity -2.15762186
REMARK minimizedRMSD -1
REMARK  0 active torsions:
REMARK  status: ('A' for Active; 'I' for Inactive)
ROOT
ATOM      1  C   UNL d   1       2.232  -1.515  -0.995  0.00  0.00     0.023 A 
ATOM      2  C1  UNL d   1       1.715  -0.280  -1.387  0.00  0.00     0.003 A 
ATOM      3  C2  UNL d   1       0.570   0.226  -0.770  0.00  0.00     0.048 A 
ATOM      4  C3  UNL d   1      -0.054  -0.507   0.239  0.00  0.00     0.023 A 
ATOM      5  C4  UNL d   1       0.460  -1.743   0.636  0.00  0.00     0.048 A 
ATOM      6  C5  UNL d   1       1.605  -2.245   0.015  0.00  0.00     0.003 A 
ATOM      7  I   UNL d   1      -1.759   0.245   1.159  0.00  0.00    -0.146 I 
ENDROOT
TORSDOF 0
ENDMDL
