MODEL 1
REMARK minimizedAffinity -1.80170691
REMARK minimizedRMSD -1
REMARK  0 active torsions:
REMARK  status: ('A' for Active; 'I' for Inactive)
ROOT
ATOM      1  C   UNL d   1       1.078  -0.284  -1.994  0.00  0.00     0.023 A 
ATOM      2  C1  UNL d   1       0.888  -1.316  -1.074  0.00  0.00     0.003 A 
ATOM      3  C2  UNL d   1       0.084  -1.113   0.049  0.00  0.00     0.048 A 
ATOM      4  C3  UNL d   1      -0.529   0.124   0.246  0.00  0.00     0.023 A 
ATOM      5  C4  UNL d   1      -0.342   1.159  -0.672  0.00  0.00     0.048 A 
ATOM      6  C5  UNL d   1       0.463   0.952  -1.793  0.00  0.00     0.003 A 
ATOM      7  I   UNL d   1      -1.727   0.429   1.917  0.00  0.00    -0.146 I 
ENDROOT
TORSDOF 0
ENDMDL
