MODEL 1
REMARK minimizedAffinity -2.68188667
REMARK minimizedRMSD -1
REMARK  0 active torsions:
REMARK  status: ('A' for Active; 'I' for Inactive)
ROOT
ATOM      1  C   UNL d   1      -0.800   0.304   0.447  0.00  0.00     0.023 A 
ATOM      2  C1  UNL d   1      -0.360   1.188  -0.538  0.00  0.00     0.003 A 
ATOM      3  C2  UNL d   1       0.696   0.830  -1.378  0.00  0.00     0.048 A 
ATOM      4  C3  UNL d   1       1.307  -0.414  -1.228  0.00  0.00     0.023 A 
ATOM      5  C4  UNL d   1       0.870  -1.302  -0.244  0.00  0.00     0.048 A 
ATOM      6  C5  UNL d   1      -0.186  -0.939   0.594  0.00  0.00     0.003 A 
ATOM      7  I   UNL d   1       2.879  -0.949  -2.478  0.00  0.00    -0.146 I 
ENDROOT
TORSDOF 0
ENDMDL
