MODEL 1
REMARK minimizedAffinity -2.17586803
REMARK minimizedRMSD -1
REMARK  0 active torsions:
REMARK  status: ('A' for Active; 'I' for Inactive)
ROOT
ATOM      1  C   UNL d   1      -1.243   0.411   0.631  0.00  0.00     0.023 A 
ATOM      2  C1  UNL d   1      -0.497  -0.766   0.547  0.00  0.00     0.003 A 
ATOM      3  C2  UNL d   1       0.348  -0.982  -0.543  0.00  0.00     0.048 A 
ATOM      4  C3  UNL d   1       0.445  -0.017  -1.545  0.00  0.00     0.023 A 
ATOM      5  C4  UNL d   1      -0.298   1.162  -1.465  0.00  0.00     0.048 A 
ATOM      6  C5  UNL d   1      -1.143   1.373  -0.374  0.00  0.00     0.003 A 
ATOM      7  I   UNL d   1       1.704  -0.336  -3.168  0.00  0.00    -0.146 I 
ENDROOT
TORSDOF 0
ENDMDL
