MODEL 1
REMARK minimizedAffinity -4.46906567
REMARK minimizedRMSD -1
REMARK  0 active torsions:
REMARK  status: ('A' for Active; 'I' for Inactive)
ROOT
ATOM      1  C   UNL d   1       3.169   0.744  -1.995  0.00  0.00     0.023 A 
ATOM      2  C1  UNL d   1       2.191   1.731  -2.122  0.00  0.00     0.003 A 
ATOM      3  C2  UNL d   1       0.978   1.606  -1.443  0.00  0.00     0.048 A 
ATOM      4  C3  UNL d   1       0.748   0.491  -0.637  0.00  0.00     0.023 A 
ATOM      5  C4  UNL d   1       1.723  -0.499  -0.506  0.00  0.00     0.048 A 
ATOM      6  C5  UNL d   1       2.935  -0.370  -1.188  0.00  0.00     0.003 A 
ATOM      7  I   UNL d   1      -1.057   0.302   0.375  0.00  0.00    -0.146 I 
ENDROOT
TORSDOF 0
ENDMDL
