MODEL 1
REMARK minimizedAffinity -3.37345648
REMARK minimizedRMSD -1
REMARK  0 active torsions:
REMARK  status: ('A' for Active; 'I' for Inactive)
ROOT
ATOM      1  C   UNL d   1       0.062  -0.095  -0.366  0.00  0.00     0.023 A 
ATOM      2  C1  UNL d   1      -1.099   0.665  -0.507  0.00  0.00     0.003 A 
ATOM      3  C2  UNL d   1      -1.775   1.126   0.625  0.00  0.00     0.048 A 
ATOM      4  C3  UNL d   1      -1.284   0.823   1.895  0.00  0.00     0.023 A 
ATOM      5  C4  UNL d   1      -0.122   0.063   2.040  0.00  0.00     0.048 A 
ATOM      6  C5  UNL d   1       0.550  -0.396   0.906  0.00  0.00     0.003 A 
ATOM      7  I   UNL d   1      -2.289   1.508   3.580  0.00  0.00    -0.146 I 
ENDROOT
TORSDOF 0
ENDMDL
