MODEL 1
REMARK minimizedAffinity -3.02178359
REMARK minimizedRMSD -1
REMARK  0 active torsions:
REMARK  status: ('A' for Active; 'I' for Inactive)
ROOT
ATOM      1  C   UNL d   1       2.008  -0.165  -2.285  0.00  0.00     0.023 A 
ATOM      2  C1  UNL d   1       1.783  -1.140  -1.314  0.00  0.00     0.003 A 
ATOM      3  C2  UNL d   1       0.775  -0.962  -0.364  0.00  0.00     0.048 A 
ATOM      4  C3  UNL d   1      -0.005   0.194  -0.392  0.00  0.00     0.023 A 
ATOM      5  C4  UNL d   1       0.217   1.172  -1.363  0.00  0.00     0.048 A 
ATOM      6  C5  UNL d   1       1.226   0.990  -2.310  0.00  0.00     0.003 A 
ATOM      7  I   UNL d   1      -1.506   0.461   1.020  0.00  0.00    -0.146 I 
ENDROOT
TORSDOF 0
ENDMDL
