MODEL 1
REMARK minimizedAffinity -3.44756031
REMARK minimizedRMSD -1
REMARK  0 active torsions:
REMARK  status: ('A' for Active; 'I' for Inactive)
ROOT
ATOM      1  C   UNL d   1       1.984  -1.175  -1.215  0.00  0.00     0.023 A 
ATOM      2  C1  UNL d   1       1.829   0.206  -1.092  0.00  0.00     0.003 A 
ATOM      3  C2  UNL d   1       0.720   0.729  -0.424  0.00  0.00     0.048 A 
ATOM      4  C3  UNL d   1      -0.230  -0.135   0.120  0.00  0.00     0.023 A 
ATOM      5  C4  UNL d   1      -0.078  -1.518   0.001  0.00  0.00     0.048 A 
ATOM      6  C5  UNL d   1       1.032  -2.036  -0.669  0.00  0.00     0.003 A 
ATOM      7  I   UNL d   1      -1.881   0.640   1.116  0.00  0.00    -0.146 I 
ENDROOT
TORSDOF 0
ENDMDL
