MODEL 1
REMARK minimizedAffinity -3.82268095
REMARK minimizedRMSD -1
REMARK  0 active torsions:
REMARK  status: ('A' for Active; 'I' for Inactive)
ROOT
ATOM      1  C   UNL d   1       3.831   0.320  -4.204  0.00  0.00     0.023 A 
ATOM      2  C1  UNL d   1       3.650  -0.735  -3.309  0.00  0.00     0.003 A 
ATOM      3  C2  UNL d   1       2.745  -0.610  -2.254  0.00  0.00     0.048 A 
ATOM      4  C3  UNL d   1       2.022   0.572  -2.100  0.00  0.00     0.023 A 
ATOM      5  C4  UNL d   1       2.198   1.630  -2.994  0.00  0.00     0.048 A 
ATOM      6  C5  UNL d   1       3.105   1.501  -4.047  0.00  0.00     0.003 A 
ATOM      7  I   UNL d   1       0.673   0.761  -0.530  0.00  0.00    -0.146 I 
ENDROOT
TORSDOF 0
ENDMDL
