MODEL 1
REMARK minimizedAffinity -5.63190889
REMARK minimizedRMSD -1
REMARK  0 active torsions:
REMARK  status: ('A' for Active; 'I' for Inactive)
ROOT
ATOM      1  C2' OXE d   1       0.173   0.110  -1.292  0.00  0.00     0.078 C 
ATOM      2  C1' OXE d   1       1.983  -0.145   0.838  0.00  0.00     0.078 C 
ATOM      3  C1  OXE d   1       0.518  -0.354   1.131  0.00  0.00    -0.078 A 
ATOM      4  C2  OXE d   1      -0.365  -0.182   0.092  0.00  0.00    -0.078 A 
ATOM      5  C3  OXE d   1      -1.722  -0.416   0.294  0.00  0.00     0.003 A 
ATOM      6  C4  OXE d   1      -2.213  -0.676   1.580  0.00  0.00    -0.002 A 
ATOM      7  C5  OXE d   1      -1.334  -0.817   2.660  0.00  0.00    -0.002 A 
ATOM      8  C6  OXE d   1       0.034  -0.701   2.444  0.00  0.00     0.003 A 
ENDROOT
TORSDOF 0
ENDMDL
