MODEL 1
REMARK minimizedAffinity -1.72954345
REMARK minimizedRMSD -1
REMARK  0 active torsions:
REMARK  status: ('A' for Active; 'I' for Inactive)
ROOT
ATOM      1  C2' OXE d   1       0.360  -0.238  -1.939  0.00  0.00     0.078 C 
ATOM      2  C1' OXE d   1      -2.084   0.657  -0.887  0.00  0.00     0.078 C 
ATOM      3  C1  OXE d   1      -0.948   0.420   0.076  0.00  0.00    -0.078 A 
ATOM      4  C2  OXE d   1       0.230  -0.063  -0.442  0.00  0.00    -0.078 A 
ATOM      5  C3  OXE d   1       1.327  -0.247   0.395  0.00  0.00     0.003 A 
ATOM      6  C4  OXE d   1       1.196  -0.092   1.781  0.00  0.00    -0.002 A 
ATOM      7  C5  OXE d   1      -0.007   0.361   2.333  0.00  0.00    -0.002 A 
ATOM      8  C6  OXE d   1      -1.073   0.662   1.492  0.00  0.00     0.003 A 
ENDROOT
TORSDOF 0
ENDMDL
