MODEL 1
REMARK minimizedAffinity -3.9834969
REMARK minimizedRMSD -1
REMARK  0 active torsions:
REMARK  status: ('A' for Active; 'I' for Inactive)
ROOT
ATOM      1  C2' OXE d   1      -3.029  -0.725   4.085  0.00  0.00     0.078 C 
ATOM      2  C1' OXE d   1      -3.831   0.815   1.879  0.00  0.00     0.078 C 
ATOM      3  C1  OXE d   1      -2.444   0.224   1.858  0.00  0.00    -0.078 A 
ATOM      4  C2  OXE d   1      -2.043  -0.489   2.962  0.00  0.00    -0.078 A 
ATOM      5  C3  OXE d   1      -0.793  -1.102   2.970  0.00  0.00     0.003 A 
ATOM      6  C4  OXE d   1       0.117  -0.870   1.932  0.00  0.00    -0.002 A 
ATOM      7  C5  OXE d   1      -0.257  -0.114   0.816  0.00  0.00    -0.002 A 
ATOM      8  C6  OXE d   1      -1.545   0.403   0.744  0.00  0.00     0.003 A 
ENDROOT
TORSDOF 0
ENDMDL
