MODEL 1
REMARK minimizedAffinity -2.29090309
REMARK minimizedRMSD -1
REMARK  0 active torsions:
REMARK  status: ('A' for Active; 'I' for Inactive)
ROOT
ATOM      1  C2' OXE d   1      -0.062  -1.962  -3.472  0.00  0.00     0.078 C 
ATOM      2  C1' OXE d   1       2.289  -0.432  -3.571  0.00  0.00     0.078 C 
ATOM      3  C1  OXE d   1       1.325  -0.168  -2.441  0.00  0.00    -0.078 A 
ATOM      4  C2  OXE d   1       0.155  -0.889  -2.427  0.00  0.00    -0.078 A 
ATOM      5  C3  OXE d   1      -0.744  -0.724  -1.378  0.00  0.00     0.003 A 
ATOM      6  C4  OXE d   1      -0.540   0.278  -0.421  0.00  0.00    -0.002 A 
ATOM      7  C5  OXE d   1       0.626   1.050  -0.439  0.00  0.00    -0.002 A 
ATOM      8  C6  OXE d   1       1.586   0.811  -1.416  0.00  0.00     0.003 A 
ENDROOT
TORSDOF 0
ENDMDL
