MODEL 1
REMARK minimizedAffinity -2.60700893
REMARK minimizedRMSD -1
REMARK  0 active torsions:
REMARK  status: ('A' for Active; 'I' for Inactive)
ROOT
ATOM      1  C2' OXE d   1      -1.548   1.129  -0.972  0.00  0.00     0.078 C 
ATOM      2  C1' OXE d   1       0.817  -0.121  -1.825  0.00  0.00     0.078 C 
ATOM      3  C1  OXE d   1       0.587   0.012  -0.341  0.00  0.00    -0.078 A 
ATOM      4  C2  OXE d   1      -0.550   0.666   0.067  0.00  0.00    -0.078 A 
ATOM      5  C3  OXE d   1      -0.837   0.768   1.426  0.00  0.00     0.003 A 
ATOM      6  C4  OXE d   1       0.095   0.346   2.381  0.00  0.00    -0.002 A 
ATOM      7  C5  OXE d   1       1.279  -0.288   1.986  0.00  0.00    -0.002 A 
ATOM      8  C6  OXE d   1       1.519  -0.500   0.633  0.00  0.00     0.003 A 
ENDROOT
TORSDOF 0
ENDMDL
