MODEL 1
REMARK minimizedAffinity -4.4359827
REMARK minimizedRMSD -1
REMARK  0 active torsions:
REMARK  status: ('A' for Active; 'I' for Inactive)
ROOT
ATOM      1  C2' OXE d   1      -2.339   1.100  -0.693  0.00  0.00     0.078 C 
ATOM      2  C1' OXE d   1      -2.740   1.097   2.086  0.00  0.00     0.078 C 
ATOM      3  C1  OXE d   1      -1.366   0.744   1.572  0.00  0.00    -0.078 A 
ATOM      4  C2  OXE d   1      -1.192   0.702   0.210  0.00  0.00    -0.078 A 
ATOM      5  C3  OXE d   1       0.069   0.436  -0.316  0.00  0.00     0.003 A 
ATOM      6  C4  OXE d   1       1.123   0.059   0.526  0.00  0.00    -0.002 A 
ATOM      7  C5  OXE d   1       0.956   0.056   1.915  0.00  0.00    -0.002 A 
ATOM      8  C6  OXE d   1      -0.267   0.437   2.455  0.00  0.00     0.003 A 
ENDROOT
TORSDOF 0
ENDMDL
