MODEL 1
REMARK minimizedAffinity 1.75778806
REMARK minimizedRMSD -1
REMARK  0 active torsions:
REMARK  status: ('A' for Active; 'I' for Inactive)
ROOT
ATOM      1  C2' OXE d   1       0.391   0.229  -1.855  0.00  0.00     0.078 C 
ATOM      2  C1' OXE d   1      -2.028   0.547  -0.466  0.00  0.00     0.078 C 
ATOM      3  C1  OXE d   1      -0.749   0.569   0.334  0.00  0.00    -0.078 A 
ATOM      4  C2  OXE d   1       0.427   0.366  -0.348  0.00  0.00    -0.078 A 
ATOM      5  C3  OXE d   1       1.639   0.432   0.333  0.00  0.00     0.003 A 
ATOM      6  C4  OXE d   1       1.663   0.549   1.728  0.00  0.00    -0.002 A 
ATOM      7  C5  OXE d   1       0.475   0.717   2.447  0.00  0.00    -0.002 A 
ATOM      8  C6  OXE d   1      -0.734   0.772   1.762  0.00  0.00     0.003 A 
ENDROOT
TORSDOF 0
ENDMDL
