MODEL 1
REMARK minimizedAffinity -2.88216352
REMARK minimizedRMSD -1
REMARK  0 active torsions:
REMARK  status: ('A' for Active; 'I' for Inactive)
ROOT
ATOM      1  C2' OXE d   1       0.541   0.290  -1.236  0.00  0.00     0.078 C 
ATOM      2  C1' OXE d   1       1.886   0.566   1.213  0.00  0.00     0.078 C 
ATOM      3  C1  OXE d   1       0.379   0.499   1.241  0.00  0.00    -0.078 A 
ATOM      4  C2  OXE d   1      -0.273   0.411   0.034  0.00  0.00    -0.078 A 
ATOM      5  C3  OXE d   1      -1.659   0.290   0.007  0.00  0.00     0.003 A 
ATOM      6  C4  OXE d   1      -2.405   0.412   1.186  0.00  0.00    -0.002 A 
ATOM      7  C5  OXE d   1      -1.762   0.542   2.422  0.00  0.00    -0.002 A 
ATOM      8  C6  OXE d   1      -0.373   0.544   2.471  0.00  0.00     0.003 A 
ENDROOT
TORSDOF 0
ENDMDL
