MODEL 1
REMARK minimizedAffinity -6.10866022
REMARK minimizedRMSD -1
REMARK  0 active torsions:
REMARK  status: ('A' for Active; 'I' for Inactive)
ROOT
ATOM      1  C2' OXE d   1       0.234   0.043  -1.282  0.00  0.00     0.078 C 
ATOM      2  C1' OXE d   1      -2.383  -0.769  -0.674  0.00  0.00     0.078 C 
ATOM      3  C1  OXE d   1      -1.471  -0.418   0.475  0.00  0.00    -0.078 A 
ATOM      4  C2  OXE d   1      -0.178  -0.066   0.170  0.00  0.00    -0.078 A 
ATOM      5  C3  OXE d   1       0.689   0.320   1.188  0.00  0.00     0.003 A 
ATOM      6  C4  OXE d   1       0.303   0.207   2.529  0.00  0.00    -0.002 A 
ATOM      7  C5  OXE d   1      -0.997  -0.188   2.863  0.00  0.00    -0.002 A 
ATOM      8  C6  OXE d   1      -1.907  -0.462   1.849  0.00  0.00     0.003 A 
ENDROOT
TORSDOF 0
ENDMDL
