MODEL 1
REMARK minimizedAffinity -4.42753315
REMARK minimizedRMSD -1
REMARK  0 active torsions:
REMARK  status: ('A' for Active; 'I' for Inactive)
ROOT
ATOM      1  C2' OXE d   1       0.537   0.206   0.281  0.00  0.00     0.078 C 
ATOM      2  C1' OXE d   1      -2.095   0.652  -0.586  0.00  0.00     0.078 C 
ATOM      3  C1  OXE d   1      -1.867   0.443   0.890  0.00  0.00    -0.078 A 
ATOM      4  C2  OXE d   1      -0.582   0.179   1.299  0.00  0.00    -0.078 A 
ATOM      5  C3  OXE d   1      -0.307   0.033   2.656  0.00  0.00     0.003 A 
ATOM      6  C4  OXE d   1      -1.349  -0.001   3.591  0.00  0.00    -0.002 A 
ATOM      7  C5  OXE d   1      -2.670   0.227   3.190  0.00  0.00    -0.002 A 
ATOM      8  C6  OXE d   1      -2.940   0.492   1.852  0.00  0.00     0.003 A 
ENDROOT
TORSDOF 0
ENDMDL
