MODEL 1
REMARK minimizedAffinity 0.29058519
REMARK minimizedRMSD -1
REMARK  0 active torsions:
REMARK  status: ('A' for Active; 'I' for Inactive)
ROOT
ATOM      1  C2' OXE d   1       0.896   0.283  -0.204  0.00  0.00     0.078 C 
ATOM      2  C1' OXE d   1      -1.163   0.897  -2.011  0.00  0.00     0.078 C 
ATOM      3  C1  OXE d   1      -0.158  -0.150  -2.420  0.00  0.00    -0.078 A 
ATOM      4  C2  OXE d   1       0.873  -0.411  -1.549  0.00  0.00    -0.078 A 
ATOM      5  C3  OXE d   1       1.797  -1.407  -1.853  0.00  0.00     0.003 A 
ATOM      6  C4  OXE d   1       1.774  -2.037  -3.103  0.00  0.00    -0.002 A 
ATOM      7  C5  OXE d   1       0.756  -1.757  -4.021  0.00  0.00    -0.002 A 
ATOM      8  C6  OXE d   1      -0.240  -0.849  -3.678  0.00  0.00     0.003 A 
ENDROOT
TORSDOF 0
ENDMDL
