MODEL 1
REMARK minimizedAffinity -3.54057455
REMARK minimizedRMSD -1
REMARK  0 active torsions:
REMARK  status: ('A' for Active; 'I' for Inactive)
ROOT
ATOM      1  C2' OXE d   1      -0.970  -2.680  -2.938  0.00  0.00     0.078 C 
ATOM      2  C1' OXE d   1       1.538  -1.548  -3.493  0.00  0.00     0.078 C 
ATOM      3  C1  OXE d   1       0.686  -0.887  -2.439  0.00  0.00    -0.078 A 
ATOM      4  C2  OXE d   1      -0.559  -1.420  -2.207  0.00  0.00    -0.078 A 
ATOM      5  C3  OXE d   1      -1.364  -0.882  -1.207  0.00  0.00     0.003 A 
ATOM      6  C4  OXE d   1      -0.981   0.289  -0.542  0.00  0.00    -0.002 A 
ATOM      7  C5  OXE d   1       0.266   0.871  -0.791  0.00  0.00    -0.002 A 
ATOM      8  C6  OXE d   1       1.128   0.273  -1.704  0.00  0.00     0.003 A 
ENDROOT
TORSDOF 0
ENDMDL
