MODEL 1
REMARK minimizedAffinity -5.31032991
REMARK minimizedRMSD -1
REMARK  0 active torsions:
REMARK  status: ('A' for Active; 'I' for Inactive)
ROOT
ATOM      1  C2' OXE d   1       0.093   0.137  -1.265  0.00  0.00     0.078 C 
ATOM      2  C1' OXE d   1       1.855   0.063   0.919  0.00  0.00     0.078 C 
ATOM      3  C1  OXE d   1       0.377  -0.029   1.205  0.00  0.00    -0.078 A 
ATOM      4  C2  OXE d   1      -0.480   0.055   0.134  0.00  0.00    -0.078 A 
ATOM      5  C3  OXE d   1      -1.851  -0.079   0.336  0.00  0.00     0.003 A 
ATOM      6  C4  OXE d   1      -2.373  -0.144   1.633  0.00  0.00    -0.002 A 
ATOM      7  C5  OXE d   1      -1.520  -0.190   2.741  0.00  0.00    -0.002 A 
ATOM      8  C6  OXE d   1      -0.144  -0.177   2.541  0.00  0.00     0.003 A 
ENDROOT
TORSDOF 0
ENDMDL
