MODEL 1
REMARK minimizedAffinity -4.2591958
REMARK minimizedRMSD -1
REMARK  0 active torsions:
REMARK  status: ('A' for Active; 'I' for Inactive)
ROOT
ATOM      1  C2' OXE d   1       1.842  -0.008   0.786  0.00  0.00     0.078 C 
ATOM      2  C1' OXE d   1       0.157   0.557  -1.387  0.00  0.00     0.078 C 
ATOM      3  C1  OXE d   1      -0.449   0.563  -0.006  0.00  0.00    -0.078 A 
ATOM      4  C2  OXE d   1       0.372   0.240   1.047  0.00  0.00    -0.078 A 
ATOM      5  C3  OXE d   1      -0.124   0.284   2.347  0.00  0.00     0.003 A 
ATOM      6  C4  OXE d   1      -1.487   0.504   2.579  0.00  0.00    -0.002 A 
ATOM      7  C5  OXE d   1      -2.349   0.797   1.517  0.00  0.00    -0.002 A 
ATOM      8  C6  OXE d   1      -1.839   0.872   0.225  0.00  0.00     0.003 A 
ENDROOT
TORSDOF 0
ENDMDL
