MODEL 1
REMARK minimizedAffinity -0.873075128
REMARK minimizedRMSD -1
REMARK  0 active torsions:
REMARK  status: ('A' for Active; 'I' for Inactive)
ROOT
ATOM      1  C2' OXE d   1       0.444   0.345   2.697  0.00  0.00     0.078 C 
ATOM      2  C1' OXE d   1       2.677   1.012   1.131  0.00  0.00     0.078 C 
ATOM      3  C1  OXE d   1       1.402   0.640   0.416  0.00  0.00    -0.078 A 
ATOM      4  C2  OXE d   1       0.328   0.270   1.190  0.00  0.00    -0.078 A 
ATOM      5  C3  OXE d   1      -0.888  -0.030   0.582  0.00  0.00     0.003 A 
ATOM      6  C4  OXE d   1      -0.984  -0.108  -0.812  0.00  0.00    -0.002 A 
ATOM      7  C5  OXE d   1       0.109   0.227  -1.619  0.00  0.00    -0.002 A 
ATOM      8  C6  OXE d   1       1.294   0.643  -1.022  0.00  0.00     0.003 A 
ENDROOT
TORSDOF 0
ENDMDL
