MODEL 1
REMARK minimizedAffinity -4.789217
REMARK minimizedRMSD -1
REMARK  0 active torsions:
REMARK  status: ('A' for Active; 'I' for Inactive)
ROOT
ATOM      1  C2' OXE d   1       1.778   0.213   1.211  0.00  0.00     0.078 C 
ATOM      2  C1' OXE d   1       0.510   0.225  -1.293  0.00  0.00     0.078 C 
ATOM      3  C1  OXE d   1      -0.342   0.468  -0.072  0.00  0.00    -0.078 A 
ATOM      4  C2  OXE d   1       0.279   0.414   1.152  0.00  0.00    -0.078 A 
ATOM      5  C3  OXE d   1      -0.449   0.686   2.307  0.00  0.00     0.003 A 
ATOM      6  C4  OXE d   1      -1.837   0.861   2.245  0.00  0.00    -0.002 A 
ATOM      7  C5  OXE d   1      -2.496   0.879   1.011  0.00  0.00    -0.002 A 
ATOM      8  C6  OXE d   1      -1.758   0.727  -0.158  0.00  0.00     0.003 A 
ENDROOT
TORSDOF 0
ENDMDL
