MODEL 1
REMARK minimizedAffinity -5.27192974
REMARK minimizedRMSD -1
REMARK  0 active torsions:
REMARK  status: ('A' for Active; 'I' for Inactive)
ROOT
ATOM      1  C2' OXE d   1      -0.386   0.396  -0.620  0.00  0.00     0.078 C 
ATOM      2  C1' OXE d   1       0.754   0.099   1.928  0.00  0.00     0.078 C 
ATOM      3  C1  OXE d   1      -0.734   0.330   1.846  0.00  0.00    -0.078 A 
ATOM      4  C2  OXE d   1      -1.277   0.521   0.598  0.00  0.00    -0.078 A 
ATOM      5  C3  OXE d   1      -2.652   0.683   0.461  0.00  0.00     0.003 A 
ATOM      6  C4  OXE d   1      -3.467   0.807   1.593  0.00  0.00    -0.002 A 
ATOM      7  C5  OXE d   1      -2.929   0.656   2.875  0.00  0.00    -0.002 A 
ATOM      8  C6  OXE d   1      -1.575   0.375   3.017  0.00  0.00     0.003 A 
ENDROOT
TORSDOF 0
ENDMDL
