MODEL 1
REMARK minimizedAffinity 4.88764715
REMARK minimizedRMSD -1
REMARK  1 active torsions:
REMARK  status: ('A' for Active; 'I' for Inactive)
REMARK    1  A    between atoms: C3_4  and  O_7 
ROOT
ATOM      1  C   UNL d   1      -5.451   0.510   0.171  0.00  0.00    -0.033 A 
ATOM      2  C1  UNL d   1      -5.798   1.017   1.425  0.00  0.00     0.039 A 
ATOM      3  C2  UNL d   1      -4.825   1.605   2.236  0.00  0.00    -0.080 A 
ATOM      4  C3  UNL d   1      -3.511   1.681   1.781  0.00  0.00     0.150 A 
ATOM      5  C4  UNL d   1      -3.159   1.181   0.532  0.00  0.00    -0.007 A 
ATOM      6  C5  UNL d   1      -4.132   0.593  -0.276  0.00  0.00     0.039 A 
ENDROOT
BRANCH   4   7
ATOM      7  O   UNL d   1      -2.527   2.242   2.539  0.00  0.00    -0.526 OA
ATOM      8  H5  UNL d   1      -2.911   2.517   3.388  0.00  0.00     0.418 HD
ENDBRANCH   4   7
TORSDOF 1
ENDMDL
