MODEL 1
REMARK minimizedAffinity 0.703290284
REMARK minimizedRMSD -1
REMARK  1 active torsions:
REMARK  status: ('A' for Active; 'I' for Inactive)
REMARK    1  A    between atoms: C3_4  and  O_7 
ROOT
ATOM      1  C   UNL d   1      -3.316   0.835   0.375  0.00  0.00    -0.033 A 
ATOM      2  C1  UNL d   1      -2.142   1.590   0.344  0.00  0.00     0.039 A 
ATOM      3  C2  UNL d   1      -2.063   2.790   1.054  0.00  0.00    -0.080 A 
ATOM      4  C3  UNL d   1      -3.162   3.222   1.791  0.00  0.00     0.150 A 
ATOM      5  C4  UNL d   1      -4.333   2.473   1.829  0.00  0.00    -0.007 A 
ATOM      6  C5  UNL d   1      -4.411   1.276   1.118  0.00  0.00     0.039 A 
ENDROOT
BRANCH   4   7
ATOM      7  O   UNL d   1      -3.133   4.388   2.496  0.00  0.00    -0.526 OA
ATOM      8  H5  UNL d   1      -2.271   4.812   2.354  0.00  0.00     0.418 HD
ENDBRANCH   4   7
TORSDOF 1
ENDMDL
