MODEL 1
REMARK minimizedAffinity 0.571072698
REMARK minimizedRMSD -1
REMARK  1 active torsions:
REMARK  status: ('A' for Active; 'I' for Inactive)
REMARK    1  A    between atoms: C3_4  and  O_7 
ROOT
ATOM      1  C   UNL d   1      -4.789   2.124  -2.760  0.00  0.00    -0.033 A 
ATOM      2  C1  UNL d   1      -4.051   2.156  -3.945  0.00  0.00     0.039 A 
ATOM      3  C2  UNL d   1      -4.206   3.218  -4.838  0.00  0.00    -0.080 A 
ATOM      4  C3  UNL d   1      -5.100   4.241  -4.534  0.00  0.00     0.150 A 
ATOM      5  C4  UNL d   1      -5.835   4.218  -3.353  0.00  0.00    -0.007 A 
ATOM      6  C5  UNL d   1      -5.680   3.156  -2.463  0.00  0.00     0.039 A 
ENDROOT
BRANCH   4   7
ATOM      7  O   UNL d   1      -5.289   5.296  -5.376  0.00  0.00    -0.526 OA
ATOM      8  H5  UNL d   1      -4.737   5.163  -6.165  0.00  0.00     0.418 HD
ENDBRANCH   4   7
TORSDOF 1
ENDMDL
