MODEL 1
REMARK minimizedAffinity 4.47354412
REMARK minimizedRMSD -1
REMARK  1 active torsions:
REMARK  status: ('A' for Active; 'I' for Inactive)
REMARK    1  A    between atoms: C3_4  and  O_7 
ROOT
ATOM      1  C   UNL d   1       3.400  -1.730   0.741  0.00  0.00    -0.033 A 
ATOM      2  C1  UNL d   1       2.759  -1.535  -0.484  0.00  0.00     0.039 A 
ATOM      3  C2  UNL d   1       2.161  -0.306  -0.772  0.00  0.00    -0.080 A 
ATOM      4  C3  UNL d   1       2.212   0.717   0.171  0.00  0.00     0.150 A 
ATOM      5  C4  UNL d   1       2.852   0.530   1.391  0.00  0.00    -0.007 A 
ATOM      6  C5  UNL d   1       3.448  -0.697   1.678  0.00  0.00     0.039 A 
ENDROOT
BRANCH   4   7
ATOM      7  O   UNL d   1       1.638   1.931  -0.064  0.00  0.00    -0.526 OA
ATOM      8  H5  UNL d   1       1.208   1.905  -0.935  0.00  0.00     0.418 HD
ENDBRANCH   4   7
TORSDOF 1
ENDMDL
