MODEL 1
REMARK minimizedAffinity 3.49006248
REMARK minimizedRMSD -1
REMARK  1 active torsions:
REMARK  status: ('A' for Active; 'I' for Inactive)
REMARK    1  A    between atoms: C3_4  and  O_7 
ROOT
ATOM      1  C   UNL d   1       2.779  -1.064   0.109  0.00  0.00    -0.033 A 
ATOM      2  C1  UNL d   1       2.480  -2.321   0.636  0.00  0.00     0.039 A 
ATOM      3  C2  UNL d   1       1.317  -2.987   0.242  0.00  0.00    -0.080 A 
ATOM      4  C3  UNL d   1       0.464  -2.385  -0.679  0.00  0.00     0.150 A 
ATOM      5  C4  UNL d   1       0.758  -1.134  -1.211  0.00  0.00    -0.007 A 
ATOM      6  C5  UNL d   1       1.919  -0.470  -0.816  0.00  0.00     0.039 A 
ENDROOT
BRANCH   4   7
ATOM      7  O   UNL d   1      -0.684  -2.994  -1.090  0.00  0.00    -0.526 OA
ATOM      8  H5  UNL d   1      -0.771  -3.838  -0.617  0.00  0.00     0.418 HD
ENDBRANCH   4   7
TORSDOF 1
ENDMDL
