MODEL 1
REMARK minimizedAffinity -2.44422626
REMARK minimizedRMSD -1
REMARK  1 active torsions:
REMARK  status: ('A' for Active; 'I' for Inactive)
REMARK    1  A    between atoms: C3_4  and  O_7 
ROOT
ATOM      1  C   UNL d   1      -2.228   1.778   2.602  0.00  0.00    -0.033 A 
ATOM      2  C1  UNL d   1      -0.955   1.321   2.950  0.00  0.00     0.039 A 
ATOM      3  C2  UNL d   1       0.115   1.494   2.071  0.00  0.00    -0.080 A 
ATOM      4  C3  UNL d   1      -0.100   2.125   0.848  0.00  0.00     0.150 A 
ATOM      5  C4  UNL d   1      -1.364   2.586   0.497  0.00  0.00    -0.007 A 
ATOM      6  C5  UNL d   1      -2.432   2.411   1.376  0.00  0.00     0.039 A 
ENDROOT
BRANCH   4   7
ATOM      7  O   UNL d   1       0.913   2.313  -0.045  0.00  0.00    -0.526 OA
ATOM      8  H5  UNL d   1       1.722   1.918   0.321  0.00  0.00     0.418 HD
ENDBRANCH   4   7
TORSDOF 1
ENDMDL
