MODEL 1
REMARK minimizedAffinity 3.05712962
REMARK minimizedRMSD -1
REMARK  1 active torsions:
REMARK  status: ('A' for Active; 'I' for Inactive)
REMARK    1  A    between atoms: C3_4  and  O_7 
ROOT
ATOM      1  C   UNL d   1      -2.861   2.903   2.424  0.00  0.00    -0.033 A 
ATOM      2  C1  UNL d   1      -4.250   3.001   2.527  0.00  0.00     0.039 A 
ATOM      3  C2  UNL d   1      -5.067   2.079   1.871  0.00  0.00    -0.080 A 
ATOM      4  C3  UNL d   1      -4.484   1.064   1.117  0.00  0.00     0.150 A 
ATOM      5  C4  UNL d   1      -3.101   0.958   1.014  0.00  0.00    -0.007 A 
ATOM      6  C5  UNL d   1      -2.287   1.880   1.669  0.00  0.00     0.039 A 
ENDROOT
BRANCH   4   7
ATOM      7  O   UNL d   1      -5.241   0.143   0.455  0.00  0.00    -0.526 OA
ATOM      8  H5  UNL d   1      -6.178   0.358   0.594  0.00  0.00     0.418 HD
ENDBRANCH   4   7
TORSDOF 1
ENDMDL
