MODEL 1
REMARK minimizedAffinity 2.57836366
REMARK minimizedRMSD -1
REMARK  1 active torsions:
REMARK  status: ('A' for Active; 'I' for Inactive)
REMARK    1  A    between atoms: C3_4  and  O_7 
ROOT
ATOM      1  C   UNL d   1       3.693  -1.182   0.771  0.00  0.00    -0.033 A 
ATOM      2  C1  UNL d   1       2.778  -1.553  -0.216  0.00  0.00     0.039 A 
ATOM      3  C2  UNL d   1       1.840  -0.631  -0.684  0.00  0.00    -0.080 A 
ATOM      4  C3  UNL d   1       1.829   0.658  -0.158  0.00  0.00     0.150 A 
ATOM      5  C4  UNL d   1       2.740   1.036   0.824  0.00  0.00    -0.007 A 
ATOM      6  C5  UNL d   1       3.675   0.113   1.290  0.00  0.00     0.039 A 
ENDROOT
BRANCH   4   7
ATOM      7  O   UNL d   1       0.930   1.592  -0.579  0.00  0.00    -0.526 OA
ATOM      8  H5  UNL d   1       0.345   1.181  -1.238  0.00  0.00     0.418 HD
ENDBRANCH   4   7
TORSDOF 1
ENDMDL
