MODEL 1
REMARK minimizedAffinity 4.01923561
REMARK minimizedRMSD -1
REMARK  1 active torsions:
REMARK  status: ('A' for Active; 'I' for Inactive)
REMARK    1  A    between atoms: C3_4  and  O_7 
ROOT
ATOM      1  C   UNL d   1      -4.512   3.079  -3.914  0.00  0.00    -0.033 A 
ATOM      2  C1  UNL d   1      -4.316   2.664  -5.233  0.00  0.00     0.039 A 
ATOM      3  C2  UNL d   1      -4.498   1.324  -5.579  0.00  0.00    -0.080 A 
ATOM      4  C3  UNL d   1      -4.875   0.410  -4.599  0.00  0.00     0.150 A 
ATOM      5  C4  UNL d   1      -5.075   0.817  -3.284  0.00  0.00    -0.007 A 
ATOM      6  C5  UNL d   1      -4.893   2.155  -2.940  0.00  0.00     0.039 A 
ENDROOT
BRANCH   4   7
ATOM      7  O   UNL d   1      -5.060  -0.910  -4.889  0.00  0.00    -0.526 OA
ATOM      8  H5  UNL d   1      -4.859  -1.050  -5.829  0.00  0.00     0.418 HD
ENDBRANCH   4   7
TORSDOF 1
ENDMDL
