MODEL 1
REMARK minimizedAffinity 0.0405835882
REMARK minimizedRMSD -1
REMARK  1 active torsions:
REMARK  status: ('A' for Active; 'I' for Inactive)
REMARK    1  A    between atoms: C3_4  and  O_7 
ROOT
ATOM      1  C   UNL d   1      -5.059   1.194  -4.649  0.00  0.00    -0.033 A 
ATOM      2  C1  UNL d   1      -4.545  -0.026  -4.205  0.00  0.00     0.039 A 
ATOM      3  C2  UNL d   1      -4.610  -0.361  -2.851  0.00  0.00    -0.080 A 
ATOM      4  C3  UNL d   1      -5.190   0.530  -1.953  0.00  0.00     0.150 A 
ATOM      5  C4  UNL d   1      -5.708   1.746  -2.389  0.00  0.00    -0.007 A 
ATOM      6  C5  UNL d   1      -5.642   2.079  -3.741  0.00  0.00     0.039 A 
ENDROOT
BRANCH   4   7
ATOM      7  O   UNL d   1      -5.272   0.249  -0.622  0.00  0.00    -0.526 OA
ATOM      8  H5  UNL d   1      -4.848  -0.611  -0.462  0.00  0.00     0.418 HD
ENDBRANCH   4   7
TORSDOF 1
ENDMDL
