MODEL 1
REMARK minimizedAffinity -0.371126801
REMARK minimizedRMSD -1
REMARK  1 active torsions:
REMARK  status: ('A' for Active; 'I' for Inactive)
REMARK    1  A    between atoms: C3_4  and  O_7 
ROOT
ATOM      1  C   UNL d   1       1.078  -3.157   0.323  0.00  0.00    -0.033 A 
ATOM      2  C1  UNL d   1      -0.047  -3.428  -0.458  0.00  0.00     0.039 A 
ATOM      3  C2  UNL d   1      -0.260  -2.725  -1.645  0.00  0.00    -0.080 A 
ATOM      4  C3  UNL d   1       0.658  -1.757  -2.041  0.00  0.00     0.150 A 
ATOM      5  C4  UNL d   1       1.784  -1.485  -1.270  0.00  0.00    -0.007 A 
ATOM      6  C5  UNL d   1       1.994  -2.187  -0.083  0.00  0.00     0.039 A 
ENDROOT
BRANCH   4   7
ATOM      7  O   UNL d   1       0.490  -1.042  -3.189  0.00  0.00    -0.526 OA
ATOM      8  H5  UNL d   1      -0.344  -1.317  -3.604  0.00  0.00     0.418 HD
ENDBRANCH   4   7
TORSDOF 1
ENDMDL
