MODEL 1
REMARK minimizedAffinity 2.97587371
REMARK minimizedRMSD -1
REMARK  2 active torsions:
REMARK  status: ('A' for Active; 'I' for Inactive)
REMARK    1  A    between atoms: C2'_3  and  C1'_4 
REMARK    2  A    between atoms: C1'_4  and  C1_5 
ROOT
ATOM      1  C1  I4B d   1      -0.054   0.738   2.100  0.00  0.00    -0.075 A 
ATOM      2  C2  I4B d   1      -0.079   0.414   0.766  0.00  0.00     0.003 A 
ATOM      3  C3  I4B d   1      -0.771  -0.741   0.327  0.00  0.00     0.002 A 
ATOM      4  C4  I4B d   1      -1.377  -1.564   1.253  0.00  0.00    -0.004 A 
ATOM      5  C5  I4B d   1      -1.371  -1.221   2.602  0.00  0.00     0.002 A 
ATOM      6  C6  I4B d   1      -0.715  -0.056   3.027  0.00  0.00     0.003 A 
ENDROOT
BRANCH   1   7
ATOM      7  C1' I4B d   1       0.714   1.946   2.533  0.00  0.00     0.060 C 
BRANCH   7   8
ATOM      8  C2' I4B d   1       0.173   2.386   3.878  0.00  0.00    -0.013 C 
ATOM      9  C4' I4B d   1       1.149   3.285   4.591  0.00  0.00     0.013 C 
ATOM     10  C3' I4B d   1      -1.135   3.083   3.646  0.00  0.00     0.013 C 
ENDBRANCH   7   8
ENDBRANCH   1   7
TORSDOF 2
ENDMDL
