MODEL 1
REMARK minimizedAffinity -5.01110888
REMARK minimizedRMSD -1
REMARK  2 active torsions:
REMARK  status: ('A' for Active; 'I' for Inactive)
REMARK    1  A    between atoms: C2'_3  and  C1'_4 
REMARK    2  A    between atoms: C1'_4  and  C1_5 
ROOT
ATOM      1  C1  I4B d   1      -0.037   0.022  -0.446  0.00  0.00    -0.075 A 
ATOM      2  C2  I4B d   1       1.083   0.210   0.325  0.00  0.00     0.003 A 
ATOM      3  C3  I4B d   1       1.041  -0.046   1.717  0.00  0.00     0.002 A 
ATOM      4  C4  I4B d   1      -0.147  -0.437   2.301  0.00  0.00    -0.004 A 
ATOM      5  C5  I4B d   1      -1.275  -0.649   1.513  0.00  0.00     0.002 A 
ATOM      6  C6  I4B d   1      -1.217  -0.431   0.129  0.00  0.00     0.003 A 
ENDROOT
BRANCH   1   7
ATOM      7  C1' I4B d   1       0.034   0.333  -1.908  0.00  0.00     0.060 C 
BRANCH   7   8
ATOM      8  C2' I4B d   1       0.831  -0.766  -2.581  0.00  0.00    -0.013 C 
ATOM      9  C4' I4B d   1      -0.075  -1.825  -3.152  0.00  0.00     0.013 C 
ATOM     10  C3' I4B d   1       1.673  -0.138  -3.652  0.00  0.00     0.013 C 
ENDBRANCH   7   8
ENDBRANCH   1   7
TORSDOF 2
ENDMDL
