MODEL 1
REMARK minimizedAffinity -5.41416264
REMARK minimizedRMSD -1
REMARK  2 active torsions:
REMARK  status: ('A' for Active; 'I' for Inactive)
REMARK    1  A    between atoms: C2'_3  and  C1'_4 
REMARK    2  A    between atoms: C1'_4  and  C1_5 
ROOT
ATOM      1  C1  I4B d   1       0.404  -0.061   0.232  0.00  0.00    -0.075 A 
ATOM      2  C2  I4B d   1       1.369   0.039   1.203  0.00  0.00     0.003 A 
ATOM      3  C3  I4B d   1       1.062  -0.278   2.548  0.00  0.00     0.002 A 
ATOM      4  C4  I4B d   1      -0.227  -0.639   2.884  0.00  0.00    -0.004 A 
ATOM      5  C5  I4B d   1      -1.198  -0.761   1.895  0.00  0.00     0.002 A 
ATOM      6  C6  I4B d   1      -0.878  -0.483   0.558  0.00  0.00     0.003 A 
ENDROOT
BRANCH   1   7
ATOM      7  C1' I4B d   1       0.754   0.313  -1.174  0.00  0.00     0.060 C 
BRANCH   7   8
ATOM      8  C2' I4B d   1       0.664  -0.937  -2.026  0.00  0.00    -0.013 C 
ATOM      9  C4' I4B d   1       0.017  -0.645  -3.354  0.00  0.00     0.013 C 
ATOM     10  C3' I4B d   1       2.052  -1.476  -2.206  0.00  0.00     0.013 C 
ENDBRANCH   7   8
ENDBRANCH   1   7
TORSDOF 2
ENDMDL
