MODEL 1
REMARK minimizedAffinity -3.53977513
REMARK minimizedRMSD -1
REMARK  2 active torsions:
REMARK  status: ('A' for Active; 'I' for Inactive)
REMARK    1  A    between atoms: C2'_3  and  C1'_4 
REMARK    2  A    between atoms: C1'_4  and  C1_5 
ROOT
ATOM      1  C1  I4B d   1       0.039   0.502  -0.232  0.00  0.00    -0.075 A 
ATOM      2  C2  I4B d   1      -1.044   0.415   0.606  0.00  0.00     0.003 A 
ATOM      3  C3  I4B d   1      -0.863   0.433   2.010  0.00  0.00     0.002 A 
ATOM      4  C4  I4B d   1       0.415   0.488   2.529  0.00  0.00    -0.004 A 
ATOM      5  C5  I4B d   1       1.510   0.600   1.678  0.00  0.00     0.002 A 
ATOM      6  C6  I4B d   1       1.321   0.619   0.289  0.00  0.00     0.003 A 
ENDROOT
BRANCH   1   7
ATOM      7  C1' I4B d   1      -0.186   0.447  -1.710  0.00  0.00     0.060 C 
BRANCH   7   8
ATOM      8  C2' I4B d   1       0.511  -0.788  -2.243  0.00  0.00    -0.013 C 
ATOM      9  C4' I4B d   1      -0.458  -1.699  -2.949  0.00  0.00     0.013 C 
ATOM     10  C3' I4B d   1       1.604  -0.341  -3.167  0.00  0.00     0.013 C 
ENDBRANCH   7   8
ENDBRANCH   1   7
TORSDOF 2
ENDMDL
