MODEL 1
REMARK minimizedAffinity -5.80986738
REMARK minimizedRMSD -1
REMARK  2 active torsions:
REMARK  status: ('A' for Active; 'I' for Inactive)
REMARK    1  A    between atoms: C2'_3  and  C1'_4 
REMARK    2  A    between atoms: C1'_4  and  C1_5 
ROOT
ATOM      1  C1  I4B d   1       0.180  -0.334  -0.661  0.00  0.00    -0.075 A 
ATOM      2  C2  I4B d   1       0.282   0.010  -1.986  0.00  0.00     0.003 A 
ATOM      3  C3  I4B d   1       0.280  -0.992  -2.985  0.00  0.00     0.002 A 
ATOM      4  C4  I4B d   1       0.227  -2.321  -2.615  0.00  0.00    -0.004 A 
ATOM      5  C5  I4B d   1       0.101  -2.667  -1.273  0.00  0.00     0.002 A 
ATOM      6  C6  I4B d   1       0.064  -1.668  -0.290  0.00  0.00     0.003 A 
ENDROOT
BRANCH   1   7
ATOM      7  C1' I4B d   1       0.217   0.748   0.371  0.00  0.00     0.060 C 
BRANCH   7   8
ATOM      8  C2' I4B d   1       1.010   0.237   1.556  0.00  0.00    -0.013 C 
ATOM      9  C4' I4B d   1       2.444   0.693   1.491  0.00  0.00     0.013 C 
ATOM     10  C3' I4B d   1       0.342   0.727   2.806  0.00  0.00     0.013 C 
ENDBRANCH   7   8
ENDBRANCH   1   7
TORSDOF 2
ENDMDL
