MODEL 1
REMARK minimizedAffinity -4.29399824
REMARK minimizedRMSD -1
REMARK  2 active torsions:
REMARK  status: ('A' for Active; 'I' for Inactive)
REMARK    1  A    between atoms: C2'_3  and  C1'_4 
REMARK    2  A    between atoms: C1'_4  and  C1_5 
ROOT
ATOM      1  C1  I4B d   1       0.289   0.289  -0.320  0.00  0.00    -0.075 A 
ATOM      2  C2  I4B d   1      -0.971   0.438   0.204  0.00  0.00     0.003 A 
ATOM      3  C3  I4B d   1      -1.182   0.311   1.598  0.00  0.00     0.002 A 
ATOM      4  C4  I4B d   1      -0.122  -0.014   2.420  0.00  0.00    -0.004 A 
ATOM      5  C5  I4B d   1       1.159  -0.143   1.889  0.00  0.00     0.002 A 
ATOM      6  C6  I4B d   1       1.368   0.022   0.512  0.00  0.00     0.003 A 
ENDROOT
BRANCH   1   7
ATOM      7  C1' I4B d   1       0.470   0.397  -1.801  0.00  0.00     0.060 C 
BRANCH   7   8
ATOM      8  C2' I4B d   1       0.910  -0.958  -2.318  0.00  0.00    -0.013 C 
ATOM      9  C4' I4B d   1      -0.274  -1.798  -2.720  0.00  0.00     0.013 C 
ATOM     10  C3' I4B d   1       1.834  -0.733  -3.478  0.00  0.00     0.013 C 
ENDBRANCH   7   8
ENDBRANCH   1   7
TORSDOF 2
ENDMDL
