MODEL 1
REMARK minimizedAffinity -5.34416533
REMARK minimizedRMSD -1
REMARK  2 active torsions:
REMARK  status: ('A' for Active; 'I' for Inactive)
REMARK    1  A    between atoms: C2'_3  and  C1'_4 
REMARK    2  A    between atoms: C1'_4  and  C1_5 
ROOT
ATOM      1  C1  I4B d   1       1.000  -0.577   0.145  0.00  0.00    -0.075 A 
ATOM      2  C2  I4B d   1       1.715  -0.506   1.314  0.00  0.00     0.003 A 
ATOM      3  C3  I4B d   1       1.092  -0.061   2.505  0.00  0.00     0.002 A 
ATOM      4  C4  I4B d   1      -0.226   0.347   2.471  0.00  0.00    -0.004 A 
ATOM      5  C5  I4B d   1      -0.956   0.252   1.290  0.00  0.00     0.002 A 
ATOM      6  C6  I4B d   1      -0.343  -0.225   0.122  0.00  0.00     0.003 A 
ENDROOT
BRANCH   1   7
ATOM      7  C1' I4B d   1       1.698  -1.020  -1.101  0.00  0.00     0.060 C 
BRANCH   7   8
ATOM      8  C2' I4B d   1       0.649  -1.532  -2.067  0.00  0.00    -0.013 C 
ATOM      9  C4' I4B d   1       0.503  -0.612  -3.251  0.00  0.00     0.013 C 
ATOM     10  C3' I4B d   1       1.051  -2.911  -2.499  0.00  0.00     0.013 C 
ENDBRANCH   7   8
ENDBRANCH   1   7
TORSDOF 2
ENDMDL
