MODEL 1
REMARK minimizedAffinity -1.29697335
REMARK minimizedRMSD -1
REMARK  2 active torsions:
REMARK  status: ('A' for Active; 'I' for Inactive)
REMARK    1  A    between atoms: C2'_3  and  C1'_4 
REMARK    2  A    between atoms: C1'_4  and  C1_5 
ROOT
ATOM      1  C1  I4B d   1      -1.307   1.408   3.350  0.00  0.00    -0.075 A 
ATOM      2  C2  I4B d   1       0.032   1.417   3.651  0.00  0.00     0.003 A 
ATOM      3  C3  I4B d   1       0.621   2.558   4.247  0.00  0.00     0.002 A 
ATOM      4  C4  I4B d   1      -0.150   3.679   4.478  0.00  0.00    -0.004 A 
ATOM      5  C5  I4B d   1      -1.513   3.660   4.194  0.00  0.00     0.002 A 
ATOM      6  C6  I4B d   1      -2.098   2.513   3.638  0.00  0.00     0.003 A 
ENDROOT
BRANCH   1   7
ATOM      7  C1' I4B d   1      -1.890   0.198   2.691  0.00  0.00     0.060 C 
BRANCH   7   8
ATOM      8  C2' I4B d   1      -0.869  -0.334   1.706  0.00  0.00    -0.013 C 
ATOM      9  C4' I4B d   1      -1.094  -1.796   1.423  0.00  0.00     0.013 C 
ATOM     10  C3' I4B d   1      -0.967   0.482   0.451  0.00  0.00     0.013 C 
ENDBRANCH   7   8
ENDBRANCH   1   7
TORSDOF 2
ENDMDL
