MODEL 1
REMARK minimizedAffinity -3.34898782
REMARK minimizedRMSD -1
REMARK  2 active torsions:
REMARK  status: ('A' for Active; 'I' for Inactive)
REMARK    1  A    between atoms: C2'_3  and  C1'_4 
REMARK    2  A    between atoms: C1'_4  and  C1_5 
ROOT
ATOM      1  C1  I4B d   1      -0.713  -0.722   1.333  0.00  0.00    -0.075 A 
ATOM      2  C2  I4B d   1       0.524  -0.126   1.327  0.00  0.00     0.003 A 
ATOM      3  C3  I4B d   1       0.906   0.711   0.251  0.00  0.00     0.002 A 
ATOM      4  C4  I4B d   1       0.047   0.882  -0.816  0.00  0.00    -0.004 A 
ATOM      5  C5  I4B d   1      -1.215   0.295  -0.797  0.00  0.00     0.002 A 
ATOM      6  C6  I4B d   1      -1.602  -0.502   0.290  0.00  0.00     0.003 A 
ENDROOT
BRANCH   1   7
ATOM      7  C1' I4B d   1      -1.071  -1.626   2.470  0.00  0.00     0.060 C 
BRANCH   7   8
ATOM      8  C2' I4B d   1      -2.020  -0.875   3.382  0.00  0.00    -0.013 C 
ATOM      9  C4' I4B d   1      -1.555   0.540   3.606  0.00  0.00     0.013 C 
ATOM     10  C3' I4B d   1      -3.383  -0.904   2.758  0.00  0.00     0.013 C 
ENDBRANCH   7   8
ENDBRANCH   1   7
TORSDOF 2
ENDMDL
