MODEL 1
REMARK minimizedAffinity 2.44776773
REMARK minimizedRMSD -1
REMARK  1 active torsions:
REMARK  status: ('A' for Active; 'I' for Inactive)
REMARK    1  A    between atoms: C1_2  and  C2_3 
ROOT
ATOM      1  C2  UNL d   1       1.084  -0.099   0.800  0.00  0.00    -0.076 A 
ATOM      2  C3  UNL d   1      -0.213  -0.080   0.259  0.00  0.00     0.004 A 
ATOM      3  C4  UNL d   1      -1.260  -0.757   0.882  0.00  0.00    -0.003 A 
ATOM      4  C5  UNL d   1      -1.026  -1.464   2.056  0.00  0.00     0.000 A 
ATOM      5  C6  UNL d   1       0.251  -1.479   2.616  0.00  0.00     0.000 A 
ATOM      6  C7  UNL d   1       1.313  -0.788   2.010  0.00  0.00    -0.073 A 
ATOM      7  C8  UNL d   1       2.672  -0.843   2.654  0.00  0.00     0.078 C 
ENDROOT
BRANCH   1   8
ATOM      8  C1  UNL d   1       2.186   0.632   0.065  0.00  0.00     0.053 C 
ATOM      9  C   UNL d   1       2.971  -0.280  -0.864  0.00  0.00     0.018 C 
ENDBRANCH   1   8
TORSDOF 1
ENDMDL
