MODEL 1
REMARK minimizedAffinity -2.21446157
REMARK minimizedRMSD -1
REMARK  1 active torsions:
REMARK  status: ('A' for Active; 'I' for Inactive)
REMARK    1  A    between atoms: C1_2  and  C2_3 
ROOT
ATOM      1  C2  UNL d   1       1.339  -0.422   1.080  0.00  0.00    -0.076 A 
ATOM      2  C3  UNL d   1       0.283  -0.112   0.205  0.00  0.00     0.004 A 
ATOM      3  C4  UNL d   1      -1.042  -0.355   0.566  0.00  0.00    -0.003 A 
ATOM      4  C5  UNL d   1      -1.332  -0.912   1.806  0.00  0.00     0.000 A 
ATOM      5  C6  UNL d   1      -0.297  -1.209   2.693  0.00  0.00     0.000 A 
ATOM      6  C7  UNL d   1       1.042  -0.955   2.352  0.00  0.00    -0.073 A 
ATOM      7  C8  UNL d   1       2.118  -1.301   3.345  0.00  0.00     0.078 C 
ENDROOT
BRANCH   1   8
ATOM      8  C1  UNL d   1       2.757  -0.161   0.624  0.00  0.00     0.053 C 
ATOM      9  C   UNL d   1       2.915  -0.279  -0.884  0.00  0.00     0.018 C 
ENDBRANCH   1   8
TORSDOF 1
ENDMDL
