MODEL 1
REMARK minimizedAffinity -6.24170303
REMARK minimizedRMSD -1
REMARK  1 active torsions:
REMARK  status: ('A' for Active; 'I' for Inactive)
REMARK    1  A    between atoms: C1_2  and  C2_3 
ROOT
ATOM      1  C2  UNL d   1       1.107  -0.780   1.564  0.00  0.00    -0.076 A 
ATOM      2  C3  UNL d   1      -0.180  -0.215   1.544  0.00  0.00     0.004 A 
ATOM      3  C4  UNL d   1      -0.928  -0.174   0.369  0.00  0.00    -0.003 A 
ATOM      4  C5  UNL d   1      -0.401  -0.699  -0.806  0.00  0.00     0.000 A 
ATOM      5  C6  UNL d   1       0.867  -1.279  -0.801  0.00  0.00     0.000 A 
ATOM      6  C7  UNL d   1       1.628  -1.343   0.379  0.00  0.00    -0.073 A 
ATOM      7  C8  UNL d   1       2.992  -1.974   0.326  0.00  0.00     0.078 C 
ENDROOT
BRANCH   1   8
ATOM      8  C1  UNL d   1       1.882  -0.771   2.862  0.00  0.00     0.053 C 
ATOM      9  C   UNL d   1       1.086  -1.351   4.020  0.00  0.00     0.018 C 
ENDBRANCH   1   8
TORSDOF 1
ENDMDL
