MODEL 1
REMARK minimizedAffinity -4.05063486
REMARK minimizedRMSD -1
REMARK  1 active torsions:
REMARK  status: ('A' for Active; 'I' for Inactive)
REMARK    1  A    between atoms: C1_2  and  C2_3 
ROOT
ATOM      1  C2  UNL d   1       0.216  -0.035   0.215  0.00  0.00    -0.076 A 
ATOM      2  C3  UNL d   1       1.609  -0.159   0.360  0.00  0.00     0.004 A 
ATOM      3  C4  UNL d   1       2.172  -0.535   1.578  0.00  0.00    -0.003 A 
ATOM      4  C5  UNL d   1       1.352  -0.793   2.671  0.00  0.00     0.000 A 
ATOM      5  C6  UNL d   1      -0.032  -0.692   2.540  0.00  0.00     0.000 A 
ATOM      6  C7  UNL d   1      -0.618  -0.330   1.314  0.00  0.00    -0.073 A 
ATOM      7  C8  UNL d   1      -2.116  -0.230   1.231  0.00  0.00     0.078 C 
ENDROOT
BRANCH   1   8
ATOM      8  C1  UNL d   1      -0.336   0.403  -1.123  0.00  0.00     0.053 C 
ATOM      9  C   UNL d   1       0.201   1.756  -1.561  0.00  0.00     0.018 C 
ENDBRANCH   1   8
TORSDOF 1
ENDMDL
