MODEL 1
REMARK minimizedAffinity 10.0630379
REMARK minimizedRMSD -1
REMARK  1 active torsions:
REMARK  status: ('A' for Active; 'I' for Inactive)
REMARK    1  A    between atoms: C1_2  and  C2_3 
ROOT
ATOM      1  C2  UNL d   1       2.089  -4.669   4.749  0.00  0.00    -0.081 A 
ATOM      2  C3  UNL d   1       1.644  -3.458   5.294  0.00  0.00     0.006 A 
ATOM      3  C4  UNL d   1       1.865  -2.254   4.621  0.00  0.00     0.002 A 
ATOM      4  C5  UNL d   1       2.527  -2.242   3.389  0.00  0.00    -0.080 A 
ATOM      5  C6  UNL d   1       2.745  -0.960   2.641  0.00  0.00     0.076 C 
ATOM      6  C7  UNL d   1       2.988  -3.449   2.852  0.00  0.00     0.002 A 
ATOM      7  C8  UNL d   1       2.767  -4.653   3.525  0.00  0.00     0.006 A 
ENDROOT
BRANCH   1   8
ATOM      8  C1  UNL d   1       1.795  -5.975   5.441  0.00  0.00     0.054 C 
ATOM      9  C   UNL d   1       0.379  -5.999   6.000  0.00  0.00     0.018 C 
ENDBRANCH   1   8
TORSDOF 1
ENDMDL
