MODEL 1
REMARK minimizedAffinity 9.04977512
REMARK minimizedRMSD -1
REMARK  1 active torsions:
REMARK  status: ('A' for Active; 'I' for Inactive)
REMARK    1  A    between atoms: C1_2  and  C2_3 
ROOT
ATOM      1  C2  UNL d   1       3.080  -0.146   2.423  0.00  0.00    -0.081 A 
ATOM      2  C3  UNL d   1       4.044  -0.813   3.189  0.00  0.00     0.006 A 
ATOM      3  C4  UNL d   1       3.668  -1.833   4.067  0.00  0.00     0.002 A 
ATOM      4  C5  UNL d   1       2.326  -2.207   4.188  0.00  0.00    -0.080 A 
ATOM      5  C6  UNL d   1       1.914  -3.321   5.104  0.00  0.00     0.076 C 
ATOM      6  C7  UNL d   1       1.361  -1.529   3.436  0.00  0.00     0.002 A 
ATOM      7  C8  UNL d   1       1.735  -0.509   2.558  0.00  0.00     0.006 A 
ENDROOT
BRANCH   1   8
ATOM      8  C1  UNL d   1       3.489   0.910   1.428  0.00  0.00     0.054 C 
ATOM      9  C   UNL d   1       2.673   2.183   1.606  0.00  0.00     0.018 C 
ENDBRANCH   1   8
TORSDOF 1
ENDMDL
