MODEL 1
REMARK minimizedAffinity 4.12575197
REMARK minimizedRMSD -1
REMARK  1 active torsions:
REMARK  status: ('A' for Active; 'I' for Inactive)
REMARK    1  A    between atoms: C1_2  and  C2_3 
ROOT
ATOM      1  C2  UNL d   1       3.684  -1.694   4.837  0.00  0.00    -0.081 A 
ATOM      2  C3  UNL d   1       4.196  -1.534   3.544  0.00  0.00     0.006 A 
ATOM      3  C4  UNL d   1       3.346  -1.224   2.479  0.00  0.00     0.002 A 
ATOM      4  C5  UNL d   1       1.973  -1.060   2.691  0.00  0.00    -0.080 A 
ATOM      5  C6  UNL d   1       1.055  -0.697   1.563  0.00  0.00     0.076 C 
ATOM      6  C7  UNL d   1       1.459  -1.237   3.980  0.00  0.00     0.002 A 
ATOM      7  C8  UNL d   1       2.308  -1.548   5.045  0.00  0.00     0.006 A 
ENDROOT
BRANCH   1   8
ATOM      8  C1  UNL d   1       4.606  -1.964   5.999  0.00  0.00     0.054 C 
ATOM      9  C   UNL d   1       6.000  -2.346   5.521  0.00  0.00     0.018 C 
ENDBRANCH   1   8
TORSDOF 1
ENDMDL
