MODEL 1
REMARK minimizedAffinity 3.16514158
REMARK minimizedRMSD -1
REMARK  1 active torsions:
REMARK  status: ('A' for Active; 'I' for Inactive)
REMARK    1  A    between atoms: C1_2  and  C2_3 
ROOT
ATOM      1  C2  UNL d   1       2.678  -1.872   3.766  0.00  0.00    -0.081 A 
ATOM      2  C3  UNL d   1       3.979  -1.785   3.258  0.00  0.00     0.006 A 
ATOM      3  C4  UNL d   1       5.059  -2.295   3.984  0.00  0.00     0.002 A 
ATOM      4  C5  UNL d   1       4.854  -2.907   5.225  0.00  0.00    -0.080 A 
ATOM      5  C6  UNL d   1       6.000  -3.485   6.000  0.00  0.00     0.076 C 
ATOM      6  C7  UNL d   1       3.555  -2.978   5.741  0.00  0.00     0.002 A 
ATOM      7  C8  UNL d   1       2.476  -2.468   5.016  0.00  0.00     0.006 A 
ENDROOT
BRANCH   1   8
ATOM      8  C1  UNL d   1       1.504  -1.381   2.957  0.00  0.00     0.054 C 
ATOM      9  C   UNL d   1       1.825  -0.067   2.259  0.00  0.00     0.018 C 
ENDBRANCH   1   8
TORSDOF 1
ENDMDL
