MODEL 1
REMARK minimizedAffinity 16.1602898
REMARK minimizedRMSD -1
REMARK  1 active torsions:
REMARK  status: ('A' for Active; 'I' for Inactive)
REMARK    1  A    between atoms: C1_2  and  C2_3 
ROOT
ATOM      1  C2  UNL d   1       1.797  -2.744   3.829  0.00  0.00    -0.081 A 
ATOM      2  C3  UNL d   1       2.054  -4.077   3.487  0.00  0.00     0.006 A 
ATOM      3  C4  UNL d   1       1.450  -5.119   4.195  0.00  0.00     0.002 A 
ATOM      4  C5  UNL d   1       0.575  -4.845   5.251  0.00  0.00    -0.080 A 
ATOM      5  C6  UNL d   1      -0.103  -5.954   6.000  0.00  0.00     0.076 C 
ATOM      6  C7  UNL d   1       0.332  -3.514   5.605  0.00  0.00     0.002 A 
ATOM      7  C8  UNL d   1       0.935  -2.472   4.898  0.00  0.00     0.006 A 
ENDROOT
BRANCH   1   8
ATOM      8  C1  UNL d   1       2.395  -1.617   3.026  0.00  0.00     0.054 C 
ATOM      9  C   UNL d   1       1.331  -0.616   2.599  0.00  0.00     0.018 C 
ENDBRANCH   1   8
TORSDOF 1
ENDMDL
