MODEL 1
REMARK minimizedAffinity 16.8510208
REMARK minimizedRMSD -1
REMARK  1 active torsions:
REMARK  status: ('A' for Active; 'I' for Inactive)
REMARK    1  A    between atoms: C1_2  and  C2_3 
ROOT
ATOM      1  C2  UNL d   1       1.203  -0.148   0.947  0.00  0.00    -0.081 A 
ATOM      2  C3  UNL d   1      -0.056   0.456   1.049  0.00  0.00     0.006 A 
ATOM      3  C4  UNL d   1      -1.079   0.115   0.162  0.00  0.00     0.002 A 
ATOM      4  C5  UNL d   1      -0.863  -0.841  -0.837  0.00  0.00    -0.080 A 
ATOM      5  C6  UNL d   1      -1.962  -1.239  -1.777  0.00  0.00     0.076 C 
ATOM      6  C7  UNL d   1       0.400  -1.432  -0.950  0.00  0.00     0.002 A 
ATOM      7  C8  UNL d   1       1.424  -1.090  -0.063  0.00  0.00     0.006 A 
ENDROOT
BRANCH   1   8
ATOM      8  C1  UNL d   1       2.289   0.171   1.943  0.00  0.00     0.054 C 
ATOM      9  C   UNL d   1       2.286  -0.818   3.100  0.00  0.00     0.018 C 
ENDBRANCH   1   8
TORSDOF 1
ENDMDL
