MODEL 1
REMARK minimizedAffinity 11.2547903
REMARK minimizedRMSD -1
REMARK  1 active torsions:
REMARK  status: ('A' for Active; 'I' for Inactive)
REMARK    1  A    between atoms: C1_2  and  C2_3 
ROOT
ATOM      1  C2  UNL d   1       2.920  -1.454   2.744  0.00  0.00    -0.081 A 
ATOM      2  C3  UNL d   1       3.685  -1.010   1.659  0.00  0.00     0.006 A 
ATOM      3  C4  UNL d   1       3.523   0.286   1.161  0.00  0.00     0.002 A 
ATOM      4  C5  UNL d   1       2.599   1.160   1.745  0.00  0.00    -0.080 A 
ATOM      5  C6  UNL d   1       2.437   2.563   1.241  0.00  0.00     0.076 C 
ATOM      6  C7  UNL d   1       1.823   0.710   2.819  0.00  0.00     0.002 A 
ATOM      7  C8  UNL d   1       1.984  -0.585   3.316  0.00  0.00     0.006 A 
ENDROOT
BRANCH   1   8
ATOM      8  C1  UNL d   1       3.139  -2.829   3.324  0.00  0.00     0.054 C 
ATOM      9  C   UNL d   1       4.293  -2.834   4.315  0.00  0.00     0.018 C 
ENDBRANCH   1   8
TORSDOF 1
ENDMDL
