MODEL 1
REMARK minimizedAffinity 12.1826773
REMARK minimizedRMSD -1
REMARK  1 active torsions:
REMARK  status: ('A' for Active; 'I' for Inactive)
REMARK    1  A    between atoms: C1_2  and  C2_3 
ROOT
ATOM      1  C2  UNL d   1       1.041  -0.841   1.264  0.00  0.00    -0.081 A 
ATOM      2  C3  UNL d   1      -0.276  -0.368   1.315  0.00  0.00     0.006 A 
ATOM      3  C4  UNL d   1      -1.189  -0.705   0.313  0.00  0.00     0.002 A 
ATOM      4  C5  UNL d   1      -0.804  -1.527  -0.751  0.00  0.00    -0.080 A 
ATOM      5  C6  UNL d   1      -1.783  -1.922  -1.817  0.00  0.00     0.076 C 
ATOM      6  C7  UNL d   1       0.516  -1.986  -0.812  0.00  0.00     0.002 A 
ATOM      7  C8  UNL d   1       1.430  -1.648   0.189  0.00  0.00     0.006 A 
ENDROOT
BRANCH   1   8
ATOM      8  C1  UNL d   1       2.010  -0.532   2.376  0.00  0.00     0.054 C 
ATOM      9  C   UNL d   1       1.978  -1.608   3.452  0.00  0.00     0.018 C 
ENDBRANCH   1   8
TORSDOF 1
ENDMDL
