MODEL 1
REMARK minimizedAffinity 6.48477888
REMARK minimizedRMSD -1
REMARK  0 active torsions:
REMARK  status: ('A' for Active; 'I' for Inactive)
ROOT
ATOM      1  C   UNL d   1       3.435  -2.414  -2.540  0.00  0.00     0.023 A 
ATOM      2  C1  UNL d   1       2.415  -2.825  -1.682  0.00  0.00     0.003 A 
ATOM      3  C2  UNL d   1       1.972  -1.977  -0.665  0.00  0.00     0.048 A 
ATOM      4  C3  UNL d   1       2.552  -0.718  -0.513  0.00  0.00     0.023 A 
ATOM      5  C4  UNL d   1       3.572  -0.302  -1.369  0.00  0.00     0.048 A 
ATOM      6  C5  UNL d   1       4.013  -1.153  -2.384  0.00  0.00     0.003 A 
ATOM      7  I   UNL d   1       1.893   0.546   1.000  0.00  0.00    -0.146 I 
ENDROOT
TORSDOF 0
ENDMDL
