MODEL 1
REMARK minimizedAffinity 4.2925415
REMARK minimizedRMSD -1
REMARK  0 active torsions:
REMARK  status: ('A' for Active; 'I' for Inactive)
ROOT
ATOM      1  C   UNL d   1       2.997  -3.109  -1.510  0.00  0.00     0.023 A 
ATOM      2  C1  UNL d   1       3.815  -2.260  -2.255  0.00  0.00     0.003 A 
ATOM      3  C2  UNL d   1       4.107  -0.978  -1.783  0.00  0.00     0.048 A 
ATOM      4  C3  UNL d   1       3.579  -0.553  -0.565  0.00  0.00     0.023 A 
ATOM      5  C4  UNL d   1       2.761  -1.400   0.185  0.00  0.00     0.048 A 
ATOM      6  C5  UNL d   1       2.470  -2.679  -0.292  0.00  0.00     0.003 A 
ATOM      7  I   UNL d   1       4.013   1.353   0.140  0.00  0.00    -0.146 I 
ENDROOT
TORSDOF 0
ENDMDL
