MODEL 1
REMARK minimizedAffinity 4.25328255
REMARK minimizedRMSD -1
REMARK  0 active torsions:
REMARK  status: ('A' for Active; 'I' for Inactive)
ROOT
ATOM      1  C   UNL d   1       1.360   0.515   2.743  0.00  0.00     0.023 A 
ATOM      2  C1  UNL d   1       1.895   0.625   1.459  0.00  0.00     0.003 A 
ATOM      3  C2  UNL d   1       1.049   0.783   0.360  0.00  0.00     0.048 A 
ATOM      4  C3  UNL d   1      -0.331   0.832   0.551  0.00  0.00     0.023 A 
ATOM      5  C4  UNL d   1      -0.871   0.724   1.834  0.00  0.00     0.048 A 
ATOM      6  C5  UNL d   1      -0.021   0.565   2.930  0.00  0.00     0.003 A 
ATOM      7  I   UNL d   1      -1.593   1.068  -1.083  0.00  0.00    -0.146 I 
ENDROOT
TORSDOF 0
ENDMDL
