MODEL 1
REMARK minimizedAffinity 3.81154799
REMARK minimizedRMSD -1
REMARK  0 active torsions:
REMARK  status: ('A' for Active; 'I' for Inactive)
ROOT
ATOM      1  C   UNL d   1      -1.877  -5.522  -1.613  0.00  0.00     0.023 A 
ATOM      2  C1  UNL d   1      -0.790  -5.897  -0.824  0.00  0.00     0.003 A 
ATOM      3  C2  UNL d   1       0.271  -5.010  -0.627  0.00  0.00     0.048 A 
ATOM      4  C3  UNL d   1       0.236  -3.749  -1.221  0.00  0.00     0.023 A 
ATOM      5  C4  UNL d   1      -0.850  -3.369  -2.010  0.00  0.00     0.048 A 
ATOM      6  C5  UNL d   1      -1.907  -4.260  -2.205  0.00  0.00     0.003 A 
ATOM      7  I   UNL d   1       1.813  -2.427  -0.929  0.00  0.00    -0.146 I 
ENDROOT
TORSDOF 0
ENDMDL
