MODEL 1
REMARK minimizedAffinity 1.47575831
REMARK minimizedRMSD -1
REMARK  0 active torsions:
REMARK  status: ('A' for Active; 'I' for Inactive)
ROOT
ATOM      1  C   UNL d   1      -1.166   1.548   2.286  0.00  0.00     0.023 A 
ATOM      2  C1  UNL d   1       0.001   1.327   3.017  0.00  0.00     0.003 A 
ATOM      3  C2  UNL d   1       1.222   1.177   2.357  0.00  0.00     0.048 A 
ATOM      4  C3  UNL d   1       1.269   1.252   0.965  0.00  0.00     0.023 A 
ATOM      5  C4  UNL d   1       0.103   1.474   0.230  0.00  0.00     0.048 A 
ATOM      6  C5  UNL d   1      -1.115   1.622   0.894  0.00  0.00     0.003 A 
ATOM      7  I   UNL d   1       3.085   1.030  -0.021  0.00  0.00    -0.146 I 
ENDROOT
TORSDOF 0
ENDMDL
