MODEL 1
REMARK minimizedAffinity 2.9183259
REMARK minimizedRMSD -1
REMARK  0 active torsions:
REMARK  status: ('A' for Active; 'I' for Inactive)
ROOT
ATOM      1  C   UNL d   1      -1.094   1.980   1.639  0.00  0.00     0.023 A 
ATOM      2  C1  UNL d   1      -0.528   1.163   2.619  0.00  0.00     0.003 A 
ATOM      3  C2  UNL d   1       0.400   0.183   2.262  0.00  0.00     0.048 A 
ATOM      4  C3  UNL d   1       0.760   0.026   0.924  0.00  0.00     0.023 A 
ATOM      5  C4  UNL d   1       0.198   0.842  -0.059  0.00  0.00     0.048 A 
ATOM      6  C5  UNL d   1      -0.731   1.819   0.302  0.00  0.00     0.003 A 
ATOM      7  I   UNL d   1       2.143  -1.431   0.391  0.00  0.00    -0.146 I 
ENDROOT
TORSDOF 0
ENDMDL
