MODEL 1
REMARK minimizedAffinity 3.51936769
REMARK minimizedRMSD -1
REMARK  0 active torsions:
REMARK  status: ('A' for Active; 'I' for Inactive)
ROOT
ATOM      1  C   UNL d   1      -1.560   1.864  -0.127  0.00  0.00     0.023 A 
ATOM      2  C1  UNL d   1      -2.195   1.846   1.115  0.00  0.00     0.003 A 
ATOM      3  C2  UNL d   1      -1.509   1.392   2.244  0.00  0.00     0.048 A 
ATOM      4  C3  UNL d   1      -0.190   0.958   2.123  0.00  0.00     0.023 A 
ATOM      5  C4  UNL d   1       0.450   0.976   0.883  0.00  0.00     0.048 A 
ATOM      6  C5  UNL d   1      -0.240   1.429  -0.243  0.00  0.00     0.003 A 
ATOM      7  I   UNL d   1       0.833   0.283   3.802  0.00  0.00    -0.146 I 
ENDROOT
TORSDOF 0
ENDMDL
