MODEL 1
REMARK minimizedAffinity 3.94184685
REMARK minimizedRMSD -1
REMARK  0 active torsions:
REMARK  status: ('A' for Active; 'I' for Inactive)
ROOT
ATOM      1  C   UNL d   1       3.967  -1.042  -0.887  0.00  0.00     0.023 A 
ATOM      2  C1  UNL d   1       3.764   0.335  -0.787  0.00  0.00     0.003 A 
ATOM      3  C2  UNL d   1       2.695   0.832  -0.040  0.00  0.00     0.048 A 
ATOM      4  C3  UNL d   1       1.833  -0.052   0.607  0.00  0.00     0.023 A 
ATOM      5  C4  UNL d   1       2.032  -1.430   0.511  0.00  0.00     0.048 A 
ATOM      6  C5  UNL d   1       3.102  -1.923  -0.238  0.00  0.00     0.003 A 
ATOM      7  I   UNL d   1       0.241   0.686   1.720  0.00  0.00    -0.146 I 
ENDROOT
TORSDOF 0
ENDMDL
