MODEL 1
REMARK minimizedAffinity -4.99354887
REMARK minimizedRMSD -1
REMARK  0 active torsions:
REMARK  status: ('A' for Active; 'I' for Inactive)
ROOT
ATOM      1  C2' OXE d   1       0.946  -0.071   1.706  0.00  0.00     0.078 C 
ATOM      2  C1' OXE d   1       0.479  -0.390  -1.044  0.00  0.00     0.078 C 
ATOM      3  C1  OXE d   1      -0.319   0.660  -0.311  0.00  0.00    -0.078 A 
ATOM      4  C2  OXE d   1      -0.117   0.777   1.043  0.00  0.00    -0.078 A 
ATOM      5  C3  OXE d   1      -0.787   1.767   1.757  0.00  0.00     0.003 A 
ATOM      6  C4  OXE d   1      -1.776   2.540   1.138  0.00  0.00    -0.002 A 
ATOM      7  C5  OXE d   1      -2.026   2.410  -0.233  0.00  0.00    -0.002 A 
ATOM      8  C6  OXE d   1      -1.277   1.506  -0.979  0.00  0.00     0.003 A 
ENDROOT
TORSDOF 0
ENDMDL
