MODEL 1
REMARK minimizedAffinity -4.00986099
REMARK minimizedRMSD -1
REMARK  0 active torsions:
REMARK  status: ('A' for Active; 'I' for Inactive)
ROOT
ATOM      1  C2' OXE d   1       1.556  -0.372   1.830  0.00  0.00     0.078 C 
ATOM      2  C1' OXE d   1       0.304  -0.676  -0.665  0.00  0.00     0.078 C 
ATOM      3  C1  OXE d   1      -0.216   0.399   0.257  0.00  0.00    -0.078 A 
ATOM      4  C2  OXE d   1       0.372   0.510   1.494  0.00  0.00    -0.078 A 
ATOM      5  C3  OXE d   1      -0.033   1.521   2.362  0.00  0.00     0.003 A 
ATOM      6  C4  OXE d   1      -1.134   2.325   2.047  0.00  0.00    -0.002 A 
ATOM      7  C5  OXE d   1      -1.773   2.203   0.809  0.00  0.00    -0.002 A 
ATOM      8  C6  OXE d   1      -1.300   1.275  -0.113  0.00  0.00     0.003 A 
ENDROOT
TORSDOF 0
ENDMDL
