MODEL 1
REMARK minimizedAffinity -1.77416003
REMARK minimizedRMSD -1
REMARK  0 active torsions:
REMARK  status: ('A' for Active; 'I' for Inactive)
ROOT
ATOM      1  C2' OXE d   1      -1.719   2.322  -1.211  0.00  0.00     0.078 C 
ATOM      2  C1' OXE d   1      -1.235   2.809   1.511  0.00  0.00     0.078 C 
ATOM      3  C1  OXE d   1      -0.498   1.666   0.859  0.00  0.00    -0.078 A 
ATOM      4  C2  OXE d   1      -0.776   1.405  -0.461  0.00  0.00    -0.078 A 
ATOM      5  C3  OXE d   1      -0.084   0.397  -1.126  0.00  0.00     0.003 A 
ATOM      6  C4  OXE d   1       0.779  -0.452  -0.423  0.00  0.00    -0.002 A 
ATOM      7  C5  OXE d   1       1.046  -0.229   0.932  0.00  0.00    -0.002 A 
ATOM      8  C6  OXE d   1       0.450   0.849   1.576  0.00  0.00     0.003 A 
ENDROOT
TORSDOF 0
ENDMDL
