MODEL 1
REMARK minimizedAffinity 6.43395853
REMARK minimizedRMSD -1
REMARK  0 active torsions:
REMARK  status: ('A' for Active; 'I' for Inactive)
ROOT
ATOM      1  N1  IND d   1      -5.667   4.737   5.122  0.00  0.00    -0.196 N 
ATOM      2  C2  IND d   1      -4.770   5.324   5.971  0.00  0.00     0.054 A 
ATOM      3  C3  IND d   1      -3.744   5.861   5.273  0.00  0.00    -0.031 A 
ATOM      4  C4  IND d   1      -3.385   5.984   2.727  0.00  0.00     0.051 A 
ATOM      5  C5  IND d   1      -3.916   5.557   1.543  0.00  0.00    -0.031 A 
ATOM      6  C6  IND d   1      -5.083   4.823   1.489  0.00  0.00     0.015 A 
ATOM      7  C7  IND d   1      -5.772   4.496   2.623  0.00  0.00    -0.016 A 
ATOM      8  C8  IND d   1      -5.232   4.922   3.828  0.00  0.00    -0.047 A 
ATOM      9  C9  IND d   1      -4.025   5.631   3.892  0.00  0.00    -0.096 A 
ATOM     10  HN1 IND d   1      -6.383   4.323   5.357  0.00  0.00     0.298 HD
ENDROOT
TORSDOF 0
ENDMDL
