MODEL 1
REMARK minimizedAffinity -0.16481398
REMARK minimizedRMSD -1
REMARK  0 active torsions:
REMARK  status: ('A' for Active; 'I' for Inactive)
ROOT
ATOM      1  N1  IND d   1       1.760  -2.769   5.259  0.00  0.00    -0.196 N 
ATOM      2  C2  IND d   1       1.105  -1.704   4.706  0.00  0.00     0.054 A 
ATOM      3  C3  IND d   1      -0.197  -2.007   4.503  0.00  0.00    -0.031 A 
ATOM      4  C4  IND d   1      -1.489  -4.153   5.098  0.00  0.00     0.051 A 
ATOM      5  C5  IND d   1      -1.311  -5.417   5.585  0.00  0.00    -0.031 A 
ATOM      6  C6  IND d   1      -0.076  -5.872   5.999  0.00  0.00     0.015 A 
ATOM      7  C7  IND d   1       1.030  -5.071   5.952  0.00  0.00    -0.016 A 
ATOM      8  C8  IND d   1       0.855  -3.789   5.451  0.00  0.00    -0.047 A 
ATOM      9  C9  IND d   1      -0.388  -3.336   4.990  0.00  0.00    -0.096 A 
ATOM     10  HN1 IND d   1       2.597  -2.797   5.453  0.00  0.00     0.298 HD
ENDROOT
TORSDOF 0
ENDMDL
