MODEL 1
REMARK minimizedAffinity 8.04923439
REMARK minimizedRMSD -1
REMARK  0 active torsions:
REMARK  status: ('A' for Active; 'I' for Inactive)
ROOT
ATOM      1  N1  IND d   1      -0.102  -2.811   3.470  0.00  0.00    -0.196 N 
ATOM      2  C2  IND d   1       0.982  -2.086   3.879  0.00  0.00     0.054 A 
ATOM      3  C3  IND d   1       1.606  -2.711   4.904  0.00  0.00    -0.031 A 
ATOM      4  C4  IND d   1       1.080  -4.980   6.000  0.00  0.00     0.051 A 
ATOM      5  C5  IND d   1       0.163  -5.994   5.991  0.00  0.00    -0.031 A 
ATOM      6  C6  IND d   1      -0.909  -6.000   5.122  0.00  0.00     0.015 A 
ATOM      7  C7  IND d   1      -1.098  -4.994   4.218  0.00  0.00    -0.016 A 
ATOM      8  C8  IND d   1      -0.174  -3.959   4.228  0.00  0.00    -0.047 A 
ATOM      9  C9  IND d   1       0.892  -3.926   5.137  0.00  0.00    -0.096 A 
ATOM     10  HN1 IND d   1      -0.647  -2.588   2.844  0.00  0.00     0.298 HD
ENDROOT
TORSDOF 0
ENDMDL
