MODEL 1
REMARK minimizedAffinity 11.8049593
REMARK minimizedRMSD -1
REMARK  0 active torsions:
REMARK  status: ('A' for Active; 'I' for Inactive)
ROOT
ATOM      1  N1  IND d   1       1.953   2.104  -0.011  0.00  0.00    -0.196 N 
ATOM      2  C2  IND d   1       1.635   0.831  -0.397  0.00  0.00     0.054 A 
ATOM      3  C3  IND d   1       2.756   0.088  -0.533  0.00  0.00    -0.031 A 
ATOM      4  C4  IND d   1       5.208   0.726  -0.075  0.00  0.00     0.051 A 
ATOM      5  C5  IND d   1       6.000   1.788   0.260  0.00  0.00    -0.031 A 
ATOM      6  C6  IND d   1       5.472   3.034   0.530  0.00  0.00     0.015 A 
ATOM      7  C7  IND d   1       4.126   3.263   0.486  0.00  0.00    -0.016 A 
ATOM      8  C8  IND d   1       3.319   2.188   0.139  0.00  0.00    -0.047 A 
ATOM      9  C9  IND d   1       3.852   0.932  -0.178  0.00  0.00    -0.096 A 
ATOM     10  HN1 IND d   1       1.393   2.744   0.116  0.00  0.00     0.298 HD
ENDROOT
TORSDOF 0
ENDMDL
