MODEL 1
REMARK minimizedAffinity -1.47124219
REMARK minimizedRMSD -1
REMARK  0 active torsions:
REMARK  status: ('A' for Active; 'I' for Inactive)
ROOT
ATOM      1  N1  IND d   1      -3.037   6.000   1.862  0.00  0.00    -0.196 N 
ATOM      2  C2  IND d   1      -3.952   5.964   0.847  0.00  0.00     0.054 A 
ATOM      3  C3  IND d   1      -5.207   5.909   1.347  0.00  0.00    -0.031 A 
ATOM      4  C4  IND d   1      -5.996   5.971   3.797  0.00  0.00     0.051 A 
ATOM      5  C5  IND d   1      -5.526   5.965   5.080  0.00  0.00    -0.031 A 
ATOM      6  C6  IND d   1      -4.176   5.973   5.362  0.00  0.00     0.015 A 
ATOM      7  C7  IND d   1      -3.240   5.999   4.367  0.00  0.00    -0.016 A 
ATOM      8  C8  IND d   1      -3.713   5.998   3.062  0.00  0.00    -0.047 A 
ATOM      9  C9  IND d   1      -5.082   5.947   2.770  0.00  0.00    -0.096 A 
ATOM     10  HN1 IND d   1      -2.183   6.020   1.767  0.00  0.00     0.298 HD
ENDROOT
TORSDOF 0
ENDMDL
