MODEL 1
REMARK minimizedAffinity -3.40065074
REMARK minimizedRMSD -1
REMARK  0 active torsions:
REMARK  status: ('A' for Active; 'I' for Inactive)
ROOT
ATOM      1  N1  IND d   1      -6.000   5.680   4.837  0.00  0.00    -0.196 N 
ATOM      2  C2  IND d   1      -5.251   5.731   5.980  0.00  0.00     0.054 A 
ATOM      3  C3  IND d   1      -3.937   5.820   5.678  0.00  0.00    -0.031 A 
ATOM      4  C4  IND d   1      -2.796   6.000   3.377  0.00  0.00     0.051 A 
ATOM      5  C5  IND d   1      -3.061   5.959   2.037  0.00  0.00    -0.031 A 
ATOM      6  C6  IND d   1      -4.346   5.824   1.552  0.00  0.00     0.015 A 
ATOM      7  C7  IND d   1      -5.419   5.734   2.393  0.00  0.00    -0.016 A 
ATOM      8  C8  IND d   1      -5.153   5.768   3.754  0.00  0.00    -0.047 A 
ATOM      9  C9  IND d   1      -3.847   5.863   4.253  0.00  0.00    -0.096 A 
ATOM     10  HN1 IND d   1      -6.855   5.605   4.801  0.00  0.00     0.298 HD
ENDROOT
TORSDOF 0
ENDMDL
