MODEL 1
REMARK minimizedAffinity -4.92420435
REMARK minimizedRMSD -1
REMARK  1 active torsions:
REMARK  status: ('A' for Active; 'I' for Inactive)
REMARK    1  A    between atoms: C1_2  and  C2_3 
ROOT
ATOM      1  C2  UNL d   1      -0.057   1.129  -0.381  0.00  0.00    -0.081 A 
ATOM      2  C3  UNL d   1      -0.712   0.677   0.771  0.00  0.00     0.006 A 
ATOM      3  C4  UNL d   1      -0.815  -0.690   1.037  0.00  0.00     0.002 A 
ATOM      4  C5  UNL d   1      -0.259  -1.627   0.159  0.00  0.00    -0.080 A 
ATOM      5  C6  UNL d   1      -0.337  -3.097   0.448  0.00  0.00     0.076 C 
ATOM      6  C7  UNL d   1       0.379  -1.177  -1.001  0.00  0.00     0.002 A 
ATOM      7  C8  UNL d   1       0.482   0.190  -1.267  0.00  0.00     0.006 A 
ENDROOT
BRANCH   1   8
ATOM      8  C1  UNL d   1       0.112   2.605  -0.638  0.00  0.00     0.054 C 
ATOM      9  C   UNL d   1       1.304   3.166   0.124  0.00  0.00     0.018 C 
ENDBRANCH   1   8
TORSDOF 1
ENDMDL
