MODEL 1
REMARK minimizedAffinity -3.55965495
REMARK minimizedRMSD -1
REMARK  1 active torsions:
REMARK  status: ('A' for Active; 'I' for Inactive)
REMARK    1  A    between atoms: C1_2  and  C2_3 
ROOT
ATOM      1  C2  UNL d   1       0.158   0.364  -0.674  0.00  0.00    -0.081 A 
ATOM      2  C3  UNL d   1      -0.591  -0.015   0.446  0.00  0.00     0.006 A 
ATOM      3  C4  UNL d   1      -0.583  -1.341   0.887  0.00  0.00     0.002 A 
ATOM      4  C5  UNL d   1       0.179  -2.306   0.221  0.00  0.00    -0.080 A 
ATOM      5  C6  UNL d   1       0.219  -3.726   0.702  0.00  0.00     0.076 C 
ATOM      6  C7  UNL d   1       0.913  -1.931  -0.909  0.00  0.00     0.002 A 
ATOM      7  C8  UNL d   1       0.905  -0.606  -1.351  0.00  0.00     0.006 A 
ENDROOT
BRANCH   1   8
ATOM      8  C1  UNL d   1       0.203   1.806  -1.114  0.00  0.00     0.054 C 
ATOM      9  C   UNL d   1       0.892   2.679  -0.075  0.00  0.00     0.018 C 
ENDBRANCH   1   8
TORSDOF 1
ENDMDL
