MODEL 1
REMARK minimizedAffinity -2.64216471
REMARK minimizedRMSD -1
REMARK  1 active torsions:
REMARK  status: ('A' for Active; 'I' for Inactive)
REMARK    1  A    between atoms: C1_2  and  C2_3 
ROOT
ATOM      1  C2  UNL d   1      -0.021   0.988   0.121  0.00  0.00    -0.081 A 
ATOM      2  C3  UNL d   1       0.712   0.202  -0.776  0.00  0.00     0.006 A 
ATOM      3  C4  UNL d   1       0.575  -1.189  -0.776  0.00  0.00     0.002 A 
ATOM      4  C5  UNL d   1      -0.304  -1.815   0.115  0.00  0.00    -0.080 A 
ATOM      5  C6  UNL d   1      -0.484  -3.304   0.105  0.00  0.00     0.076 C 
ATOM      6  C7  UNL d   1      -1.024  -1.031   1.023  0.00  0.00     0.002 A 
ATOM      7  C8  UNL d   1      -0.886   0.359   1.024  0.00  0.00     0.006 A 
ENDROOT
BRANCH   1   8
ATOM      8  C1  UNL d   1       0.076   2.491   0.079  0.00  0.00     0.054 C 
ATOM      9  C   UNL d   1       1.441   2.971   0.555  0.00  0.00     0.018 C 
ENDBRANCH   1   8
TORSDOF 1
ENDMDL
