MODEL 1
REMARK minimizedAffinity -5.28038931
REMARK minimizedRMSD -1
REMARK  1 active torsions:
REMARK  status: ('A' for Active; 'I' for Inactive)
REMARK    1  A    between atoms: C1_2  and  C2_3 
ROOT
ATOM      1  C2  UNL d   1       0.062   0.783  -0.198  0.00  0.00    -0.081 A 
ATOM      2  C3  UNL d   1      -0.193   0.123   1.010  0.00  0.00     0.006 A 
ATOM      3  C4  UNL d   1      -0.300  -1.269   1.048  0.00  0.00     0.002 A 
ATOM      4  C5  UNL d   1      -0.146  -2.025  -0.119  0.00  0.00    -0.080 A 
ATOM      5  C6  UNL d   1      -0.228  -3.522  -0.087  0.00  0.00     0.076 C 
ATOM      6  C7  UNL d   1       0.091  -1.365  -1.330  0.00  0.00     0.002 A 
ATOM      7  C8  UNL d   1       0.197   0.027  -1.368  0.00  0.00     0.006 A 
ENDROOT
BRANCH   1   8
ATOM      8  C1  UNL d   1       0.242   2.279  -0.231  0.00  0.00     0.054 C 
ATOM      9  C   UNL d   1       1.410   2.715   0.641  0.00  0.00     0.018 C 
ENDBRANCH   1   8
TORSDOF 1
ENDMDL
