MODEL 1
REMARK minimizedAffinity -5.45952415
REMARK minimizedRMSD -1
REMARK  1 active torsions:
REMARK  status: ('A' for Active; 'I' for Inactive)
REMARK    1  A    between atoms: C1_2  and  C2_3 
ROOT
ATOM      1  C2  UNL d   1       0.560   1.177   0.464  0.00  0.00    -0.081 A 
ATOM      2  C3  UNL d   1      -0.181   0.600   1.503  0.00  0.00     0.006 A 
ATOM      3  C4  UNL d   1      -0.493  -0.761   1.479  0.00  0.00     0.002 A 
ATOM      4  C5  UNL d   1      -0.063  -1.570   0.422  0.00  0.00    -0.080 A 
ATOM      5  C6  UNL d   1      -0.365  -3.039   0.400  0.00  0.00     0.076 C 
ATOM      6  C7  UNL d   1       0.662  -0.990  -0.625  0.00  0.00     0.002 A 
ATOM      7  C8  UNL d   1       0.973   0.371  -0.603  0.00  0.00     0.006 A 
ENDROOT
BRANCH   1   8
ATOM      8  C1  UNL d   1       0.954   2.631   0.518  0.00  0.00     0.054 C 
ATOM      9  C   UNL d   1       2.460   2.801   0.389  0.00  0.00     0.018 C 
ENDBRANCH   1   8
TORSDOF 1
ENDMDL
