MODEL 1
REMARK minimizedAffinity -5.40576982
REMARK minimizedRMSD -1
REMARK  1 active torsions:
REMARK  status: ('A' for Active; 'I' for Inactive)
REMARK    1  A    between atoms: C1_2  and  C2_3 
ROOT
ATOM      1  C2  UNL d   1       0.431   0.990   0.056  0.00  0.00    -0.081 A 
ATOM      2  C3  UNL d   1      -0.540   0.625   0.997  0.00  0.00     0.006 A 
ATOM      3  C4  UNL d   1      -0.869  -0.719   1.191  0.00  0.00     0.002 A 
ATOM      4  C5  UNL d   1      -0.227  -1.720   0.454  0.00  0.00    -0.080 A 
ATOM      5  C6  UNL d   1      -0.549  -3.168   0.674  0.00  0.00     0.076 C 
ATOM      6  C7  UNL d   1       0.731  -1.355  -0.498  0.00  0.00     0.002 A 
ATOM      7  C8  UNL d   1       1.059  -0.011  -0.693  0.00  0.00     0.006 A 
ENDROOT
BRANCH   1   8
ATOM      8  C1  UNL d   1       0.834   2.433  -0.109  0.00  0.00     0.054 C 
ATOM      9  C   UNL d   1       2.337   2.609   0.048  0.00  0.00     0.018 C 
ENDBRANCH   1   8
TORSDOF 1
ENDMDL
