MODEL 1
REMARK minimizedAffinity -3.39384556
REMARK minimizedRMSD -1
REMARK  1 active torsions:
REMARK  status: ('A' for Active; 'I' for Inactive)
REMARK    1  A    between atoms: C1_2  and  C2_3 
ROOT
ATOM      1  C2  UNL d   1      -0.607  -1.547   0.124  0.00  0.00    -0.081 A 
ATOM      2  C3  UNL d   1       0.375  -1.144  -0.789  0.00  0.00     0.006 A 
ATOM      3  C4  UNL d   1       0.787   0.189  -0.845  0.00  0.00     0.002 A 
ATOM      4  C5  UNL d   1       0.228   1.141   0.016  0.00  0.00    -0.080 A 
ATOM      5  C6  UNL d   1       0.683   2.570  -0.013  0.00  0.00     0.076 C 
ATOM      6  C7  UNL d   1      -0.766   0.742   0.916  0.00  0.00     0.002 A 
ATOM      7  C8  UNL d   1      -1.178  -0.591   0.971  0.00  0.00     0.006 A 
ENDROOT
BRANCH   1   8
ATOM      8  C1  UNL d   1      -1.007  -2.996   0.231  0.00  0.00     0.054 C 
ATOM      9  C   UNL d   1      -2.520  -3.152   0.273  0.00  0.00     0.018 C 
ENDBRANCH   1   8
TORSDOF 1
ENDMDL
