MODEL 1
REMARK minimizedAffinity -1.3972007
REMARK minimizedRMSD -1
REMARK  1 active torsions:
REMARK  status: ('A' for Active; 'I' for Inactive)
REMARK    1  A    between atoms: C1_2  and  C2_3 
ROOT
ATOM      1  C2  UNL d   1      -0.476   0.365   0.036  0.00  0.00    -0.081 A 
ATOM      2  C3  UNL d   1       0.455  -0.119  -0.892  0.00  0.00     0.006 A 
ATOM      3  C4  UNL d   1       0.715  -1.489  -0.985  0.00  0.00     0.002 A 
ATOM      4  C5  UNL d   1       0.043  -2.397  -0.160  0.00  0.00    -0.080 A 
ATOM      5  C6  UNL d   1       0.290  -3.872  -0.271  0.00  0.00     0.076 C 
ATOM      6  C7  UNL d   1      -0.874  -1.911   0.779  0.00  0.00     0.002 A 
ATOM      7  C8  UNL d   1      -1.134  -0.542   0.873  0.00  0.00     0.006 A 
ENDROOT
BRANCH   1   8
ATOM      8  C1  UNL d   1      -0.806   1.835   0.095  0.00  0.00     0.054 C 
ATOM      9  C   UNL d   1       0.304   2.624   0.775  0.00  0.00     0.018 C 
ENDBRANCH   1   8
TORSDOF 1
ENDMDL
