MODEL 1
REMARK minimizedAffinity -3.9783597
REMARK minimizedRMSD -1
REMARK  1 active torsions:
REMARK  status: ('A' for Active; 'I' for Inactive)
REMARK    1  A    between atoms: C1_2  and  C2_3 
ROOT
ATOM      1  C2  UNL d   1       0.240   0.807   0.233  0.00  0.00    -0.081 A 
ATOM      2  C3  UNL d   1      -0.374   0.210   1.341  0.00  0.00     0.006 A 
ATOM      3  C4  UNL d   1      -0.412  -1.180   1.467  0.00  0.00     0.002 A 
ATOM      4  C5  UNL d   1       0.170  -1.997   0.491  0.00  0.00    -0.080 A 
ATOM      5  C6  UNL d   1       0.163  -3.491   0.629  0.00  0.00     0.076 C 
ATOM      6  C7  UNL d   1       0.768  -1.402  -0.625  0.00  0.00     0.002 A 
ATOM      7  C8  UNL d   1       0.806  -0.012  -0.751  0.00  0.00     0.006 A 
ENDROOT
BRANCH   1   8
ATOM      8  C1  UNL d   1       0.339   2.307   0.127  0.00  0.00     0.054 C 
ATOM      9  C   UNL d   1       1.732   2.797   0.499  0.00  0.00     0.018 C 
ENDBRANCH   1   8
TORSDOF 1
ENDMDL
