MODEL 1
REMARK minimizedAffinity -3.67812324
REMARK minimizedRMSD -1
REMARK  1 active torsions:
REMARK  status: ('A' for Active; 'I' for Inactive)
REMARK    1  A    between atoms: C1_2  and  C2_3 
ROOT
ATOM      1  C2  UNL d   1      -0.311   1.082   0.067  0.00  0.00    -0.081 A 
ATOM      2  C3  UNL d   1      -1.043   0.411   1.054  0.00  0.00     0.006 A 
ATOM      3  C4  UNL d   1      -1.005  -0.983   1.139  0.00  0.00     0.002 A 
ATOM      4  C5  UNL d   1      -0.230  -1.728   0.244  0.00  0.00    -0.080 A 
ATOM      5  C6  UNL d   1      -0.156  -3.223   0.342  0.00  0.00     0.076 C 
ATOM      6  C7  UNL d   1       0.487  -1.058  -0.754  0.00  0.00     0.002 A 
ATOM      7  C8  UNL d   1       0.449   0.335  -0.839  0.00  0.00     0.006 A 
ENDROOT
BRANCH   1   8
ATOM      8  C1  UNL d   1      -0.299   2.588   0.014  0.00  0.00     0.054 C 
ATOM      9  C   UNL d   1       0.919   3.157   0.728  0.00  0.00     0.018 C 
ENDBRANCH   1   8
TORSDOF 1
ENDMDL
