MODEL 1
REMARK minimizedAffinity -4.31907415
REMARK minimizedRMSD -1
REMARK  1 active torsions:
REMARK  status: ('A' for Active; 'I' for Inactive)
REMARK    1  A    between atoms: C1_2  and  C2_3 
ROOT
ATOM      1  C2  UNL d   1       0.224   0.932  -0.085  0.00  0.00    -0.081 A 
ATOM      2  C3  UNL d   1      -0.601   0.361   0.891  0.00  0.00     0.006 A 
ATOM      3  C4  UNL d   1      -0.683  -1.027   1.026  0.00  0.00     0.002 A 
ATOM      4  C5  UNL d   1       0.064  -1.866   0.193  0.00  0.00    -0.080 A 
ATOM      5  C6  UNL d   1       0.008  -3.357   0.347  0.00  0.00     0.076 C 
ATOM      6  C7  UNL d   1       0.875  -1.297  -0.794  0.00  0.00     0.002 A 
ATOM      7  C8  UNL d   1       0.957   0.091  -0.930  0.00  0.00     0.006 A 
ENDROOT
BRANCH   1   8
ATOM      8  C1  UNL d   1       0.365   2.429  -0.190  0.00  0.00     0.054 C 
ATOM      9  C   UNL d   1       1.548   2.932   0.623  0.00  0.00     0.018 C 
ENDBRANCH   1   8
TORSDOF 1
ENDMDL
