MODEL 1
REMARK minimizedAffinity -5.78473997
REMARK minimizedRMSD -1
REMARK  0 active torsions:
REMARK  status: ('A' for Active; 'I' for Inactive)
ROOT
ATOM      1  C4' PXY d   1       0.349   0.113  -1.931  0.00  0.00     0.077 C 
ATOM      2  C1' PXY d   1      -1.102  -0.808   3.588  0.00  0.00     0.077 C 
ATOM      3  C1  PXY d   1      -0.711  -0.560   2.145  0.00  0.00    -0.082 A 
ATOM      4  C2  PXY d   1      -1.644  -0.543   1.208  0.00  0.00     0.003 A 
ATOM      5  C3  PXY d   1      -1.304  -0.352  -0.107  0.00  0.00     0.003 A 
ATOM      6  C4  PXY d   1      -0.001  -0.124  -0.459  0.00  0.00    -0.082 A 
ATOM      7  C5  PXY d   1       0.956  -0.129   0.493  0.00  0.00     0.003 A 
ATOM      8  C6  PXY d   1       0.595  -0.366   1.816  0.00  0.00     0.003 A 
ENDROOT
TORSDOF 0
ENDMDL
