MODEL 1
REMARK minimizedAffinity -3.98381591
REMARK minimizedRMSD -1
REMARK  0 active torsions:
REMARK  status: ('A' for Active; 'I' for Inactive)
ROOT
ATOM      1  C4' PXY d   1      -0.883  -0.053   1.529  0.00  0.00     0.077 C 
ATOM      2  C1' PXY d   1       1.173  -0.564  -3.849  0.00  0.00     0.077 C 
ATOM      3  C1  PXY d   1       0.632  -0.417  -2.441  0.00  0.00    -0.082 A 
ATOM      4  C2  PXY d   1       0.958  -1.308  -1.519  0.00  0.00     0.003 A 
ATOM      5  C3  PXY d   1       0.453  -1.208  -0.248  0.00  0.00     0.003 A 
ATOM      6  C4  PXY d   1      -0.352  -0.156   0.096  0.00  0.00    -0.082 A 
ATOM      7  C5  PXY d   1      -0.681   0.764  -0.836  0.00  0.00     0.003 A 
ATOM      8  C6  PXY d   1      -0.190   0.622  -2.131  0.00  0.00     0.003 A 
ENDROOT
TORSDOF 0
ENDMDL
