MODEL 1
REMARK minimizedAffinity -1.46742344
REMARK minimizedRMSD -1
REMARK  0 active torsions:
REMARK  status: ('A' for Active; 'I' for Inactive)
ROOT
ATOM      1  C4' PXY d   1       0.742  -0.453  -2.847  0.00  0.00     0.077 C 
ATOM      2  C1' PXY d   1      -0.134   0.448   2.795  0.00  0.00     0.077 C 
ATOM      3  C1  PXY d   1       0.083   0.211   1.314  0.00  0.00    -0.082 A 
ATOM      4  C2  PXY d   1       1.248  -0.251   0.889  0.00  0.00     0.003 A 
ATOM      5  C3  PXY d   1       1.472  -0.442  -0.450  0.00  0.00     0.003 A 
ATOM      6  C4  PXY d   1       0.475  -0.207  -1.359  0.00  0.00    -0.082 A 
ATOM      7  C5  PXY d   1      -0.719   0.254  -0.933  0.00  0.00     0.003 A 
ATOM      8  C6  PXY d   1      -0.913   0.480   0.427  0.00  0.00     0.003 A 
ENDROOT
TORSDOF 0
ENDMDL
