MODEL 1
REMARK minimizedAffinity -4.12335014
REMARK minimizedRMSD -1
REMARK  0 active torsions:
REMARK  status: ('A' for Active; 'I' for Inactive)
ROOT
ATOM      1  C4' PXY d   1       0.294   0.203  -0.240  0.00  0.00     0.077 C 
ATOM      2  C1' PXY d   1      -2.989  -0.858   4.398  0.00  0.00     0.077 C 
ATOM      3  C1  PXY d   1      -2.117  -0.583   3.189  0.00  0.00    -0.082 A 
ATOM      4  C2  PXY d   1      -2.556   0.226   2.237  0.00  0.00     0.003 A 
ATOM      5  C3  PXY d   1      -1.794   0.460   1.121  0.00  0.00     0.003 A 
ATOM      6  C4  PXY d   1      -0.548  -0.096   1.003  0.00  0.00    -0.082 A 
ATOM      7  C5  PXY d   1      -0.090  -0.913   1.975  0.00  0.00     0.003 A 
ATOM      8  C6  PXY d   1      -0.896  -1.171   3.080  0.00  0.00     0.003 A 
ENDROOT
TORSDOF 0
ENDMDL
