MODEL 1
REMARK minimizedAffinity -2.91536212
REMARK minimizedRMSD -1
REMARK  0 active torsions:
REMARK  status: ('A' for Active; 'I' for Inactive)
ROOT
ATOM      1  C4' PXY d   1       0.036   0.407   2.542  0.00  0.00     0.077 C 
ATOM      2  C1' PXY d   1       1.276  -0.884  -2.955  0.00  0.00     0.077 C 
ATOM      3  C1  PXY d   1       0.946  -0.534  -1.517  0.00  0.00    -0.082 A 
ATOM      4  C2  PXY d   1       1.631  -1.094  -0.534  0.00  0.00     0.003 A 
ATOM      5  C3  PXY d   1       1.324  -0.814   0.773  0.00  0.00     0.003 A 
ATOM      6  C4  PXY d   1       0.341   0.091   1.075  0.00  0.00    -0.082 A 
ATOM      7  C5  PXY d   1      -0.355   0.675   0.077  0.00  0.00     0.003 A 
ATOM      8  C6  PXY d   1      -0.056   0.345  -1.242  0.00  0.00     0.003 A 
ENDROOT
TORSDOF 0
ENDMDL
