MODEL 1
REMARK minimizedAffinity -2.14203453
REMARK minimizedRMSD -1
REMARK  0 active torsions:
REMARK  status: ('A' for Active; 'I' for Inactive)
ROOT
ATOM      1  C4' PXY d   1       1.076  -0.191  -2.916  0.00  0.00     0.077 C 
ATOM      2  C1' PXY d   1      -0.738   0.705   2.499  0.00  0.00     0.077 C 
ATOM      3  C1  PXY d   1      -0.275   0.468   1.075  0.00  0.00    -0.082 A 
ATOM      4  C2  PXY d   1       0.960   0.050   0.850  0.00  0.00     0.003 A 
ATOM      5  C3  PXY d   1       1.406  -0.138  -0.433  0.00  0.00     0.003 A 
ATOM      6  C4  PXY d   1       0.562   0.052  -1.494  0.00  0.00    -0.082 A 
ATOM      7  C5  PXY d   1      -0.703   0.468  -1.273  0.00  0.00     0.003 A 
ATOM      8  C6  PXY d   1      -1.123   0.693   0.035  0.00  0.00     0.003 A 
ENDROOT
TORSDOF 0
ENDMDL
