MODEL 1
REMARK minimizedAffinity -4.01107883
REMARK minimizedRMSD -1
REMARK  0 active torsions:
REMARK  status: ('A' for Active; 'I' for Inactive)
ROOT
ATOM      1  C4' PXY d   1      -3.019   1.026   2.808  0.00  0.00     0.077 C 
ATOM      2  C1' PXY d   1       0.934   0.327  -1.351  0.00  0.00     0.077 C 
ATOM      3  C1  PXY d   1      -0.095   0.503  -0.252  0.00  0.00    -0.082 A 
ATOM      4  C2  PXY d   1      -1.359   0.735  -0.570  0.00  0.00     0.003 A 
ATOM      5  C3  PXY d   1      -2.297   0.929   0.411  0.00  0.00     0.003 A 
ATOM      6  C4  PXY d   1      -1.948   0.832   1.732  0.00  0.00    -0.082 A 
ATOM      7  C5  PXY d   1      -0.663   0.586   2.064  0.00  0.00     0.003 A 
ATOM      8  C6  PXY d   1       0.282   0.432   1.054  0.00  0.00     0.003 A 
ENDROOT
TORSDOF 0
ENDMDL
