MODEL 1
REMARK minimizedAffinity -2.34159565
REMARK minimizedRMSD -1
REMARK  0 active torsions:
REMARK  status: ('A' for Active; 'I' for Inactive)
ROOT
ATOM      1  C4' PXY d   1       0.996   0.361  -2.899  0.00  0.00     0.077 C 
ATOM      2  C1' PXY d   1      -0.393   0.518   2.710  0.00  0.00     0.077 C 
ATOM      3  C1  PXY d   1      -0.041   0.476   1.236  0.00  0.00    -0.082 A 
ATOM      4  C2  PXY d   1       1.161   0.070   0.861  0.00  0.00     0.003 A 
ATOM      5  C3  PXY d   1       1.506   0.056  -0.466  0.00  0.00     0.003 A 
ATOM      6  C4  PXY d   1       0.594   0.411  -1.423  0.00  0.00    -0.082 A 
ATOM      7  C5  PXY d   1      -0.638   0.816  -1.050  0.00  0.00     0.003 A 
ATOM      8  C6  PXY d   1      -0.956   0.862   0.305  0.00  0.00     0.003 A 
ENDROOT
TORSDOF 0
ENDMDL
