MODEL 1
REMARK minimizedAffinity 1.23717844
REMARK minimizedRMSD -1
REMARK  0 active torsions:
REMARK  status: ('A' for Active; 'I' for Inactive)
ROOT
ATOM      1  C4' PXY d   1       2.602   0.769   1.234  0.00  0.00     0.077 C 
ATOM      2  C1' PXY d   1      -2.840   0.395  -0.679  0.00  0.00     0.077 C 
ATOM      3  C1  PXY d   1      -1.417   0.499  -0.166  0.00  0.00    -0.082 A 
ATOM      4  C2  PXY d   1      -0.408   0.414  -1.018  0.00  0.00     0.003 A 
ATOM      5  C3  PXY d   1       0.886   0.474  -0.568  0.00  0.00     0.003 A 
ATOM      6  C4  PXY d   1       1.148   0.678   0.761  0.00  0.00    -0.082 A 
ATOM      7  C5  PXY d   1       0.124   0.777   1.634  0.00  0.00     0.003 A 
ATOM      8  C6  PXY d   1      -1.182   0.672   1.163  0.00  0.00     0.003 A 
ENDROOT
TORSDOF 0
ENDMDL
