MODEL 1
REMARK minimizedAffinity -1.72348714
REMARK minimizedRMSD -1
REMARK  0 active torsions:
REMARK  status: ('A' for Active; 'I' for Inactive)
ROOT
ATOM      1  C4' PXY d   1      -3.226   0.256   0.413  0.00  0.00     0.077 C 
ATOM      2  C1' PXY d   1       2.468   0.738   1.288  0.00  0.00     0.077 C 
ATOM      3  C1  PXY d   1       0.973   0.607   1.071  0.00  0.00    -0.082 A 
ATOM      4  C2  PXY d   1       0.499   0.486  -0.159  0.00  0.00     0.003 A 
ATOM      5  C3  PXY d   1      -0.852   0.398  -0.375  0.00  0.00     0.003 A 
ATOM      6  C4  PXY d   1      -1.724   0.381   0.681  0.00  0.00    -0.082 A 
ATOM      7  C5  PXY d   1      -1.247   0.494   1.938  0.00  0.00     0.003 A 
ATOM      8  C6  PXY d   1       0.125   0.623   2.135  0.00  0.00     0.003 A 
ENDROOT
TORSDOF 0
ENDMDL
