MODEL 1
REMARK minimizedAffinity -6.39761925
REMARK minimizedRMSD -1
REMARK  0 active torsions:
REMARK  status: ('A' for Active; 'I' for Inactive)
ROOT
ATOM      1  C4' PXY d   1       0.289   0.374  -2.046  0.00  0.00     0.077 C 
ATOM      2  C1' PXY d   1      -1.597  -0.645   3.322  0.00  0.00     0.077 C 
ATOM      3  C1  PXY d   1      -1.113  -0.385   1.910  0.00  0.00    -0.082 A 
ATOM      4  C2  PXY d   1       0.160  -0.093   1.698  0.00  0.00     0.003 A 
ATOM      5  C3  PXY d   1       0.609   0.177   0.431  0.00  0.00     0.003 A 
ATOM      6  C4  PXY d   1      -0.243   0.095  -0.637  0.00  0.00    -0.082 A 
ATOM      7  C5  PXY d   1      -1.541  -0.213  -0.431  0.00  0.00     0.003 A 
ATOM      8  C6  PXY d   1      -1.985  -0.443   0.867  0.00  0.00     0.003 A 
ENDROOT
TORSDOF 0
ENDMDL
