MODEL 1
REMARK minimizedAffinity -4.59187841
REMARK minimizedRMSD -1
REMARK  0 active torsions:
REMARK  status: ('A' for Active; 'I' for Inactive)
ROOT
ATOM      1  C4' PXY d   1      -2.635   0.174   3.753  0.00  0.00     0.077 C 
ATOM      2  C1' PXY d   1       0.570   0.270  -1.056  0.00  0.00     0.077 C 
ATOM      3  C1  PXY d   1      -0.280   0.251   0.199  0.00  0.00    -0.082 A 
ATOM      4  C2  PXY d   1       0.299   0.091   1.378  0.00  0.00     0.003 A 
ATOM      5  C3  PXY d   1      -0.458   0.041   2.521  0.00  0.00     0.003 A 
ATOM      6  C4  PXY d   1      -1.816   0.208   2.460  0.00  0.00    -0.082 A 
ATOM      7  C5  PXY d   1      -2.412   0.383   1.262  0.00  0.00     0.003 A 
ATOM      8  C6  PXY d   1      -1.630   0.390   0.110  0.00  0.00     0.003 A 
ENDROOT
TORSDOF 0
ENDMDL
