MODEL 1
REMARK minimizedAffinity 0.460163891
REMARK minimizedRMSD -1
REMARK  0 active torsions:
REMARK  status: ('A' for Active; 'I' for Inactive)
ROOT
ATOM      1  C4' PXY d   1       0.849  -0.016  -2.747  0.00  0.00     0.077 C 
ATOM      2  C1' PXY d   1      -0.110   0.475   2.933  0.00  0.00     0.077 C 
ATOM      3  C1  PXY d   1       0.130   0.340   1.442  0.00  0.00    -0.082 A 
ATOM      4  C2  PXY d   1       1.369   0.313   0.978  0.00  0.00     0.003 A 
ATOM      5  C3  PXY d   1       1.604   0.225  -0.370  0.00  0.00     0.003 A 
ATOM      6  C4  PXY d   1       0.560   0.109  -1.248  0.00  0.00    -0.082 A 
ATOM      7  C5  PXY d   1      -0.707   0.124  -0.782  0.00  0.00     0.003 A 
ATOM      8  C6  PXY d   1      -0.924   0.257   0.586  0.00  0.00     0.003 A 
ENDROOT
TORSDOF 0
ENDMDL
