MODEL 1
REMARK minimizedAffinity -0.00143987848
REMARK minimizedRMSD -1
REMARK  0 active torsions:
REMARK  status: ('A' for Active; 'I' for Inactive)
ROOT
ATOM      1  C4' PXY d   1       0.586  -0.128  -3.027  0.00  0.00     0.077 C 
ATOM      2  C1' PXY d   1       0.638   0.274   2.739  0.00  0.00     0.077 C 
ATOM      3  C1  PXY d   1       0.613   0.162   1.227  0.00  0.00    -0.082 A 
ATOM      4  C2  PXY d   1       1.748   0.201   0.550  0.00  0.00     0.003 A 
ATOM      5  C3  PXY d   1       1.742   0.133  -0.820  0.00  0.00     0.003 A 
ATOM      6  C4  PXY d   1       0.564  -0.029  -1.500  0.00  0.00    -0.082 A 
ATOM      7  C5  PXY d   1      -0.598  -0.079  -0.815  0.00  0.00     0.003 A 
ATOM      8  C6  PXY d   1      -0.573   0.032   0.572  0.00  0.00     0.003 A 
ENDROOT
TORSDOF 0
ENDMDL
