MODEL 1
REMARK minimizedAffinity -2.70899582
REMARK minimizedRMSD -1
REMARK  0 active torsions:
REMARK  status: ('A' for Active; 'I' for Inactive)
ROOT
ATOM      1  C4' PXY d   1      -0.969  -2.384  -3.181  0.00  0.00     0.077 C 
ATOM      2  C1' PXY d   1       1.055   1.538   0.551  0.00  0.00     0.077 C 
ATOM      3  C1  PXY d   1       0.533   0.514  -0.436  0.00  0.00    -0.082 A 
ATOM      4  C2  PXY d   1      -0.704   0.060  -0.316  0.00  0.00     0.003 A 
ATOM      5  C3  PXY d   1      -1.182  -0.891  -1.181  0.00  0.00     0.003 A 
ATOM      6  C4  PXY d   1      -0.403  -1.342  -2.213  0.00  0.00    -0.082 A 
ATOM      7  C5  PXY d   1       0.856  -0.876  -2.349  0.00  0.00     0.003 A 
ATOM      8  C6  PXY d   1       1.336   0.058  -1.436  0.00  0.00     0.003 A 
ENDROOT
TORSDOF 0
ENDMDL
