MODEL 1
REMARK minimizedAffinity -4.95232153
REMARK minimizedRMSD -1
REMARK  0 active torsions:
REMARK  status: ('A' for Active; 'I' for Inactive)
ROOT
ATOM      1  C4' PXY d   1      -1.515  -0.743   3.406  0.00  0.00     0.077 C 
ATOM      2  C1' PXY d   1       0.745   0.583  -1.747  0.00  0.00     0.077 C 
ATOM      3  C1  PXY d   1       0.165   0.231  -0.391  0.00  0.00    -0.082 A 
ATOM      4  C2  PXY d   1      -1.128  -0.032  -0.282  0.00  0.00     0.003 A 
ATOM      5  C3  PXY d   1      -1.675  -0.320   0.942  0.00  0.00     0.003 A 
ATOM      6  C4  PXY d   1      -0.883  -0.392   2.056  0.00  0.00    -0.082 A 
ATOM      7  C5  PXY d   1       0.438  -0.136   1.950  0.00  0.00     0.003 A 
ATOM      8  C6  PXY d   1       0.967   0.195   0.707  0.00  0.00     0.003 A 
ENDROOT
TORSDOF 0
ENDMDL
