MODEL 1
REMARK minimizedAffinity -4.41075182
REMARK minimizedRMSD -1
REMARK  0 active torsions:
REMARK  status: ('A' for Active; 'I' for Inactive)
ROOT
ATOM      1  C4' PXY d   1      -2.939   0.859   0.461  0.00  0.00     0.077 C 
ATOM      2  C1' PXY d   1       2.724   0.114   1.350  0.00  0.00     0.077 C 
ATOM      3  C1  PXY d   1       1.236   0.304   1.129  0.00  0.00    -0.082 A 
ATOM      4  C2  PXY d   1       0.764   0.385  -0.104  0.00  0.00     0.003 A 
ATOM      5  C3  PXY d   1      -0.575   0.589  -0.322  0.00  0.00     0.003 A 
ATOM      6  C4  PXY d   1      -1.446   0.657   0.732  0.00  0.00    -0.082 A 
ATOM      7  C5  PXY d   1      -0.972   0.565   1.993  0.00  0.00     0.003 A 
ATOM      8  C6  PXY d   1       0.395   0.400   2.194  0.00  0.00     0.003 A 
ENDROOT
TORSDOF 0
ENDMDL
