MODEL 1
REMARK minimizedAffinity -3.68218946
REMARK minimizedRMSD -1
REMARK  0 active torsions:
REMARK  status: ('A' for Active; 'I' for Inactive)
ROOT
ATOM      1  C4' PXY d   1      -3.377   1.117   2.253  0.00  0.00     0.077 C 
ATOM      2  C1' PXY d   1       1.915  -0.259   0.377  0.00  0.00     0.077 C 
ATOM      3  C1  PXY d   1       0.525   0.109   0.858  0.00  0.00    -0.082 A 
ATOM      4  C2  PXY d   1       0.261   0.111   2.155  0.00  0.00     0.003 A 
ATOM      5  C3  PXY d   1      -0.999   0.410   2.605  0.00  0.00     0.003 A 
ATOM      6  C4  PXY d   1      -1.985   0.762   1.722  0.00  0.00    -0.082 A 
ATOM      7  C5  PXY d   1      -1.721   0.772   0.399  0.00  0.00     0.003 A 
ATOM      8  C6  PXY d   1      -0.446   0.426  -0.041  0.00  0.00     0.003 A 
ENDROOT
TORSDOF 0
ENDMDL
