MODEL 1
REMARK minimizedAffinity -0.847744942
REMARK minimizedRMSD -1
REMARK  0 active torsions:
REMARK  status: ('A' for Active; 'I' for Inactive)
ROOT
ATOM      1  C4' PXY d   1       1.166  -0.252  -2.921  0.00  0.00     0.077 C 
ATOM      2  C1' PXY d   1       0.102   0.596   2.697  0.00  0.00     0.077 C 
ATOM      3  C1  PXY d   1       0.371   0.366   1.223  0.00  0.00    -0.082 A 
ATOM      4  C2  PXY d   1       1.588   0.561   0.741  0.00  0.00     0.003 A 
ATOM      5  C3  PXY d   1       1.841   0.388  -0.595  0.00  0.00     0.003 A 
ATOM      6  C4  PXY d   1       0.851  -0.041  -1.438  0.00  0.00    -0.082 A 
ATOM      7  C5  PXY d   1      -0.391  -0.253  -0.952  0.00  0.00     0.003 A 
ATOM      8  C6  PXY d   1      -0.637  -0.032   0.400  0.00  0.00     0.003 A 
ENDROOT
TORSDOF 0
ENDMDL
