MODEL 1
REMARK minimizedAffinity -4.43876648
REMARK minimizedRMSD -1
REMARK  0 active torsions:
REMARK  status: ('A' for Active; 'I' for Inactive)
ROOT
ATOM      1  C4' PXY d   1       0.304   0.376  -1.268  0.00  0.00     0.077 C 
ATOM      2  C1' PXY d   1      -3.167   0.584   3.350  0.00  0.00     0.077 C 
ATOM      3  C1  PXY d   1      -2.246   0.532   2.146  0.00  0.00    -0.082 A 
ATOM      4  C2  PXY d   1      -2.738   0.748   0.937  0.00  0.00     0.003 A 
ATOM      5  C3  PXY d   1      -1.926   0.673  -0.165  0.00  0.00     0.003 A 
ATOM      6  C4  PXY d   1      -0.586   0.427  -0.023  0.00  0.00    -0.082 A 
ATOM      7  C5  PXY d   1      -0.075   0.217   1.208  0.00  0.00     0.003 A 
ATOM      8  C6  PXY d   1      -0.924   0.256   2.310  0.00  0.00     0.003 A 
ENDROOT
TORSDOF 0
ENDMDL
