MODEL 1
REMARK minimizedAffinity -4.11406851
REMARK minimizedRMSD -1
REMARK  1 active torsions:
REMARK  status: ('A' for Active; 'I' for Inactive)
REMARK    1  A    between atoms: C3_4  and  O_7 
ROOT
ATOM      1  C   UNL d   1      -1.170  -0.091   2.955  0.00  0.00    -0.033 A 
ATOM      2  C1  UNL d   1      -1.900  -0.348   1.793  0.00  0.00     0.039 A 
ATOM      3  C2  UNL d   1      -1.310  -0.166   0.541  0.00  0.00    -0.080 A 
ATOM      4  C3  UNL d   1       0.010   0.270   0.464  0.00  0.00     0.150 A 
ATOM      5  C4  UNL d   1       0.745   0.524   1.617  0.00  0.00    -0.007 A 
ATOM      6  C5  UNL d   1       0.153   0.343   2.867  0.00  0.00     0.039 A 
ENDROOT
BRANCH   4   7
ATOM      7  O   UNL d   1       0.627   0.466  -0.736  0.00  0.00    -0.526 OA
ATOM      8  H5  UNL d   1      -0.012   0.279  -1.444  0.00  0.00     0.418 HD
ENDBRANCH   4   7
TORSDOF 1
ENDMDL
