MODEL 1
REMARK minimizedAffinity -4.61307287
REMARK minimizedRMSD -1
REMARK  1 active torsions:
REMARK  status: ('A' for Active; 'I' for Inactive)
REMARK    1  A    between atoms: C3_4  and  O_7 
ROOT
ATOM      1  C   UNL d   1      -0.361   0.658  -0.727  0.00  0.00    -0.033 A 
ATOM      2  C1  UNL d   1      -1.423   0.263   0.089  0.00  0.00     0.039 A 
ATOM      3  C2  UNL d   1      -1.206   0.005   1.444  0.00  0.00    -0.080 A 
ATOM      4  C3  UNL d   1       0.075   0.147   1.970  0.00  0.00     0.150 A 
ATOM      5  C4  UNL d   1       1.137   0.543   1.164  0.00  0.00    -0.007 A 
ATOM      6  C5  UNL d   1       0.919   0.799  -0.189  0.00  0.00     0.039 A 
ENDROOT
BRANCH   4   7
ATOM      7  O   UNL d   1       0.336  -0.099   3.285  0.00  0.00    -0.526 OA
ATOM      8  H5  UNL d   1      -0.486  -0.392   3.713  0.00  0.00     0.418 HD
ENDBRANCH   4   7
TORSDOF 1
ENDMDL
