MODEL 1
REMARK minimizedAffinity -4.58195686
REMARK minimizedRMSD -1
REMARK  1 active torsions:
REMARK  status: ('A' for Active; 'I' for Inactive)
REMARK    1  A    between atoms: C3_4  and  O_7 
ROOT
ATOM      1  C   UNL d   1      -0.139   0.444   0.004  0.00  0.00    -0.033 A 
ATOM      2  C1  UNL d   1      -1.466   0.031   0.147  0.00  0.00     0.039 A 
ATOM      3  C2  UNL d   1      -1.930  -0.419   1.384  0.00  0.00    -0.080 A 
ATOM      4  C3  UNL d   1      -1.059  -0.451   2.470  0.00  0.00     0.150 A 
ATOM      5  C4  UNL d   1       0.262  -0.037   2.336  0.00  0.00    -0.007 A 
ATOM      6  C5  UNL d   1       0.724   0.411   1.100  0.00  0.00     0.039 A 
ENDROOT
BRANCH   4   7
ATOM      7  O   UNL d   1      -1.465  -0.887   3.696  0.00  0.00    -0.526 OA
ATOM      8  H5  UNL d   1      -2.393  -1.167   3.631  0.00  0.00     0.418 HD
ENDBRANCH   4   7
TORSDOF 1
ENDMDL
