MODEL 1
REMARK minimizedAffinity -3.22716331
REMARK minimizedRMSD -1
REMARK  1 active torsions:
REMARK  status: ('A' for Active; 'I' for Inactive)
REMARK    1  A    between atoms: C3_4  and  O_7 
ROOT
ATOM      1  C   UNL d   1       0.540   0.695  -1.189  0.00  0.00    -0.033 A 
ATOM      2  C1  UNL d   1      -0.756   0.237  -0.941  0.00  0.00     0.039 A 
ATOM      3  C2  UNL d   1      -1.122  -0.168   0.344  0.00  0.00    -0.080 A 
ATOM      4  C3  UNL d   1      -0.185  -0.109   1.371  0.00  0.00     0.150 A 
ATOM      5  C4  UNL d   1       1.107   0.350   1.133  0.00  0.00    -0.007 A 
ATOM      6  C5  UNL d   1       1.471   0.753  -0.151  0.00  0.00     0.039 A 
ENDROOT
BRANCH   4   7
ATOM      7  O   UNL d   1      -0.494  -0.498   2.641  0.00  0.00    -0.526 OA
ATOM      8  H5  UNL d   1      -1.411  -0.818   2.650  0.00  0.00     0.418 HD
ENDBRANCH   4   7
TORSDOF 1
ENDMDL
