MODEL 1
REMARK minimizedAffinity -4.05854321
REMARK minimizedRMSD -1
REMARK  1 active torsions:
REMARK  status: ('A' for Active; 'I' for Inactive)
REMARK    1  A    between atoms: C3_4  and  O_7 
ROOT
ATOM      1  C   UNL d   1      -0.398  -0.180   2.965  0.00  0.00    -0.033 A 
ATOM      2  C1  UNL d   1       0.703  -0.194   2.106  0.00  0.00     0.039 A 
ATOM      3  C2  UNL d   1       0.623   0.423   0.856  0.00  0.00    -0.080 A 
ATOM      4  C3  UNL d   1      -0.561   1.050   0.478  0.00  0.00     0.150 A 
ATOM      5  C4  UNL d   1      -1.660   1.071   1.330  0.00  0.00    -0.007 A 
ATOM      6  C5  UNL d   1      -1.579   0.453   2.577  0.00  0.00     0.039 A 
ENDROOT
BRANCH   4   7
ATOM      7  O   UNL d   1      -0.688   1.661  -0.734  0.00  0.00    -0.526 OA
ATOM      8  H5  UNL d   1       0.141   1.542  -1.227  0.00  0.00     0.418 HD
ENDBRANCH   4   7
TORSDOF 1
ENDMDL
