MODEL 1
REMARK minimizedAffinity -5.08444071
REMARK minimizedRMSD -1
REMARK  1 active torsions:
REMARK  status: ('A' for Active; 'I' for Inactive)
REMARK    1  A    between atoms: C3_4  and  O_7 
ROOT
ATOM      1  C   UNL d   1      -1.859  -0.317   2.984  0.00  0.00    -0.033 A 
ATOM      2  C1  UNL d   1      -2.701  -0.126   1.887  0.00  0.00     0.039 A 
ATOM      3  C2  UNL d   1      -2.160   0.049   0.611  0.00  0.00    -0.080 A 
ATOM      4  C3  UNL d   1      -0.778   0.030   0.447  0.00  0.00     0.150 A 
ATOM      5  C4  UNL d   1       0.067  -0.164   1.535  0.00  0.00    -0.007 A 
ATOM      6  C5  UNL d   1      -0.475  -0.338   2.808  0.00  0.00     0.039 A 
ENDROOT
BRANCH   4   7
ATOM      7  O   UNL d   1      -0.203   0.201  -0.778  0.00  0.00    -0.526 OA
ATOM      8  H5  UNL d   1      -0.908   0.353  -1.429  0.00  0.00     0.418 HD
ENDBRANCH   4   7
TORSDOF 1
ENDMDL
