MODEL 1
REMARK minimizedAffinity -4.8365016
REMARK minimizedRMSD -1
REMARK  1 active torsions:
REMARK  status: ('A' for Active; 'I' for Inactive)
REMARK    1  A    between atoms: C3_4  and  O_7 
ROOT
ATOM      1  C   UNL d   1       0.182   0.248   3.032  0.00  0.00    -0.033 A 
ATOM      2  C1  UNL d   1      -0.919  -0.182   2.290  0.00  0.00     0.039 A 
ATOM      3  C2  UNL d   1      -0.858  -0.204   0.895  0.00  0.00    -0.080 A 
ATOM      4  C3  UNL d   1       0.310   0.205   0.256  0.00  0.00     0.150 A 
ATOM      5  C4  UNL d   1       1.412   0.630   0.990  0.00  0.00    -0.007 A 
ATOM      6  C5  UNL d   1       1.348   0.653   2.382  0.00  0.00     0.039 A 
ENDROOT
BRANCH   4   7
ATOM      7  O   UNL d   1       0.415   0.205  -1.103  0.00  0.00    -0.526 OA
ATOM      8  H5  UNL d   1      -0.433  -0.086  -1.478  0.00  0.00     0.418 HD
ENDBRANCH   4   7
TORSDOF 1
ENDMDL
