MODEL 1
REMARK minimizedAffinity -5.24174023
REMARK minimizedRMSD -1
REMARK  1 active torsions:
REMARK  status: ('A' for Active; 'I' for Inactive)
REMARK    1  A    between atoms: C3_4  and  O_7 
ROOT
ATOM      1  C   UNL d   1      -0.033  -0.878   2.948  0.00  0.00    -0.033 A 
ATOM      2  C1  UNL d   1       0.775  -0.011   2.209  0.00  0.00     0.039 A 
ATOM      3  C2  UNL d   1       0.291   0.564   1.033  0.00  0.00    -0.080 A 
ATOM      4  C3  UNL d   1      -1.001   0.266   0.607  0.00  0.00     0.150 A 
ATOM      5  C4  UNL d   1      -1.812  -0.594   1.340  0.00  0.00    -0.007 A 
ATOM      6  C5  UNL d   1      -1.327  -1.168   2.514  0.00  0.00     0.039 A 
ENDROOT
BRANCH   4   7
ATOM      7  O   UNL d   1      -1.515   0.799  -0.538  0.00  0.00    -0.526 OA
ATOM      8  H5  UNL d   1      -0.832   1.350  -0.954  0.00  0.00     0.418 HD
ENDBRANCH   4   7
TORSDOF 1
ENDMDL
