MODEL 1
REMARK minimizedAffinity -4.08224773
REMARK minimizedRMSD -1
REMARK  1 active torsions:
REMARK  status: ('A' for Active; 'I' for Inactive)
REMARK    1  A    between atoms: C3_4  and  O_7 
ROOT
ATOM      1  C   UNL d   1       0.588   0.262   0.629  0.00  0.00    -0.033 A 
ATOM      2  C1  UNL d   1      -0.200   0.174   1.778  0.00  0.00     0.039 A 
ATOM      3  C2  UNL d   1      -1.586   0.310   1.689  0.00  0.00    -0.080 A 
ATOM      4  C3  UNL d   1      -2.172   0.534   0.445  0.00  0.00     0.150 A 
ATOM      5  C4  UNL d   1      -1.393   0.619  -0.704  0.00  0.00    -0.007 A 
ATOM      6  C5  UNL d   1      -0.008   0.484  -0.612  0.00  0.00     0.039 A 
ENDROOT
BRANCH   4   7
ATOM      7  O   UNL d   1      -3.520   0.678   0.308  0.00  0.00    -0.526 OA
ATOM      8  H5  UNL d   1      -3.927   0.625   1.189  0.00  0.00     0.418 HD
ENDBRANCH   4   7
TORSDOF 1
ENDMDL
