MODEL 1
REMARK minimizedAffinity -5.172647
REMARK minimizedRMSD -1
REMARK  1 active torsions:
REMARK  status: ('A' for Active; 'I' for Inactive)
REMARK    1  A    between atoms: C3_4  and  O_7 
ROOT
ATOM      1  C   UNL d   1       0.565   0.980   0.010  0.00  0.00    -0.033 A 
ATOM      2  C1  UNL d   1      -0.706   0.419  -0.128  0.00  0.00     0.039 A 
ATOM      3  C2  UNL d   1      -1.282  -0.278   0.936  0.00  0.00    -0.080 A 
ATOM      4  C3  UNL d   1      -0.579  -0.406   2.130  0.00  0.00     0.150 A 
ATOM      5  C4  UNL d   1       0.686   0.154   2.276  0.00  0.00    -0.007 A 
ATOM      6  C5  UNL d   1       1.260   0.849   1.213  0.00  0.00     0.039 A 
ENDROOT
BRANCH   4   7
ATOM      7  O   UNL d   1      -1.099  -1.081   3.194  0.00  0.00    -0.526 OA
ATOM      8  H5  UNL d   1      -1.966  -1.438   2.939  0.00  0.00     0.418 HD
ENDBRANCH   4   7
TORSDOF 1
ENDMDL
