MODEL 1
REMARK minimizedAffinity -4.15395737
REMARK minimizedRMSD -1
REMARK  1 active torsions:
REMARK  status: ('A' for Active; 'I' for Inactive)
REMARK    1  A    between atoms: C3_4  and  O_7 
ROOT
ATOM      1  C   UNL d   1       0.354   0.805  -0.127  0.00  0.00    -0.033 A 
ATOM      2  C1  UNL d   1      -0.911   0.214  -0.137  0.00  0.00     0.039 A 
ATOM      3  C2  UNL d   1      -1.408  -0.395   1.017  0.00  0.00    -0.080 A 
ATOM      4  C3  UNL d   1      -0.633  -0.405   2.173  0.00  0.00     0.150 A 
ATOM      5  C4  UNL d   1       0.627   0.185   2.191  0.00  0.00    -0.007 A 
ATOM      6  C5  UNL d   1       1.122   0.792   1.038  0.00  0.00     0.039 A 
ENDROOT
BRANCH   4   7
ATOM      7  O   UNL d   1      -1.073  -0.991   3.322  0.00  0.00    -0.526 OA
ATOM      8  H5  UNL d   1      -1.947  -1.382   3.153  0.00  0.00     0.418 HD
ENDBRANCH   4   7
TORSDOF 1
ENDMDL
