MODEL 1
REMARK minimizedAffinity -4.10308981
REMARK minimizedRMSD -1
REMARK  1 active torsions:
REMARK  status: ('A' for Active; 'I' for Inactive)
REMARK    1  A    between atoms: C3_4  and  O_7 
ROOT
ATOM      1  C   UNL d   1      -0.832  -0.185   2.950  0.00  0.00    -0.033 A 
ATOM      2  C1  UNL d   1       0.462   0.221   2.618  0.00  0.00     0.039 A 
ATOM      3  C2  UNL d   1       0.799   0.465   1.285  0.00  0.00    -0.080 A 
ATOM      4  C3  UNL d   1      -0.166   0.301   0.295  0.00  0.00     0.150 A 
ATOM      5  C4  UNL d   1      -1.458  -0.100   0.619  0.00  0.00    -0.007 A 
ATOM      6  C5  UNL d   1      -1.793  -0.344   1.950  0.00  0.00     0.039 A 
ENDROOT
BRANCH   4   7
ATOM      7  O   UNL d   1       0.117   0.523  -1.020  0.00  0.00    -0.526 OA
ATOM      8  H5  UNL d   1       1.055   0.766  -1.096  0.00  0.00     0.418 HD
ENDBRANCH   4   7
TORSDOF 1
ENDMDL
