MODEL 1
REMARK minimizedAffinity -4.27212858
REMARK minimizedRMSD -1
REMARK  1 active torsions:
REMARK  status: ('A' for Active; 'I' for Inactive)
REMARK    1  A    between atoms: C3_4  and  O_7 
ROOT
ATOM      1  C   UNL d   1       0.004   0.779  -0.315  0.00  0.00    -0.033 A 
ATOM      2  C1  UNL d   1       0.893   0.902   0.755  0.00  0.00     0.039 A 
ATOM      3  C2  UNL d   1       0.551   0.396   2.010  0.00  0.00    -0.080 A 
ATOM      4  C3  UNL d   1      -0.679  -0.233   2.182  0.00  0.00     0.150 A 
ATOM      5  C4  UNL d   1      -1.567  -0.363   1.120  0.00  0.00    -0.007 A 
ATOM      6  C5  UNL d   1      -1.225   0.145  -0.133  0.00  0.00     0.039 A 
ENDROOT
BRANCH   4   7
ATOM      7  O   UNL d   1      -1.058  -0.739   3.390  0.00  0.00    -0.526 OA
ATOM      8  H5  UNL d   1      -0.357  -0.551   4.036  0.00  0.00     0.418 HD
ENDBRANCH   4   7
TORSDOF 1
ENDMDL
