MODEL 1
REMARK minimizedAffinity -4.84331656
REMARK minimizedRMSD -1
REMARK  1 active torsions:
REMARK  status: ('A' for Active; 'I' for Inactive)
REMARK    1  A    between atoms: C3_4  and  O_7 
ROOT
ATOM      1  C   UNL d   1      -0.666  -0.035   2.894  0.00  0.00    -0.033 A 
ATOM      2  C1  UNL d   1       0.621   0.294   2.464  0.00  0.00     0.039 A 
ATOM      3  C2  UNL d   1       0.897   0.396   1.099  0.00  0.00    -0.080 A 
ATOM      4  C3  UNL d   1      -0.120   0.168   0.177  0.00  0.00     0.150 A 
ATOM      5  C4  UNL d   1      -1.405  -0.156   0.599  0.00  0.00    -0.007 A 
ATOM      6  C5  UNL d   1      -1.680  -0.258   1.962  0.00  0.00     0.039 A 
ENDROOT
BRANCH   4   7
ATOM      7  O   UNL d   1       0.103   0.252  -1.166  0.00  0.00    -0.526 OA
ATOM      8  H5  UNL d   1       1.042   0.455  -1.309  0.00  0.00     0.418 HD
ENDBRANCH   4   7
TORSDOF 1
ENDMDL
