MODEL 1
REMARK minimizedAffinity 0.545435965
REMARK minimizedRMSD -1
REMARK  1 active torsions:
REMARK  status: ('A' for Active; 'I' for Inactive)
REMARK    1  A    between atoms: C3_4  and  O_7 
ROOT
ATOM      1  C   UNL d   1       1.715   0.904   0.858  0.00  0.00    -0.033 A 
ATOM      2  C1  UNL d   1       0.839  -0.169   0.687  0.00  0.00     0.039 A 
ATOM      3  C2  UNL d   1       0.039  -0.595   1.749  0.00  0.00    -0.080 A 
ATOM      4  C3  UNL d   1       0.124   0.060   2.975  0.00  0.00     0.150 A 
ATOM      5  C4  UNL d   1       0.992   1.133   3.150  0.00  0.00    -0.007 A 
ATOM      6  C5  UNL d   1       1.791   1.556   2.089  0.00  0.00     0.039 A 
ENDROOT
BRANCH   4   7
ATOM      7  O   UNL d   1      -0.633  -0.323   4.042  0.00  0.00    -0.526 OA
ATOM      8  H5  UNL d   1      -1.164  -1.094   3.782  0.00  0.00     0.418 HD
ENDBRANCH   4   7
TORSDOF 1
ENDMDL
