MODEL 1
REMARK minimizedAffinity -4.93266964
REMARK minimizedRMSD -1
REMARK  1 active torsions:
REMARK  status: ('A' for Active; 'I' for Inactive)
REMARK    1  A    between atoms: C3_4  and  O_7 
ROOT
ATOM      1  C   UNL d   1      -1.390  -0.594   3.292  0.00  0.00    -0.033 A 
ATOM      2  C1  UNL d   1      -0.102  -0.082   3.462  0.00  0.00     0.039 A 
ATOM      3  C2  UNL d   1       0.614   0.391   2.360  0.00  0.00    -0.080 A 
ATOM      4  C3  UNL d   1       0.031   0.347   1.097  0.00  0.00     0.150 A 
ATOM      5  C4  UNL d   1      -1.253  -0.159   0.921  0.00  0.00    -0.007 A 
ATOM      6  C5  UNL d   1      -1.966  -0.631   2.022  0.00  0.00     0.039 A 
ENDROOT
BRANCH   4   7
ATOM      7  O   UNL d   1       0.693   0.793  -0.009  0.00  0.00    -0.526 OA
ATOM      8  H5  UNL d   1       1.579   1.087   0.261  0.00  0.00     0.418 HD
ENDBRANCH   4   7
TORSDOF 1
ENDMDL
