MODEL 1
REMARK minimizedAffinity 5.0608325
REMARK minimizedRMSD -1
REMARK  1 active torsions:
REMARK  status: ('A' for Active; 'I' for Inactive)
REMARK    1  A    between atoms: N_2  and  C1_3 
ROOT
ATOM      1  C1  UNL d   1       0.807  -0.838   3.176  0.00  0.00     0.143 A 
ATOM      2  C2  UNL d   1       0.508   0.235   2.329  0.00  0.00    -0.057 A 
ATOM      3  C3  UNL d   1      -0.816   0.597   2.055  0.00  0.00     0.033 A 
ATOM      4  C4  UNL d   1      -1.869  -0.129   2.602  0.00  0.00    -0.042 A 
ATOM      5  C5  UNL d   1      -1.596  -1.215   3.427  0.00  0.00     0.033 A 
ATOM      6  C6  UNL d   1      -0.271  -1.567   3.702  0.00  0.00    -0.057 A 
ENDROOT
BRANCH   1   7
ATOM      7  N   UNL d   1       2.102  -1.308   3.409  0.00  0.00    -0.732 N 
ATOM      8  C   UNL d   1       3.213  -0.835   2.610  0.00  0.00     0.284 C 
ATOM      9  H3  UNL d   1       2.311  -1.396   4.401  0.00  0.00     0.395 HD
ENDBRANCH   1   7
TORSDOF 1
ENDMDL
