MODEL 1
REMARK minimizedAffinity -4.32314396
REMARK minimizedRMSD -1
REMARK  1 active torsions:
REMARK  status: ('A' for Active; 'I' for Inactive)
REMARK    1  A    between atoms: N_2  and  C1_3 
ROOT
ATOM      1  C1  UNL d   1       0.052   0.036  -0.165  0.00  0.00     0.143 A 
ATOM      2  C2  UNL d   1       1.150   0.528   0.550  0.00  0.00    -0.057 A 
ATOM      3  C3  UNL d   1       1.178   0.498   1.949  0.00  0.00     0.033 A 
ATOM      4  C4  UNL d   1       0.092  -0.000   2.662  0.00  0.00    -0.042 A 
ATOM      5  C5  UNL d   1      -1.020  -0.471   1.974  0.00  0.00     0.033 A 
ATOM      6  C6  UNL d   1      -1.039  -0.445   0.576  0.00  0.00    -0.057 A 
ENDROOT
BRANCH   1   7
ATOM      7  N   UNL d   1      -0.077   0.129  -1.553  0.00  0.00    -0.732 N 
ATOM      8  C   UNL d   1       0.241  -1.001  -2.400  0.00  0.00     0.284 C 
ATOM      9  H3  UNL d   1      -0.915   0.635  -1.832  0.00  0.00     0.395 HD
ENDBRANCH   1   7
TORSDOF 1
ENDMDL
