MODEL 1
REMARK minimizedAffinity -2.42007279
REMARK minimizedRMSD -1
REMARK  1 active torsions:
REMARK  status: ('A' for Active; 'I' for Inactive)
REMARK    1  A    between atoms: N_2  and  C1_3 
ROOT
ATOM      1  C1  UNL d   1      -0.022  -0.106  -1.411  0.00  0.00     0.143 A 
ATOM      2  C2  UNL d   1      -1.235   0.582  -1.295  0.00  0.00    -0.057 A 
ATOM      3  C3  UNL d   1      -1.956   0.585  -0.094  0.00  0.00     0.033 A 
ATOM      4  C4  UNL d   1      -1.489  -0.126   1.006  0.00  0.00    -0.042 A 
ATOM      5  C5  UNL d   1      -0.298  -0.837   0.906  0.00  0.00     0.033 A 
ATOM      6  C6  UNL d   1       0.420  -0.831  -0.294  0.00  0.00    -0.057 A 
ENDROOT
BRANCH   1   7
ATOM      7  N   UNL d   1       0.691  -0.228  -2.606  0.00  0.00    -0.732 N 
ATOM      8  C   UNL d   1       0.670  -1.467  -3.353  0.00  0.00     0.284 C 
ATOM      9  H3  UNL d   1       0.627   0.607  -3.184  0.00  0.00     0.395 HD
ENDBRANCH   1   7
TORSDOF 1
ENDMDL
