MODEL 1
REMARK minimizedAffinity 4.24402189
REMARK minimizedRMSD -1
REMARK  1 active torsions:
REMARK  status: ('A' for Active; 'I' for Inactive)
REMARK    1  A    between atoms: N_2  and  C1_3 
ROOT
ATOM      1  C1  UNL d   1      -2.107   0.251   0.780  0.00  0.00     0.143 A 
ATOM      2  C2  UNL d   1      -1.234   0.111  -0.304  0.00  0.00    -0.057 A 
ATOM      3  C3  UNL d   1      -1.664   0.343  -1.617  0.00  0.00     0.033 A 
ATOM      4  C4  UNL d   1      -2.986   0.692  -1.871  0.00  0.00    -0.042 A 
ATOM      5  C5  UNL d   1      -3.877   0.812  -0.811  0.00  0.00     0.033 A 
ATOM      6  C6  UNL d   1      -3.441   0.585   0.498  0.00  0.00    -0.057 A 
ENDROOT
BRANCH   1   7
ATOM      7  N   UNL d   1      -1.766  -0.062   2.098  0.00  0.00    -0.732 N 
ATOM      8  C   UNL d   1      -0.378  -0.138   2.502  0.00  0.00     0.284 C 
ATOM      9  H3  UNL d   1      -2.371   0.397   2.775  0.00  0.00     0.395 HD
ENDBRANCH   1   7
TORSDOF 1
ENDMDL
