MODEL 1
REMARK minimizedAffinity 5.08085966
REMARK minimizedRMSD -1
REMARK  1 active torsions:
REMARK  status: ('A' for Active; 'I' for Inactive)
REMARK    1  A    between atoms: N_2  and  C1_3 
ROOT
ATOM      1  C1  UNL d   1      -1.852   0.239   1.937  0.00  0.00     0.143 A 
ATOM      2  C2  UNL d   1      -2.956  -0.238   2.653  0.00  0.00    -0.057 A 
ATOM      3  C3  UNL d   1      -4.253  -0.147   2.132  0.00  0.00     0.033 A 
ATOM      4  C4  UNL d   1      -4.472   0.451   0.896  0.00  0.00    -0.042 A 
ATOM      5  C5  UNL d   1      -3.392   0.954   0.178  0.00  0.00     0.033 A 
ATOM      6  C6  UNL d   1      -2.099   0.854   0.700  0.00  0.00    -0.057 A 
ENDROOT
BRANCH   1   7
ATOM      7  N   UNL d   1      -0.550   0.266   2.444  0.00  0.00    -0.732 N 
ATOM      8  C   UNL d   1       0.109   1.526   2.713  0.00  0.00     0.284 C 
ATOM      9  H3  UNL d   1      -0.395  -0.445   3.154  0.00  0.00     0.395 HD
ENDBRANCH   1   7
TORSDOF 1
ENDMDL
