MODEL 1
REMARK minimizedAffinity 3.27324843
REMARK minimizedRMSD -1
REMARK  1 active torsions:
REMARK  status: ('A' for Active; 'I' for Inactive)
REMARK    1  A    between atoms: N_2  and  C1_3 
ROOT
ATOM      1  C1  UNL d   1      -2.461   0.416   0.452  0.00  0.00     0.143 A 
ATOM      2  C2  UNL d   1      -1.570   0.264   1.520  0.00  0.00    -0.057 A 
ATOM      3  C3  UNL d   1      -2.005   0.354   2.847  0.00  0.00     0.033 A 
ATOM      4  C4  UNL d   1      -3.339   0.627   3.131  0.00  0.00    -0.042 A 
ATOM      5  C5  UNL d   1      -4.237   0.807   2.086  0.00  0.00     0.033 A 
ATOM      6  C6  UNL d   1      -3.798   0.709   0.762  0.00  0.00    -0.057 A 
ENDROOT
BRANCH   1   7
ATOM      7  N   UNL d   1      -2.072   0.436  -0.889  0.00  0.00    -0.732 N 
ATOM      8  C   UNL d   1      -0.820   1.044  -1.285  0.00  0.00     0.284 C 
ATOM      9  H3  UNL d   1      -2.278  -0.439  -1.366  0.00  0.00     0.395 HD
ENDBRANCH   1   7
TORSDOF 1
ENDMDL
