MODEL 1
REMARK minimizedAffinity 2.19607043
REMARK minimizedRMSD -1
REMARK  1 active torsions:
REMARK  status: ('A' for Active; 'I' for Inactive)
REMARK    1  A    between atoms: N_2  and  C1_3 
ROOT
ATOM      1  C1  UNL d   1      -1.318  -0.133   2.425  0.00  0.00     0.143 A 
ATOM      2  C2  UNL d   1      -2.481   0.172   3.139  0.00  0.00    -0.057 A 
ATOM      3  C3  UNL d   1      -3.719   0.290   2.496  0.00  0.00     0.033 A 
ATOM      4  C4  UNL d   1      -3.810   0.131   1.117  0.00  0.00    -0.042 A 
ATOM      5  C5  UNL d   1      -2.663  -0.149   0.383  0.00  0.00     0.033 A 
ATOM      6  C6  UNL d   1      -1.431  -0.271   1.032  0.00  0.00    -0.057 A 
ENDROOT
BRANCH   1   7
ATOM      7  N   UNL d   1      -0.042  -0.166   2.993  0.00  0.00    -0.732 N 
ATOM      8  C   UNL d   1       0.795   1.015   2.994  0.00  0.00     0.284 C 
ATOM      9  H3  UNL d   1      -0.017  -0.694   3.862  0.00  0.00     0.395 HD
ENDBRANCH   1   7
TORSDOF 1
ENDMDL
