MODEL 1
REMARK minimizedAffinity 4.22556162
REMARK minimizedRMSD -1
REMARK  1 active torsions:
REMARK  status: ('A' for Active; 'I' for Inactive)
REMARK    1  A    between atoms: N_2  and  C1_3 
ROOT
ATOM      1  C1  UNL d   1      -2.045  -0.276   0.393  0.00  0.00     0.143 A 
ATOM      2  C2  UNL d   1      -1.495  -0.440   1.669  0.00  0.00    -0.057 A 
ATOM      3  C3  UNL d   1      -2.230  -0.136   2.821  0.00  0.00     0.033 A 
ATOM      4  C4  UNL d   1      -3.523   0.367   2.716  0.00  0.00    -0.042 A 
ATOM      5  C5  UNL d   1      -4.081   0.561   1.457  0.00  0.00     0.033 A 
ATOM      6  C6  UNL d   1      -3.344   0.249   0.311  0.00  0.00    -0.057 A 
ENDROOT
BRANCH   1   7
ATOM      7  N   UNL d   1      -1.330  -0.467  -0.792  0.00  0.00    -0.732 N 
ATOM      8  C   UNL d   1      -1.048  -1.802  -1.276  0.00  0.00     0.284 C 
ATOM      9  H3  UNL d   1      -1.602   0.190  -1.520  0.00  0.00     0.395 HD
ENDBRANCH   1   7
TORSDOF 1
ENDMDL
