MODEL 1
REMARK minimizedAffinity -1.25119984
REMARK minimizedRMSD -1
REMARK  1 active torsions:
REMARK  status: ('A' for Active; 'I' for Inactive)
REMARK    1  A    between atoms: N_2  and  C1_3 
ROOT
ATOM      1  C1  UNL d   1      -0.802   0.746   3.027  0.00  0.00     0.143 A 
ATOM      2  C2  UNL d   1      -1.266   0.404   1.752  0.00  0.00    -0.057 A 
ATOM      3  C3  UNL d   1      -0.377   0.105   0.713  0.00  0.00     0.033 A 
ATOM      4  C4  UNL d   1       0.996   0.170   0.923  0.00  0.00    -0.042 A 
ATOM      5  C5  UNL d   1       1.480   0.532   2.176  0.00  0.00     0.033 A 
ATOM      6  C6  UNL d   1       0.587   0.823   3.212  0.00  0.00    -0.057 A 
ENDROOT
BRANCH   1   7
ATOM      7  N   UNL d   1      -1.634   1.150   4.075  0.00  0.00    -0.732 N 
ATOM      8  C   UNL d   1      -2.885   1.825   3.805  0.00  0.00     0.284 C 
ATOM      9  H3  UNL d   1      -1.687   0.457   4.818  0.00  0.00     0.395 HD
ENDBRANCH   1   7
TORSDOF 1
ENDMDL
