MODEL 1
REMARK minimizedAffinity 3.10656047
REMARK minimizedRMSD -1
REMARK  1 active torsions:
REMARK  status: ('A' for Active; 'I' for Inactive)
REMARK    1  A    between atoms: N_2  and  C1_3 
ROOT
ATOM      1  C1  UNL d   1       0.385   0.657   0.534  0.00  0.00     0.143 A 
ATOM      2  C2  UNL d   1       0.923  -0.143   1.547  0.00  0.00    -0.057 A 
ATOM      3  C3  UNL d   1       2.250   0.011   1.967  0.00  0.00     0.033 A 
ATOM      4  C4  UNL d   1       3.073   0.953   1.358  0.00  0.00    -0.042 A 
ATOM      5  C5  UNL d   1       2.567   1.742   0.332  0.00  0.00     0.033 A 
ATOM      6  C6  UNL d   1       1.239   1.588  -0.079  0.00  0.00    -0.057 A 
ENDROOT
BRANCH   1   7
ATOM      7  N   UNL d   1      -0.897   0.485   0.005  0.00  0.00    -0.732 N 
ATOM      8  C   UNL d   1      -1.223  -0.694  -0.768  0.00  0.00     0.284 C 
ATOM      9  H3  UNL d   1      -1.626   0.773   0.653  0.00  0.00     0.395 HD
ENDBRANCH   1   7
TORSDOF 1
ENDMDL
