MODEL 1
REMARK minimizedAffinity 1.93974292
REMARK minimizedRMSD -1
REMARK  1 active torsions:
REMARK  status: ('A' for Active; 'I' for Inactive)
REMARK    1  A    between atoms: N_2  and  C1_3 
ROOT
ATOM      1  C1  UNL d   1      -0.749   0.754   1.519  0.00  0.00     0.143 A 
ATOM      2  C2  UNL d   1       0.082   0.556   2.626  0.00  0.00    -0.057 A 
ATOM      3  C3  UNL d   1       1.463   0.379   2.475  0.00  0.00     0.033 A 
ATOM      4  C4  UNL d   1       2.034   0.368   1.207  0.00  0.00    -0.042 A 
ATOM      5  C5  UNL d   1       1.223   0.538   0.090  0.00  0.00     0.033 A 
ATOM      6  C6  UNL d   1      -0.154   0.721   0.248  0.00  0.00    -0.057 A 
ENDROOT
BRANCH   1   7
ATOM      7  N   UNL d   1      -2.142   0.838   1.597  0.00  0.00    -0.732 N 
ATOM      8  C   UNL d   1      -2.779   1.495   2.717  0.00  0.00     0.284 C 
ATOM      9  H3  UNL d   1      -2.570   1.042   0.697  0.00  0.00     0.395 HD
ENDBRANCH   1   7
TORSDOF 1
ENDMDL
