MODEL 1
REMARK minimizedAffinity -1.00627267
REMARK minimizedRMSD -1
REMARK  1 active torsions:
REMARK  status: ('A' for Active; 'I' for Inactive)
REMARK    1  A    between atoms: N_2  and  C1_3 
ROOT
ATOM      1  C1  UNL d   1      -0.504   0.606   0.211  0.00  0.00     0.143 A 
ATOM      2  C2  UNL d   1      -0.729   0.643   1.591  0.00  0.00    -0.057 A 
ATOM      3  C3  UNL d   1       0.317   0.456   2.502  0.00  0.00     0.033 A 
ATOM      4  C4  UNL d   1       1.607   0.200   2.047  0.00  0.00    -0.042 A 
ATOM      5  C5  UNL d   1       1.849   0.134   0.680  0.00  0.00     0.033 A 
ATOM      6  C6  UNL d   1       0.801   0.328  -0.225  0.00  0.00    -0.057 A 
ENDROOT
BRANCH   1   7
ATOM      7  N   UNL d   1      -1.520   0.687  -0.745  0.00  0.00    -0.732 N 
ATOM      8  C   UNL d   1      -2.911   0.647  -0.348  0.00  0.00     0.284 C 
ATOM      9  H3  UNL d   1      -1.314   1.367  -1.474  0.00  0.00     0.395 HD
ENDBRANCH   1   7
TORSDOF 1
ENDMDL
