MODEL 1
REMARK minimizedAffinity -3.02279592
REMARK minimizedRMSD -1
REMARK  1 active torsions:
REMARK  status: ('A' for Active; 'I' for Inactive)
REMARK    1  A    between atoms: N_2  and  C1_3 
ROOT
ATOM      1  C1  UNL d   1       0.004  -0.762  -0.185  0.00  0.00     0.143 A 
ATOM      2  C2  UNL d   1       0.790   0.310   0.251  0.00  0.00    -0.057 A 
ATOM      3  C3  UNL d   1       0.831   0.679   1.601  0.00  0.00     0.033 A 
ATOM      4  C4  UNL d   1       0.061  -0.002   2.538  0.00  0.00    -0.042 A 
ATOM      5  C5  UNL d   1      -0.747  -1.055   2.124  0.00  0.00     0.033 A 
ATOM      6  C6  UNL d   1      -0.778  -1.423   0.775  0.00  0.00    -0.057 A 
ENDROOT
BRANCH   1   7
ATOM      7  N   UNL d   1      -0.155  -1.114  -1.527  0.00  0.00    -0.732 N 
ATOM      8  C   UNL d   1       0.979  -1.546  -2.315  0.00  0.00     0.284 C 
ATOM      9  H3  UNL d   1      -1.003  -1.653  -1.689  0.00  0.00     0.395 HD
ENDBRANCH   1   7
TORSDOF 1
ENDMDL
