MODEL 1
REMARK minimizedAffinity -3.9318769
REMARK minimizedRMSD -1
REMARK  1 active torsions:
REMARK  status: ('A' for Active; 'I' for Inactive)
REMARK    1  A    between atoms: N_2  and  C1_3 
ROOT
ATOM      1  C1  UNL d   1      -0.516   0.027   0.131  0.00  0.00     0.143 A 
ATOM      2  C2  UNL d   1       0.589   0.264   0.956  0.00  0.00    -0.057 A 
ATOM      3  C3  UNL d   1       0.503   0.111   2.346  0.00  0.00     0.033 A 
ATOM      4  C4  UNL d   1      -0.701  -0.255   2.938  0.00  0.00    -0.042 A 
ATOM      5  C5  UNL d   1      -1.819  -0.471   2.139  0.00  0.00     0.033 A 
ATOM      6  C6  UNL d   1      -1.725  -0.323   0.752  0.00  0.00    -0.057 A 
ENDROOT
BRANCH   1   7
ATOM      7  N   UNL d   1      -0.520   0.257  -1.247  0.00  0.00    -0.732 N 
ATOM      8  C   UNL d   1       0.631  -0.082  -2.055  0.00  0.00     0.284 C 
ATOM      9  H3  UNL d   1      -1.413   0.024  -1.677  0.00  0.00     0.395 HD
ENDBRANCH   1   7
TORSDOF 1
ENDMDL
