MODEL 1
REMARK minimizedAffinity -1.27613258
REMARK minimizedRMSD -1
REMARK  1 active torsions:
REMARK  status: ('A' for Active; 'I' for Inactive)
REMARK    1  A    between atoms: N_2  and  C1_3 
ROOT
ATOM      1  C1  UNL d   1       0.041  -0.003   2.099  0.00  0.00     0.143 A 
ATOM      2  C2  UNL d   1      -0.822  -0.217   1.019  0.00  0.00    -0.057 A 
ATOM      3  C3  UNL d   1      -0.449   0.125  -0.286  0.00  0.00     0.033 A 
ATOM      4  C4  UNL d   1       0.786   0.716  -0.532  0.00  0.00    -0.042 A 
ATOM      5  C5  UNL d   1       1.650   0.961   0.530  0.00  0.00     0.033 A 
ATOM      6  C6  UNL d   1       1.275   0.611   1.831  0.00  0.00    -0.057 A 
ENDROOT
BRANCH   1   7
ATOM      7  N   UNL d   1      -0.310  -0.230   3.432  0.00  0.00    -0.732 N 
ATOM      8  C   UNL d   1      -1.050  -1.415   3.808  0.00  0.00     0.284 C 
ATOM      9  H3  UNL d   1       0.437   0.016   4.078  0.00  0.00     0.395 HD
ENDBRANCH   1   7
TORSDOF 1
ENDMDL
