MODEL 1
REMARK minimizedAffinity -4.00103188
REMARK minimizedRMSD -1
REMARK  1 active torsions:
REMARK  status: ('A' for Active; 'I' for Inactive)
REMARK    1  A    between atoms: N_2  and  C1_3 
ROOT
ATOM      1  C1  UNL d   1       2.581  -2.782   3.239  0.00  0.00     0.143 A 
ATOM      2  C2  UNL d   1       1.284  -2.879   2.725  0.00  0.00    -0.057 A 
ATOM      3  C3  UNL d   1       0.913  -2.204   1.557  0.00  0.00     0.033 A 
ATOM      4  C4  UNL d   1       1.829  -1.392   0.895  0.00  0.00    -0.042 A 
ATOM      5  C5  UNL d   1       3.117  -1.261   1.401  0.00  0.00     0.033 A 
ATOM      6  C6  UNL d   1       3.483  -1.943   2.565  0.00  0.00    -0.057 A 
ENDROOT
BRANCH   1   7
ATOM      7  N   UNL d   1       2.983  -3.350   4.451  0.00  0.00    -0.732 N 
ATOM      8  C   UNL d   1       2.869  -4.776   4.670  0.00  0.00     0.284 C 
ATOM      9  H3  UNL d   1       3.846  -2.943   4.804  0.00  0.00     0.395 HD
ENDBRANCH   1   7
TORSDOF 1
ENDMDL
