MODEL 1
REMARK minimizedAffinity -0.724454761
REMARK minimizedRMSD -1
REMARK  1 active torsions:
REMARK  status: ('A' for Active; 'I' for Inactive)
REMARK    1  A    between atoms: N_2  and  C1_3 
ROOT
ATOM      1  C1  UNL d   1       2.406  -1.127   1.410  0.00  0.00     0.143 A 
ATOM      2  C2  UNL d   1       1.150  -1.597   1.014  0.00  0.00    -0.057 A 
ATOM      3  C3  UNL d   1       0.536  -2.672   1.670  0.00  0.00     0.033 A 
ATOM      4  C4  UNL d   1       1.184  -3.316   2.718  0.00  0.00    -0.042 A 
ATOM      5  C5  UNL d   1       2.445  -2.882   3.113  0.00  0.00     0.033 A 
ATOM      6  C6  UNL d   1       3.049  -1.804   2.458  0.00  0.00    -0.057 A 
ENDROOT
BRANCH   1   7
ATOM      7  N   UNL d   1       3.111  -0.128   0.735  0.00  0.00    -0.732 N 
ATOM      8  C   UNL d   1       2.691   1.255   0.817  0.00  0.00     0.284 C 
ATOM      9  H3  UNL d   1       4.119  -0.260   0.787  0.00  0.00     0.395 HD
ENDBRANCH   1   7
TORSDOF 1
ENDMDL
