MODEL 1
REMARK minimizedAffinity 0.160892561
REMARK minimizedRMSD -1
REMARK  1 active torsions:
REMARK  status: ('A' for Active; 'I' for Inactive)
REMARK    1  A    between atoms: N_2  and  C1_3 
ROOT
ATOM      1  C1  UNL d   1       0.681  -2.251   0.356  0.00  0.00     0.143 A 
ATOM      2  C2  UNL d   1      -0.548  -1.821  -0.156  0.00  0.00    -0.057 A 
ATOM      3  C3  UNL d   1      -0.792  -1.798  -1.534  0.00  0.00     0.033 A 
ATOM      4  C4  UNL d   1       0.202  -2.179  -2.429  0.00  0.00    -0.042 A 
ATOM      5  C5  UNL d   1       1.440  -2.586  -1.944  0.00  0.00     0.033 A 
ATOM      6  C6  UNL d   1       1.675  -2.613  -0.566  0.00  0.00    -0.057 A 
ENDROOT
BRANCH   1   7
ATOM      7  N   UNL d   1       1.019  -2.203   1.711  0.00  0.00    -0.732 N 
ATOM      8  C   UNL d   1       2.258  -1.592   2.141  0.00  0.00     0.284 C 
ATOM      9  H3  UNL d   1       0.221  -1.985   2.303  0.00  0.00     0.395 HD
ENDBRANCH   1   7
TORSDOF 1
ENDMDL
