MODEL 1
REMARK minimizedAffinity 6.49303722
REMARK minimizedRMSD -1
REMARK  1 active torsions:
REMARK  status: ('A' for Active; 'I' for Inactive)
REMARK    1  A    between atoms: N_2  and  C1_3 
ROOT
ATOM      1  C1  UNL d   1       1.734   3.201   0.103  0.00  0.00     0.143 A 
ATOM      2  C2  UNL d   1       1.134   2.642   1.236  0.00  0.00    -0.057 A 
ATOM      3  C3  UNL d   1       1.708   1.549   1.898  0.00  0.00     0.033 A 
ATOM      4  C4  UNL d   1       2.881   0.977   1.418  0.00  0.00    -0.042 A 
ATOM      5  C5  UNL d   1       3.482   1.500   0.279  0.00  0.00     0.033 A 
ATOM      6  C6  UNL d   1       2.908   2.595  -0.373  0.00  0.00    -0.057 A 
ENDROOT
BRANCH   1   7
ATOM      7  N   UNL d   1       1.161   4.225  -0.656  0.00  0.00    -0.732 N 
ATOM      8  C   UNL d   1       1.876   5.462  -0.884  0.00  0.00     0.284 C 
ATOM      9  H3  UNL d   1       0.668   3.873  -1.473  0.00  0.00     0.395 HD
ENDBRANCH   1   7
TORSDOF 1
ENDMDL
