MODEL 1
REMARK minimizedAffinity -1.11473536
REMARK minimizedRMSD -1
REMARK  1 active torsions:
REMARK  status: ('A' for Active; 'I' for Inactive)
REMARK    1  A    between atoms: N_2  and  C1_3 
ROOT
ATOM      1  C1  UNL d   1       1.526  -2.155  -1.417  0.00  0.00     0.143 A 
ATOM      2  C2  UNL d   1       0.302  -1.953  -2.064  0.00  0.00    -0.057 A 
ATOM      3  C3  UNL d   1      -0.677  -1.113  -1.520  0.00  0.00     0.033 A 
ATOM      4  C4  UNL d   1      -0.459  -0.479  -0.301  0.00  0.00    -0.042 A 
ATOM      5  C5  UNL d   1       0.740  -0.685   0.372  0.00  0.00     0.033 A 
ATOM      6  C6  UNL d   1       1.716  -1.520  -0.180  0.00  0.00    -0.057 A 
ENDROOT
BRANCH   1   7
ATOM      7  N   UNL d   1       2.499  -3.055  -1.858  0.00  0.00    -0.732 N 
ATOM      8  C   UNL d   1       3.400  -2.700  -2.934  0.00  0.00     0.284 C 
ATOM      9  H3  UNL d   1       2.945  -3.552  -1.090  0.00  0.00     0.395 HD
ENDBRANCH   1   7
TORSDOF 1
ENDMDL
