MODEL 1
REMARK minimizedAffinity 6.37361908
REMARK minimizedRMSD -1
REMARK  1 active torsions:
REMARK  status: ('A' for Active; 'I' for Inactive)
REMARK    1  A    between atoms: N_2  and  C1_3 
ROOT
ATOM      1  C1  UNL d   1       2.506  -0.992   1.739  0.00  0.00     0.143 A 
ATOM      2  C2  UNL d   1       3.474  -0.577   0.819  0.00  0.00    -0.057 A 
ATOM      3  C3  UNL d   1       3.830   0.772   0.699  0.00  0.00     0.033 A 
ATOM      4  C4  UNL d   1       3.202   1.736   1.480  0.00  0.00    -0.042 A 
ATOM      5  C5  UNL d   1       2.219   1.349   2.384  0.00  0.00     0.033 A 
ATOM      6  C6  UNL d   1       1.872   0.000   2.504  0.00  0.00    -0.057 A 
ENDROOT
BRANCH   1   7
ATOM      7  N   UNL d   1       2.037  -2.304   1.837  0.00  0.00    -0.732 N 
ATOM      8  C   UNL d   1       0.649  -2.571   2.147  0.00  0.00     0.284 C 
ATOM      9  H3  UNL d   1       2.426  -2.910   1.118  0.00  0.00     0.395 HD
ENDBRANCH   1   7
TORSDOF 1
ENDMDL
