MODEL 1
REMARK minimizedAffinity -5.08953333
REMARK minimizedRMSD -1
REMARK  0 active torsions:
REMARK  status: ('A' for Active; 'I' for Inactive)
ROOT
ATOM      1  C2' OXE d   1      -3.486   2.179   3.375  0.00  0.00     0.078 C 
ATOM      2  C1' OXE d   1      -3.139  -0.566   2.902  0.00  0.00     0.078 C 
ATOM      3  C1  OXE d   1      -2.044   0.369   2.454  0.00  0.00    -0.078 A 
ATOM      4  C2  OXE d   1      -2.243   1.714   2.647  0.00  0.00    -0.078 A 
ATOM      5  C3  OXE d   1      -1.240   2.616   2.302  0.00  0.00     0.003 A 
ATOM      6  C4  OXE d   1      -0.098   2.179   1.620  0.00  0.00    -0.002 A 
ATOM      7  C5  OXE d   1       0.106   0.817   1.378  0.00  0.00    -0.002 A 
ATOM      8  C6  OXE d   1      -0.835  -0.104   1.825  0.00  0.00     0.003 A 
ENDROOT
TORSDOF 0
ENDMDL
