MODEL 1
REMARK minimizedAffinity -4.44080544
REMARK minimizedRMSD -1
REMARK  0 active torsions:
REMARK  status: ('A' for Active; 'I' for Inactive)
ROOT
ATOM      1  C2' OXE d   1      -3.048  -0.110   2.658  0.00  0.00     0.078 C 
ATOM      2  C1' OXE d   1      -2.059   2.434   3.314  0.00  0.00     0.078 C 
ATOM      3  C1  OXE d   1      -1.280   1.612   2.318  0.00  0.00    -0.078 A 
ATOM      4  C2  OXE d   1      -1.746   0.350   2.038  0.00  0.00    -0.078 A 
ATOM      5  C3  OXE d   1      -1.096  -0.429   1.085  0.00  0.00     0.003 A 
ATOM      6  C4  OXE d   1       0.113  -0.001   0.524  0.00  0.00    -0.002 A 
ATOM      7  C5  OXE d   1       0.626   1.265   0.826  0.00  0.00    -0.002 A 
ATOM      8  C6  OXE d   1      -0.079   2.099   1.686  0.00  0.00     0.003 A 
ENDROOT
TORSDOF 0
ENDMDL
