MODEL 1
REMARK minimizedAffinity 1.14277828
REMARK minimizedRMSD -1
REMARK  0 active torsions:
REMARK  status: ('A' for Active; 'I' for Inactive)
ROOT
ATOM      1  C2' OXE d   1      -3.706   1.905   2.706  0.00  0.00     0.078 C 
ATOM      2  C1' OXE d   1      -2.844  -0.746   2.369  0.00  0.00     0.078 C 
ATOM      3  C1  OXE d   1      -1.856   0.357   2.080  0.00  0.00    -0.078 A 
ATOM      4  C2  OXE d   1      -2.301   1.652   2.202  0.00  0.00    -0.078 A 
ATOM      5  C3  OXE d   1      -1.416   2.707   2.000  0.00  0.00     0.003 A 
ATOM      6  C4  OXE d   1      -0.121   2.465   1.524  0.00  0.00    -0.002 A 
ATOM      7  C5  OXE d   1       0.339   1.155   1.355  0.00  0.00    -0.002 A 
ATOM      8  C6  OXE d   1      -0.500   0.091   1.668  0.00  0.00     0.003 A 
ENDROOT
TORSDOF 0
ENDMDL
