MODEL 1
REMARK minimizedAffinity 1.52723825
REMARK minimizedRMSD -1
REMARK  0 active torsions:
REMARK  status: ('A' for Active; 'I' for Inactive)
ROOT
ATOM      1  C2' OXE d   1      -3.965   2.185   4.129  0.00  0.00     0.078 C 
ATOM      2  C1' OXE d   1      -3.797  -0.489   3.292  0.00  0.00     0.078 C 
ATOM      3  C1  OXE d   1      -2.804   0.491   2.719  0.00  0.00    -0.078 A 
ATOM      4  C2  OXE d   1      -2.923   1.806   3.098  0.00  0.00    -0.078 A 
ATOM      5  C3  OXE d   1      -2.000   2.742   2.642  0.00  0.00     0.003 A 
ATOM      6  C4  OXE d   1      -1.045   2.386   1.681  0.00  0.00    -0.002 A 
ATOM      7  C5  OXE d   1      -0.932   1.059   1.251  0.00  0.00    -0.002 A 
ATOM      8  C6  OXE d   1      -1.774   0.094   1.791  0.00  0.00     0.003 A 
ENDROOT
TORSDOF 0
ENDMDL
