MODEL 1
REMARK minimizedAffinity -3.70492101
REMARK minimizedRMSD -1
REMARK  0 active torsions:
REMARK  status: ('A' for Active; 'I' for Inactive)
ROOT
ATOM      1  C2' OXE d   1       0.666   0.344   1.288  0.00  0.00     0.078 C 
ATOM      2  C1' OXE d   1      -0.528   2.845   1.733  0.00  0.00     0.078 C 
ATOM      3  C1  OXE d   1      -1.296   1.615   2.147  0.00  0.00    -0.078 A 
ATOM      4  C2  OXE d   1      -0.724   0.394   1.883  0.00  0.00    -0.078 A 
ATOM      5  C3  OXE d   1      -1.366  -0.771   2.294  0.00  0.00     0.003 A 
ATOM      6  C4  OXE d   1      -2.657  -0.716   2.835  0.00  0.00    -0.002 A 
ATOM      7  C5  OXE d   1      -3.274   0.516   3.076  0.00  0.00    -0.002 A 
ATOM      8  C6  OXE d   1      -2.591   1.690   2.778  0.00  0.00     0.003 A 
ENDROOT
TORSDOF 0
ENDMDL
