MODEL 1
REMARK minimizedAffinity 0.129006729
REMARK minimizedRMSD -1
REMARK  0 active torsions:
REMARK  status: ('A' for Active; 'I' for Inactive)
ROOT
ATOM      1  C2' OXE d   1      -3.406   1.647   3.718  0.00  0.00     0.078 C 
ATOM      2  C1' OXE d   1      -2.979  -1.040   3.026  0.00  0.00     0.078 C 
ATOM      3  C1  OXE d   1      -2.016  -0.012   2.486  0.00  0.00    -0.078 A 
ATOM      4  C2  OXE d   1      -2.260   1.305   2.791  0.00  0.00    -0.078 A 
ATOM      5  C3  OXE d   1      -1.372   2.288   2.364  0.00  0.00     0.003 A 
ATOM      6  C4  OXE d   1      -0.320   1.964   1.498  0.00  0.00    -0.002 A 
ATOM      7  C5  OXE d   1      -0.077   0.633   1.142  0.00  0.00    -0.002 A 
ATOM      8  C6  OXE d   1      -0.889  -0.370   1.660  0.00  0.00     0.003 A 
ENDROOT
TORSDOF 0
ENDMDL
