MODEL 1
REMARK minimizedAffinity -3.83700848
REMARK minimizedRMSD -1
REMARK  0 active torsions:
REMARK  status: ('A' for Active; 'I' for Inactive)
ROOT
ATOM      1  C2' OXE d   1      -2.908   2.168   3.272  0.00  0.00     0.078 C 
ATOM      2  C1' OXE d   1      -3.135  -0.620   3.034  0.00  0.00     0.078 C 
ATOM      3  C1  OXE d   1      -1.956   0.049   2.373  0.00  0.00    -0.078 A 
ATOM      4  C2  OXE d   1      -1.878   1.418   2.455  0.00  0.00    -0.078 A 
ATOM      5  C3  OXE d   1      -0.782   2.080   1.909  0.00  0.00     0.003 A 
ATOM      6  C4  OXE d   1       0.161   1.381   1.146  0.00  0.00    -0.002 A 
ATOM      7  C5  OXE d   1       0.079  -0.010   1.017  0.00  0.00    -0.002 A 
ATOM      8  C6  OXE d   1      -0.947  -0.694   1.658  0.00  0.00     0.003 A 
ENDROOT
TORSDOF 0
ENDMDL
