MODEL 1
REMARK minimizedAffinity -2.98641491
REMARK minimizedRMSD -1
REMARK  0 active torsions:
REMARK  status: ('A' for Active; 'I' for Inactive)
ROOT
ATOM      1  C2' OXE d   1      -2.499   2.353   2.792  0.00  0.00     0.078 C 
ATOM      2  C1' OXE d   1      -0.580   3.864   1.407  0.00  0.00     0.078 C 
ATOM      3  C1  OXE d   1      -0.532   2.363   1.263  0.00  0.00    -0.078 A 
ATOM      4  C2  OXE d   1      -1.445   1.629   1.982  0.00  0.00    -0.078 A 
ATOM      5  C3  OXE d   1      -1.479   0.245   1.843  0.00  0.00     0.003 A 
ATOM      6  C4  OXE d   1      -0.495  -0.417   1.099  0.00  0.00    -0.002 A 
ATOM      7  C5  OXE d   1       0.468   0.309   0.391  0.00  0.00    -0.002 A 
ATOM      8  C6  OXE d   1       0.438   1.698   0.428  0.00  0.00     0.003 A 
ENDROOT
TORSDOF 0
ENDMDL
