MODEL 1
REMARK minimizedAffinity -2.40730071
REMARK minimizedRMSD -1
REMARK  0 active torsions:
REMARK  status: ('A' for Active; 'I' for Inactive)
ROOT
ATOM      1  C2' OXE d   1      -2.657  -1.439   2.629  0.00  0.00     0.078 C 
ATOM      2  C1' OXE d   1      -3.349   1.240   3.104  0.00  0.00     0.078 C 
ATOM      3  C1  OXE d   1      -2.056   0.966   2.378  0.00  0.00    -0.078 A 
ATOM      4  C2  OXE d   1      -1.702  -0.349   2.191  0.00  0.00    -0.078 A 
ATOM      5  C3  OXE d   1      -0.547  -0.658   1.479  0.00  0.00     0.003 A 
ATOM      6  C4  OXE d   1       0.336   0.356   1.087  0.00  0.00    -0.002 A 
ATOM      7  C5  OXE d   1       0.014   1.700   1.302  0.00  0.00    -0.002 A 
ATOM      8  C6  OXE d   1      -1.196   2.023   1.907  0.00  0.00     0.003 A 
ENDROOT
TORSDOF 0
ENDMDL
