MODEL 1
REMARK minimizedAffinity -2.62600923
REMARK minimizedRMSD -1
REMARK  0 active torsions:
REMARK  status: ('A' for Active; 'I' for Inactive)
ROOT
ATOM      1  C2' OXE d   1       1.127   1.976   1.477  0.00  0.00     0.078 C 
ATOM      2  C1' OXE d   1       0.278  -0.629   0.867  0.00  0.00     0.078 C 
ATOM      3  C1  OXE d   1      -0.724   0.309   1.491  0.00  0.00    -0.078 A 
ATOM      4  C2  OXE d   1      -0.287   1.567   1.829  0.00  0.00    -0.078 A 
ATOM      5  C3  OXE d   1      -1.186   2.490   2.357  0.00  0.00     0.003 A 
ATOM      6  C4  OXE d   1      -2.489   2.100   2.689  0.00  0.00    -0.002 A 
ATOM      7  C5  OXE d   1      -2.943   0.812   2.390  0.00  0.00    -0.002 A 
ATOM      8  C6  OXE d   1      -2.088  -0.081   1.753  0.00  0.00     0.003 A 
ENDROOT
TORSDOF 0
ENDMDL
