MODEL 1
REMARK minimizedAffinity 2.08961201
REMARK minimizedRMSD -1
REMARK  0 active torsions:
REMARK  status: ('A' for Active; 'I' for Inactive)
ROOT
ATOM      1  C2' OXE d   1      -2.539   1.798   3.292  0.00  0.00     0.078 C 
ATOM      2  C1' OXE d   1      -1.376   3.338   1.253  0.00  0.00     0.078 C 
ATOM      3  C1  OXE d   1      -0.875   1.928   1.442  0.00  0.00    -0.078 A 
ATOM      4  C2  OXE d   1      -1.417   1.198   2.473  0.00  0.00    -0.078 A 
ATOM      5  C3  OXE d   1      -1.029  -0.126   2.658  0.00  0.00     0.003 A 
ATOM      6  C4  OXE d   1       0.016  -0.671   1.902  0.00  0.00    -0.002 A 
ATOM      7  C5  OXE d   1       0.609   0.069   0.873  0.00  0.00    -0.002 A 
ATOM      8  C6  OXE d   1       0.147   1.352   0.603  0.00  0.00     0.003 A 
ENDROOT
TORSDOF 0
ENDMDL
