MODEL 1
REMARK minimizedAffinity 0.279703021
REMARK minimizedRMSD -1
REMARK  0 active torsions:
REMARK  status: ('A' for Active; 'I' for Inactive)
ROOT
ATOM      1  C2' OXE d   1      -3.707   2.319   3.544  0.00  0.00     0.078 C 
ATOM      2  C1' OXE d   1      -3.537  -0.428   2.989  0.00  0.00     0.078 C 
ATOM      3  C1  OXE d   1      -2.434   0.463   2.476  0.00  0.00    -0.078 A 
ATOM      4  C2  OXE d   1      -2.549   1.812   2.712  0.00  0.00    -0.078 A 
ATOM      5  C3  OXE d   1      -1.532   2.672   2.307  0.00  0.00     0.003 A 
ATOM      6  C4  OXE d   1      -0.469   2.196   1.529  0.00  0.00    -0.002 A 
ATOM      7  C5  OXE d   1      -0.353   0.832   1.244  0.00  0.00    -0.002 A 
ATOM      8  C6  OXE d   1      -1.302  -0.052   1.745  0.00  0.00     0.003 A 
ENDROOT
TORSDOF 0
ENDMDL
