MODEL 1
REMARK minimizedAffinity -5.47679186
REMARK minimizedRMSD -1
REMARK  0 active torsions:
REMARK  status: ('A' for Active; 'I' for Inactive)
ROOT
ATOM      1  C2' OXE d   1      -1.120  -1.133   1.579  0.00  0.00     0.078 C 
ATOM      2  C1' OXE d   1       0.757   0.483   0.258  0.00  0.00     0.078 C 
ATOM      3  C1  OXE d   1      -0.280   1.166   1.115  0.00  0.00    -0.078 A 
ATOM      4  C2  OXE d   1      -1.223   0.370   1.720  0.00  0.00    -0.078 A 
ATOM      5  C3  OXE d   1      -2.169   0.944   2.565  0.00  0.00     0.003 A 
ATOM      6  C4  OXE d   1      -2.264   2.336   2.682  0.00  0.00    -0.002 A 
ATOM      7  C5  OXE d   1      -1.337   3.167   2.042  0.00  0.00    -0.002 A 
ATOM      8  C6  OXE d   1      -0.316   2.596   1.291  0.00  0.00     0.003 A 
ENDROOT
TORSDOF 0
ENDMDL
