MODEL 1
REMARK minimizedAffinity -1.91320515
REMARK minimizedRMSD -1
REMARK  0 active torsions:
REMARK  status: ('A' for Active; 'I' for Inactive)
ROOT
ATOM      1  C2' OXE d   1      -2.468   2.122   2.859  0.00  0.00     0.078 C 
ATOM      2  C1' OXE d   1      -2.347  -0.575   2.089  0.00  0.00     0.078 C 
ATOM      3  C1  OXE d   1      -1.159   0.299   1.777  0.00  0.00    -0.078 A 
ATOM      4  C2  OXE d   1      -1.245   1.628   2.116  0.00  0.00    -0.078 A 
ATOM      5  C3  OXE d   1      -0.156   2.467   1.900  0.00  0.00     0.003 A 
ATOM      6  C4  OXE d   1       0.967   2.005   1.203  0.00  0.00    -0.002 A 
ATOM      7  C5  OXE d   1       1.060   0.665   0.814  0.00  0.00    -0.002 A 
ATOM      8  C6  OXE d   1       0.026  -0.209   1.131  0.00  0.00     0.003 A 
ENDROOT
TORSDOF 0
ENDMDL
