MODEL 1
REMARK minimizedAffinity -2.60523438
REMARK minimizedRMSD -1
REMARK  0 active torsions:
REMARK  status: ('A' for Active; 'I' for Inactive)
ROOT
ATOM      1  C2' OXE d   1      -2.828  -0.453   2.652  0.00  0.00     0.078 C 
ATOM      2  C1' OXE d   1      -2.525   2.323   2.943  0.00  0.00     0.078 C 
ATOM      3  C1  OXE d   1      -1.535   1.595   2.068  0.00  0.00    -0.078 A 
ATOM      4  C2  OXE d   1      -1.663   0.230   1.969  0.00  0.00    -0.078 A 
ATOM      5  C3  OXE d   1      -0.809  -0.483   1.132  0.00  0.00     0.003 A 
ATOM      6  C4  OXE d   1       0.272   0.156   0.512  0.00  0.00    -0.002 A 
ATOM      7  C5  OXE d   1       0.443   1.539   0.632  0.00  0.00    -0.002 A 
ATOM      8  C6  OXE d   1      -0.474   2.278   1.370  0.00  0.00     0.003 A 
ENDROOT
TORSDOF 0
ENDMDL
