MODEL 1
REMARK minimizedAffinity 4.54698181
REMARK minimizedRMSD -1
REMARK  0 active torsions:
REMARK  status: ('A' for Active; 'I' for Inactive)
ROOT
ATOM      1  C2' OXE d   1       0.153  -0.021   1.884  0.00  0.00     0.078 C 
ATOM      2  C1' OXE d   1       0.850   2.156   0.256  0.00  0.00     0.078 C 
ATOM      3  C1  OXE d   1      -0.354   2.305   1.152  0.00  0.00    -0.078 A 
ATOM      4  C2  OXE d   1      -0.716   1.218   1.910  0.00  0.00    -0.078 A 
ATOM      5  C3  OXE d   1      -1.786   1.320   2.795  0.00  0.00     0.003 A 
ATOM      6  C4  OXE d   1      -2.590   2.466   2.805  0.00  0.00    -0.002 A 
ATOM      7  C5  OXE d   1      -2.263   3.570   2.011  0.00  0.00    -0.002 A 
ATOM      8  C6  OXE d   1      -1.126   3.522   1.212  0.00  0.00     0.003 A 
ENDROOT
TORSDOF 0
ENDMDL
