MODEL 1
REMARK minimizedAffinity -0.0807770491
REMARK minimizedRMSD -1
REMARK  0 active torsions:
REMARK  status: ('A' for Active; 'I' for Inactive)
ROOT
ATOM      1  C2' OXE d   1      -1.600   2.070   3.453  0.00  0.00     0.078 C 
ATOM      2  C1' OXE d   1      -2.470  -0.472   2.641  0.00  0.00     0.078 C 
ATOM      3  C1  OXE d   1      -1.203   0.067   2.026  0.00  0.00    -0.078 A 
ATOM      4  C2  OXE d   1      -0.809   1.331   2.395  0.00  0.00    -0.078 A 
ATOM      5  C3  OXE d   1       0.382   1.854   1.899  0.00  0.00     0.003 A 
ATOM      6  C4  OXE d   1       1.101   1.168   0.914  0.00  0.00    -0.002 A 
ATOM      7  C5  OXE d   1       0.697  -0.104   0.495  0.00  0.00    -0.002 A 
ATOM      8  C6  OXE d   1      -0.427  -0.685   1.071  0.00  0.00     0.003 A 
ENDROOT
TORSDOF 0
ENDMDL
