MODEL 1
REMARK minimizedAffinity 2.15580463
REMARK minimizedRMSD -1
REMARK  0 active torsions:
REMARK  status: ('A' for Active; 'I' for Inactive)
ROOT
ATOM      1  C2' OXE d   1       3.255  -1.013   0.134  0.00  0.00     0.078 C 
ATOM      2  C1' OXE d   1       2.722   1.383  -1.228  0.00  0.00     0.078 C 
ATOM      3  C1  OXE d   1       1.855   1.040  -0.042  0.00  0.00    -0.078 A 
ATOM      4  C2  OXE d   1       2.093  -0.157   0.590  0.00  0.00    -0.078 A 
ATOM      5  C3  OXE d   1       1.359  -0.496   1.723  0.00  0.00     0.003 A 
ATOM      6  C4  OXE d   1       0.279   0.297   2.132  0.00  0.00    -0.002 A 
ATOM      7  C5  OXE d   1      -0.005   1.500   1.478  0.00  0.00    -0.002 A 
ATOM      8  C6  OXE d   1       0.798   1.907   0.418  0.00  0.00     0.003 A 
ENDROOT
TORSDOF 0
ENDMDL
