MODEL 1
REMARK minimizedAffinity -0.822465956
REMARK minimizedRMSD -1
REMARK  0 active torsions:
REMARK  status: ('A' for Active; 'I' for Inactive)
ROOT
ATOM      1  C2' OXE d   1       1.429  -0.447   3.576  0.00  0.00     0.078 C 
ATOM      2  C1' OXE d   1       3.080  -0.040   1.342  0.00  0.00     0.078 C 
ATOM      3  C1  OXE d   1       1.815   0.776   1.440  0.00  0.00    -0.078 A 
ATOM      4  C2  OXE d   1       0.990   0.537   2.512  0.00  0.00    -0.078 A 
ATOM      5  C3  OXE d   1      -0.162   1.300   2.679  0.00  0.00     0.003 A 
ATOM      6  C4  OXE d   1      -0.566   2.200   1.686  0.00  0.00    -0.002 A 
ATOM      7  C5  OXE d   1       0.240   2.430   0.566  0.00  0.00    -0.002 A 
ATOM      8  C6  OXE d   1       1.452   1.759   0.449  0.00  0.00     0.003 A 
ENDROOT
TORSDOF 0
ENDMDL
