MODEL 1
REMARK minimizedAffinity -4.09888887
REMARK minimizedRMSD -1
REMARK  0 active torsions:
REMARK  status: ('A' for Active; 'I' for Inactive)
ROOT
ATOM      1  C2' OXE d   1      -3.188   1.941   3.219  0.00  0.00     0.078 C 
ATOM      2  C1' OXE d   1      -1.421   3.790   2.062  0.00  0.00     0.078 C 
ATOM      3  C1  OXE d   1      -1.144   2.323   1.847  0.00  0.00    -0.078 A 
ATOM      4  C2  OXE d   1      -1.988   1.424   2.455  0.00  0.00    -0.078 A 
ATOM      5  C3  OXE d   1      -1.810   0.060   2.244  0.00  0.00     0.003 A 
ATOM      6  C4  OXE d   1      -0.692  -0.409   1.544  0.00  0.00    -0.002 A 
ATOM      7  C5  OXE d   1       0.202   0.488   0.950  0.00  0.00    -0.002 A 
ATOM      8  C6  OXE d   1      -0.033   1.854   1.056  0.00  0.00     0.003 A 
ENDROOT
TORSDOF 0
ENDMDL
