MODEL 1
REMARK minimizedAffinity 7.49243689
REMARK minimizedRMSD -1
REMARK  1 active torsions:
REMARK  status: ('A' for Active; 'I' for Inactive)
REMARK    1  A    between atoms: C3_4  and  O_7 
ROOT
ATOM      1  C   UNL d   1       3.468   1.303  -0.539  0.00  0.00    -0.033 A 
ATOM      2  C1  UNL d   1       4.607   0.831   0.116  0.00  0.00     0.039 A 
ATOM      3  C2  UNL d   1       4.598  -0.432   0.711  0.00  0.00    -0.080 A 
ATOM      4  C3  UNL d   1       3.447  -1.212   0.643  0.00  0.00     0.150 A 
ATOM      5  C4  UNL d   1       2.311  -0.749  -0.012  0.00  0.00    -0.007 A 
ATOM      6  C5  UNL d   1       2.320   0.512  -0.605  0.00  0.00     0.039 A 
ENDROOT
BRANCH   4   7
ATOM      7  O   UNL d   1       3.390  -2.449   1.213  0.00  0.00    -0.526 OA
ATOM      8  H5  UNL d   1       4.238  -2.624   1.654  0.00  0.00     0.418 HD
ENDBRANCH   4   7
TORSDOF 1
ENDMDL
