MODEL 1
REMARK minimizedAffinity 5.33681107
REMARK minimizedRMSD -1
REMARK  1 active torsions:
REMARK  status: ('A' for Active; 'I' for Inactive)
REMARK    1  A    between atoms: C3_4  and  O_7 
ROOT
ATOM      1  C   UNL d   1       2.192  -2.108   0.769  0.00  0.00    -0.033 A 
ATOM      2  C1  UNL d   1       1.725  -1.822  -0.515  0.00  0.00     0.039 A 
ATOM      3  C2  UNL d   1       2.150  -0.667  -1.173  0.00  0.00    -0.080 A 
ATOM      4  C3  UNL d   1       3.043   0.193  -0.537  0.00  0.00     0.150 A 
ATOM      5  C4  UNL d   1       3.515  -0.088   0.740  0.00  0.00    -0.007 A 
ATOM      6  C5  UNL d   1       3.088  -1.242   1.396  0.00  0.00     0.039 A 
ENDROOT
BRANCH   4   7
ATOM      7  O   UNL d   1       3.482   1.335  -1.138  0.00  0.00    -0.526 OA
ATOM      8  H5  UNL d   1       3.050   1.413  -2.005  0.00  0.00     0.418 HD
ENDBRANCH   4   7
TORSDOF 1
ENDMDL
