MODEL 1
REMARK minimizedAffinity 2.02287865
REMARK minimizedRMSD -1
REMARK  1 active torsions:
REMARK  status: ('A' for Active; 'I' for Inactive)
REMARK    1  A    between atoms: C3_4  and  O_7 
ROOT
ATOM      1  C   UNL d   1      -4.500   1.857  -0.001  0.00  0.00    -0.033 A 
ATOM      2  C1  UNL d   1      -5.233   2.851  -0.652  0.00  0.00     0.039 A 
ATOM      3  C2  UNL d   1      -5.746   2.619  -1.930  0.00  0.00    -0.080 A 
ATOM      4  C3  UNL d   1      -5.522   1.389  -2.543  0.00  0.00     0.150 A 
ATOM      5  C4  UNL d   1      -4.797   0.393  -1.898  0.00  0.00    -0.007 A 
ATOM      6  C5  UNL d   1      -4.284   0.627  -0.623  0.00  0.00     0.039 A 
ENDROOT
BRANCH   4   7
ATOM      7  O   UNL d   1      -6.000   1.117  -3.790  0.00  0.00    -0.526 OA
ATOM      8  H5  UNL d   1      -6.456   1.908  -4.124  0.00  0.00     0.418 HD
ENDBRANCH   4   7
TORSDOF 1
ENDMDL
