MODEL 1
REMARK minimizedAffinity 7.10292101
REMARK minimizedRMSD -1
REMARK  1 active torsions:
REMARK  status: ('A' for Active; 'I' for Inactive)
REMARK    1  A    between atoms: C3_4  and  O_7 
ROOT
ATOM      1  C   UNL d   1       3.083   0.225   0.540  0.00  0.00    -0.033 A 
ATOM      2  C1  UNL d   1       2.370   0.464  -0.636  0.00  0.00     0.039 A 
ATOM      3  C2  UNL d   1       2.997   1.076  -1.723  0.00  0.00    -0.080 A 
ATOM      4  C3  UNL d   1       4.337   1.443  -1.621  0.00  0.00     0.150 A 
ATOM      5  C4  UNL d   1       5.054   1.203  -0.453  0.00  0.00    -0.007 A 
ATOM      6  C5  UNL d   1       4.425   0.593   0.631  0.00  0.00     0.039 A 
ENDROOT
BRANCH   4   7
ATOM      7  O   UNL d   1       4.991   2.047  -2.653  0.00  0.00    -0.526 OA
ATOM      8  H5  UNL d   1       4.362   2.174  -3.383  0.00  0.00     0.418 HD
ENDBRANCH   4   7
TORSDOF 1
ENDMDL
