MODEL 1
REMARK minimizedAffinity 4.29574537
REMARK minimizedRMSD -1
REMARK  1 active torsions:
REMARK  status: ('A' for Active; 'I' for Inactive)
REMARK    1  A    between atoms: C3_4  and  O_7 
ROOT
ATOM      1  C   UNL d   1      -5.982   4.794   5.685  0.00  0.00    -0.033 A 
ATOM      2  C1  UNL d   1      -5.992   6.000   4.982  0.00  0.00     0.039 A 
ATOM      3  C2  UNL d   1      -5.998   5.995   3.585  0.00  0.00    -0.080 A 
ATOM      4  C3  UNL d   1      -5.996   4.780   2.906  0.00  0.00     0.150 A 
ATOM      5  C4  UNL d   1      -5.990   3.575   3.601  0.00  0.00    -0.007 A 
ATOM      6  C5  UNL d   1      -5.982   3.582   4.995  0.00  0.00     0.039 A 
ENDROOT
BRANCH   4   7
ATOM      7  O   UNL d   1      -5.997   4.725   1.544  0.00  0.00    -0.526 OA
ATOM      8  H5  UNL d   1      -5.972   5.634   1.199  0.00  0.00     0.418 HD
ENDBRANCH   4   7
TORSDOF 1
ENDMDL
