MODEL 1
REMARK minimizedAffinity 3.49875975
REMARK minimizedRMSD -1
REMARK  1 active torsions:
REMARK  status: ('A' for Active; 'I' for Inactive)
REMARK    1  A    between atoms: C3_4  and  O_7 
ROOT
ATOM      1  C   UNL d   1       3.324  -0.132   0.717  0.00  0.00    -0.033 A 
ATOM      2  C1  UNL d   1       2.496  -0.280  -0.398  0.00  0.00     0.039 A 
ATOM      3  C2  UNL d   1       2.587   0.621  -1.461  0.00  0.00    -0.080 A 
ATOM      4  C3  UNL d   1       3.508   1.663  -1.397  0.00  0.00     0.150 A 
ATOM      5  C4  UNL d   1       4.338   1.813  -0.291  0.00  0.00    -0.007 A 
ATOM      6  C5  UNL d   1       4.246   0.913   0.770  0.00  0.00     0.039 A 
ENDROOT
BRANCH   4   7
ATOM      7  O   UNL d   1       3.630   2.569  -2.408  0.00  0.00    -0.526 OA
ATOM      8  H5  UNL d   1       2.974   2.357  -3.093  0.00  0.00     0.418 HD
ENDBRANCH   4   7
TORSDOF 1
ENDMDL
