MODEL 1
REMARK minimizedAffinity 7.70731401
REMARK minimizedRMSD -1
REMARK  1 active torsions:
REMARK  status: ('A' for Active; 'I' for Inactive)
REMARK    1  A    between atoms: C3_4  and  O_7 
ROOT
ATOM      1  C   UNL d   1      -5.196   0.141  -2.023  0.00  0.00    -0.033 A 
ATOM      2  C1  UNL d   1      -3.807   0.125  -1.883  0.00  0.00     0.039 A 
ATOM      3  C2  UNL d   1      -3.216   0.610  -0.715  0.00  0.00    -0.080 A 
ATOM      4  C3  UNL d   1      -4.024   1.106   0.304  0.00  0.00     0.150 A 
ATOM      5  C4  UNL d   1      -5.409   1.121   0.173  0.00  0.00    -0.007 A 
ATOM      6  C5  UNL d   1      -5.997   0.637  -0.995  0.00  0.00     0.039 A 
ENDROOT
BRANCH   4   7
ATOM      7  O   UNL d   1      -3.493   1.594   1.461  0.00  0.00    -0.526 OA
ATOM      8  H5  UNL d   1      -2.524   1.547   1.399  0.00  0.00     0.418 HD
ENDBRANCH   4   7
TORSDOF 1
ENDMDL
