MODEL 1
REMARK minimizedAffinity -1.05799949
REMARK minimizedRMSD -1
REMARK  1 active torsions:
REMARK  status: ('A' for Active; 'I' for Inactive)
REMARK    1  A    between atoms: C3_4  and  O_7 
ROOT
ATOM      1  C   UNL d   1       2.268   2.402   4.342  0.00  0.00    -0.033 A 
ATOM      2  C1  UNL d   1       3.037   2.974   3.327  0.00  0.00     0.039 A 
ATOM      3  C2  UNL d   1       4.177   3.715   3.646  0.00  0.00    -0.080 A 
ATOM      4  C3  UNL d   1       4.537   3.874   4.982  0.00  0.00     0.150 A 
ATOM      5  C4  UNL d   1       3.777   3.303   5.997  0.00  0.00    -0.007 A 
ATOM      6  C5  UNL d   1       2.639   2.565   5.677  0.00  0.00     0.039 A 
ENDROOT
BRANCH   4   7
ATOM      7  O   UNL d   1       5.638   4.592   5.342  0.00  0.00    -0.526 OA
ATOM      8  H5  UNL d   1       6.049   4.951   4.538  0.00  0.00     0.418 HD
ENDBRANCH   4   7
TORSDOF 1
ENDMDL
