MODEL 1
REMARK minimizedAffinity 2.01468158
REMARK minimizedRMSD -1
REMARK  0 active torsions:
REMARK  status: ('A' for Active; 'I' for Inactive)
ROOT
ATOM      1  C   UNL d   1      -2.128  -0.704   0.714  0.00  0.00     0.020 A 
ATOM      2  C1  UNL d   1      -2.976   0.402   0.726  0.00  0.00     0.020 A 
ATOM      3  C2  UNL d   1      -2.441   1.692   0.721  0.00  0.00     0.034 A 
ATOM      4  C3  UNL d   1      -1.054   1.879   0.704  0.00  0.00     0.017 A 
ATOM      5  C4  UNL d   1      -0.203   0.767   0.692  0.00  0.00     0.017 A 
ATOM      6  C5  UNL d   1      -0.745  -0.522   0.697  0.00  0.00     0.034 A 
ATOM      7 Cl   UNL d   1       1.518   0.918   0.670  0.00  0.00    -0.070 Cl
ATOM      8 Cl1  UNL d   1      -0.462   3.502   0.698  0.00  0.00    -0.070 Cl
ENDROOT
TORSDOF 0
ENDMDL
