MODEL 1
REMARK minimizedAffinity 9.49752998
REMARK minimizedRMSD -1
REMARK  0 active torsions:
REMARK  status: ('A' for Active; 'I' for Inactive)
ROOT
ATOM      1  C   UNL d   1      -2.902  -0.515   0.946  0.00  0.00     0.020 A 
ATOM      2  C1  UNL d   1      -3.580   0.703   0.952  0.00  0.00     0.020 A 
ATOM      3  C2  UNL d   1      -2.881   1.892   0.732  0.00  0.00     0.034 A 
ATOM      4  C3  UNL d   1      -1.501   1.865   0.505  0.00  0.00     0.017 A 
ATOM      5  C4  UNL d   1      -0.821   0.642   0.499  0.00  0.00     0.017 A 
ATOM      6  C5  UNL d   1      -1.525  -0.546   0.720  0.00  0.00     0.034 A 
ATOM      7 Cl   UNL d   1       0.882   0.529   0.226  0.00  0.00    -0.070 Cl
ATOM      8 Cl1  UNL d   1      -0.701   3.373   0.240  0.00  0.00    -0.070 Cl
ENDROOT
TORSDOF 0
ENDMDL
