MODEL 1
REMARK minimizedAffinity 0.291498572
REMARK minimizedRMSD -1
REMARK  0 active torsions:
REMARK  status: ('A' for Active; 'I' for Inactive)
ROOT
ATOM      1  C   UNL d   1      -1.716   2.222   0.883  0.00  0.00     0.020 A 
ATOM      2  C1  UNL d   1      -1.946   0.891   0.538  0.00  0.00     0.020 A 
ATOM      3  C2  UNL d   1      -0.878  -0.006   0.466  0.00  0.00     0.034 A 
ATOM      4  C3  UNL d   1       0.425   0.427   0.739  0.00  0.00     0.017 A 
ATOM      5  C4  UNL d   1       0.654   1.763   1.085  0.00  0.00     0.017 A 
ATOM      6  C5  UNL d   1      -0.419   2.657   1.156  0.00  0.00     0.034 A 
ATOM      7 Cl   UNL d   1       2.234   2.372   1.436  0.00  0.00    -0.070 Cl
ATOM      8 Cl1  UNL d   1       1.698  -0.737   0.632  0.00  0.00    -0.070 Cl
ENDROOT
TORSDOF 0
ENDMDL
