MODEL 1
REMARK minimizedAffinity 1.21810412
REMARK minimizedRMSD -1
REMARK  0 active torsions:
REMARK  status: ('A' for Active; 'I' for Inactive)
ROOT
ATOM      1  C   UNL d   1      -2.186  -0.269   0.647  0.00  0.00     0.020 A 
ATOM      2  C1  UNL d   1      -2.602   0.854   1.361  0.00  0.00     0.020 A 
ATOM      3  C2  UNL d   1      -1.690   1.869   1.658  0.00  0.00     0.034 A 
ATOM      4  C3  UNL d   1      -0.358   1.764   1.242  0.00  0.00     0.017 A 
ATOM      5  C4  UNL d   1       0.059   0.636   0.526  0.00  0.00     0.017 A 
ATOM      6  C5  UNL d   1      -0.858  -0.378   0.231  0.00  0.00     0.034 A 
ATOM      7 Cl   UNL d   1       1.686   0.434  -0.021  0.00  0.00    -0.070 Cl
ATOM      8 Cl1  UNL d   1       0.714   3.057   1.645  0.00  0.00    -0.070 Cl
ENDROOT
TORSDOF 0
ENDMDL
