MODEL 1
REMARK minimizedAffinity 2.32275295
REMARK minimizedRMSD -1
REMARK  0 active torsions:
REMARK  status: ('A' for Active; 'I' for Inactive)
ROOT
ATOM      1  C   UNL d   1       2.279   3.237   2.522  0.00  0.00     0.020 A 
ATOM      2  C1  UNL d   1       1.951   3.408   3.866  0.00  0.00     0.020 A 
ATOM      3  C2  UNL d   1       0.612   3.493   4.253  0.00  0.00     0.034 A 
ATOM      4  C3  UNL d   1      -0.404   3.408   3.295  0.00  0.00     0.017 A 
ATOM      5  C4  UNL d   1      -0.075   3.236   1.945  0.00  0.00     0.017 A 
ATOM      6  C5  UNL d   1       1.268   3.151   1.564  0.00  0.00     0.034 A 
ATOM      7 Cl   UNL d   1      -1.273   3.122   0.706  0.00  0.00    -0.070 Cl
ATOM      8 Cl1  UNL d   1      -2.039   3.520   3.844  0.00  0.00    -0.070 Cl
ENDROOT
TORSDOF 0
ENDMDL
