MODEL 1
REMARK minimizedAffinity 6.5677309
REMARK minimizedRMSD -1
REMARK  0 active torsions:
REMARK  status: ('A' for Active; 'I' for Inactive)
ROOT
ATOM      1  C   UNL d   1      -1.202   2.388   0.112  0.00  0.00     0.020 A 
ATOM      2  C1  UNL d   1      -1.609   1.067  -0.067  0.00  0.00     0.020 A 
ATOM      3  C2  UNL d   1      -2.150   0.352   1.003  0.00  0.00     0.034 A 
ATOM      4  C3  UNL d   1      -2.285   0.958   2.258  0.00  0.00     0.017 A 
ATOM      5  C4  UNL d   1      -1.876   2.284   2.437  0.00  0.00     0.017 A 
ATOM      6  C5  UNL d   1      -1.335   2.995   1.361  0.00  0.00     0.034 A 
ATOM      7 Cl   UNL d   1      -2.012   3.099   3.955  0.00  0.00    -0.070 Cl
ATOM      8 Cl1  UNL d   1      -2.963   0.014   3.537  0.00  0.00    -0.070 Cl
ENDROOT
TORSDOF 0
ENDMDL
