MODEL 1
REMARK minimizedAffinity 1.16055346
REMARK minimizedRMSD -1
REMARK  0 active torsions:
REMARK  status: ('A' for Active; 'I' for Inactive)
ROOT
ATOM      1  C   UNL d   1      -1.556   1.321   0.480  0.00  0.00     0.020 A 
ATOM      2  C1  UNL d   1      -1.319   2.532   1.129  0.00  0.00     0.020 A 
ATOM      3  C2  UNL d   1      -0.046   2.820   1.625  0.00  0.00     0.034 A 
ATOM      4  C3  UNL d   1       0.995   1.897   1.472  0.00  0.00     0.017 A 
ATOM      5  C4  UNL d   1       0.756   0.682   0.820  0.00  0.00     0.017 A 
ATOM      6  C5  UNL d   1      -0.521   0.398   0.326  0.00  0.00     0.034 A 
ATOM      7 Cl   UNL d   1       1.990  -0.507   0.593  0.00  0.00    -0.070 Cl
ATOM      8 Cl1  UNL d   1       2.544   2.320   2.109  0.00  0.00    -0.070 Cl
ENDROOT
TORSDOF 0
ENDMDL
