MODEL 1
REMARK minimizedAffinity 4.623137
REMARK minimizedRMSD -1
REMARK  0 active torsions:
REMARK  status: ('A' for Active; 'I' for Inactive)
ROOT
ATOM      1  C   UNL d   1      -3.719   4.785  -5.608  0.00  0.00     0.020 A 
ATOM      2  C1  UNL d   1      -2.895   5.458  -4.706  0.00  0.00     0.020 A 
ATOM      3  C2  UNL d   1      -1.764   4.824  -4.187  0.00  0.00     0.034 A 
ATOM      4  C3  UNL d   1      -1.453   3.514  -4.569  0.00  0.00     0.017 A 
ATOM      5  C4  UNL d   1      -2.281   2.839  -5.474  0.00  0.00     0.017 A 
ATOM      6  C5  UNL d   1      -3.412   3.478  -5.991  0.00  0.00     0.034 A 
ATOM      7 Cl   UNL d   1      -1.963   1.221  -5.993  0.00  0.00    -0.070 Cl
ATOM      8 Cl1  UNL d   1      -0.039   2.792  -3.888  0.00  0.00    -0.070 Cl
ENDROOT
TORSDOF 0
ENDMDL
