MODEL 1
REMARK minimizedAffinity 3.30801249
REMARK minimizedRMSD -1
REMARK  0 active torsions:
REMARK  status: ('A' for Active; 'I' for Inactive)
ROOT
ATOM      1  C   UNL d   1      -1.885   2.372   0.358  0.00  0.00     0.020 A 
ATOM      2  C1  UNL d   1      -2.447   1.097   0.412  0.00  0.00     0.020 A 
ATOM      3  C2  UNL d   1      -1.663   0.004   0.789  0.00  0.00     0.034 A 
ATOM      4  C3  UNL d   1      -0.314   0.184   1.114  0.00  0.00     0.017 A 
ATOM      5  C4  UNL d   1       0.249   1.464   1.059  0.00  0.00     0.017 A 
ATOM      6  C5  UNL d   1      -0.540   2.555   0.681  0.00  0.00     0.034 A 
ATOM      7 Cl   UNL d   1       1.907   1.764   1.445  0.00  0.00    -0.070 Cl
ATOM      8 Cl1  UNL d   1       0.596  -1.212   1.571  0.00  0.00    -0.070 Cl
ENDROOT
TORSDOF 0
ENDMDL
