MODEL 1
REMARK minimizedAffinity 5.08148146
REMARK minimizedRMSD -1
REMARK  0 active torsions:
REMARK  status: ('A' for Active; 'I' for Inactive)
ROOT
ATOM      1  C   UNL d   1       2.259   2.898   2.254  0.00  0.00     0.020 A 
ATOM      2  C1  UNL d   1       2.241   2.020   1.171  0.00  0.00     0.020 A 
ATOM      3  C2  UNL d   1       1.028   1.503   0.712  0.00  0.00     0.034 A 
ATOM      4  C3  UNL d   1      -0.172   1.863   1.336  0.00  0.00     0.017 A 
ATOM      5  C4  UNL d   1      -0.153   2.745   2.423  0.00  0.00     0.017 A 
ATOM      6  C5  UNL d   1       1.065   3.259   2.878  0.00  0.00     0.034 A 
ATOM      7 Cl   UNL d   1      -1.592   3.236   3.244  0.00  0.00    -0.070 Cl
ATOM      8 Cl1  UNL d   1      -1.636   1.186   0.715  0.00  0.00    -0.070 Cl
ENDROOT
TORSDOF 0
ENDMDL
