MODEL 1
REMARK minimizedAffinity 4.0425086
REMARK minimizedRMSD -1
REMARK  0 active torsions:
REMARK  status: ('A' for Active; 'I' for Inactive)
ROOT
ATOM      1  C   UNL d   1      -4.793   3.347  -5.976  0.00  0.00     0.020 A 
ATOM      2  C1  UNL d   1      -4.894   4.738  -5.993  0.00  0.00     0.020 A 
ATOM      3  C2  UNL d   1      -3.738   5.521  -6.000  0.00  0.00     0.034 A 
ATOM      4  C3  UNL d   1      -2.476   4.915  -5.989  0.00  0.00     0.017 A 
ATOM      5  C4  UNL d   1      -2.376   3.519  -5.972  0.00  0.00     0.017 A 
ATOM      6  C5  UNL d   1      -3.537   2.739  -5.965  0.00  0.00     0.034 A 
ATOM      7 Cl   UNL d   1      -0.855   2.699  -5.958  0.00  0.00    -0.070 Cl
ATOM      8 Cl1  UNL d   1      -1.089   5.945  -5.998  0.00  0.00    -0.070 Cl
ENDROOT
TORSDOF 0
ENDMDL
