MODEL 1
REMARK minimizedAffinity 6.30635977
REMARK minimizedRMSD -1
REMARK  0 active torsions:
REMARK  status: ('A' for Active; 'I' for Inactive)
ROOT
ATOM      1  C   UNL d   1      -2.124   0.802   0.574  0.00  0.00     0.020 A 
ATOM      2  C1  UNL d   1      -2.136   2.056   1.181  0.00  0.00     0.020 A 
ATOM      3  C2  UNL d   1      -0.945   2.616   1.649  0.00  0.00     0.034 A 
ATOM      4  C3  UNL d   1       0.262   1.921   1.511  0.00  0.00     0.017 A 
ATOM      5  C4  UNL d   1       0.272   0.662   0.901  0.00  0.00     0.017 A 
ATOM      6  C5  UNL d   1      -0.923   0.106   0.434  0.00  0.00     0.034 A 
ATOM      7 Cl   UNL d   1       1.722  -0.256   0.695  0.00  0.00    -0.070 Cl
ATOM      8 Cl1  UNL d   1       1.696   2.674   2.113  0.00  0.00    -0.070 Cl
ENDROOT
TORSDOF 0
ENDMDL
