MODEL 1
REMARK minimizedAffinity 7.23606062
REMARK minimizedRMSD -1
REMARK  0 active torsions:
REMARK  status: ('A' for Active; 'I' for Inactive)
ROOT
ATOM      1  C   UNL d   1      -1.286   1.944   1.115  0.00  0.00     0.020 A 
ATOM      2  C1  UNL d   1      -1.430   0.747   0.415  0.00  0.00     0.020 A 
ATOM      3  C2  UNL d   1      -0.312  -0.047   0.152  0.00  0.00     0.034 A 
ATOM      4  C3  UNL d   1       0.956   0.355   0.588  0.00  0.00     0.017 A 
ATOM      5  C4  UNL d   1       1.100   1.556   1.291  0.00  0.00     0.017 A 
ATOM      6  C5  UNL d   1      -0.023   2.347   1.552  0.00  0.00     0.034 A 
ATOM      7 Cl   UNL d   1       2.631   2.118   1.862  0.00  0.00    -0.070 Cl
ATOM      8 Cl1  UNL d   1       2.294  -0.677   0.228  0.00  0.00    -0.070 Cl
ENDROOT
TORSDOF 0
ENDMDL
