MODEL 1
REMARK minimizedAffinity 3.40894675
REMARK minimizedRMSD -1
REMARK  0 active torsions:
REMARK  status: ('A' for Active; 'I' for Inactive)
ROOT
ATOM      1  C   UNL d   1       5.521   3.000   1.882  0.00  0.00     0.020 A 
ATOM      2  C1  UNL d   1       4.742   3.701   2.803  0.00  0.00     0.020 A 
ATOM      3  C2  UNL d   1       3.350   3.602   2.757  0.00  0.00     0.034 A 
ATOM      4  C3  UNL d   1       2.732   2.802   1.790  0.00  0.00     0.017 A 
ATOM      5  C4  UNL d   1       3.514   2.099   0.867  0.00  0.00     0.017 A 
ATOM      6  C5  UNL d   1       4.908   2.201   0.917  0.00  0.00     0.034 A 
ATOM      7 Cl   UNL d   1       2.824   1.090  -0.356  0.00  0.00    -0.070 Cl
ATOM      8 Cl1  UNL d   1       1.006   2.726   1.792  0.00  0.00    -0.070 Cl
ENDROOT
TORSDOF 0
ENDMDL
