MODEL 1
REMARK minimizedAffinity 6.57193136
REMARK minimizedRMSD -1
REMARK  0 active torsions:
REMARK  status: ('A' for Active; 'I' for Inactive)
ROOT
ATOM      1  C   UNL d   1      -1.930  -0.873   0.399  0.00  0.00     0.020 A 
ATOM      2  C1  UNL d   1      -2.783   0.154   0.801  0.00  0.00     0.020 A 
ATOM      3  C2  UNL d   1      -2.290   1.452   0.952  0.00  0.00     0.034 A 
ATOM      4  C3  UNL d   1      -0.940   1.726   0.701  0.00  0.00     0.017 A 
ATOM      5  C4  UNL d   1      -0.085   0.694   0.298  0.00  0.00     0.017 A 
ATOM      6  C5  UNL d   1      -0.584  -0.603   0.149  0.00  0.00     0.034 A 
ATOM      7 Cl   UNL d   1       1.592   0.955  -0.030  0.00  0.00    -0.070 Cl
ATOM      8 Cl1  UNL d   1      -0.399   3.354   0.907  0.00  0.00    -0.070 Cl
ENDROOT
TORSDOF 0
ENDMDL
