MODEL 1
REMARK minimizedAffinity 1.15629017
REMARK minimizedRMSD -1
REMARK  0 active torsions:
REMARK  status: ('A' for Active; 'I' for Inactive)
ROOT
ATOM      1  C   UNL d   1       1.300   1.893   1.003  0.00  0.00     0.020 A 
ATOM      2  C1  UNL d   1       0.368   2.924   1.117  0.00  0.00     0.020 A 
ATOM      3  C2  UNL d   1      -0.998   2.633   1.118  0.00  0.00     0.034 A 
ATOM      4  C3  UNL d   1      -1.436   1.309   1.004  0.00  0.00     0.017 A 
ATOM      5  C4  UNL d   1      -0.500   0.275   0.890  0.00  0.00     0.017 A 
ATOM      6  C5  UNL d   1       0.866   0.571   0.890  0.00  0.00     0.034 A 
ATOM      7 Cl   UNL d   1      -0.964  -1.384   0.746  0.00  0.00    -0.070 Cl
ATOM      8 Cl1  UNL d   1      -3.140   1.023   1.013  0.00  0.00    -0.070 Cl
ENDROOT
TORSDOF 0
ENDMDL
