MODEL 1
REMARK minimizedAffinity -3.47381973
REMARK minimizedRMSD -1
REMARK  0 active torsions:
REMARK  status: ('A' for Active; 'I' for Inactive)
ROOT
ATOM      1  C4' PXY d   1      -0.712   1.288  -1.669  0.00  0.00     0.077 C 
ATOM      2  C1' PXY d   1       1.221  -1.110   3.223  0.00  0.00     0.077 C 
ATOM      3  C1  PXY d   1       0.702  -0.485   1.943  0.00  0.00    -0.082 A 
ATOM      4  C2  PXY d   1       1.524  -0.305   0.922  0.00  0.00     0.003 A 
ATOM      5  C3  PXY d   1       1.079   0.288  -0.231  0.00  0.00     0.003 A 
ATOM      6  C4  PXY d   1      -0.234   0.652  -0.361  0.00  0.00    -0.082 A 
ATOM      7  C5  PXY d   1      -1.082   0.463   0.672  0.00  0.00     0.003 A 
ATOM      8  C6  PXY d   1      -0.601  -0.103   1.849  0.00  0.00     0.003 A 
ENDROOT
TORSDOF 0
ENDMDL
