MODEL 1
REMARK minimizedAffinity -2.12148142
REMARK minimizedRMSD -1
REMARK  0 active torsions:
REMARK  status: ('A' for Active; 'I' for Inactive)
ROOT
ATOM      1  C4' PXY d   1      -0.074  -2.304   3.084  0.00  0.00     0.077 C 
ATOM      2  C1' PXY d   1       0.478   2.341  -0.312  0.00  0.00     0.077 C 
ATOM      3  C1  PXY d   1       0.346   1.122   0.579  0.00  0.00    -0.082 A 
ATOM      4  C2  PXY d   1      -0.782   0.430   0.579  0.00  0.00     0.003 A 
ATOM      5  C3  PXY d   1      -0.930  -0.657   1.402  0.00  0.00     0.003 A 
ATOM      6  C4  PXY d   1       0.107  -1.072   2.194  0.00  0.00    -0.082 A 
ATOM      7  C5  PXY d   1       1.265  -0.378   2.192  0.00  0.00     0.003 A 
ATOM      8  C6  PXY d   1       1.380   0.747   1.380  0.00  0.00     0.003 A 
ENDROOT
TORSDOF 0
ENDMDL
