MODEL 1
REMARK minimizedAffinity -1.71359122
REMARK minimizedRMSD -1
REMARK  0 active torsions:
REMARK  status: ('A' for Active; 'I' for Inactive)
ROOT
ATOM      1  C4' PXY d   1      -0.676   1.108  -2.040  0.00  0.00     0.077 C 
ATOM      2  C1' PXY d   1       0.780  -1.627   2.840  0.00  0.00     0.077 C 
ATOM      3  C1  PXY d   1       0.410  -0.910   1.556  0.00  0.00    -0.082 A 
ATOM      4  C2  PXY d   1      -0.668  -0.144   1.521  0.00  0.00     0.003 A 
ATOM      5  C3  PXY d   1      -1.034   0.486   0.360  0.00  0.00     0.003 A 
ATOM      6  C4  PXY d   1      -0.260   0.373  -0.763  0.00  0.00    -0.082 A 
ATOM      7  C5  PXY d   1       0.848  -0.399  -0.733  0.00  0.00     0.003 A 
ATOM      8  C6  PXY d   1       1.180  -1.063   0.444  0.00  0.00     0.003 A 
ENDROOT
TORSDOF 0
ENDMDL
