MODEL 1
REMARK minimizedAffinity 0.398963451
REMARK minimizedRMSD -1
REMARK  0 active torsions:
REMARK  status: ('A' for Active; 'I' for Inactive)
ROOT
ATOM      1  C4' PXY d   1      -1.103   2.779  -2.009  0.00  0.00     0.077 C 
ATOM      2  C1' PXY d   1      -0.194  -0.989   2.280  0.00  0.00     0.077 C 
ATOM      3  C1  PXY d   1      -0.423  -0.006   1.149  0.00  0.00    -0.082 A 
ATOM      4  C2  PXY d   1      -1.065   1.126   1.385  0.00  0.00     0.003 A 
ATOM      5  C3  PXY d   1      -1.308   2.012   0.367  0.00  0.00     0.003 A 
ATOM      6  C4  PXY d   1      -0.842   1.761  -0.895  0.00  0.00    -0.082 A 
ATOM      7  C5  PXY d   1      -0.176   0.613  -1.143  0.00  0.00     0.003 A 
ATOM      8  C6  PXY d   1       0.024  -0.292  -0.104  0.00  0.00     0.003 A 
ENDROOT
TORSDOF 0
ENDMDL
