MODEL 1
REMARK minimizedAffinity -4.39929867
REMARK minimizedRMSD -1
REMARK  0 active torsions:
REMARK  status: ('A' for Active; 'I' for Inactive)
ROOT
ATOM      1  C4' PXY d   1      -0.817   1.975  -1.886  0.00  0.00     0.077 C 
ATOM      2  C1' PXY d   1       0.451  -1.403   2.631  0.00  0.00     0.077 C 
ATOM      3  C1  PXY d   1       0.130  -0.520   1.441  0.00  0.00    -0.082 A 
ATOM      4  C2  PXY d   1      -0.727   0.479   1.579  0.00  0.00     0.003 A 
ATOM      5  C3  PXY d   1      -1.053   1.267   0.506  0.00  0.00     0.003 A 
ATOM      6  C4  PXY d   1      -0.455   1.064  -0.710  0.00  0.00    -0.082 A 
ATOM      7  C5  PXY d   1       0.428   0.054  -0.856  0.00  0.00     0.003 A 
ATOM      8  C6  PXY d   1       0.714  -0.761   0.236  0.00  0.00     0.003 A 
ENDROOT
TORSDOF 0
ENDMDL
