MODEL 1
REMARK minimizedAffinity -2.6003027
REMARK minimizedRMSD -1
REMARK  0 active torsions:
REMARK  status: ('A' for Active; 'I' for Inactive)
ROOT
ATOM      1  C4' PXY d   1      -1.655   0.597  -2.471  0.00  0.00     0.077 C 
ATOM      2  C1' PXY d   1       0.376  -1.551   2.497  0.00  0.00     0.077 C 
ATOM      3  C1  PXY d   1      -0.144  -0.984   1.191  0.00  0.00    -0.082 A 
ATOM      4  C2  PXY d   1      -1.403  -0.586   1.106  0.00  0.00     0.003 A 
ATOM      5  C3  PXY d   1      -1.899  -0.101  -0.077  0.00  0.00     0.003 A 
ATOM      6  C4  PXY d   1      -1.084   0.027  -1.169  0.00  0.00    -0.082 A 
ATOM      7  C5  PXY d   1       0.205  -0.367  -1.088  0.00  0.00     0.003 A 
ATOM      8  C6  PXY d   1       0.678  -0.895   0.110  0.00  0.00     0.003 A 
ENDROOT
TORSDOF 0
ENDMDL
