MODEL 1
REMARK minimizedAffinity -3.50373459
REMARK minimizedRMSD -1
REMARK  0 active torsions:
REMARK  status: ('A' for Active; 'I' for Inactive)
ROOT
ATOM      1  C4' PXY d   1       0.259   2.228  -2.141  0.00  0.00     0.077 C 
ATOM      2  C1' PXY d   1       0.849  -1.394   2.325  0.00  0.00     0.077 C 
ATOM      3  C1  PXY d   1       0.707  -0.442   1.153  0.00  0.00    -0.082 A 
ATOM      4  C2  PXY d   1      -0.433   0.204   0.970  0.00  0.00     0.003 A 
ATOM      5  C3  PXY d   1      -0.589   1.044  -0.102  0.00  0.00     0.003 A 
ATOM      6  C4  PXY d   1       0.450   1.265  -0.966  0.00  0.00    -0.082 A 
ATOM      7  C5  PXY d   1       1.620   0.617  -0.780  0.00  0.00     0.003 A 
ATOM      8  C6  PXY d   1       1.744  -0.263   0.291  0.00  0.00     0.003 A 
ENDROOT
TORSDOF 0
ENDMDL
