MODEL 1
REMARK minimizedAffinity -3.81992555
REMARK minimizedRMSD -1
REMARK  0 active torsions:
REMARK  status: ('A' for Active; 'I' for Inactive)
ROOT
ATOM      1  C4' PXY d   1      -2.321  -0.156  -1.825  0.00  0.00     0.077 C 
ATOM      2  C1' PXY d   1      -5.996   3.335  -4.604  0.00  0.00     0.077 C 
ATOM      3  C1  PXY d   1      -5.042   2.412  -3.873  0.00  0.00    -0.082 A 
ATOM      4  C2  PXY d   1      -3.893   2.885  -3.417  0.00  0.00     0.003 A 
ATOM      5  C3  PXY d   1      -3.005   2.057  -2.781  0.00  0.00     0.003 A 
ATOM      6  C4  PXY d   1      -3.318   0.742  -2.562  0.00  0.00    -0.082 A 
ATOM      7  C5  PXY d   1      -4.493   0.254  -3.014  0.00  0.00     0.003 A 
ATOM      8  C6  PXY d   1      -5.363   1.102  -3.694  0.00  0.00     0.003 A 
ENDROOT
TORSDOF 0
ENDMDL
