MODEL 1
REMARK minimizedAffinity -3.68973279
REMARK minimizedRMSD -1
REMARK  0 active torsions:
REMARK  status: ('A' for Active; 'I' for Inactive)
ROOT
ATOM      1  C4' PXY d   1      -0.016  -0.888   2.039  0.00  0.00     0.077 C 
ATOM      2  C1' PXY d   1      -0.660   2.781  -2.381  0.00  0.00     0.077 C 
ATOM      3  C1  PXY d   1      -0.496   1.809  -1.229  0.00  0.00    -0.082 A 
ATOM      4  C2  PXY d   1      -0.444   2.267   0.011  0.00  0.00     0.003 A 
ATOM      5  C3  PXY d   1      -0.264   1.405   1.062  0.00  0.00     0.003 A 
ATOM      6  C4  PXY d   1      -0.190   0.055   0.846  0.00  0.00    -0.082 A 
ATOM      7  C5  PXY d   1      -0.253  -0.421  -0.416  0.00  0.00     0.003 A 
ATOM      8  C6  PXY d   1      -0.395   0.474  -1.472  0.00  0.00     0.003 A 
ENDROOT
TORSDOF 0
ENDMDL
