MODEL 1
REMARK minimizedAffinity -0.502481222
REMARK minimizedRMSD -1
REMARK  0 active torsions:
REMARK  status: ('A' for Active; 'I' for Inactive)
ROOT
ATOM      1  C4' PXY d   1      -1.668   2.686  -2.540  0.00  0.00     0.077 C 
ATOM      2  C1' PXY d   1       0.835  -1.137   1.000  0.00  0.00     0.077 C 
ATOM      3  C1  PXY d   1       0.189  -0.127   0.072  0.00  0.00    -0.082 A 
ATOM      4  C2  PXY d   1      -1.130  -0.053   0.002  0.00  0.00     0.003 A 
ATOM      5  C3  PXY d   1      -1.730   0.832  -0.856  0.00  0.00     0.003 A 
ATOM      6  C4  PXY d   1      -0.973   1.688  -1.610  0.00  0.00    -0.082 A 
ATOM      7  C5  PXY d   1       0.374   1.626  -1.536  0.00  0.00     0.003 A 
ATOM      8  C6  PXY d   1       0.964   0.692  -0.690  0.00  0.00     0.003 A 
ENDROOT
TORSDOF 0
ENDMDL
