MODEL 1
REMARK minimizedAffinity 5.86156845
REMARK minimizedRMSD -1
REMARK  0 active torsions:
REMARK  status: ('A' for Active; 'I' for Inactive)
ROOT
ATOM      1  C4' PXY d   1       2.152  -2.308   3.118  0.00  0.00     0.077 C 
ATOM      2  C1' PXY d   1       1.500   0.450  -1.920  0.00  0.00     0.077 C 
ATOM      3  C1  PXY d   1       1.684  -0.274  -0.601  0.00  0.00    -0.082 A 
ATOM      4  C2  PXY d   1       0.648  -0.871  -0.033  0.00  0.00     0.003 A 
ATOM      5  C3  PXY d   1       0.790  -1.504   1.175  0.00  0.00     0.003 A 
ATOM      6  C4  PXY d   1       2.015  -1.572   1.783  0.00  0.00    -0.082 A 
ATOM      7  C5  PXY d   1       3.079  -0.975   1.204  0.00  0.00     0.003 A 
ATOM      8  C6  PXY d   1       2.905  -0.303  -0.002  0.00  0.00     0.003 A 
ENDROOT
TORSDOF 0
ENDMDL
