MODEL 1
REMARK minimizedAffinity -2.16550946
REMARK minimizedRMSD -1
REMARK  0 active torsions:
REMARK  status: ('A' for Active; 'I' for Inactive)
ROOT
ATOM      1  C4' PXY d   1      -1.933   3.359   2.789  0.00  0.00     0.077 C 
ATOM      2  C1' PXY d   1      -6.000   0.755   5.966  0.00  0.00     0.077 C 
ATOM      3  C1  PXY d   1      -4.934   1.428   5.124  0.00  0.00    -0.082 A 
ATOM      4  C2  PXY d   1      -4.075   2.256   5.696  0.00  0.00     0.003 A 
ATOM      5  C3  PXY d   1      -3.125   2.898   4.944  0.00  0.00     0.003 A 
ATOM      6  C4  PXY d   1      -3.019   2.649   3.602  0.00  0.00    -0.082 A 
ATOM      7  C5  PXY d   1      -3.886   1.798   3.013  0.00  0.00     0.003 A 
ATOM      8  C6  PXY d   1      -4.869   1.188   3.787  0.00  0.00     0.003 A 
ENDROOT
TORSDOF 0
ENDMDL
