MODEL 1
REMARK minimizedAffinity -1.06945145
REMARK minimizedRMSD -1
REMARK  0 active torsions:
REMARK  status: ('A' for Active; 'I' for Inactive)
ROOT
ATOM      1  O1  BZF d   1       1.701  -0.921  -1.898  0.00  0.00    -0.204 OA
ATOM      2  C2  BZF d   1       1.591  -0.328  -3.141  0.00  0.00     0.174 A 
ATOM      3  C3  BZF d   1       0.443   0.374  -3.236  0.00  0.00    -0.012 A 
ATOM      4  C3A BZF d   1      -0.160   0.286  -1.942  0.00  0.00    -0.107 A 
ATOM      5  C4  BZF d   1      -1.310   0.791  -1.405  0.00  0.00     0.055 A 
ATOM      6  C5  BZF d   1      -1.647   0.458  -0.131  0.00  0.00    -0.016 A 
ATOM      7  C6  BZF d   1      -0.861  -0.382   0.631  0.00  0.00     0.022 A 
ATOM      8  C7  BZF d   1       0.291  -0.904   0.144  0.00  0.00     0.029 A 
ATOM      9  C7A BZF d   1       0.651  -0.542  -1.131  0.00  0.00     0.058 A 
ENDROOT
TORSDOF 0
ENDMDL
