MODEL 1
REMARK minimizedAffinity -4.17892981
REMARK minimizedRMSD -1
REMARK  0 active torsions:
REMARK  status: ('A' for Active; 'I' for Inactive)
ROOT
ATOM      1  O1  BZF d   1       0.701   1.308   2.318  0.00  0.00    -0.204 OA
ATOM      2  C2  BZF d   1      -0.569   1.747   2.638  0.00  0.00     0.174 A 
ATOM      3  C3  BZF d   1      -1.470   1.302   1.739  0.00  0.00    -0.012 A 
ATOM      4  C3A BZF d   1      -0.730   0.460   0.849  0.00  0.00    -0.107 A 
ATOM      5  C4  BZF d   1      -1.073  -0.284  -0.243  0.00  0.00     0.055 A 
ATOM      6  C5  BZF d   1      -0.099  -0.934  -0.933  0.00  0.00    -0.016 A 
ATOM      7  C6  BZF d   1       1.227  -0.857  -0.562  0.00  0.00     0.022 A 
ATOM      8  C7  BZF d   1       1.616  -0.136   0.518  0.00  0.00     0.029 A 
ATOM      9  C7A BZF d   1       0.630   0.495   1.236  0.00  0.00     0.058 A 
ENDROOT
TORSDOF 0
ENDMDL
