MODEL 1
REMARK minimizedAffinity -4.60780668
REMARK minimizedRMSD -1
REMARK  0 active torsions:
REMARK  status: ('A' for Active; 'I' for Inactive)
ROOT
ATOM      1  O1  BZF d   1       1.159   1.373  -0.441  0.00  0.00    -0.204 OA
ATOM      2  C2  BZF d   1       0.848   0.658  -1.581  0.00  0.00     0.174 A 
ATOM      3  C3  BZF d   1      -0.342   0.039  -1.449  0.00  0.00    -0.012 A 
ATOM      4  C3A BZF d   1      -0.848   0.464  -0.180  0.00  0.00    -0.107 A 
ATOM      5  C4  BZF d   1      -1.999   0.202   0.507  0.00  0.00     0.055 A 
ATOM      6  C5  BZF d   1      -2.154   0.717   1.756  0.00  0.00    -0.016 A 
ATOM      7  C6  BZF d   1      -1.179   1.492   2.348  0.00  0.00     0.022 A 
ATOM      8  C7  BZF d   1      -0.023   1.783   1.703  0.00  0.00     0.029 A 
ATOM      9  C7A BZF d   1       0.123   1.291   0.429  0.00  0.00     0.058 A 
ENDROOT
TORSDOF 0
ENDMDL
