MODEL 1
REMARK minimizedAffinity -4.15037632
REMARK minimizedRMSD -1
REMARK  0 active torsions:
REMARK  status: ('A' for Active; 'I' for Inactive)
ROOT
ATOM      1  O1  BZF d   1      -1.472   1.342   2.061  0.00  0.00    -0.204 OA
ATOM      2  C2  BZF d   1      -0.476   1.796   2.905  0.00  0.00     0.174 A 
ATOM      3  C3  BZF d   1       0.726   1.314   2.528  0.00  0.00    -0.012 A 
ATOM      4  C3A BZF d   1       0.478   0.584   1.323  0.00  0.00    -0.107 A 
ATOM      5  C4  BZF d   1       1.281  -0.112   0.464  0.00  0.00     0.055 A 
ATOM      6  C5  BZF d   1       0.715  -0.772  -0.580  0.00  0.00    -0.016 A 
ATOM      7  C6  BZF d   1      -0.648  -0.761  -0.794  0.00  0.00     0.022 A 
ATOM      8  C7  BZF d   1      -1.484  -0.080   0.027  0.00  0.00     0.029 A 
ATOM      9  C7A BZF d   1      -0.912   0.614   1.065  0.00  0.00     0.058 A 
ENDROOT
TORSDOF 0
ENDMDL
