MODEL 1
REMARK minimizedAffinity -3.53284168
REMARK minimizedRMSD -1
REMARK  0 active torsions:
REMARK  status: ('A' for Active; 'I' for Inactive)
ROOT
ATOM      1  O1  BZF d   1       1.044   0.828  -0.853  0.00  0.00    -0.204 OA
ATOM      2  C2  BZF d   1       0.723  -0.278  -1.616  0.00  0.00     0.174 A 
ATOM      3  C3  BZF d   1      -0.233  -1.014  -1.014  0.00  0.00    -0.012 A 
ATOM      4  C3A BZF d   1      -0.593  -0.276   0.158  0.00  0.00    -0.107 A 
ATOM      5  C4  BZF d   1      -1.501  -0.485   1.157  0.00  0.00     0.055 A 
ATOM      6  C5  BZF d   1      -1.554   0.391   2.195  0.00  0.00    -0.016 A 
ATOM      7  C6  BZF d   1      -0.712   1.482   2.268  0.00  0.00     0.022 A 
ATOM      8  C7  BZF d   1       0.201   1.733   1.299  0.00  0.00     0.029 A 
ATOM      9  C7A BZF d   1       0.235   0.868   0.232  0.00  0.00     0.058 A 
ENDROOT
TORSDOF 0
ENDMDL
