MODEL 1
REMARK minimizedAffinity -3.24648595
REMARK minimizedRMSD -1
REMARK  0 active torsions:
REMARK  status: ('A' for Active; 'I' for Inactive)
ROOT
ATOM      1  O1  BZF d   1      -2.115   1.140   2.065  0.00  0.00    -0.204 OA
ATOM      2  C2  BZF d   1      -1.235   1.529   3.056  0.00  0.00     0.174 A 
ATOM      3  C3  BZF d   1       0.032   1.212   2.722  0.00  0.00    -0.012 A 
ATOM      4  C3A BZF d   1      -0.051   0.668   1.401  0.00  0.00    -0.107 A 
ATOM      5  C4  BZF d   1       0.877   0.186   0.524  0.00  0.00     0.055 A 
ATOM      6  C5  BZF d   1       0.460  -0.339  -0.658  0.00  0.00    -0.016 A 
ATOM      7  C6  BZF d   1      -0.877  -0.403  -0.992  0.00  0.00     0.022 A 
ATOM      8  C7  BZF d   1      -1.835   0.068  -0.156  0.00  0.00     0.029 A 
ATOM      9  C7A BZF d   1      -1.414   0.629   1.025  0.00  0.00     0.058 A 
ENDROOT
TORSDOF 0
ENDMDL
