MODEL 1
REMARK minimizedAffinity -5.39822149
REMARK minimizedRMSD -1
REMARK  0 active torsions:
REMARK  status: ('A' for Active; 'I' for Inactive)
ROOT
ATOM      1  O1  BZF d   1      -1.814   1.405   2.352  0.00  0.00    -0.204 OA
ATOM      2  C2  BZF d   1      -0.684   1.880   2.989  0.00  0.00     0.174 A 
ATOM      3  C3  BZF d   1       0.433   1.443   2.373  0.00  0.00    -0.012 A 
ATOM      4  C3A BZF d   1      -0.028   0.721   1.227  0.00  0.00    -0.107 A 
ATOM      5  C4  BZF d   1       0.608   0.062   0.214  0.00  0.00     0.055 A 
ATOM      6  C5  BZF d   1      -0.135  -0.602  -0.711  0.00  0.00    -0.016 A 
ATOM      7  C6  BZF d   1      -1.512  -0.634  -0.649  0.00  0.00     0.022 A 
ATOM      8  C7  BZF d   1      -2.188   0.009   0.335  0.00  0.00     0.029 A 
ATOM      9  C7A BZF d   1      -1.442   0.709   1.251  0.00  0.00     0.058 A 
ENDROOT
TORSDOF 0
ENDMDL
