MODEL 1
REMARK minimizedAffinity -1.87020469
REMARK minimizedRMSD -1
REMARK  0 active torsions:
REMARK  status: ('A' for Active; 'I' for Inactive)
ROOT
ATOM      1  O1  BZF d   1       0.351   1.101   2.342  0.00  0.00    -0.204 OA
ATOM      2  C2  BZF d   1      -0.862   1.304   2.971  0.00  0.00     0.174 A 
ATOM      3  C3  BZF d   1      -1.879   0.869   2.199  0.00  0.00    -0.012 A 
ATOM      4  C3A BZF d   1      -1.256   0.279   1.053  0.00  0.00    -0.107 A 
ATOM      5  C4  BZF d   1      -1.740  -0.341  -0.063  0.00  0.00     0.055 A 
ATOM      6  C5  BZF d   1      -0.869  -0.738  -1.028  0.00  0.00    -0.016 A 
ATOM      7  C6  BZF d   1       0.489  -0.527  -0.911  0.00  0.00     0.022 A 
ATOM      8  C7  BZF d   1       1.016   0.079   0.181  0.00  0.00     0.029 A 
ATOM      9  C7A BZF d   1       0.142   0.452   1.172  0.00  0.00     0.058 A 
ENDROOT
TORSDOF 0
ENDMDL
