MODEL 1
REMARK minimizedAffinity -2.85313153
REMARK minimizedRMSD -1
REMARK  0 active torsions:
REMARK  status: ('A' for Active; 'I' for Inactive)
ROOT
ATOM      1  O1  BZF d   1      -1.653   1.114   2.025  0.00  0.00    -0.204 OA
ATOM      2  C2  BZF d   1      -0.727   1.957   2.608  0.00  0.00     0.174 A 
ATOM      3  C3  BZF d   1       0.477   1.831   2.013  0.00  0.00    -0.012 A 
ATOM      4  C3A BZF d   1       0.269   0.915   0.934  0.00  0.00    -0.107 A 
ATOM      5  C4  BZF d   1       1.086   0.403  -0.033  0.00  0.00     0.055 A 
ATOM      6  C5  BZF d   1       0.590  -0.526  -0.893  0.00  0.00    -0.016 A 
ATOM      7  C6  BZF d   1      -0.714  -0.968  -0.811  0.00  0.00     0.022 A 
ATOM      8  C7  BZF d   1      -1.564  -0.485   0.128  0.00  0.00     0.029 A 
ATOM      9  C7A BZF d   1      -1.075   0.478   0.977  0.00  0.00     0.058 A 
ENDROOT
TORSDOF 0
ENDMDL
