MODEL 1
REMARK minimizedAffinity -3.3007164
REMARK minimizedRMSD -1
REMARK  0 active torsions:
REMARK  status: ('A' for Active; 'I' for Inactive)
ROOT
ATOM      1  O1  BZF d   1       1.515   0.229  -0.612  0.00  0.00    -0.204 OA
ATOM      2  C2  BZF d   1       0.620  -0.658  -0.045  0.00  0.00     0.174 A 
ATOM      3  C3  BZF d   1      -0.036  -1.351  -0.998  0.00  0.00    -0.012 A 
ATOM      4  C3A BZF d   1       0.547  -0.932  -2.236  0.00  0.00    -0.107 A 
ATOM      5  C4  BZF d   1       0.329  -1.275  -3.540  0.00  0.00     0.055 A 
ATOM      6  C5  BZF d   1       1.016  -0.628  -4.517  0.00  0.00    -0.016 A 
ATOM      7  C6  BZF d   1       1.924   0.370  -4.227  0.00  0.00     0.022 A 
ATOM      8  C7  BZF d   1       2.177   0.742  -2.949  0.00  0.00     0.029 A 
ATOM      9  C7A BZF d   1       1.509   0.066  -1.957  0.00  0.00     0.058 A 
ENDROOT
TORSDOF 0
ENDMDL
