MODEL 1
REMARK minimizedAffinity -4.39435434
REMARK minimizedRMSD -1
REMARK  0 active torsions:
REMARK  status: ('A' for Active; 'I' for Inactive)
ROOT
ATOM      1  O1  BZF d   1       1.483  -0.317  -0.008  0.00  0.00    -0.204 OA
ATOM      2  C2  BZF d   1       1.006  -0.750  -1.230  0.00  0.00     0.174 A 
ATOM      3  C3  BZF d   1      -0.331  -0.589  -1.306  0.00  0.00    -0.012 A 
ATOM      4  C3A BZF d   1      -0.701   0.065  -0.089  0.00  0.00    -0.107 A 
ATOM      5  C4  BZF d   1      -1.891   0.507   0.416  0.00  0.00     0.055 A 
ATOM      6  C5  BZF d   1      -1.922   1.037   1.667  0.00  0.00    -0.016 A 
ATOM      7  C6  BZF d   1      -0.785   1.136   2.441  0.00  0.00     0.022 A 
ATOM      8  C7  BZF d   1       0.419   0.716   1.982  0.00  0.00     0.029 A 
ATOM      9  C7A BZF d   1       0.460   0.210   0.706  0.00  0.00     0.058 A 
ENDROOT
TORSDOF 0
ENDMDL
