MODEL 1
REMARK minimizedAffinity -4.71982431
REMARK minimizedRMSD -1
REMARK  0 active torsions:
REMARK  status: ('A' for Active; 'I' for Inactive)
ROOT
ATOM      1  O1  BZF d   1      -1.043   1.554   2.677  0.00  0.00    -0.204 OA
ATOM      2  C2  BZF d   1       0.259   1.851   3.032  0.00  0.00     0.174 A 
ATOM      3  C3  BZF d   1       1.132   1.205   2.233  0.00  0.00    -0.012 A 
ATOM      4  C3A BZF d   1       0.326   0.530   1.263  0.00  0.00    -0.107 A 
ATOM      5  C4  BZF d   1       0.616  -0.266   0.191  0.00  0.00     0.055 A 
ATOM      6  C5  BZF d   1      -0.404  -0.827  -0.510  0.00  0.00    -0.016 A 
ATOM      7  C6  BZF d   1      -1.723  -0.618  -0.165  0.00  0.00     0.022 A 
ATOM      8  C7  BZF d   1      -2.060   0.167   0.887  0.00  0.00     0.029 A 
ATOM      9  C7A BZF d   1      -1.033   0.762   1.577  0.00  0.00     0.058 A 
ENDROOT
TORSDOF 0
ENDMDL
