MODEL 1
REMARK minimizedAffinity -4.16115284
REMARK minimizedRMSD -1
REMARK  0 active torsions:
REMARK  status: ('A' for Active; 'I' for Inactive)
ROOT
ATOM      1  O1  BZF d   1       1.423  -1.752   0.020  0.00  0.00    -0.204 OA
ATOM      2  C2  BZF d   1       2.462  -1.672   0.927  0.00  0.00     0.174 A 
ATOM      3  C3  BZF d   1       2.086  -0.986   2.026  0.00  0.00    -0.012 A 
ATOM      4  C3A BZF d   1       0.700  -0.693   1.830  0.00  0.00    -0.107 A 
ATOM      5  C4  BZF d   1      -0.238  -0.047   2.583  0.00  0.00     0.055 A 
ATOM      6  C5  BZF d   1      -1.485   0.133   2.073  0.00  0.00    -0.016 A 
ATOM      7  C6  BZF d   1      -1.826  -0.315   0.814  0.00  0.00     0.022 A 
ATOM      8  C7  BZF d   1      -0.931  -0.967   0.032  0.00  0.00     0.029 A 
ATOM      9  C7A BZF d   1       0.320  -1.179   0.558  0.00  0.00     0.058 A 
ENDROOT
TORSDOF 0
ENDMDL
