MODEL 1
REMARK minimizedAffinity -4.86543131
REMARK minimizedRMSD -1
REMARK  0 active torsions:
REMARK  status: ('A' for Active; 'I' for Inactive)
ROOT
ATOM      1  O1  BZF d   1       0.086   0.398  -1.981  0.00  0.00    -0.204 OA
ATOM      2  C2  BZF d   1       0.689  -0.845  -2.000  0.00  0.00     0.174 A 
ATOM      3  C3  BZF d   1       1.072  -1.210  -0.760  0.00  0.00    -0.012 A 
ATOM      4  C3A BZF d   1       0.603  -0.168   0.101  0.00  0.00    -0.107 A 
ATOM      5  C4  BZF d   1       0.663   0.034   1.450  0.00  0.00     0.055 A 
ATOM      6  C5  BZF d   1       0.171   1.191   1.967  0.00  0.00    -0.016 A 
ATOM      7  C6  BZF d   1      -0.382   2.168   1.165  0.00  0.00     0.022 A 
ATOM      8  C7  BZF d   1      -0.468   2.010  -0.178  0.00  0.00     0.029 A 
ATOM      9  C7A BZF d   1      -0.002   0.829  -0.700  0.00  0.00     0.058 A 
ENDROOT
TORSDOF 0
ENDMDL
