MODEL 1
REMARK minimizedAffinity -2.48504853
REMARK minimizedRMSD -1
REMARK  0 active torsions:
REMARK  status: ('A' for Active; 'I' for Inactive)
ROOT
ATOM      1  O1  BZF d   1      -1.540   1.273   1.933  0.00  0.00    -0.204 OA
ATOM      2  C2  BZF d   1      -0.427   1.633   2.668  0.00  0.00     0.174 A 
ATOM      3  C3  BZF d   1       0.696   1.135   2.111  0.00  0.00    -0.012 A 
ATOM      4  C3A BZF d   1       0.267   0.496   0.905  0.00  0.00    -0.107 A 
ATOM      5  C4  BZF d   1       0.924  -0.169  -0.091  0.00  0.00     0.055 A 
ATOM      6  C5  BZF d   1       0.203  -0.736  -1.094  0.00  0.00    -0.016 A 
ATOM      7  C6  BZF d   1      -1.174  -0.662  -1.129  0.00  0.00     0.022 A 
ATOM      8  C7  BZF d   1      -1.870  -0.009  -0.167  0.00  0.00     0.029 A 
ATOM      9  C7A BZF d   1      -1.142   0.594   0.830  0.00  0.00     0.058 A 
ENDROOT
TORSDOF 0
ENDMDL
