MODEL 1
REMARK minimizedAffinity -1.94664216
REMARK minimizedRMSD -1
REMARK  0 active torsions:
REMARK  status: ('A' for Active; 'I' for Inactive)
ROOT
ATOM      1  C   UNL d   1       5.440  -2.622   3.411  0.00  0.00     0.172 C 
ATOM      2  N   UNL d   1       4.027  -2.785   3.661  0.00  0.00    -0.070 N 
ATOM      3  C1  UNL d   1       3.475  -3.546   4.657  0.00  0.00    -0.004 A 
ATOM      4  C2  UNL d   1       2.105  -3.439   4.559  0.00  0.00    -0.047 A 
ATOM      5  C3  UNL d   1       1.823  -2.586   3.466  0.00  0.00    -0.047 A 
ATOM      6  C4  UNL d   1       3.032  -2.195   2.928  0.00  0.00    -0.004 A 
ENDROOT
TORSDOF 0
ENDMDL
