MODEL 1
REMARK minimizedAffinity 2.59841037
REMARK minimizedRMSD -1
REMARK  0 active torsions:
REMARK  status: ('A' for Active; 'I' for Inactive)
ROOT
ATOM      1  C   UNL d   1      -2.434   3.823  -0.639  0.00  0.00     0.172 C 
ATOM      2  N   UNL d   1      -3.458   3.596   0.354  0.00  0.00    -0.070 N 
ATOM      3  C1  UNL d   1      -4.784   3.911   0.219  0.00  0.00    -0.004 A 
ATOM      4  C2  UNL d   1      -5.426   3.537   1.380  0.00  0.00    -0.047 A 
ATOM      5  C3  UNL d   1      -4.453   2.980   2.242  0.00  0.00    -0.047 A 
ATOM      6  C4  UNL d   1      -3.243   3.029   1.582  0.00  0.00    -0.004 A 
ENDROOT
TORSDOF 0
ENDMDL
