MODEL 1
REMARK minimizedAffinity 0.254447311
REMARK minimizedRMSD -1
REMARK  0 active torsions:
REMARK  status: ('A' for Active; 'I' for Inactive)
ROOT
ATOM      1  C   UNL d   1       1.452  -0.704   1.889  0.00  0.00     0.172 C 
ATOM      2  N   UNL d   1       2.123  -1.436   2.938  0.00  0.00    -0.070 N 
ATOM      3  C1  UNL d   1       1.528  -2.314   3.805  0.00  0.00    -0.004 A 
ATOM      4  C2  UNL d   1       2.504  -2.800   4.648  0.00  0.00    -0.047 A 
ATOM      5  C3  UNL d   1       3.727  -2.192   4.276  0.00  0.00    -0.047 A 
ATOM      6  C4  UNL d   1       3.462  -1.353   3.215  0.00  0.00    -0.004 A 
ENDROOT
TORSDOF 0
ENDMDL
