MODEL 1
REMARK minimizedAffinity 5.90616751
REMARK minimizedRMSD -1
REMARK  0 active torsions:
REMARK  status: ('A' for Active; 'I' for Inactive)
ROOT
ATOM      1  C   UNL d   1       3.881   0.680   5.973  0.00  0.00     0.172 C 
ATOM      2  N   UNL d   1       3.798   1.302   4.673  0.00  0.00    -0.070 N 
ATOM      3  C1  UNL d   1       2.674   1.376   3.893  0.00  0.00    -0.004 A 
ATOM      4  C2  UNL d   1       3.007   2.044   2.735  0.00  0.00    -0.047 A 
ATOM      5  C3  UNL d   1       4.378   2.384   2.821  0.00  0.00    -0.047 A 
ATOM      6  C4  UNL d   1       4.843   1.912   4.030  0.00  0.00    -0.004 A 
ENDROOT
TORSDOF 0
ENDMDL
