MODEL 1
REMARK minimizedAffinity 1.77889872
REMARK minimizedRMSD -1
REMARK  0 active torsions:
REMARK  status: ('A' for Active; 'I' for Inactive)
ROOT
ATOM      1  C   UNL d   1       1.258  -0.217  -0.574  0.00  0.00     0.172 C 
ATOM      2  N   UNL d   1       0.285   0.727  -0.075  0.00  0.00    -0.070 N 
ATOM      3  C1  UNL d   1      -0.977   0.419   0.357  0.00  0.00    -0.004 A 
ATOM      4  C2  UNL d   1      -1.586   1.590   0.752  0.00  0.00    -0.047 A 
ATOM      5  C3  UNL d   1      -0.658   2.639   0.549  0.00  0.00    -0.047 A 
ATOM      6  C4  UNL d   1       0.492   2.076   0.037  0.00  0.00    -0.004 A 
ENDROOT
TORSDOF 0
ENDMDL
