MODEL 1
REMARK minimizedAffinity 6.53660965
REMARK minimizedRMSD -1
REMARK  0 active torsions:
REMARK  status: ('A' for Active; 'I' for Inactive)
ROOT
ATOM      1  C   UNL d   1      -5.594   4.853   0.168  0.00  0.00     0.172 C 
ATOM      2  N   UNL d   1      -4.394   4.109   0.468  0.00  0.00    -0.070 N 
ATOM      3  C1  UNL d   1      -3.290   4.016  -0.337  0.00  0.00    -0.004 A 
ATOM      4  C2  UNL d   1      -2.366   3.220   0.303  0.00  0.00    -0.047 A 
ATOM      5  C3  UNL d   1      -2.934   2.819   1.536  0.00  0.00    -0.047 A 
ATOM      6  C4  UNL d   1      -4.190   3.384   1.612  0.00  0.00    -0.004 A 
ENDROOT
TORSDOF 0
ENDMDL
