MODEL 1
REMARK minimizedAffinity 5.71343851
REMARK minimizedRMSD -1
REMARK  0 active torsions:
REMARK  status: ('A' for Active; 'I' for Inactive)
ROOT
ATOM      1  C   UNL d   1       1.090  -3.341   4.676  0.00  0.00     0.172 C 
ATOM      2  N   UNL d   1       1.602  -2.132   4.076  0.00  0.00    -0.070 N 
ATOM      3  C1  UNL d   1       1.621  -0.895   4.664  0.00  0.00    -0.004 A 
ATOM      4  C2  UNL d   1       2.187  -0.012   3.770  0.00  0.00    -0.047 A 
ATOM      5  C3  UNL d   1       2.519  -0.743   2.604  0.00  0.00    -0.047 A 
ATOM      6  C4  UNL d   1       2.146  -2.053   2.821  0.00  0.00    -0.004 A 
ENDROOT
TORSDOF 0
ENDMDL
