MODEL 1
REMARK minimizedAffinity 5.7676363
REMARK minimizedRMSD -1
REMARK  0 active torsions:
REMARK  status: ('A' for Active; 'I' for Inactive)
ROOT
ATOM      1  C   UNL d   1       4.926  -2.267   4.635  0.00  0.00     0.172 C 
ATOM      2  N   UNL d   1       3.539  -2.287   4.237  0.00  0.00    -0.070 N 
ATOM      3  C1  UNL d   1       2.864  -1.255   3.641  0.00  0.00    -0.004 A 
ATOM      4  C2  UNL d   1       1.568  -1.669   3.420  0.00  0.00    -0.047 A 
ATOM      5  C3  UNL d   1       1.460  -2.996   3.901  0.00  0.00    -0.047 A 
ATOM      6  C4  UNL d   1       2.694  -3.353   4.401  0.00  0.00    -0.004 A 
ENDROOT
TORSDOF 0
ENDMDL
