MODEL 1
REMARK minimizedAffinity 8.04396629
REMARK minimizedRMSD -1
REMARK  0 active torsions:
REMARK  status: ('A' for Active; 'I' for Inactive)
ROOT
ATOM      1  C   UNL d   1       3.028  -2.149   2.675  0.00  0.00     0.172 C 
ATOM      2  N   UNL d   1       1.947  -1.698   1.830  0.00  0.00    -0.070 N 
ATOM      3  C1  UNL d   1       1.632  -2.206   0.598  0.00  0.00    -0.004 A 
ATOM      4  C2  UNL d   1       0.542  -1.510   0.121  0.00  0.00    -0.047 A 
ATOM      5  C3  UNL d   1       0.190  -0.551   1.100  0.00  0.00    -0.047 A 
ATOM      6  C4  UNL d   1       1.077  -0.689   2.147  0.00  0.00    -0.004 A 
ENDROOT
TORSDOF 0
ENDMDL
