MODEL 1
REMARK minimizedAffinity 0.307201743
REMARK minimizedRMSD -1
REMARK  0 active torsions:
REMARK  status: ('A' for Active; 'I' for Inactive)
ROOT
ATOM      1  C   UNL d   1       2.475  -1.871   4.278  0.00  0.00     0.172 C 
ATOM      2  N   UNL d   1       3.822  -2.170   4.704  0.00  0.00    -0.070 N 
ATOM      3  C1  UNL d   1       4.231  -2.336   6.000  0.00  0.00    -0.004 A 
ATOM      4  C2  UNL d   1       5.582  -2.608   5.985  0.00  0.00    -0.047 A 
ATOM      5  C3  UNL d   1       6.000  -2.604   4.633  0.00  0.00    -0.047 A 
ATOM      6  C4  UNL d   1       4.890  -2.330   3.861  0.00  0.00    -0.004 A 
ENDROOT
TORSDOF 0
ENDMDL
