MODEL 1
REMARK minimizedAffinity 1.81693566
REMARK minimizedRMSD -1
REMARK  0 active torsions:
REMARK  status: ('A' for Active; 'I' for Inactive)
ROOT
ATOM      1  C1  BNZ d   1       1.764  -0.725   2.054  0.00  0.00     0.000 A 
ATOM      2  C2  BNZ d   1       2.575  -1.701   1.539  0.00  0.00     0.000 A 
ATOM      3  C3  BNZ d   1       3.667  -1.377   0.783  0.00  0.00     0.000 A 
ATOM      4  C4  BNZ d   1       3.923  -0.082   0.509  0.00  0.00     0.000 A 
ATOM      5  C5  BNZ d   1       3.110   0.913   1.013  0.00  0.00     0.000 A 
ATOM      6  C6  BNZ d   1       2.034   0.585   1.807  0.00  0.00     0.000 A 
ENDROOT
TORSDOF 0
ENDMDL
