MODEL 1
REMARK minimizedAffinity 0.676504016
REMARK minimizedRMSD -1
REMARK  0 active torsions:
REMARK  status: ('A' for Active; 'I' for Inactive)
ROOT
ATOM      1  C1  BNZ d   1       0.146  -2.037  -1.516  0.00  0.00     0.000 A 
ATOM      2  C2  BNZ d   1       1.212  -2.531  -0.812  0.00  0.00     0.000 A 
ATOM      3  C3  BNZ d   1       1.178  -2.600   0.552  0.00  0.00     0.000 A 
ATOM      4  C4  BNZ d   1       0.096  -2.140   1.213  0.00  0.00     0.000 A 
ATOM      5  C5  BNZ d   1      -0.983  -1.630   0.519  0.00  0.00     0.000 A 
ATOM      6  C6  BNZ d   1      -0.961  -1.598  -0.856  0.00  0.00     0.000 A 
ENDROOT
TORSDOF 0
ENDMDL
