MODEL 1
REMARK minimizedAffinity -2.92679238
REMARK minimizedRMSD -1
REMARK  0 active torsions:
REMARK  status: ('A' for Active; 'I' for Inactive)
ROOT
ATOM      1  C1  BNZ d   1      -1.146  -2.781  -2.000  0.00  0.00     0.000 A 
ATOM      2  C2  BNZ d   1      -1.905  -2.692  -0.863  0.00  0.00     0.000 A 
ATOM      3  C3  BNZ d   1      -1.326  -2.425   0.346  0.00  0.00     0.000 A 
ATOM      4  C4  BNZ d   1       0.013  -2.288   0.424  0.00  0.00     0.000 A 
ATOM      5  C5  BNZ d   1       0.793  -2.384  -0.712  0.00  0.00     0.000 A 
ATOM      6  C6  BNZ d   1       0.202  -2.615  -1.933  0.00  0.00     0.000 A 
ENDROOT
TORSDOF 0
ENDMDL
