MODEL 1
REMARK minimizedAffinity -1.43911362
REMARK minimizedRMSD -1
REMARK  0 active torsions:
REMARK  status: ('A' for Active; 'I' for Inactive)
ROOT
ATOM      1  C1  BNZ d   1       3.022  -2.343   2.919  0.00  0.00     0.000 A 
ATOM      2  C2  BNZ d   1       3.513  -1.334   2.134  0.00  0.00     0.000 A 
ATOM      3  C3  BNZ d   1       2.793  -0.856   1.076  0.00  0.00     0.000 A 
ATOM      4  C4  BNZ d   1       1.601  -1.414   0.779  0.00  0.00     0.000 A 
ATOM      5  C5  BNZ d   1       1.096  -2.438   1.555  0.00  0.00     0.000 A 
ATOM      6  C6  BNZ d   1       1.807  -2.890   2.644  0.00  0.00     0.000 A 
ENDROOT
TORSDOF 0
ENDMDL
