MODEL 1
REMARK minimizedAffinity 6.49951124
REMARK minimizedRMSD -1
REMARK  0 active torsions:
REMARK  status: ('A' for Active; 'I' for Inactive)
ROOT
ATOM      1  C1  BNZ d   1      -0.823  -1.639  -0.547  0.00  0.00     0.000 A 
ATOM      2  C2  BNZ d   1      -0.626  -1.924  -1.871  0.00  0.00     0.000 A 
ATOM      3  C3  BNZ d   1       0.337  -2.813  -2.260  0.00  0.00     0.000 A 
ATOM      4  C4  BNZ d   1       1.127  -3.384  -1.328  0.00  0.00     0.000 A 
ATOM      5  C5  BNZ d   1       0.946  -3.100   0.011  0.00  0.00     0.000 A 
ATOM      6  C6  BNZ d   1      -0.050  -2.234   0.401  0.00  0.00     0.000 A 
ENDROOT
TORSDOF 0
ENDMDL
