MODEL 1
REMARK minimizedAffinity 15.1434536
REMARK minimizedRMSD -1
REMARK  0 active torsions:
REMARK  status: ('A' for Active; 'I' for Inactive)
ROOT
ATOM      1  C   UNL d   1       2.230  -1.878   4.395  0.00  0.00     0.023 A 
ATOM      2  C1  UNL d   1       2.924  -2.667   3.478  0.00  0.00     0.003 A 
ATOM      3  C2  UNL d   1       3.336  -2.125   2.259  0.00  0.00     0.048 A 
ATOM      4  C3  UNL d   1       3.051  -0.792   1.964  0.00  0.00     0.023 A 
ATOM      5  C4  UNL d   1       2.358   0.002   2.880  0.00  0.00     0.048 A 
ATOM      6  C5  UNL d   1       1.948  -0.545   4.097  0.00  0.00     0.003 A 
ATOM      7  I   UNL d   1       3.663   0.019   0.151  0.00  0.00    -0.146 I 
ENDROOT
TORSDOF 0
ENDMDL
