MODEL 1
REMARK minimizedAffinity 0.957325816
REMARK minimizedRMSD -1
REMARK  0 active torsions:
REMARK  status: ('A' for Active; 'I' for Inactive)
ROOT
ATOM      1  C   UNL d   1       3.134  -0.605   2.175  0.00  0.00     0.023 A 
ATOM      2  C1  UNL d   1       2.036   0.102   2.663  0.00  0.00     0.003 A 
ATOM      3  C2  UNL d   1       1.667   1.314   2.076  0.00  0.00     0.048 A 
ATOM      4  C3  UNL d   1       2.400   1.813   1.000  0.00  0.00     0.023 A 
ATOM      5  C4  UNL d   1       3.500   1.109   0.508  0.00  0.00     0.048 A 
ATOM      6  C5  UNL d   1       3.866  -0.102   1.099  0.00  0.00     0.003 A 
ATOM      7  I   UNL d   1       1.853   3.617   0.125  0.00  0.00    -0.146 I 
ENDROOT
TORSDOF 0
ENDMDL
