MODEL 1
REMARK minimizedAffinity 7.48040724
REMARK minimizedRMSD -1
REMARK  0 active torsions:
REMARK  status: ('A' for Active; 'I' for Inactive)
ROOT
ATOM      1  C   UNL d   1       4.512  -5.999  -5.999  0.00  0.00     0.023 A 
ATOM      2  C1  UNL d   1       5.245  -6.000  -4.813  0.00  0.00     0.003 A 
ATOM      3  C2  UNL d   1       4.585  -6.000  -3.582  0.00  0.00     0.048 A 
ATOM      4  C3  UNL d   1       3.191  -6.000  -3.546  0.00  0.00     0.023 A 
ATOM      5  C4  UNL d   1       2.453  -5.999  -4.731  0.00  0.00     0.048 A 
ATOM      6  C5  UNL d   1       3.118  -5.999  -5.958  0.00  0.00     0.003 A 
ATOM      7  I   UNL d   1       2.206  -6.000  -1.716  0.00  0.00    -0.146 I 
ENDROOT
TORSDOF 0
ENDMDL
