MODEL 1
REMARK minimizedAffinity 17.0077152
REMARK minimizedRMSD -1
REMARK  0 active torsions:
REMARK  status: ('A' for Active; 'I' for Inactive)
ROOT
ATOM      1  C   UNL d   1       1.815  -1.213   2.265  0.00  0.00     0.023 A 
ATOM      2  C1  UNL d   1       2.272  -2.529   2.195  0.00  0.00     0.003 A 
ATOM      3  C2  UNL d   1       2.976  -3.084   3.265  0.00  0.00     0.048 A 
ATOM      4  C3  UNL d   1       3.219  -2.317   4.404  0.00  0.00     0.023 A 
ATOM      5  C4  UNL d   1       2.763  -1.000   4.480  0.00  0.00     0.048 A 
ATOM      6  C5  UNL d   1       2.060  -0.449   3.407  0.00  0.00     0.003 A 
ATOM      7  I   UNL d   1       4.267  -3.140   6.000  0.00  0.00    -0.146 I 
ENDROOT
TORSDOF 0
ENDMDL
