MODEL 1
REMARK minimizedAffinity 12.1095533
REMARK minimizedRMSD -1
REMARK  0 active torsions:
REMARK  status: ('A' for Active; 'I' for Inactive)
ROOT
ATOM      1  C   UNL d   1       1.110   4.631  -1.322  0.00  0.00     0.023 A 
ATOM      2  C1  UNL d   1       2.414   4.502  -0.842  0.00  0.00     0.003 A 
ATOM      3  C2  UNL d   1       2.639   4.256   0.514  0.00  0.00     0.048 A 
ATOM      4  C3  UNL d   1       1.555   4.140   1.385  0.00  0.00     0.023 A 
ATOM      5  C4  UNL d   1       0.249   4.268   0.908  0.00  0.00     0.048 A 
ATOM      6  C5  UNL d   1       0.030   4.514  -0.448  0.00  0.00     0.003 A 
ATOM      7  I   UNL d   1       1.887   3.775   3.403  0.00  0.00    -0.146 I 
ENDROOT
TORSDOF 0
ENDMDL
