MODEL 1
REMARK minimizedAffinity 9.24667549
REMARK minimizedRMSD -1
REMARK  0 active torsions:
REMARK  status: ('A' for Active; 'I' for Inactive)
ROOT
ATOM      1  C   UNL d   1       2.436  -1.144   3.992  0.00  0.00     0.023 A 
ATOM      2  C1  UNL d   1       2.259  -1.224   2.610  0.00  0.00     0.003 A 
ATOM      3  C2  UNL d   1       2.202  -0.059   1.843  0.00  0.00     0.048 A 
ATOM      4  C3  UNL d   1       2.323   1.184   2.464  0.00  0.00     0.023 A 
ATOM      5  C4  UNL d   1       2.500   1.270   3.846  0.00  0.00     0.048 A 
ATOM      6  C5  UNL d   1       2.556   0.102   4.609  0.00  0.00     0.003 A 
ATOM      7  I   UNL d   1       2.238   2.920   1.324  0.00  0.00    -0.146 I 
ENDROOT
TORSDOF 0
ENDMDL
