MODEL 1
REMARK minimizedAffinity 4.40947485
REMARK minimizedRMSD -1
REMARK  0 active torsions:
REMARK  status: ('A' for Active; 'I' for Inactive)
ROOT
ATOM      1  C   UNL d   1       1.881  -0.011   3.188  0.00  0.00     0.023 A 
ATOM      2  C1  UNL d   1       2.144  -1.350   2.901  0.00  0.00     0.003 A 
ATOM      3  C2  UNL d   1       3.022  -2.079   3.707  0.00  0.00     0.048 A 
ATOM      4  C3  UNL d   1       3.632  -1.462   4.798  0.00  0.00     0.023 A 
ATOM      5  C4  UNL d   1       3.371  -0.122   5.090  0.00  0.00     0.048 A 
ATOM      6  C5  UNL d   1       2.494   0.602   4.281  0.00  0.00     0.003 A 
ATOM      7  I   UNL d   1       4.938  -2.545   5.999  0.00  0.00    -0.146 I 
ENDROOT
TORSDOF 0
ENDMDL
