MODEL 1
REMARK minimizedAffinity 7.94271326
REMARK minimizedRMSD -1
REMARK  0 active torsions:
REMARK  status: ('A' for Active; 'I' for Inactive)
ROOT
ATOM      1  C   UNL d   1       5.720   6.000  -4.377  0.00  0.00     0.023 A 
ATOM      2  C1  UNL d   1       4.410   5.833  -4.828  0.00  0.00     0.003 A 
ATOM      3  C2  UNL d   1       3.378   5.610  -3.914  0.00  0.00     0.048 A 
ATOM      4  C3  UNL d   1       3.663   5.556  -2.550  0.00  0.00     0.023 A 
ATOM      5  C4  UNL d   1       4.971   5.723  -2.093  0.00  0.00     0.048 A 
ATOM      6  C5  UNL d   1       6.000   5.945  -3.011  0.00  0.00     0.003 A 
ATOM      7  I   UNL d   1       2.129   5.224  -1.187  0.00  0.00    -0.146 I 
ENDROOT
TORSDOF 0
ENDMDL
