MODEL 1
REMARK minimizedAffinity 5.84581184
REMARK minimizedRMSD -1
REMARK  0 active torsions:
REMARK  status: ('A' for Active; 'I' for Inactive)
ROOT
ATOM      1  C   UNL d   1       3.407   0.181   5.999  0.00  0.00     0.023 A 
ATOM      2  C1  UNL d   1       2.765   1.219   5.323  0.00  0.00     0.003 A 
ATOM      3  C2  UNL d   1       2.173   0.983   4.080  0.00  0.00     0.048 A 
ATOM      4  C3  UNL d   1       2.226  -0.293   3.520  0.00  0.00     0.023 A 
ATOM      5  C4  UNL d   1       2.866  -1.335   4.194  0.00  0.00     0.048 A 
ATOM      6  C5  UNL d   1       3.457  -1.094   5.436  0.00  0.00     0.003 A 
ATOM      7  I   UNL d   1       1.345  -0.646   1.671  0.00  0.00    -0.146 I 
ENDROOT
TORSDOF 0
ENDMDL
