MODEL 1
REMARK minimizedAffinity 0.988353193
REMARK minimizedRMSD -1
REMARK  1 active torsions:
REMARK  status: ('A' for Active; 'I' for Inactive)
REMARK    1  A    between atoms: C1_2  and  C2_3 
ROOT
ATOM      1  C2  UNL d   1       0.004   3.223   1.187  0.00  0.00    -0.077 A 
ATOM      2  C3  UNL d   1       0.958   3.556   0.215  0.00  0.00     0.002 A 
ATOM      3  C4  UNL d   1       0.573   4.206  -0.959  0.00  0.00     0.002 A 
ATOM      4  C5  UNL d   1      -0.765   4.531  -1.170  0.00  0.00    -0.004 A 
ATOM      5  C6  UNL d   1      -1.722   4.202  -0.210  0.00  0.00     0.002 A 
ATOM      6  C7  UNL d   1      -1.339   3.552   0.964  0.00  0.00     0.002 A 
ENDROOT
BRANCH   1   7
ATOM      7  C1  UNL d   1       0.425   2.566   2.476  0.00  0.00     0.055 C 
ATOM      8  C   UNL d   1       1.814   3.018   2.900  0.00  0.00     0.019 C 
ENDBRANCH   1   7
TORSDOF 1
ENDMDL
