MODEL 1
REMARK minimizedAffinity 3.97962427
REMARK minimizedRMSD -1
REMARK  1 active torsions:
REMARK  status: ('A' for Active; 'I' for Inactive)
REMARK    1  A    between atoms: C1_2  and  C2_3 
ROOT
ATOM      1  C2  UNL d   1      -5.262   3.443  -2.774  0.00  0.00    -0.077 A 
ATOM      2  C3  UNL d   1      -5.992   3.908  -3.877  0.00  0.00     0.002 A 
ATOM      3  C4  UNL d   1      -5.340   4.247  -5.064  0.00  0.00     0.002 A 
ATOM      4  C5  UNL d   1      -3.956   4.121  -5.160  0.00  0.00    -0.004 A 
ATOM      5  C6  UNL d   1      -3.220   3.661  -4.068  0.00  0.00     0.002 A 
ATOM      6  C7  UNL d   1      -3.871   3.323  -2.881  0.00  0.00     0.002 A 
ENDROOT
BRANCH   1   7
ATOM      7  C1  UNL d   1      -5.969   3.030  -1.509  0.00  0.00     0.055 C 
ATOM      8  C   UNL d   1      -5.709   1.567  -1.182  0.00  0.00     0.019 C 
ENDBRANCH   1   7
TORSDOF 1
ENDMDL
