MODEL 1
REMARK minimizedAffinity -3.19078469
REMARK minimizedRMSD -1
REMARK  1 active torsions:
REMARK  status: ('A' for Active; 'I' for Inactive)
REMARK    1  A    between atoms: C1_2  and  C2_3 
ROOT
ATOM      1  C2  UNL d   1      -5.219   3.528  -3.266  0.00  0.00    -0.077 A 
ATOM      2  C3  UNL d   1      -5.999   4.504  -3.903  0.00  0.00     0.002 A 
ATOM      3  C4  UNL d   1      -5.634   4.990  -5.160  0.00  0.00     0.002 A 
ATOM      4  C5  UNL d   1      -4.491   4.504  -5.792  0.00  0.00    -0.004 A 
ATOM      5  C6  UNL d   1      -3.707   3.536  -5.166  0.00  0.00     0.002 A 
ATOM      6  C7  UNL d   1      -4.070   3.049  -3.909  0.00  0.00     0.002 A 
ENDROOT
BRANCH   1   7
ATOM      7  C1  UNL d   1      -5.637   2.967  -1.932  0.00  0.00     0.055 C 
ATOM      8  C   UNL d   1      -5.981   1.488  -2.038  0.00  0.00     0.019 C 
ENDBRANCH   1   7
TORSDOF 1
ENDMDL
