MODEL 1
REMARK minimizedAffinity -3.7054069
REMARK minimizedRMSD -1
REMARK  1 active torsions:
REMARK  status: ('A' for Active; 'I' for Inactive)
REMARK    1  A    between atoms: C1_2  and  C2_3 
ROOT
ATOM      1  C2  UNL d   1      -5.490   3.988  -2.661  0.00  0.00    -0.077 A 
ATOM      2  C3  UNL d   1      -4.897   5.257  -2.699  0.00  0.00     0.002 A 
ATOM      3  C4  UNL d   1      -4.816   5.963  -3.901  0.00  0.00     0.002 A 
ATOM      4  C5  UNL d   1      -5.328   5.410  -5.072  0.00  0.00    -0.004 A 
ATOM      5  C6  UNL d   1      -5.918   4.147  -5.045  0.00  0.00     0.002 A 
ATOM      6  C7  UNL d   1      -5.999   3.439  -3.845  0.00  0.00     0.002 A 
ENDROOT
BRANCH   1   7
ATOM      7  C1  UNL d   1      -5.624   3.246  -1.357  0.00  0.00     0.055 C 
ATOM      8  C   UNL d   1      -6.000   1.789  -1.585  0.00  0.00     0.019 C 
ENDBRANCH   1   7
TORSDOF 1
ENDMDL
