MODEL 1
REMARK minimizedAffinity 0.509991884
REMARK minimizedRMSD -1
REMARK  1 active torsions:
REMARK  status: ('A' for Active; 'I' for Inactive)
REMARK    1  A    between atoms: C1_2  and  C2_3 
ROOT
ATOM      1  C2  UNL d   1      -5.318   3.488  -3.422  0.00  0.00    -0.077 A 
ATOM      2  C3  UNL d   1      -5.998   4.155  -4.450  0.00  0.00     0.002 A 
ATOM      3  C4  UNL d   1      -5.383   4.361  -5.686  0.00  0.00     0.002 A 
ATOM      4  C5  UNL d   1      -4.087   3.899  -5.907  0.00  0.00    -0.004 A 
ATOM      5  C6  UNL d   1      -3.401   3.236  -4.891  0.00  0.00     0.002 A 
ATOM      6  C7  UNL d   1      -4.014   3.031  -3.654  0.00  0.00     0.002 A 
ENDROOT
BRANCH   1   7
ATOM      7  C1  UNL d   1      -5.997   3.221  -2.104  0.00  0.00     0.055 C 
ATOM      8  C   UNL d   1      -5.899   1.753  -1.717  0.00  0.00     0.019 C 
ENDBRANCH   1   7
TORSDOF 1
ENDMDL
