MODEL 1
REMARK minimizedAffinity -3.9633584
REMARK minimizedRMSD -1
REMARK  1 active torsions:
REMARK  status: ('A' for Active; 'I' for Inactive)
REMARK    1  A    between atoms: C1_2  and  C2_3 
ROOT
ATOM      1  C2  UNL d   1      -4.821   2.743  -4.494  0.00  0.00    -0.077 A 
ATOM      2  C3  UNL d   1      -4.656   3.819  -3.611  0.00  0.00     0.002 A 
ATOM      3  C4  UNL d   1      -5.160   3.750  -2.311  0.00  0.00     0.002 A 
ATOM      4  C5  UNL d   1      -5.829   2.606  -1.882  0.00  0.00    -0.004 A 
ATOM      5  C6  UNL d   1      -6.000   1.531  -2.753  0.00  0.00     0.002 A 
ATOM      6  C7  UNL d   1      -5.497   1.598  -4.053  0.00  0.00     0.002 A 
ENDROOT
BRANCH   1   7
ATOM      7  C1  UNL d   1      -4.234   2.796  -5.881  0.00  0.00     0.055 C 
ATOM      8  C   UNL d   1      -3.002   1.910  -5.995  0.00  0.00     0.019 C 
ENDBRANCH   1   7
TORSDOF 1
ENDMDL
