MODEL 1
REMARK minimizedAffinity -1.71993852
REMARK minimizedRMSD -1
REMARK  1 active torsions:
REMARK  status: ('A' for Active; 'I' for Inactive)
REMARK    1  A    between atoms: C1_2  and  C2_3 
ROOT
ATOM      1  C2  UNL d   1      -4.856   2.424  -4.177  0.00  0.00    -0.077 A 
ATOM      2  C3  UNL d   1      -3.776   3.313  -4.263  0.00  0.00     0.002 A 
ATOM      3  C4  UNL d   1      -2.738   3.080  -5.167  0.00  0.00     0.002 A 
ATOM      4  C5  UNL d   1      -2.772   1.960  -5.995  0.00  0.00    -0.004 A 
ATOM      5  C6  UNL d   1      -3.841   1.068  -5.917  0.00  0.00     0.002 A 
ATOM      6  C7  UNL d   1      -4.879   1.299  -5.012  0.00  0.00     0.002 A 
ENDROOT
BRANCH   1   7
ATOM      7  C1  UNL d   1      -6.000   2.700  -3.237  0.00  0.00     0.055 C 
ATOM      8  C   UNL d   1      -5.830   1.951  -1.924  0.00  0.00     0.019 C 
ENDBRANCH   1   7
TORSDOF 1
ENDMDL
