MODEL 1
REMARK minimizedAffinity 10.093647
REMARK minimizedRMSD -1
REMARK  2 active torsions:
REMARK  status: ('A' for Active; 'I' for Inactive)
REMARK    1  A    between atoms: C2'_3  and  C1'_4 
REMARK    2  A    between atoms: C1'_4  and  C1_5 
ROOT
ATOM      1  C1  I4B d   1       5.030   0.822  -2.439  0.00  0.00    -0.075 A 
ATOM      2  C2  I4B d   1       3.695   1.121  -2.337  0.00  0.00     0.003 A 
ATOM      3  C3  I4B d   1       3.283   2.417  -1.942  0.00  0.00     0.002 A 
ATOM      4  C4  I4B d   1       4.234   3.361  -1.612  0.00  0.00    -0.004 A 
ATOM      5  C5  I4B d   1       5.588   3.063  -1.739  0.00  0.00     0.002 A 
ATOM      6  C6  I4B d   1       5.989   1.789  -2.167  0.00  0.00     0.003 A 
ENDROOT
BRANCH   1   7
ATOM      7  C1' I4B d   1       5.430  -0.566  -2.827  0.00  0.00     0.060 C 
BRANCH   7   8
ATOM      8  C2' I4B d   1       5.954  -0.521  -4.248  0.00  0.00    -0.013 C 
ATOM      9  C4' I4B d   1       5.965  -1.893  -4.869  0.00  0.00     0.013 C 
ATOM     10  C3' I4B d   1       5.088   0.420  -5.031  0.00  0.00     0.013 C 
ENDBRANCH   7   8
ENDBRANCH   1   7
TORSDOF 2
ENDMDL
