MODEL 1
REMARK minimizedAffinity 14.56775
REMARK minimizedRMSD -1
REMARK  2 active torsions:
REMARK  status: ('A' for Active; 'I' for Inactive)
REMARK    1  A    between atoms: C2'_3  and  C1'_4 
REMARK    2  A    between atoms: C1'_4  and  C1_5 
ROOT
ATOM      1  C1  I4B d   1      -0.924  -2.950   1.420  0.00  0.00    -0.075 A 
ATOM      2  C2  I4B d   1       0.217  -2.279   1.057  0.00  0.00     0.003 A 
ATOM      3  C3  I4B d   1       1.408  -2.994   0.784  0.00  0.00     0.002 A 
ATOM      4  C4  I4B d   1       1.427  -4.365   0.935  0.00  0.00    -0.004 A 
ATOM      5  C5  I4B d   1       0.263  -5.046   1.281  0.00  0.00     0.002 A 
ATOM      6  C6  I4B d   1      -0.923  -4.335   1.513  0.00  0.00     0.003 A 
ENDROOT
BRANCH   1   7
ATOM      7  C1' I4B d   1      -2.156  -2.160   1.732  0.00  0.00     0.060 C 
BRANCH   7   8
ATOM      8  C2' I4B d   1      -2.114  -1.792   3.202  0.00  0.00    -0.013 C 
ATOM      9  C4' I4B d   1      -1.711  -0.354   3.393  0.00  0.00     0.013 C 
ATOM     10  C3' I4B d   1      -3.471  -2.056   3.783  0.00  0.00     0.013 C 
ENDBRANCH   7   8
ENDBRANCH   1   7
TORSDOF 2
ENDMDL
