MODEL 1
REMARK minimizedAffinity 7.73900652
REMARK minimizedRMSD -1
REMARK  2 active torsions:
REMARK  status: ('A' for Active; 'I' for Inactive)
REMARK    1  A    between atoms: C2'_3  and  C1'_4 
REMARK    2  A    between atoms: C1'_4  and  C1_5 
ROOT
ATOM      1  C1  I4B d   1       0.017   0.321  -0.772  0.00  0.00    -0.075 A 
ATOM      2  C2  I4B d   1      -0.130   1.525  -1.415  0.00  0.00     0.003 A 
ATOM      3  C3  I4B d   1       0.779   2.582  -1.164  0.00  0.00     0.002 A 
ATOM      4  C4  I4B d   1       1.781   2.410  -0.232  0.00  0.00    -0.004 A 
ATOM      5  C5  I4B d   1       1.942   1.182   0.402  0.00  0.00     0.002 A 
ATOM      6  C6  I4B d   1       1.062   0.126   0.121  0.00  0.00     0.003 A 
ENDROOT
BRANCH   1   7
ATOM      7  C1' I4B d   1      -0.979  -0.762  -1.036  0.00  0.00     0.060 C 
BRANCH   7   8
ATOM      8  C2' I4B d   1      -0.773  -1.849  -0.000  0.00  0.00    -0.013 C 
ATOM      9  C4' I4B d   1      -2.030  -2.652   0.206  0.00  0.00     0.013 C 
ATOM     10  C3' I4B d   1       0.357  -2.720  -0.462  0.00  0.00     0.013 C 
ENDBRANCH   7   8
ENDBRANCH   1   7
TORSDOF 2
ENDMDL
