MODEL 1
REMARK minimizedAffinity 13.678669
REMARK minimizedRMSD -1
REMARK  2 active torsions:
REMARK  status: ('A' for Active; 'I' for Inactive)
REMARK    1  A    between atoms: C2'_3  and  C1'_4 
REMARK    2  A    between atoms: C1'_4  and  C1_5 
ROOT
ATOM      1  C1  I4B d   1       0.296  -3.798   0.212  0.00  0.00    -0.075 A 
ATOM      2  C2  I4B d   1       1.289  -2.982   0.694  0.00  0.00     0.003 A 
ATOM      3  C3  I4B d   1       2.289  -3.505   1.550  0.00  0.00     0.002 A 
ATOM      4  C4  I4B d   1       2.228  -4.828   1.937  0.00  0.00    -0.004 A 
ATOM      5  C5  I4B d   1       1.233  -5.659   1.430  0.00  0.00     0.002 A 
ATOM      6  C6  I4B d   1       0.268  -5.145   0.552  0.00  0.00     0.003 A 
ENDROOT
BRANCH   1   7
ATOM      7  C1' I4B d   1      -0.762  -3.206  -0.663  0.00  0.00     0.060 C 
BRANCH   7   8
ATOM      8  C2' I4B d   1      -1.218  -1.906  -0.031  0.00  0.00    -0.013 C 
ATOM      9  C4' I4B d   1      -1.778  -0.965  -1.064  0.00  0.00     0.013 C 
ATOM     10  C3' I4B d   1      -2.241  -2.234   1.015  0.00  0.00     0.013 C 
ENDBRANCH   7   8
ENDBRANCH   1   7
TORSDOF 2
ENDMDL
