MODEL 1
REMARK minimizedAffinity -2.88239622
REMARK minimizedRMSD -1
REMARK  2 active torsions:
REMARK  status: ('A' for Active; 'I' for Inactive)
REMARK    1  A    between atoms: C2'_3  and  C1'_4 
REMARK    2  A    between atoms: C1'_4  and  C1_5 
ROOT
ATOM      1  C1  I4B d   1       3.063   2.081  -2.835  0.00  0.00    -0.075 A 
ATOM      2  C2  I4B d   1       3.240   3.435  -2.698  0.00  0.00     0.003 A 
ATOM      3  C3  I4B d   1       4.492   3.952  -2.286  0.00  0.00     0.002 A 
ATOM      4  C4  I4B d   1       5.518   3.082  -1.975  0.00  0.00    -0.004 A 
ATOM      5  C5  I4B d   1       5.344   1.711  -2.137  0.00  0.00     0.002 A 
ATOM      6  C6  I4B d   1       4.113   1.207  -2.582  0.00  0.00     0.003 A 
ENDROOT
BRANCH   1   7
ATOM      7  C1' I4B d   1       1.718   1.567  -3.241  0.00  0.00     0.060 C 
BRANCH   7   8
ATOM      8  C2' I4B d   1       0.888   1.391  -1.985  0.00  0.00    -0.013 C 
ATOM      9  C4' I4B d   1       1.026  -0.002  -1.431  0.00  0.00     0.013 C 
ATOM     10  C3' I4B d   1       1.335   2.418  -0.987  0.00  0.00     0.013 C 
ENDBRANCH   7   8
ENDBRANCH   1   7
TORSDOF 2
ENDMDL
