MODEL 1
REMARK minimizedAffinity 2.12204766
REMARK minimizedRMSD -1
REMARK  2 active torsions:
REMARK  status: ('A' for Active; 'I' for Inactive)
REMARK    1  A    between atoms: C2'_3  and  C1'_4 
REMARK    2  A    between atoms: C1'_4  and  C1_5 
ROOT
ATOM      1  C1  I4B d   1       5.140  -0.114  -5.212  0.00  0.00    -0.075 A 
ATOM      2  C2  I4B d   1       5.990  -1.178  -5.038  0.00  0.00     0.003 A 
ATOM      3  C3  I4B d   1       5.562  -2.491  -5.354  0.00  0.00     0.002 A 
ATOM      4  C4  I4B d   1       4.269  -2.698  -5.790  0.00  0.00    -0.004 A 
ATOM      5  C5  I4B d   1       3.417  -1.616  -5.987  0.00  0.00     0.002 A 
ATOM      6  C6  I4B d   1       3.858  -0.314  -5.708  0.00  0.00     0.003 A 
ENDROOT
BRANCH   1   7
ATOM      7  C1' I4B d   1       5.613   1.254  -4.837  0.00  0.00     0.060 C 
BRANCH   7   8
ATOM      8  C2' I4B d   1       5.944   1.245  -3.358  0.00  0.00    -0.013 C 
ATOM      9  C4' I4B d   1       4.974   2.093  -2.578  0.00  0.00     0.013 C 
ATOM     10  C3' I4B d   1       5.920  -0.178  -2.887  0.00  0.00     0.013 C 
ENDBRANCH   7   8
ENDBRANCH   1   7
TORSDOF 2
ENDMDL
