MODEL 1
REMARK minimizedAffinity 10.7450771
REMARK minimizedRMSD -1
REMARK  2 active torsions:
REMARK  status: ('A' for Active; 'I' for Inactive)
REMARK    1  A    between atoms: C2'_3  and  C1'_4 
REMARK    2  A    between atoms: C1'_4  and  C1_5 
ROOT
ATOM      1  C1  I4B d   1       3.051   3.595  -3.262  0.00  0.00    -0.075 A 
ATOM      2  C2  I4B d   1       3.814   2.867  -2.383  0.00  0.00     0.003 A 
ATOM      3  C3  I4B d   1       3.242   2.365  -1.189  0.00  0.00     0.002 A 
ATOM      4  C4  I4B d   1       1.927   2.656  -0.891  0.00  0.00    -0.004 A 
ATOM      5  C5  I4B d   1       1.148   3.375  -1.793  0.00  0.00     0.002 A 
ATOM      6  C6  I4B d   1       1.710   3.837  -2.992  0.00  0.00     0.003 A 
ENDROOT
BRANCH   1   7
ATOM      7  C1' I4B d   1       3.695   4.138  -4.498  0.00  0.00     0.060 C 
BRANCH   7   8
ATOM      8  C2' I4B d   1       3.280   3.263  -5.663  0.00  0.00    -0.013 C 
ATOM      9  C4' I4B d   1       4.113   2.010  -5.728  0.00  0.00     0.013 C 
ATOM     10  C3' I4B d   1       1.825   2.939  -5.503  0.00  0.00     0.013 C 
ENDBRANCH   7   8
ENDBRANCH   1   7
TORSDOF 2
ENDMDL
