MODEL 1
REMARK minimizedAffinity 12.3411684
REMARK minimizedRMSD -1
REMARK  2 active torsions:
REMARK  status: ('A' for Active; 'I' for Inactive)
REMARK    1  A    between atoms: C2'_3  and  C1'_4 
REMARK    2  A    between atoms: C1'_4  and  C1_5 
ROOT
ATOM      1  C1  I4B d   1       0.499  -2.982   0.539  0.00  0.00    -0.075 A 
ATOM      2  C2  I4B d   1      -0.626  -3.673   0.916  0.00  0.00     0.003 A 
ATOM      3  C3  I4B d   1      -0.516  -4.987   1.430  0.00  0.00     0.002 A 
ATOM      4  C4  I4B d   1       0.724  -5.587   1.503  0.00  0.00    -0.004 A 
ATOM      5  C5  I4B d   1       1.866  -4.877   1.142  0.00  0.00     0.002 A 
ATOM      6  C6  I4B d   1       1.754  -3.562   0.669  0.00  0.00     0.003 A 
ENDROOT
BRANCH   1   7
ATOM      7  C1' I4B d   1       0.344  -1.607  -0.030  0.00  0.00     0.060 C 
BRANCH   7   8
ATOM      8  C2' I4B d   1       1.495  -0.761   0.473  0.00  0.00    -0.013 C 
ATOM      9  C4' I4B d   1       1.484   0.606  -0.159  0.00  0.00     0.013 C 
ATOM     10  C3' I4B d   1       1.384  -0.669   1.966  0.00  0.00     0.013 C 
ENDBRANCH   7   8
ENDBRANCH   1   7
TORSDOF 2
ENDMDL
