MODEL 1
REMARK minimizedAffinity 4.30340338
REMARK minimizedRMSD -1
REMARK  2 active torsions:
REMARK  status: ('A' for Active; 'I' for Inactive)
REMARK    1  A    between atoms: C2'_3  and  C1'_4 
REMARK    2  A    between atoms: C1'_4  and  C1_5 
ROOT
ATOM      1  C1  I4B d   1       1.080   0.052  -1.402  0.00  0.00    -0.075 A 
ATOM      2  C2  I4B d   1       1.135  -1.319  -1.442  0.00  0.00     0.003 A 
ATOM      3  C3  I4B d   1       1.409  -1.986  -2.661  0.00  0.00     0.002 A 
ATOM      4  C4  I4B d   1       1.570  -1.250  -3.817  0.00  0.00    -0.004 A 
ATOM      5  C5  I4B d   1       1.537   0.141  -3.770  0.00  0.00     0.002 A 
ATOM      6  C6  I4B d   1       1.303   0.797  -2.553  0.00  0.00     0.003 A 
ENDROOT
BRANCH   1   7
ATOM      7  C1' I4B d   1       0.756   0.722  -0.104  0.00  0.00     0.060 C 
BRANCH   7   8
ATOM      8  C2' I4B d   1       1.506   2.039  -0.059  0.00  0.00    -0.013 C 
ATOM      9  C4' I4B d   1       0.619   3.185  -0.468  0.00  0.00     0.013 C 
ATOM     10  C3' I4B d   1       2.026   2.227   1.334  0.00  0.00     0.013 C 
ENDBRANCH   7   8
ENDBRANCH   1   7
TORSDOF 2
ENDMDL
