MODEL 1
REMARK minimizedAffinity 9.96884155
REMARK minimizedRMSD -1
REMARK  2 active torsions:
REMARK  status: ('A' for Active; 'I' for Inactive)
REMARK    1  A    between atoms: C2'_3  and  C1'_4 
REMARK    2  A    between atoms: C1'_4  and  C1_5 
ROOT
ATOM      1  C1  I4B d   1       1.382   1.879  -1.033  0.00  0.00    -0.075 A 
ATOM      2  C2  I4B d   1       1.432   2.560  -2.224  0.00  0.00     0.003 A 
ATOM      3  C3  I4B d   1       1.290   1.864  -3.449  0.00  0.00     0.002 A 
ATOM      4  C4  I4B d   1       1.151   0.491  -3.439  0.00  0.00    -0.004 A 
ATOM      5  C5  I4B d   1       1.078  -0.194  -2.230  0.00  0.00     0.002 A 
ATOM      6  C6  I4B d   1       1.182   0.505  -1.019  0.00  0.00     0.003 A 
ENDROOT
BRANCH   1   7
ATOM      7  C1' I4B d   1       1.568   2.641   0.241  0.00  0.00     0.060 C 
BRANCH   7   8
ATOM      8  C2' I4B d   1       2.439   1.809   1.159  0.00  0.00    -0.013 C 
ATOM      9  C4' I4B d   1       3.892   2.180   1.017  0.00  0.00     0.013 C 
ATOM     10  C3' I4B d   1       1.962   2.018   2.565  0.00  0.00     0.013 C 
ENDBRANCH   7   8
ENDBRANCH   1   7
TORSDOF 2
ENDMDL
