MODEL 1
REMARK minimizedAffinity 13.9980478
REMARK minimizedRMSD -1
REMARK  2 active torsions:
REMARK  status: ('A' for Active; 'I' for Inactive)
REMARK    1  A    between atoms: C2'_3  and  C1'_4 
REMARK    2  A    between atoms: C1'_4  and  C1_5 
ROOT
ATOM      1  C1  I4B d   1      -2.598  -1.502   3.633  0.00  0.00    -0.075 A 
ATOM      2  C2  I4B d   1      -3.694  -2.040   3.005  0.00  0.00     0.003 A 
ATOM      3  C3  I4B d   1      -4.868  -2.327   3.742  0.00  0.00     0.002 A 
ATOM      4  C4  I4B d   1      -4.886  -2.109   5.105  0.00  0.00    -0.004 A 
ATOM      5  C5  I4B d   1      -3.782  -1.542   5.736  0.00  0.00     0.002 A 
ATOM      6  C6  I4B d   1      -2.635  -1.225   4.993  0.00  0.00     0.003 A 
ENDROOT
BRANCH   1   7
ATOM      7  C1' I4B d   1      -1.363  -1.241   2.830  0.00  0.00     0.060 C 
BRANCH   7   8
ATOM      8  C2' I4B d   1      -1.356  -2.204   1.660  0.00  0.00    -0.013 C 
ATOM      9  C4' I4B d   1      -1.258  -1.469   0.350  0.00  0.00     0.013 C 
ATOM     10  C3' I4B d   1      -0.201  -3.143   1.841  0.00  0.00     0.013 C 
ENDBRANCH   7   8
ENDBRANCH   1   7
TORSDOF 2
ENDMDL
