MODEL 1
REMARK minimizedAffinity 0.748865783
REMARK minimizedRMSD -1
REMARK  2 active torsions:
REMARK  status: ('A' for Active; 'I' for Inactive)
REMARK    1  A    between atoms: C2'_3  and  C1'_4 
REMARK    2  A    between atoms: C1'_4  and  C1_5 
ROOT
ATOM      1  C1  I4B d   1       1.130  -0.300  -1.261  0.00  0.00    -0.075 A 
ATOM      2  C2  I4B d   1       1.188  -1.671  -1.226  0.00  0.00     0.003 A 
ATOM      3  C3  I4B d   1       1.288  -2.411  -2.428  0.00  0.00     0.002 A 
ATOM      4  C4  I4B d   1       1.276  -1.748  -3.638  0.00  0.00    -0.004 A 
ATOM      5  C5  I4B d   1       1.240  -0.357  -3.671  0.00  0.00     0.002 A 
ATOM      6  C6  I4B d   1       1.179   0.373  -2.475  0.00  0.00     0.003 A 
ENDROOT
BRANCH   1   7
ATOM      7  C1' I4B d   1       0.991   0.449   0.026  0.00  0.00     0.060 C 
BRANCH   7   8
ATOM      8  C2' I4B d   1       1.680   1.789  -0.137  0.00  0.00    -0.013 C 
ATOM      9  C4' I4B d   1       0.732   2.827  -0.677  0.00  0.00     0.013 C 
ATOM     10  C3' I4B d   1       2.223   2.196   1.201  0.00  0.00     0.013 C 
ENDBRANCH   7   8
ENDBRANCH   1   7
TORSDOF 2
ENDMDL
