MODEL 1
REMARK minimizedAffinity 7.81360102
REMARK minimizedRMSD -1
REMARK  2 active torsions:
REMARK  status: ('A' for Active; 'I' for Inactive)
REMARK    1  A    between atoms: C2'_3  and  C1'_4 
REMARK    2  A    between atoms: C1'_4  and  C1_5 
ROOT
ATOM      1  C1  I4B d   1       3.678   1.828  -5.469  0.00  0.00    -0.075 A 
ATOM      2  C2  I4B d   1       2.564   1.382  -4.803  0.00  0.00     0.003 A 
ATOM      3  C3  I4B d   1       1.518   2.280  -4.483  0.00  0.00     0.002 A 
ATOM      4  C4  I4B d   1       1.648   3.617  -4.801  0.00  0.00    -0.004 A 
ATOM      5  C5  I4B d   1       2.768   4.063  -5.497  0.00  0.00     0.002 A 
ATOM      6  C6  I4B d   1       3.784   3.161  -5.845  0.00  0.00     0.003 A 
ENDROOT
BRANCH   1   7
ATOM      7  C1' I4B d   1       4.779   0.859  -5.763  0.00  0.00     0.060 C 
BRANCH   7   8
ATOM      8  C2' I4B d   1       5.991   1.270  -4.951  0.00  0.00    -0.013 C 
ATOM      9  C4' I4B d   1       5.971   2.745  -4.650  0.00  0.00     0.013 C 
ATOM     10  C3' I4B d   1       6.000   0.459  -3.690  0.00  0.00     0.013 C 
ENDBRANCH   7   8
ENDBRANCH   1   7
TORSDOF 2
ENDMDL
