MODEL 1
REMARK minimizedAffinity -1.12933433
REMARK minimizedRMSD -1
REMARK  2 active torsions:
REMARK  status: ('A' for Active; 'I' for Inactive)
REMARK    1  A    between atoms: C2'_3  and  C1'_4 
REMARK    2  A    between atoms: C1'_4  and  C1_5 
ROOT
ATOM      1  C1  I4B d   1       1.843  -0.368  -2.659  0.00  0.00    -0.075 A 
ATOM      2  C2  I4B d   1       1.956   0.292  -3.857  0.00  0.00     0.003 A 
ATOM      3  C3  I4B d   1       1.596  -0.356  -5.064  0.00  0.00     0.002 A 
ATOM      4  C4  I4B d   1       1.178  -1.671  -5.031  0.00  0.00    -0.004 A 
ATOM      5  C5  I4B d   1       1.043  -2.330  -3.813  0.00  0.00     0.002 A 
ATOM      6  C6  I4B d   1       1.365  -1.671  -2.618  0.00  0.00     0.003 A 
ENDROOT
BRANCH   1   7
ATOM      7  C1' I4B d   1       2.263   0.335  -1.407  0.00  0.00     0.060 C 
BRANCH   7   8
ATOM      8  C2' I4B d   1       1.065   1.093  -0.872  0.00  0.00    -0.013 C 
ATOM      9  C4' I4B d   1       1.463   2.030   0.237  0.00  0.00     0.013 C 
ATOM     10  C3' I4B d   1       0.442   1.840  -2.014  0.00  0.00     0.013 C 
ENDBRANCH   7   8
ENDBRANCH   1   7
TORSDOF 2
ENDMDL
