MODEL 1
REMARK minimizedAffinity 7.6362114
REMARK minimizedRMSD -1
REMARK  2 active torsions:
REMARK  status: ('A' for Active; 'I' for Inactive)
REMARK    1  A    between atoms: C2'_3  and  C1'_4 
REMARK    2  A    between atoms: C1'_4  and  C1_5 
ROOT
ATOM      1  C1  I4B d   1       1.624   0.121  -2.401  0.00  0.00    -0.075 A 
ATOM      2  C2  I4B d   1       1.328  -0.239  -1.110  0.00  0.00     0.003 A 
ATOM      3  C3  I4B d   1       0.587   0.635  -0.279  0.00  0.00     0.002 A 
ATOM      4  C4  I4B d   1       0.208   1.872  -0.759  0.00  0.00    -0.004 A 
ATOM      5  C5  I4B d   1       0.489   2.226  -2.076  0.00  0.00     0.002 A 
ATOM      6  C6  I4B d   1       1.191   1.340  -2.906  0.00  0.00     0.003 A 
ENDROOT
BRANCH   1   7
ATOM      7  C1' I4B d   1       2.437  -0.812  -3.241  0.00  0.00     0.060 C 
BRANCH   7   8
ATOM      8  C2' I4B d   1       1.517  -1.903  -3.751  0.00  0.00    -0.013 C 
ATOM      9  C4' I4B d   1       1.711  -3.183  -2.983  0.00  0.00     0.013 C 
ATOM     10  C3' I4B d   1       0.106  -1.410  -3.635  0.00  0.00     0.013 C 
ENDBRANCH   7   8
ENDBRANCH   1   7
TORSDOF 2
ENDMDL
