MODEL 1
REMARK minimizedAffinity -2.83682323
REMARK minimizedRMSD -1
REMARK  0 active torsions:
REMARK  status: ('A' for Active; 'I' for Inactive)
ROOT
ATOM      1  O1  BZF d   1      -0.067   1.993  -1.601  0.00  0.00    -0.204 OA
ATOM      2  C2  BZF d   1      -0.529   3.281  -1.411  0.00  0.00     0.174 A 
ATOM      3  C3  BZF d   1      -0.833   3.493  -0.114  0.00  0.00    -0.012 A 
ATOM      4  C3A BZF d   1      -0.456   2.291   0.563  0.00  0.00    -0.107 A 
ATOM      5  C4  BZF d   1      -0.498   1.896   1.869  0.00  0.00     0.055 A 
ATOM      6  C5  BZF d   1      -0.123   0.630   2.189  0.00  0.00    -0.016 A 
ATOM      7  C6  BZF d   1       0.295  -0.268   1.229  0.00  0.00     0.022 A 
ATOM      8  C7  BZF d   1       0.358   0.079  -0.080  0.00  0.00     0.029 A 
ATOM      9  C7A BZF d   1       0.011   1.368  -0.402  0.00  0.00     0.058 A 
ENDROOT
TORSDOF 0
ENDMDL
