MODEL 1
REMARK minimizedAffinity -6.00205278
REMARK minimizedRMSD -1
REMARK  0 active torsions:
REMARK  status: ('A' for Active; 'I' for Inactive)
ROOT
ATOM      1  O1  BZF d   1       0.076   1.230  -1.485  0.00  0.00    -0.204 OA
ATOM      2  C2  BZF d   1      -0.476   2.393  -1.986  0.00  0.00     0.174 A 
ATOM      3  C3  BZF d   1      -1.071   3.101  -1.005  0.00  0.00    -0.012 A 
ATOM      4  C3A BZF d   1      -0.799   2.378   0.199  0.00  0.00    -0.107 A 
ATOM      5  C4  BZF d   1      -1.113   2.588   1.512  0.00  0.00     0.055 A 
ATOM      6  C5  BZF d   1      -0.759   1.654   2.433  0.00  0.00    -0.016 A 
ATOM      7  C6  BZF d   1      -0.096   0.498   2.077  0.00  0.00     0.022 A 
ATOM      8  C7  BZF d   1       0.241   0.248   0.788  0.00  0.00     0.029 A 
ATOM      9  C7A BZF d   1      -0.086   1.205  -0.141  0.00  0.00     0.058 A 
ENDROOT
TORSDOF 0
ENDMDL
