MODEL 1
REMARK minimizedAffinity -5.72345686
REMARK minimizedRMSD -1
REMARK  0 active torsions:
REMARK  status: ('A' for Active; 'I' for Inactive)
ROOT
ATOM      1  O1  BZF d   1       0.077   0.185  -1.058  0.00  0.00    -0.204 OA
ATOM      2  C2  BZF d   1       0.309  -0.745  -0.063  0.00  0.00     0.174 A 
ATOM      3  C3  BZF d   1       0.130  -0.197   1.156  0.00  0.00    -0.012 A 
ATOM      4  C3A BZF d   1      -0.327   1.136   0.905  0.00  0.00    -0.107 A 
ATOM      5  C4  BZF d   1      -0.691   2.172   1.717  0.00  0.00     0.055 A 
ATOM      6  C5  BZF d   1      -1.018   3.366   1.158  0.00  0.00    -0.016 A 
ATOM      7  C6  BZF d   1      -0.988   3.561  -0.207  0.00  0.00     0.022 A 
ATOM      8  C7  BZF d   1      -0.639   2.562  -1.054  0.00  0.00     0.029 A 
ATOM      9  C7A BZF d   1      -0.339   1.344  -0.493  0.00  0.00     0.058 A 
ENDROOT
TORSDOF 0
ENDMDL
