MODEL 1
REMARK minimizedAffinity -4.94570208
REMARK minimizedRMSD -1
REMARK  0 active torsions:
REMARK  status: ('A' for Active; 'I' for Inactive)
ROOT
ATOM      1  O1  BZF d   1      -0.841   2.169  -0.814  0.00  0.00    -0.204 OA
ATOM      2  C2  BZF d   1      -1.446   3.284  -0.267  0.00  0.00     0.174 A 
ATOM      3  C3  BZF d   1      -1.528   3.175   1.075  0.00  0.00    -0.012 A 
ATOM      4  C3A BZF d   1      -0.853   1.954   1.395  0.00  0.00    -0.107 A 
ATOM      5  C4  BZF d   1      -0.587   1.308   2.568  0.00  0.00     0.055 A 
ATOM      6  C5  BZF d   1       0.028   0.097   2.530  0.00  0.00    -0.016 A 
ATOM      7  C6  BZF d   1       0.386  -0.499   1.339  0.00  0.00     0.022 A 
ATOM      8  C7  BZF d   1       0.148   0.106   0.150  0.00  0.00     0.029 A 
ATOM      9  C7A BZF d   1      -0.444   1.345   0.186  0.00  0.00     0.058 A 
ENDROOT
TORSDOF 0
ENDMDL
