MODEL 1
REMARK minimizedAffinity -4.13341618
REMARK minimizedRMSD -1
REMARK  0 active torsions:
REMARK  status: ('A' for Active; 'I' for Inactive)
ROOT
ATOM      1  O1  BZF d   1      -0.236   0.307  -0.638  0.00  0.00    -0.204 OA
ATOM      2  C2  BZF d   1      -0.192  -0.669   0.339  0.00  0.00     0.174 A 
ATOM      3  C3  BZF d   1      -0.364  -0.130   1.563  0.00  0.00    -0.012 A 
ATOM      4  C3A BZF d   1      -0.617   1.259   1.330  0.00  0.00    -0.107 A 
ATOM      5  C4  BZF d   1      -0.882   2.316   2.153  0.00  0.00     0.055 A 
ATOM      6  C5  BZF d   1      -1.009   3.557   1.614  0.00  0.00    -0.016 A 
ATOM      7  C6  BZF d   1      -0.873   3.778   0.259  0.00  0.00     0.022 A 
ATOM      8  C7  BZF d   1      -0.616   2.759  -0.598  0.00  0.00     0.029 A 
ATOM      9  C7A BZF d   1      -0.520   1.499  -0.060  0.00  0.00     0.058 A 
ENDROOT
TORSDOF 0
ENDMDL
