MODEL 1
REMARK minimizedAffinity -6.62069988
REMARK minimizedRMSD -1
REMARK  0 active torsions:
REMARK  status: ('A' for Active; 'I' for Inactive)
ROOT
ATOM      1  O1  BZF d   1      -0.206   0.503  -1.035  0.00  0.00    -0.204 OA
ATOM      2  C2  BZF d   1       0.289  -0.455  -0.172  0.00  0.00     0.174 A 
ATOM      3  C3  BZF d   1       0.301   0.003   1.096  0.00  0.00    -0.012 A 
ATOM      4  C3A BZF d   1      -0.305   1.298   1.034  0.00  0.00    -0.107 A 
ATOM      5  C4  BZF d   1      -0.593   2.246   1.974  0.00  0.00     0.055 A 
ATOM      6  C5  BZF d   1      -1.120   3.433   1.575  0.00  0.00    -0.016 A 
ATOM      7  C6  BZF d   1      -1.367   3.707   0.246  0.00  0.00     0.022 A 
ATOM      8  C7  BZF d   1      -1.103   2.796  -0.722  0.00  0.00     0.029 A 
ATOM      9  C7A BZF d   1      -0.601   1.583  -0.319  0.00  0.00     0.058 A 
ENDROOT
TORSDOF 0
ENDMDL
