MODEL 1
REMARK minimizedAffinity -1.79602945
REMARK minimizedRMSD -1
REMARK  0 active torsions:
REMARK  status: ('A' for Active; 'I' for Inactive)
ROOT
ATOM      1  O1  BZF d   1      -0.135   3.773  -0.538  0.00  0.00    -0.204 OA
ATOM      2  C2  BZF d   1      -0.261   3.427  -1.870  0.00  0.00     0.174 A 
ATOM      3  C3  BZF d   1      -0.109   2.097  -2.035  0.00  0.00    -0.012 A 
ATOM      4  C3A BZF d   1       0.035   1.568  -0.713  0.00  0.00    -0.107 A 
ATOM      5  C4  BZF d   1       0.203   0.306  -0.221  0.00  0.00     0.055 A 
ATOM      6  C5  BZF d   1       0.385   0.137   1.115  0.00  0.00    -0.016 A 
ATOM      7  C6  BZF d   1       0.409   1.207   1.986  0.00  0.00     0.022 A 
ATOM      8  C7  BZF d   1       0.241   2.477   1.545  0.00  0.00     0.029 A 
ATOM      9  C7A BZF d   1       0.024   2.648   0.199  0.00  0.00     0.058 A 
ENDROOT
TORSDOF 0
ENDMDL
