MODEL 1
REMARK minimizedAffinity -4.69478607
REMARK minimizedRMSD -1
REMARK  0 active torsions:
REMARK  status: ('A' for Active; 'I' for Inactive)
ROOT
ATOM      1  O1  BZF d   1       0.029   2.568  -1.791  0.00  0.00    -0.204 OA
ATOM      2  C2  BZF d   1      -0.225   3.749  -1.121  0.00  0.00     0.174 A 
ATOM      3  C3  BZF d   1      -0.263   3.544   0.212  0.00  0.00    -0.012 A 
ATOM      4  C3A BZF d   1       0.073   2.164   0.390  0.00  0.00    -0.107 A 
ATOM      5  C4  BZF d   1       0.215   1.367   1.489  0.00  0.00     0.055 A 
ATOM      6  C5  BZF d   1       0.479   0.045   1.316  0.00  0.00    -0.016 A 
ATOM      7  C6  BZF d   1       0.601  -0.513   0.061  0.00  0.00     0.022 A 
ATOM      8  C7  BZF d   1       0.473   0.239  -1.059  0.00  0.00     0.029 A 
ATOM      9  C7A BZF d   1       0.240   1.581  -0.888  0.00  0.00     0.058 A 
ENDROOT
TORSDOF 0
ENDMDL
