MODEL 1
REMARK minimizedAffinity -1.85238087
REMARK minimizedRMSD -1
REMARK  0 active torsions:
REMARK  status: ('A' for Active; 'I' for Inactive)
ROOT
ATOM      1  O1  BZF d   1       0.824   0.034  -1.307  0.00  0.00    -0.204 OA
ATOM      2  C2  BZF d   1       0.675  -1.339  -1.288  0.00  0.00     0.174 A 
ATOM      3  C3  BZF d   1       0.416  -1.775  -0.038  0.00  0.00    -0.012 A 
ATOM      4  C3A BZF d   1       0.310  -0.591   0.758  0.00  0.00    -0.107 A 
ATOM      5  C4  BZF d   1       0.048  -0.369   2.080  0.00  0.00     0.055 A 
ATOM      6  C5  BZF d   1       0.089   0.903   2.557  0.00  0.00    -0.016 A 
ATOM      7  C6  BZF d   1       0.393   1.974   1.743  0.00  0.00     0.022 A 
ATOM      8  C7  BZF d   1       0.654   1.805   0.424  0.00  0.00     0.029 A 
ATOM      9  C7A BZF d   1       0.582   0.524  -0.068  0.00  0.00     0.058 A 
ENDROOT
TORSDOF 0
ENDMDL
