MODEL 1
REMARK minimizedAffinity 5.31137466
REMARK minimizedRMSD -1
REMARK  0 active torsions:
REMARK  status: ('A' for Active; 'I' for Inactive)
ROOT
ATOM      1  O1  BZF d   1      -0.828  -4.816  -1.997  0.00  0.00    -0.204 OA
ATOM      2  C2  BZF d   1      -0.437  -4.350  -0.757  0.00  0.00     0.174 A 
ATOM      3  C3  BZF d   1      -0.703  -3.033  -0.635  0.00  0.00    -0.012 A 
ATOM      4  C3A BZF d   1      -1.382  -2.673  -1.842  0.00  0.00    -0.107 A 
ATOM      5  C4  BZF d   1      -1.915  -1.505  -2.306  0.00  0.00     0.055 A 
ATOM      6  C5  BZF d   1      -2.444  -1.471  -3.557  0.00  0.00    -0.016 A 
ATOM      7  C6  BZF d   1      -2.452  -2.585  -4.372  0.00  0.00     0.022 A 
ATOM      8  C7  BZF d   1      -1.939  -3.767  -3.953  0.00  0.00     0.029 A 
ATOM      9  C7A BZF d   1      -1.434  -3.813  -2.677  0.00  0.00     0.058 A 
ENDROOT
TORSDOF 0
ENDMDL
