MODEL 1
REMARK minimizedAffinity 0.484326988
REMARK minimizedRMSD -1
REMARK  1 active torsions:
REMARK  status: ('A' for Active; 'I' for Inactive)
REMARK    1  A    between atoms: C1_2  and  C2_3 
ROOT
ATOM      1  C2  UNL d   1       1.060  -2.182   0.995  0.00  0.00    -0.077 A 
ATOM      2  C3  UNL d   1       0.605  -2.236   2.320  0.00  0.00     0.002 A 
ATOM      3  C4  UNL d   1      -0.357  -1.331   2.773  0.00  0.00     0.002 A 
ATOM      4  C5  UNL d   1      -0.874  -0.369   1.907  0.00  0.00    -0.004 A 
ATOM      5  C6  UNL d   1      -0.426  -0.306   0.589  0.00  0.00     0.002 A 
ATOM      6  C7  UNL d   1       0.536  -1.209   0.134  0.00  0.00     0.002 A 
ENDROOT
BRANCH   1   7
ATOM      7  C1  UNL d   1       2.061  -3.189   0.490  0.00  0.00     0.055 C 
ATOM      8  C   UNL d   1       2.818  -3.840   1.639  0.00  0.00     0.019 C 
ENDBRANCH   1   7
TORSDOF 1
ENDMDL
