MODEL 1
REMARK minimizedAffinity 4.8856802
REMARK minimizedRMSD -1
REMARK  1 active torsions:
REMARK  status: ('A' for Active; 'I' for Inactive)
REMARK    1  A    between atoms: C1_2  and  C2_3 
ROOT
ATOM      1  C2  UNL d   1      -0.669  -1.021   2.580  0.00  0.00    -0.077 A 
ATOM      2  C3  UNL d   1       0.396  -1.862   2.229  0.00  0.00     0.002 A 
ATOM      3  C4  UNL d   1       0.416  -3.192   2.655  0.00  0.00     0.002 A 
ATOM      4  C5  UNL d   1      -0.628  -3.692   3.429  0.00  0.00    -0.004 A 
ATOM      5  C6  UNL d   1      -1.691  -2.863   3.785  0.00  0.00     0.002 A 
ATOM      6  C7  UNL d   1      -1.712  -1.533   3.362  0.00  0.00     0.002 A 
ENDROOT
BRANCH   1   7
ATOM      7  C1  UNL d   1      -0.716   0.400   2.080  0.00  0.00     0.055 C 
ATOM      8  C   UNL d   1      -2.143   0.834   1.780  0.00  0.00     0.019 C 
ENDBRANCH   1   7
TORSDOF 1
ENDMDL
