MODEL 1
REMARK minimizedAffinity 2.83642793
REMARK minimizedRMSD -1
REMARK  1 active torsions:
REMARK  status: ('A' for Active; 'I' for Inactive)
REMARK    1  A    between atoms: C1_2  and  C2_3 
ROOT
ATOM      1  C2  UNL d   1       2.184   1.008  -0.626  0.00  0.00    -0.077 A 
ATOM      2  C3  UNL d   1       3.301   0.367  -0.073  0.00  0.00     0.002 A 
ATOM      3  C4  UNL d   1       4.449   1.096   0.243  0.00  0.00     0.002 A 
ATOM      4  C5  UNL d   1       4.489   2.469   0.013  0.00  0.00    -0.004 A 
ATOM      5  C6  UNL d   1       3.384   3.116  -0.539  0.00  0.00     0.002 A 
ATOM      6  C7  UNL d   1       2.236   2.388  -0.856  0.00  0.00     0.002 A 
ENDROOT
BRANCH   1   7
ATOM      7  C1  UNL d   1       0.927   0.231  -0.922  0.00  0.00     0.055 C 
ATOM      8  C   UNL d   1      -0.233   0.707  -0.059  0.00  0.00     0.019 C 
ENDBRANCH   1   7
TORSDOF 1
ENDMDL
