MODEL 1
REMARK minimizedAffinity 3.4519465
REMARK minimizedRMSD -1
REMARK  1 active torsions:
REMARK  status: ('A' for Active; 'I' for Inactive)
REMARK    1  A    between atoms: C1_2  and  C2_3 
ROOT
ATOM      1  C2  UNL d   1       0.443  -1.022   0.719  0.00  0.00    -0.077 A 
ATOM      2  C3  UNL d   1       1.208  -2.189   0.850  0.00  0.00     0.002 A 
ATOM      3  C4  UNL d   1       1.069  -3.003   1.976  0.00  0.00     0.002 A 
ATOM      4  C5  UNL d   1       0.163  -2.660   2.977  0.00  0.00    -0.004 A 
ATOM      5  C6  UNL d   1      -0.601  -1.500   2.858  0.00  0.00     0.002 A 
ATOM      6  C7  UNL d   1      -0.463  -0.685   1.733  0.00  0.00     0.002 A 
ENDROOT
BRANCH   1   7
ATOM      7  C1  UNL d   1       0.556  -0.170  -0.518  0.00  0.00     0.055 C 
ATOM      8  C   UNL d   1      -0.789  -0.028  -1.217  0.00  0.00     0.019 C 
ENDBRANCH   1   7
TORSDOF 1
ENDMDL
