MODEL 1
REMARK minimizedAffinity 7.07176876
REMARK minimizedRMSD -1
REMARK  1 active torsions:
REMARK  status: ('A' for Active; 'I' for Inactive)
REMARK    1  A    between atoms: C1_2  and  C2_3 
ROOT
ATOM      1  C2  UNL d   1       5.096  -1.809   0.119  0.00  0.00    -0.077 A 
ATOM      2  C3  UNL d   1       3.780  -1.457  -0.213  0.00  0.00     0.002 A 
ATOM      3  C4  UNL d   1       3.377  -0.121  -0.184  0.00  0.00     0.002 A 
ATOM      4  C5  UNL d   1       4.285   0.875   0.170  0.00  0.00    -0.004 A 
ATOM      5  C6  UNL d   1       5.596   0.535   0.504  0.00  0.00     0.002 A 
ATOM      6  C7  UNL d   1       5.999  -0.800   0.478  0.00  0.00     0.002 A 
ENDROOT
BRANCH   1   7
ATOM      7  C1  UNL d   1       5.545  -3.244   0.042  0.00  0.00     0.055 C 
ATOM      8  C   UNL d   1       4.541  -4.099  -0.719  0.00  0.00     0.019 C 
ENDBRANCH   1   7
TORSDOF 1
ENDMDL
