MODEL 1
REMARK minimizedAffinity 12.4528675
REMARK minimizedRMSD -1
REMARK  1 active torsions:
REMARK  status: ('A' for Active; 'I' for Inactive)
REMARK    1  A    between atoms: C1_2  and  C2_3 
ROOT
ATOM      1  C2  UNL d   1       4.779  -3.864   4.134  0.00  0.00    -0.077 A 
ATOM      2  C3  UNL d   1       5.258  -3.254   2.967  0.00  0.00     0.002 A 
ATOM      3  C4  UNL d   1       5.405  -3.994   1.792  0.00  0.00     0.002 A 
ATOM      4  C5  UNL d   1       5.071  -5.347   1.773  0.00  0.00    -0.004 A 
ATOM      5  C6  UNL d   1       4.596  -5.963   2.930  0.00  0.00     0.002 A 
ATOM      6  C7  UNL d   1       4.450  -5.225   4.105  0.00  0.00     0.002 A 
ENDROOT
BRANCH   1   7
ATOM      7  C1  UNL d   1       4.573  -3.056   5.389  0.00  0.00     0.055 C 
ATOM      8  C   UNL d   1       5.901  -2.632   5.999  0.00  0.00     0.019 C 
ENDBRANCH   1   7
TORSDOF 1
ENDMDL
