MODEL 1
REMARK minimizedAffinity -1.06902242
REMARK minimizedRMSD -1
REMARK  1 active torsions:
REMARK  status: ('A' for Active; 'I' for Inactive)
REMARK    1  A    between atoms: C1_2  and  C2_3 
ROOT
ATOM      1  C2  UNL d   1       2.274  -1.060  -0.062  0.00  0.00    -0.077 A 
ATOM      2  C3  UNL d   1       3.417  -0.326   0.286  0.00  0.00     0.002 A 
ATOM      3  C4  UNL d   1       3.833   0.748  -0.503  0.00  0.00     0.002 A 
ATOM      4  C5  UNL d   1       3.110   1.100  -1.641  0.00  0.00    -0.004 A 
ATOM      5  C6  UNL d   1       1.973   0.375  -1.996  0.00  0.00     0.002 A 
ATOM      6  C7  UNL d   1       1.557  -0.700  -1.209  0.00  0.00     0.002 A 
ENDROOT
BRANCH   1   7
ATOM      7  C1  UNL d   1       1.796  -2.188   0.815  0.00  0.00     0.055 C 
ATOM      8  C   UNL d   1       2.697  -3.408   0.688  0.00  0.00     0.019 C 
ENDBRANCH   1   7
TORSDOF 1
ENDMDL
