MODEL 1
REMARK minimizedAffinity -1.51592577
REMARK minimizedRMSD -1
REMARK  1 active torsions:
REMARK  status: ('A' for Active; 'I' for Inactive)
REMARK    1  A    between atoms: C1_2  and  C2_3 
ROOT
ATOM      1  C2  UNL d   1       1.076  -2.965   1.940  0.00  0.00    -0.077 A 
ATOM      2  C3  UNL d   1       0.194  -2.757   3.010  0.00  0.00     0.002 A 
ATOM      3  C4  UNL d   1      -0.649  -1.644   3.024  0.00  0.00     0.002 A 
ATOM      4  C5  UNL d   1      -0.621  -0.733   1.970  0.00  0.00    -0.004 A 
ATOM      5  C6  UNL d   1       0.254  -0.930   0.903  0.00  0.00     0.002 A 
ATOM      6  C7  UNL d   1       1.098  -2.041   0.888  0.00  0.00     0.002 A 
ENDROOT
BRANCH   1   7
ATOM      7  C1  UNL d   1       1.951  -4.191   1.899  0.00  0.00     0.055 C 
ATOM      8  C   UNL d   1       2.931  -4.132   0.737  0.00  0.00     0.019 C 
ENDBRANCH   1   7
TORSDOF 1
ENDMDL
