MODEL 1
REMARK minimizedAffinity 11.8720112
REMARK minimizedRMSD -1
REMARK  3 active torsions:
REMARK  status: ('A' for Active; 'I' for Inactive)
REMARK    1  A    between atoms: C3'_2  and  C2'_3 
REMARK    2  A    between atoms: C2'_3  and  C1'_4 
REMARK    3  A    between atoms: C1'_4  and  C1_5 
ROOT
ATOM      1  C1  N4B d   1       3.422  -0.367  -0.347  0.00  0.00    -0.075 A 
ATOM      2  C2  N4B d   1       2.292  -1.144  -0.686  0.00  0.00     0.002 A 
ATOM      3  C3  N4B d   1       2.359  -2.514  -0.630  0.00  0.00     0.002 A 
ATOM      4  C4  N4B d   1       3.546  -3.128  -0.257  0.00  0.00    -0.004 A 
ATOM      5  C5  N4B d   1       4.625  -2.370   0.093  0.00  0.00     0.002 A 
ATOM      6  C6  N4B d   1       4.570  -0.991   0.045  0.00  0.00     0.002 A 
ENDROOT
BRANCH   1   7
ATOM      7  C1' N4B d   1       3.423   1.132  -0.477  0.00  0.00     0.057 C 
BRANCH   7   8
ATOM      8  C2' N4B d   1       4.268   1.731   0.644  0.00  0.00     0.009 C 
BRANCH   8   9
ATOM      9  C3' N4B d   1       3.457   2.654   1.536  0.00  0.00     0.004 C 
ATOM     10  C4' N4B d   1       2.390   1.932   2.303  0.00  0.00     0.003 C 
ENDBRANCH   8   9
ENDBRANCH   7   8
ENDBRANCH   1   7
TORSDOF 3
ENDMDL
