MODEL 1
REMARK minimizedAffinity 5.69558477
REMARK minimizedRMSD -1
REMARK  3 active torsions:
REMARK  status: ('A' for Active; 'I' for Inactive)
REMARK    1  A    between atoms: C3'_2  and  C2'_3 
REMARK    2  A    between atoms: C2'_3  and  C1'_4 
REMARK    3  A    between atoms: C1'_4  and  C1_5 
ROOT
ATOM      1  C1  N4B d   1      -3.798  -0.002   2.561  0.00  0.00    -0.075 A 
ATOM      2  C2  N4B d   1      -4.536   0.189   3.750  0.00  0.00     0.002 A 
ATOM      3  C3  N4B d   1      -5.621  -0.608   4.019  0.00  0.00     0.002 A 
ATOM      4  C4  N4B d   1      -5.998  -1.584   3.109  0.00  0.00    -0.004 A 
ATOM      5  C5  N4B d   1      -5.265  -1.779   1.975  0.00  0.00     0.002 A 
ATOM      6  C6  N4B d   1      -4.169  -0.988   1.694  0.00  0.00     0.002 A 
ENDROOT
BRANCH   1   7
ATOM      7  C1' N4B d   1      -2.655   0.901   2.182  0.00  0.00     0.057 C 
BRANCH   7   8
ATOM      8  C2' N4B d   1      -1.843   0.242   1.071  0.00  0.00     0.009 C 
BRANCH   8   9
ATOM      9  C3' N4B d   1      -0.386   0.063   1.460  0.00  0.00     0.004 C 
ATOM     10  C4' N4B d   1      -0.078  -1.326   1.935  0.00  0.00     0.003 C 
ENDBRANCH   8   9
ENDBRANCH   7   8
ENDBRANCH   1   7
TORSDOF 3
ENDMDL
