MODEL 1
REMARK minimizedAffinity 8.82950401
REMARK minimizedRMSD -1
REMARK  3 active torsions:
REMARK  status: ('A' for Active; 'I' for Inactive)
REMARK    1  A    between atoms: C3'_2  and  C2'_3 
REMARK    2  A    between atoms: C2'_3  and  C1'_4 
REMARK    3  A    between atoms: C1'_4  and  C1_5 
ROOT
ATOM      1  C1  N4B d   1      -2.305  -0.365   3.112  0.00  0.00    -0.075 A 
ATOM      2  C2  N4B d   1      -1.742  -1.164   4.132  0.00  0.00     0.002 A 
ATOM      3  C3  N4B d   1      -0.416  -1.515   4.076  0.00  0.00     0.002 A 
ATOM      4  C4  N4B d   1       0.360  -1.095   3.006  0.00  0.00    -0.004 A 
ATOM      5  C5  N4B d   1      -0.184  -0.302   2.039  0.00  0.00     0.002 A 
ATOM      6  C6  N4B d   1      -1.515   0.062   2.084  0.00  0.00     0.002 A 
ENDROOT
BRANCH   1   7
ATOM      7  C1' N4B d   1      -3.770  -0.027   3.085  0.00  0.00     0.057 C 
BRANCH   7   8
ATOM      8  C2' N4B d   1      -4.564  -1.195   3.664  0.00  0.00     0.009 C 
BRANCH   8   9
ATOM      9  C3' N4B d   1      -5.968  -1.268   3.089  0.00  0.00     0.004 C 
ATOM     10  C4' N4B d   1      -5.997  -1.821   1.695  0.00  0.00     0.003 C 
ENDBRANCH   8   9
ENDBRANCH   7   8
ENDBRANCH   1   7
TORSDOF 3
ENDMDL
