MODEL 1
REMARK minimizedAffinity 1.03355265
REMARK minimizedRMSD -1
REMARK  3 active torsions:
REMARK  status: ('A' for Active; 'I' for Inactive)
REMARK    1  A    between atoms: C3'_2  and  C2'_3 
REMARK    2  A    between atoms: C2'_3  and  C1'_4 
REMARK    3  A    between atoms: C1'_4  and  C1_5 
ROOT
ATOM      1  C1  N4B d   1       2.681  -0.485  -1.754  0.00  0.00    -0.075 A 
ATOM      2  C2  N4B d   1       2.219  -0.343  -3.082  0.00  0.00     0.002 A 
ATOM      3  C3  N4B d   1       1.923   0.904  -3.576  0.00  0.00     0.002 A 
ATOM      4  C4  N4B d   1       2.062   2.016  -2.759  0.00  0.00    -0.004 A 
ATOM      5  C5  N4B d   1       2.532   1.872  -1.486  0.00  0.00     0.002 A 
ATOM      6  C6  N4B d   1       2.838   0.626  -0.978  0.00  0.00     0.002 A 
ENDROOT
BRANCH   1   7
ATOM      7  C1' N4B d   1       2.935  -1.836  -1.143  0.00  0.00     0.057 C 
BRANCH   7   8
ATOM      8  C2' N4B d   1       1.602  -2.538  -0.906  0.00  0.00     0.009 C 
BRANCH   8   9
ATOM      9  C3' N4B d   1       1.438  -3.761  -1.792  0.00  0.00     0.004 C 
ATOM     10  C4' N4B d   1       0.690  -3.465  -3.058  0.00  0.00     0.003 C 
ENDBRANCH   8   9
ENDBRANCH   7   8
ENDBRANCH   1   7
TORSDOF 3
ENDMDL
