MODEL 1
REMARK minimizedAffinity 4.32821798
REMARK minimizedRMSD -1
REMARK  3 active torsions:
REMARK  status: ('A' for Active; 'I' for Inactive)
REMARK    1  A    between atoms: C3'_2  and  C2'_3 
REMARK    2  A    between atoms: C2'_3  and  C1'_4 
REMARK    3  A    between atoms: C1'_4  and  C1_5 
ROOT
ATOM      1  C1  N4B d   1      -4.460  -3.821  -4.022  0.00  0.00    -0.075 A 
ATOM      2  C2  N4B d   1      -4.662  -4.891  -3.123  0.00  0.00     0.002 A 
ATOM      3  C3  N4B d   1      -5.417  -5.974  -3.503  0.00  0.00     0.002 A 
ATOM      4  C4  N4B d   1      -5.993  -6.000  -4.764  0.00  0.00    -0.004 A 
ATOM      5  C5  N4B d   1      -5.772  -4.974  -5.636  0.00  0.00     0.002 A 
ATOM      6  C6  N4B d   1      -5.013  -3.881  -5.269  0.00  0.00     0.002 A 
ENDROOT
BRANCH   1   7
ATOM      7  C1' N4B d   1      -3.714  -2.577  -3.622  0.00  0.00     0.057 C 
BRANCH   7   8
ATOM      8  C2' N4B d   1      -2.473  -2.435  -4.498  0.00  0.00     0.009 C 
BRANCH   8   9
ATOM      9  C3' N4B d   1      -1.369  -1.661  -3.797  0.00  0.00     0.004 C 
ATOM     10  C4' N4B d   1      -1.788  -0.273  -3.413  0.00  0.00     0.003 C 
ENDBRANCH   8   9
ENDBRANCH   7   8
ENDBRANCH   1   7
TORSDOF 3
ENDMDL
