MODEL 1
REMARK minimizedAffinity 4.26266575
REMARK minimizedRMSD -1
REMARK  3 active torsions:
REMARK  status: ('A' for Active; 'I' for Inactive)
REMARK    1  A    between atoms: C3'_2  and  C2'_3 
REMARK    2  A    between atoms: C2'_3  and  C1'_4 
REMARK    3  A    between atoms: C1'_4  and  C1_5 
ROOT
ATOM      1  C1  N4B d   1      -5.030  -4.876  -3.837  0.00  0.00    -0.075 A 
ATOM      2  C2  N4B d   1      -4.885  -3.472  -3.806  0.00  0.00     0.002 A 
ATOM      3  C3  N4B d   1      -5.298  -2.715  -4.875  0.00  0.00     0.002 A 
ATOM      4  C4  N4B d   1      -5.840  -3.339  -5.988  0.00  0.00    -0.004 A 
ATOM      5  C5  N4B d   1      -6.000  -4.694  -6.000  0.00  0.00     0.002 A 
ATOM      6  C6  N4B d   1      -5.593  -5.467  -4.931  0.00  0.00     0.002 A 
ENDROOT
BRANCH   1   7
ATOM      7  C1' N4B d   1      -4.514  -5.752  -2.728  0.00  0.00     0.057 C 
BRANCH   7   8
ATOM      8  C2' N4B d   1      -3.608  -4.928  -1.819  0.00  0.00     0.009 C 
BRANCH   8   9
ATOM      9  C3' N4B d   1      -2.280  -5.619  -1.562  0.00  0.00     0.004 C 
ATOM     10  C4' N4B d   1      -1.127  -4.925  -2.224  0.00  0.00     0.003 C 
ENDBRANCH   8   9
ENDBRANCH   7   8
ENDBRANCH   1   7
TORSDOF 3
ENDMDL
