MODEL 1
REMARK minimizedAffinity 6.42613077
REMARK minimizedRMSD -1
REMARK  3 active torsions:
REMARK  status: ('A' for Active; 'I' for Inactive)
REMARK    1  A    between atoms: C3'_2  and  C2'_3 
REMARK    2  A    between atoms: C2'_3  and  C1'_4 
REMARK    3  A    between atoms: C1'_4  and  C1_5 
ROOT
ATOM      1  C1  N4B d   1      -2.584   1.643   2.999  0.00  0.00    -0.075 A 
ATOM      2  C2  N4B d   1      -1.460   2.104   2.280  0.00  0.00     0.002 A 
ATOM      3  C3  N4B d   1      -0.437   1.239   1.977  0.00  0.00     0.002 A 
ATOM      4  C4  N4B d   1      -0.508  -0.081   2.397  0.00  0.00    -0.004 A 
ATOM      5  C5  N4B d   1      -1.609  -0.524   3.069  0.00  0.00     0.002 A 
ATOM      6  C6  N4B d   1      -2.646   0.333   3.377  0.00  0.00     0.002 A 
ENDROOT
BRANCH   1   7
ATOM      7  C1' N4B d   1      -3.688   2.571   3.428  0.00  0.00     0.057 C 
BRANCH   7   8
ATOM      8  C2' N4B d   1      -3.076   3.866   3.954  0.00  0.00     0.009 C 
BRANCH   8   9
ATOM      9  C3' N4B d   1      -2.747   3.779   5.435  0.00  0.00     0.004 C 
ATOM     10  C4' N4B d   1      -2.259   5.079   5.999  0.00  0.00     0.003 C 
ENDBRANCH   8   9
ENDBRANCH   7   8
ENDBRANCH   1   7
TORSDOF 3
ENDMDL
