MODEL 1
REMARK minimizedAffinity 7.09816504
REMARK minimizedRMSD -1
REMARK  3 active torsions:
REMARK  status: ('A' for Active; 'I' for Inactive)
REMARK    1  A    between atoms: C3'_2  and  C2'_3 
REMARK    2  A    between atoms: C2'_3  and  C1'_4 
REMARK    3  A    between atoms: C1'_4  and  C1_5 
ROOT
ATOM      1  C1  N4B d   1       1.096  -3.401  -2.784  0.00  0.00    -0.075 A 
ATOM      2  C2  N4B d   1       1.123  -2.114  -3.364  0.00  0.00     0.002 A 
ATOM      3  C3  N4B d   1       1.895  -1.125  -2.805  0.00  0.00     0.002 A 
ATOM      4  C4  N4B d   1       2.629  -1.393  -1.660  0.00  0.00    -0.004 A 
ATOM      5  C5  N4B d   1       2.617  -2.646  -1.120  0.00  0.00     0.002 A 
ATOM      6  C6  N4B d   1       1.850  -3.651  -1.674  0.00  0.00     0.002 A 
ENDROOT
BRANCH   1   7
ATOM      7  C1' N4B d   1       0.201  -4.490  -3.310  0.00  0.00     0.057 C 
BRANCH   7   8
ATOM      8  C2' N4B d   1       0.399  -5.749  -2.470  0.00  0.00     0.009 C 
BRANCH   8   9
ATOM      9  C3' N4B d   1      -0.772  -5.998  -1.536  0.00  0.00     0.004 C 
ATOM     10  C4' N4B d   1      -2.093  -5.997  -2.246  0.00  0.00     0.003 C 
ENDBRANCH   8   9
ENDBRANCH   7   8
ENDBRANCH   1   7
TORSDOF 3
ENDMDL
