MODEL 1
REMARK minimizedAffinity 7.7683773
REMARK minimizedRMSD -1
REMARK  3 active torsions:
REMARK  status: ('A' for Active; 'I' for Inactive)
REMARK    1  A    between atoms: C3'_2  and  C2'_3 
REMARK    2  A    between atoms: C2'_3  and  C1'_4 
REMARK    3  A    between atoms: C1'_4  and  C1_5 
ROOT
ATOM      1  C1  N4B d   1      -4.469  -3.728  -4.279  0.00  0.00    -0.075 A 
ATOM      2  C2  N4B d   1      -4.496  -4.903  -3.495  0.00  0.00     0.002 A 
ATOM      3  C3  N4B d   1      -5.247  -5.980  -3.897  0.00  0.00     0.002 A 
ATOM      4  C4  N4B d   1      -5.992  -5.899  -5.064  0.00  0.00    -0.004 A 
ATOM      5  C5  N4B d   1      -5.941  -4.770  -5.828  0.00  0.00     0.002 A 
ATOM      6  C6  N4B d   1      -5.187  -3.681  -5.439  0.00  0.00     0.002 A 
ENDROOT
BRANCH   1   7
ATOM      7  C1' N4B d   1      -3.731  -2.495  -3.836  0.00  0.00     0.057 C 
BRANCH   7   8
ATOM      8  C2' N4B d   1      -2.442  -2.366  -4.643  0.00  0.00     0.009 C 
BRANCH   8   9
ATOM      9  C3' N4B d   1      -1.302  -1.807  -3.809  0.00  0.00     0.004 C 
ATOM     10  C4' N4B d   1      -1.683  -0.561  -3.066  0.00  0.00     0.003 C 
ENDBRANCH   8   9
ENDBRANCH   7   8
ENDBRANCH   1   7
TORSDOF 3
ENDMDL
