MODEL 1
REMARK minimizedAffinity 4.70261526
REMARK minimizedRMSD -1
REMARK  3 active torsions:
REMARK  status: ('A' for Active; 'I' for Inactive)
REMARK    1  A    between atoms: C3'_2  and  C2'_3 
REMARK    2  A    between atoms: C2'_3  and  C1'_4 
REMARK    3  A    between atoms: C1'_4  and  C1_5 
ROOT
ATOM      1  C1  N4B d   1      -3.608  -3.859  -3.517  0.00  0.00    -0.075 A 
ATOM      2  C2  N4B d   1      -4.948  -3.434  -3.643  0.00  0.00     0.002 A 
ATOM      3  C3  N4B d   1      -5.972  -4.273  -3.279  0.00  0.00     0.002 A 
ATOM      4  C4  N4B d   1      -5.682  -5.544  -2.806  0.00  0.00    -0.004 A 
ATOM      5  C5  N4B d   1      -4.384  -5.938  -2.663  0.00  0.00     0.002 A 
ATOM      6  C6  N4B d   1      -3.345  -5.104  -3.021  0.00  0.00     0.002 A 
ENDROOT
BRANCH   1   7
ATOM      7  C1' N4B d   1      -2.457  -3.009  -3.982  0.00  0.00     0.057 C 
BRANCH   7   8
ATOM      8  C2' N4B d   1      -1.232  -3.894  -4.187  0.00  0.00     0.009 C 
BRANCH   8   9
ATOM      9  C3' N4B d   1      -0.072  -3.472  -3.302  0.00  0.00     0.004 C 
ATOM     10  C4' N4B d   1      -0.025  -1.991  -3.072  0.00  0.00     0.003 C 
ENDBRANCH   8   9
ENDBRANCH   7   8
ENDBRANCH   1   7
TORSDOF 3
ENDMDL
