MODEL 1
REMARK minimizedAffinity 4.45607948
REMARK minimizedRMSD -1
REMARK  3 active torsions:
REMARK  status: ('A' for Active; 'I' for Inactive)
REMARK    1  A    between atoms: C3'_2  and  C2'_3 
REMARK    2  A    between atoms: C2'_3  and  C1'_4 
REMARK    3  A    between atoms: C1'_4  and  C1_5 
ROOT
ATOM      1  C1  N4B d   1       2.572  -0.892  -1.461  0.00  0.00    -0.075 A 
ATOM      2  C2  N4B d   1       1.902  -1.289  -2.639  0.00  0.00     0.002 A 
ATOM      3  C3  N4B d   1       1.835  -2.619  -2.975  0.00  0.00     0.002 A 
ATOM      4  C4  N4B d   1       2.444  -3.564  -2.162  0.00  0.00    -0.004 A 
ATOM      5  C5  N4B d   1       3.067  -3.173  -1.013  0.00  0.00     0.002 A 
ATOM      6  C6  N4B d   1       3.139  -1.840  -0.661  0.00  0.00     0.002 A 
ENDROOT
BRANCH   1   7
ATOM      7  C1' N4B d   1       2.746   0.558  -1.098  0.00  0.00     0.057 C 
BRANCH   7   8
ATOM      8  C2' N4B d   1       3.560   0.657   0.189  0.00  0.00     0.009 C 
BRANCH   8   9
ATOM      9  C3' N4B d   1       4.003   2.082   0.472  0.00  0.00     0.004 C 
ATOM     10  C4' N4B d   1       3.157   2.759   1.509  0.00  0.00     0.003 C 
ENDBRANCH   8   9
ENDBRANCH   7   8
ENDBRANCH   1   7
TORSDOF 3
ENDMDL
