MODEL 1
REMARK minimizedAffinity -5.48606539
REMARK minimizedRMSD -1
REMARK  1 active torsions:
REMARK  status: ('A' for Active; 'I' for Inactive)
REMARK    1  A    between atoms: C1_2  and  C2_3 
ROOT
ATOM      1  C2  UNL d   1      -0.247  -0.126   0.121  0.00  0.00    -0.077 A 
ATOM      2  C3  UNL d   1      -0.613   1.139  -0.360  0.00  0.00     0.002 A 
ATOM      3  C4  UNL d   1      -1.439   1.971   0.398  0.00  0.00     0.002 A 
ATOM      4  C5  UNL d   1      -1.901   1.550   1.643  0.00  0.00    -0.004 A 
ATOM      5  C6  UNL d   1      -1.544   0.293   2.129  0.00  0.00     0.002 A 
ATOM      6  C7  UNL d   1      -0.720  -0.541   1.372  0.00  0.00     0.002 A 
ENDROOT
BRANCH   1   7
ATOM      7  C1  UNL d   1       0.683  -1.005  -0.674  0.00  0.00     0.055 C 
ATOM      8  C   UNL d   1      -0.090  -2.006  -1.520  0.00  0.00     0.019 C 
ENDBRANCH   1   7
TORSDOF 1
ENDMDL
