MODEL 1
REMARK minimizedAffinity -5.44332218
REMARK minimizedRMSD -1
REMARK  1 active torsions:
REMARK  status: ('A' for Active; 'I' for Inactive)
REMARK    1  A    between atoms: C1_2  and  C2_3 
ROOT
ATOM      1  C2  UNL d   1      -1.077   1.748   0.815  0.00  0.00    -0.077 A 
ATOM      2  C3  UNL d   1      -1.454   0.945   1.900  0.00  0.00     0.002 A 
ATOM      3  C4  UNL d   1      -1.112  -0.409   1.928  0.00  0.00     0.002 A 
ATOM      4  C5  UNL d   1      -0.389  -0.969   0.877  0.00  0.00    -0.004 A 
ATOM      5  C6  UNL d   1      -0.012  -0.178  -0.208  0.00  0.00     0.002 A 
ATOM      6  C7  UNL d   1      -0.354   1.174  -0.239  0.00  0.00     0.002 A 
ENDROOT
BRANCH   1   7
ATOM      7  C1  UNL d   1      -1.402   3.219   0.805  0.00  0.00     0.055 C 
ATOM      8  C   UNL d   1      -0.287   4.028   0.158  0.00  0.00     0.019 C 
ENDBRANCH   1   7
TORSDOF 1
ENDMDL
