MODEL 1
REMARK minimizedAffinity -2.9742713
REMARK minimizedRMSD -1
REMARK  1 active torsions:
REMARK  status: ('A' for Active; 'I' for Inactive)
REMARK    1  A    between atoms: C1_2  and  C2_3 
ROOT
ATOM      1  C2  UNL d   1      -0.845   0.576   1.254  0.00  0.00    -0.077 A 
ATOM      2  C3  UNL d   1      -0.396  -0.661   1.738  0.00  0.00     0.002 A 
ATOM      3  C4  UNL d   1       0.558  -1.393   1.029  0.00  0.00     0.002 A 
ATOM      4  C5  UNL d   1       1.074  -0.894  -0.165  0.00  0.00    -0.004 A 
ATOM      5  C6  UNL d   1       0.633   0.334  -0.656  0.00  0.00     0.002 A 
ATOM      6  C7  UNL d   1      -0.322   1.066   0.051  0.00  0.00     0.002 A 
ENDROOT
BRANCH   1   7
ATOM      7  C1  UNL d   1      -1.838   1.389   2.043  0.00  0.00     0.055 C 
ATOM      8  C   UNL d   1      -1.543   2.878   1.936  0.00  0.00     0.019 C 
ENDBRANCH   1   7
TORSDOF 1
ENDMDL
