MODEL 1
REMARK minimizedAffinity -5.53442383
REMARK minimizedRMSD -1
REMARK  1 active torsions:
REMARK  status: ('A' for Active; 'I' for Inactive)
REMARK    1  A    between atoms: C1_2  and  C2_3 
ROOT
ATOM      1  C2  UNL d   1      -0.040   0.038   0.248  0.00  0.00    -0.077 A 
ATOM      2  C3  UNL d   1      -0.393   1.277  -0.305  0.00  0.00     0.002 A 
ATOM      3  C4  UNL d   1      -1.421   2.035   0.259  0.00  0.00     0.002 A 
ATOM      4  C5  UNL d   1      -2.101   1.565   1.380  0.00  0.00    -0.004 A 
ATOM      5  C6  UNL d   1      -1.759   0.333   1.936  0.00  0.00     0.002 A 
ATOM      6  C7  UNL d   1      -0.733  -0.427   1.374  0.00  0.00     0.002 A 
ENDROOT
BRANCH   1   7
ATOM      7  C1  UNL d   1       1.101  -0.758  -0.328  0.00  0.00     0.055 C 
ATOM      8  C   UNL d   1       0.596  -1.905  -1.192  0.00  0.00     0.019 C 
ENDBRANCH   1   7
TORSDOF 1
ENDMDL
