MODEL 1
REMARK minimizedAffinity -3.17955518
REMARK minimizedRMSD -1
REMARK  1 active torsions:
REMARK  status: ('A' for Active; 'I' for Inactive)
REMARK    1  A    between atoms: C1_2  and  C2_3 
ROOT
ATOM      1  C2  UNL d   1       0.033  -0.107   0.096  0.00  0.00    -0.077 A 
ATOM      2  C3  UNL d   1      -0.840   0.735  -0.607  0.00  0.00     0.002 A 
ATOM      3  C4  UNL d   1      -1.764   1.526   0.079  0.00  0.00     0.002 A 
ATOM      4  C5  UNL d   1      -1.821   1.486   1.470  0.00  0.00    -0.004 A 
ATOM      5  C6  UNL d   1      -0.959   0.651   2.179  0.00  0.00     0.002 A 
ATOM      6  C7  UNL d   1      -0.035  -0.142   1.495  0.00  0.00     0.002 A 
ENDROOT
BRANCH   1   7
ATOM      7  C1  UNL d   1       1.063  -0.923  -0.638  0.00  0.00     0.055 C 
ATOM      8  C   UNL d   1       0.416  -2.052  -1.427  0.00  0.00     0.019 C 
ENDBRANCH   1   7
TORSDOF 1
ENDMDL
