MODEL 1
REMARK minimizedAffinity -4.48149014
REMARK minimizedRMSD -1
REMARK  1 active torsions:
REMARK  status: ('A' for Active; 'I' for Inactive)
REMARK    1  A    between atoms: C1_2  and  C2_3 
ROOT
ATOM      1  C2  UNL d   1       0.184   0.212  -0.335  0.00  0.00    -0.077 A 
ATOM      2  C3  UNL d   1       0.058  -0.298   0.965  0.00  0.00     0.002 A 
ATOM      3  C4  UNL d   1      -0.881   0.241   1.847  0.00  0.00     0.002 A 
ATOM      4  C5  UNL d   1      -1.704   1.288   1.437  0.00  0.00    -0.004 A 
ATOM      5  C6  UNL d   1      -1.586   1.802   0.147  0.00  0.00     0.002 A 
ATOM      6  C7  UNL d   1      -0.647   1.266  -0.735  0.00  0.00     0.002 A 
ENDROOT
BRANCH   1   7
ATOM      7  C1  UNL d   1       1.162  -0.400  -1.303  0.00  0.00     0.055 C 
ATOM      8  C   UNL d   1       1.138  -1.920  -1.228  0.00  0.00     0.019 C 
ENDBRANCH   1   7
TORSDOF 1
ENDMDL
