MODEL 1
REMARK minimizedAffinity -4.56788206
REMARK minimizedRMSD -1
REMARK  1 active torsions:
REMARK  status: ('A' for Active; 'I' for Inactive)
REMARK    1  A    between atoms: C1_2  and  C2_3 
ROOT
ATOM      1  C2  UNL d   1       0.694  -0.678  -0.941  0.00  0.00    -0.077 A 
ATOM      2  C3  UNL d   1      -0.054  -0.855   0.231  0.00  0.00     0.002 A 
ATOM      3  C4  UNL d   1      -0.732   0.222   0.806  0.00  0.00     0.002 A 
ATOM      4  C5  UNL d   1      -0.672   1.481   0.214  0.00  0.00    -0.004 A 
ATOM      5  C6  UNL d   1       0.071   1.668  -0.952  0.00  0.00     0.002 A 
ATOM      6  C7  UNL d   1       0.750   0.593  -1.527  0.00  0.00     0.002 A 
ENDROOT
BRANCH   1   7
ATOM      7  C1  UNL d   1       1.385  -1.849  -1.590  0.00  0.00     0.055 C 
ATOM      8  C   UNL d   1       0.584  -2.380  -2.770  0.00  0.00     0.019 C 
ENDBRANCH   1   7
TORSDOF 1
ENDMDL
