MODEL 1
REMARK minimizedAffinity -5.78055477
REMARK minimizedRMSD -1
REMARK  1 active torsions:
REMARK  status: ('A' for Active; 'I' for Inactive)
REMARK    1  A    between atoms: C1_2  and  C2_3 
ROOT
ATOM      1  C2  UNL d   1      -0.455   0.492   0.557  0.00  0.00    -0.077 A 
ATOM      2  C3  UNL d   1      -0.126   1.197  -0.610  0.00  0.00     0.002 A 
ATOM      3  C4  UNL d   1      -0.546   2.517  -0.779  0.00  0.00     0.002 A 
ATOM      4  C5  UNL d   1      -1.292   3.146   0.215  0.00  0.00    -0.004 A 
ATOM      5  C6  UNL d   1      -1.625   2.453   1.378  0.00  0.00     0.002 A 
ATOM      6  C7  UNL d   1      -1.208   1.132   1.549  0.00  0.00     0.002 A 
ENDROOT
BRANCH   1   7
ATOM      7  C1  UNL d   1       0.038  -0.916   0.763  0.00  0.00     0.055 C 
ATOM      8  C   UNL d   1       0.462  -1.553  -0.553  0.00  0.00     0.019 C 
ENDBRANCH   1   7
TORSDOF 1
ENDMDL
