MODEL 1
REMARK minimizedAffinity -5.53210306
REMARK minimizedRMSD -1
REMARK  1 active torsions:
REMARK  status: ('A' for Active; 'I' for Inactive)
REMARK    1  A    between atoms: C1_2  and  C2_3 
ROOT
ATOM      1  C2  UNL d   1      -0.494   0.836   1.090  0.00  0.00    -0.077 A 
ATOM      2  C3  UNL d   1       0.286   0.970  -0.067  0.00  0.00     0.002 A 
ATOM      3  C4  UNL d   1       0.367   2.199  -0.725  0.00  0.00     0.002 A 
ATOM      4  C5  UNL d   1      -0.327   3.302  -0.233  0.00  0.00    -0.004 A 
ATOM      5  C6  UNL d   1      -1.108   3.178   0.915  0.00  0.00     0.002 A 
ATOM      6  C7  UNL d   1      -1.191   1.950   1.574  0.00  0.00     0.002 A 
ENDROOT
BRANCH   1   7
ATOM      7  C1  UNL d   1      -0.543  -0.476   1.830  0.00  0.00     0.055 C 
ATOM      8  C   UNL d   1       0.836  -0.880   2.332  0.00  0.00     0.019 C 
ENDBRANCH   1   7
TORSDOF 1
ENDMDL
