MODEL 1
REMARK minimizedAffinity -5.68386412
REMARK minimizedRMSD -1
REMARK  1 active torsions:
REMARK  status: ('A' for Active; 'I' for Inactive)
REMARK    1  A    between atoms: C1_2  and  C2_3 
ROOT
ATOM      1  C2  UNL d   1       0.058   1.077  -0.238  0.00  0.00    -0.077 A 
ATOM      2  C3  UNL d   1      -0.119   2.405  -0.652  0.00  0.00     0.002 A 
ATOM      3  C4  UNL d   1      -1.046   3.227  -0.010  0.00  0.00     0.002 A 
ATOM      4  C5  UNL d   1      -1.800   2.733   1.052  0.00  0.00    -0.004 A 
ATOM      5  C6  UNL d   1      -1.633   1.414   1.470  0.00  0.00     0.002 A 
ATOM      6  C7  UNL d   1      -0.708   0.589   0.828  0.00  0.00     0.002 A 
ENDROOT
BRANCH   1   7
ATOM      7  C1  UNL d   1       1.092   0.203  -0.898  0.00  0.00     0.055 C 
ATOM      8  C   UNL d   1       0.623  -1.243  -0.982  0.00  0.00     0.019 C 
ENDBRANCH   1   7
TORSDOF 1
ENDMDL
