MODEL 1
REMARK minimizedAffinity -4.20676565
REMARK minimizedRMSD -1
REMARK  1 active torsions:
REMARK  status: ('A' for Active; 'I' for Inactive)
REMARK    1  A    between atoms: C1_2  and  C2_3 
ROOT
ATOM      1  C2  UNL d   1      -0.486   0.700   1.215  0.00  0.00    -0.077 A 
ATOM      2  C3  UNL d   1       0.030  -0.517   1.683  0.00  0.00     0.002 A 
ATOM      3  C4  UNL d   1       0.742  -1.359   0.827  0.00  0.00     0.002 A 
ATOM      4  C5  UNL d   1       0.948  -0.991  -0.501  0.00  0.00    -0.004 A 
ATOM      5  C6  UNL d   1       0.437   0.216  -0.977  0.00  0.00     0.002 A 
ATOM      6  C7  UNL d   1      -0.276   1.058  -0.123  0.00  0.00     0.002 A 
ENDROOT
BRANCH   1   7
ATOM      7  C1  UNL d   1      -1.212   1.631   2.149  0.00  0.00     0.055 C 
ATOM      8  C   UNL d   1      -2.418   2.266   1.472  0.00  0.00     0.019 C 
ENDBRANCH   1   7
TORSDOF 1
ENDMDL
