MODEL 1
REMARK minimizedAffinity -4.30806923
REMARK minimizedRMSD -1
REMARK  1 active torsions:
REMARK  status: ('A' for Active; 'I' for Inactive)
REMARK    1  A    between atoms: C1_2  and  C2_3 
ROOT
ATOM      1  C2  UNL d   1       0.323   0.151   0.198  0.00  0.00    -0.077 A 
ATOM      2  C3  UNL d   1      -0.356   1.307  -0.213  0.00  0.00     0.002 A 
ATOM      3  C4  UNL d   1      -1.156   2.013   0.688  0.00  0.00     0.002 A 
ATOM      4  C5  UNL d   1      -1.281   1.574   2.004  0.00  0.00    -0.004 A 
ATOM      5  C6  UNL d   1      -0.611   0.424   2.421  0.00  0.00     0.002 A 
ATOM      6  C7  UNL d   1       0.188  -0.284   1.522  0.00  0.00     0.002 A 
ENDROOT
BRANCH   1   7
ATOM      7  C1  UNL d   1       1.226  -0.585  -0.759  0.00  0.00     0.055 C 
ATOM      8  C   UNL d   1       0.480  -1.700  -1.477  0.00  0.00     0.019 C 
ENDBRANCH   1   7
TORSDOF 1
ENDMDL
