MODEL 1
REMARK minimizedAffinity -4.68209934
REMARK minimizedRMSD -1
REMARK  1 active torsions:
REMARK  status: ('A' for Active; 'I' for Inactive)
REMARK    1  A    between atoms: C1_2  and  C2_3 
ROOT
ATOM      1  C2  UNL d   1      -0.611   1.661  -0.027  0.00  0.00    -0.077 A 
ATOM      2  C3  UNL d   1      -1.368   1.797   1.145  0.00  0.00     0.002 A 
ATOM      3  C4  UNL d   1      -1.423   0.757   2.075  0.00  0.00     0.002 A 
ATOM      4  C5  UNL d   1      -0.719  -0.423   1.845  0.00  0.00    -0.004 A 
ATOM      5  C6  UNL d   1       0.036  -0.569   0.682  0.00  0.00     0.002 A 
ATOM      6  C7  UNL d   1       0.091   0.469  -0.249  0.00  0.00     0.002 A 
ENDROOT
BRANCH   1   7
ATOM      7  C1  UNL d   1      -0.511   2.800  -1.008  0.00  0.00     0.055 C 
ATOM      8  C   UNL d   1      -0.005   4.067  -0.334  0.00  0.00     0.019 C 
ENDBRANCH   1   7
TORSDOF 1
ENDMDL
