MODEL 1
REMARK minimizedAffinity -1.99432552
REMARK minimizedRMSD -1
REMARK  1 active torsions:
REMARK  status: ('A' for Active; 'I' for Inactive)
REMARK    1  A    between atoms: C1_2  and  C2_3 
ROOT
ATOM      1  C2  UNL d   1       3.657  -2.646  -5.085  0.00  0.00    -0.081 A 
ATOM      2  C3  UNL d   1       3.581  -3.942  -5.608  0.00  0.00     0.006 A 
ATOM      3  C4  UNL d   1       3.339  -5.032  -4.768  0.00  0.00     0.002 A 
ATOM      4  C5  UNL d   1       3.161  -4.842  -3.393  0.00  0.00    -0.080 A 
ATOM      5  C6  UNL d   1       2.870  -5.999  -2.485  0.00  0.00     0.076 C 
ATOM      6  C7  UNL d   1       3.254  -3.548  -2.869  0.00  0.00     0.002 A 
ATOM      7  C8  UNL d   1       3.496  -2.459  -3.708  0.00  0.00     0.006 A 
ENDROOT
BRANCH   1   8
ATOM      8  C1  UNL d   1       3.853  -1.462  -5.998  0.00  0.00     0.054 C 
ATOM      9  C   UNL d   1       5.304  -1.000  -6.000  0.00  0.00     0.018 C 
ENDBRANCH   1   8
TORSDOF 1
ENDMDL
