MODEL 1
REMARK minimizedAffinity -1.73851669
REMARK minimizedRMSD -1
REMARK  1 active torsions:
REMARK  status: ('A' for Active; 'I' for Inactive)
REMARK    1  A    between atoms: C1_2  and  C2_3 
ROOT
ATOM      1  C2  UNL d   1       2.028  -0.095   2.086  0.00  0.00    -0.081 A 
ATOM      2  C3  UNL d   1       2.132   1.092   1.351  0.00  0.00     0.006 A 
ATOM      3  C4  UNL d   1       1.181   1.408   0.378  0.00  0.00     0.002 A 
ATOM      4  C5  UNL d   1       0.106   0.547   0.130  0.00  0.00    -0.080 A 
ATOM      5  C6  UNL d   1      -0.938   0.890  -0.890  0.00  0.00     0.076 C 
ATOM      6  C7  UNL d   1       0.012  -0.647   0.853  0.00  0.00     0.002 A 
ATOM      7  C8  UNL d   1       0.963  -0.964   1.825  0.00  0.00     0.006 A 
ENDROOT
BRANCH   1   8
ATOM      8  C1  UNL d   1       3.016  -0.408   3.181  0.00  0.00     0.054 C 
ATOM      9  C   UNL d   1       2.424  -0.135   4.556  0.00  0.00     0.018 C 
ENDBRANCH   1   8
TORSDOF 1
ENDMDL
