MODEL 1
REMARK minimizedAffinity 3.41104603
REMARK minimizedRMSD -1
REMARK  1 active torsions:
REMARK  status: ('A' for Active; 'I' for Inactive)
REMARK    1  A    between atoms: C1_2  and  C2_3 
ROOT
ATOM      1  C2  UNL d   1       1.094  -1.339   1.772  0.00  0.00    -0.081 A 
ATOM      2  C3  UNL d   1       2.111  -0.381   1.867  0.00  0.00     0.006 A 
ATOM      3  C4  UNL d   1       2.070   0.775   1.084  0.00  0.00     0.002 A 
ATOM      4  C5  UNL d   1       1.010   0.996   0.199  0.00  0.00    -0.080 A 
ATOM      5  C6  UNL d   1       0.938   2.246  -0.626  0.00  0.00     0.076 C 
ATOM      6  C7  UNL d   1       0.003   0.030   0.091  0.00  0.00     0.002 A 
ATOM      7  C8  UNL d   1       0.043  -1.126   0.873  0.00  0.00     0.006 A 
ENDROOT
BRANCH   1   8
ATOM      8  C1  UNL d   1       1.102  -2.556   2.662  0.00  0.00     0.054 C 
ATOM      9  C   UNL d   1       1.489  -2.195   4.089  0.00  0.00     0.018 C 
ENDBRANCH   1   8
TORSDOF 1
ENDMDL
