MODEL 1
REMARK minimizedAffinity 7.13616419
REMARK minimizedRMSD -1
REMARK  1 active torsions:
REMARK  status: ('A' for Active; 'I' for Inactive)
REMARK    1  A    between atoms: C1_2  and  C2_3 
ROOT
ATOM      1  C2  UNL d   1      -1.601  -1.523  -2.401  0.00  0.00    -0.081 A 
ATOM      2  C3  UNL d   1      -0.420  -2.258  -2.565  0.00  0.00     0.006 A 
ATOM      3  C4  UNL d   1       0.384  -2.561  -1.463  0.00  0.00     0.002 A 
ATOM      4  C5  UNL d   1       0.017  -2.141  -0.180  0.00  0.00    -0.080 A 
ATOM      5  C6  UNL d   1       0.856  -2.485   1.015  0.00  0.00     0.076 C 
ATOM      6  C7  UNL d   1      -1.154  -1.392  -0.019  0.00  0.00     0.002 A 
ATOM      7  C8  UNL d   1      -1.958  -1.089  -1.120  0.00  0.00     0.006 A 
ENDROOT
BRANCH   1   8
ATOM      8  C1  UNL d   1      -2.504  -1.251  -3.577  0.00  0.00     0.054 C 
ATOM      9  C   UNL d   1      -3.458  -0.101  -3.288  0.00  0.00     0.018 C 
ENDBRANCH   1   8
TORSDOF 1
ENDMDL
