MODEL 1
REMARK minimizedAffinity 7.42233133
REMARK minimizedRMSD -1
REMARK  1 active torsions:
REMARK  status: ('A' for Active; 'I' for Inactive)
REMARK    1  A    between atoms: C1_2  and  C2_3 
ROOT
ATOM      1  C2  UNL d   1       1.197   1.200   0.248  0.00  0.00    -0.081 A 
ATOM      2  C3  UNL d   1       0.443   0.028   0.111  0.00  0.00     0.006 A 
ATOM      3  C4  UNL d   1       0.625  -1.038   0.994  0.00  0.00     0.002 A 
ATOM      4  C5  UNL d   1       1.556  -0.948   2.034  0.00  0.00    -0.080 A 
ATOM      5  C6  UNL d   1       1.739  -2.074   3.007  0.00  0.00     0.076 C 
ATOM      6  C7  UNL d   1       2.322   0.216   2.161  0.00  0.00     0.002 A 
ATOM      7  C8  UNL d   1       2.141   1.283   1.278  0.00  0.00     0.006 A 
ENDROOT
BRANCH   1   8
ATOM      8  C1  UNL d   1       0.957   2.377  -0.663  0.00  0.00     0.054 C 
ATOM      9  C   UNL d   1      -0.162   3.265  -0.138  0.00  0.00     0.018 C 
ENDBRANCH   1   8
TORSDOF 1
ENDMDL
