MODEL 1
REMARK minimizedAffinity 4.85121441
REMARK minimizedRMSD -1
REMARK  1 active torsions:
REMARK  status: ('A' for Active; 'I' for Inactive)
REMARK    1  A    between atoms: C1_2  and  C2_3 
ROOT
ATOM      1  C2  UNL d   1       0.374   3.428   0.851  0.00  0.00    -0.081 A 
ATOM      2  C3  UNL d   1      -0.361   2.796  -0.159  0.00  0.00     0.006 A 
ATOM      3  C4  UNL d   1      -0.065   1.485  -0.537  0.00  0.00     0.002 A 
ATOM      4  C5  UNL d   1       0.966   0.780   0.094  0.00  0.00    -0.080 A 
ATOM      5  C6  UNL d   1       1.275  -0.639  -0.281  0.00  0.00     0.076 C 
ATOM      6  C7  UNL d   1       1.712   1.417   1.091  0.00  0.00     0.002 A 
ATOM      7  C8  UNL d   1       1.417   2.728   1.469  0.00  0.00     0.006 A 
ENDROOT
BRANCH   1   8
ATOM      8  C1  UNL d   1       0.015   4.819   1.306  0.00  0.00     0.054 C 
ATOM      9  C   UNL d   1      -0.018   5.792   0.136  0.00  0.00     0.018 C 
ENDBRANCH   1   8
TORSDOF 1
ENDMDL
