MODEL 1
REMARK minimizedAffinity -3.4070096
REMARK minimizedRMSD -1
REMARK  1 active torsions:
REMARK  status: ('A' for Active; 'I' for Inactive)
REMARK    1  A    between atoms: C1_2  and  C2_3 
ROOT
ATOM      1  C2  UNL d   1       0.280   0.480  -0.168  0.00  0.00    -0.076 A 
ATOM      2  C3  UNL d   1       1.509   0.498  -0.850  0.00  0.00     0.004 A 
ATOM      3  C4  UNL d   1       2.450  -0.512  -0.660  0.00  0.00    -0.003 A 
ATOM      4  C5  UNL d   1       2.178  -1.557   0.216  0.00  0.00     0.000 A 
ATOM      5  C6  UNL d   1       0.957  -1.601   0.888  0.00  0.00     0.000 A 
ATOM      6  C7  UNL d   1      -0.010  -0.599   0.695  0.00  0.00    -0.073 A 
ATOM      7  C8  UNL d   1      -1.307  -0.693   1.450  0.00  0.00     0.078 C 
ENDROOT
BRANCH   1   8
ATOM      8  C1  UNL d   1      -0.691   1.616  -0.394  0.00  0.00     0.053 C 
ATOM      9  C   UNL d   1      -1.462   1.474  -1.697  0.00  0.00     0.018 C 
ENDBRANCH   1   8
TORSDOF 1
ENDMDL
