MODEL 1
REMARK minimizedAffinity -2.26759315
REMARK minimizedRMSD -1
REMARK  1 active torsions:
REMARK  status: ('A' for Active; 'I' for Inactive)
REMARK    1  A    between atoms: C1_2  and  C2_3 
ROOT
ATOM      1  C2  UNL d   1       0.076   0.438  -0.201  0.00  0.00    -0.076 A 
ATOM      2  C3  UNL d   1       1.307   0.437  -0.881  0.00  0.00     0.004 A 
ATOM      3  C4  UNL d   1       2.286  -0.511  -0.589  0.00  0.00    -0.003 A 
ATOM      4  C5  UNL d   1       2.051  -1.473   0.387  0.00  0.00     0.000 A 
ATOM      5  C6  UNL d   1       0.829  -1.498   1.059  0.00  0.00     0.000 A 
ATOM      6  C7  UNL d   1      -0.176  -0.559   0.765  0.00  0.00    -0.073 A 
ATOM      7  C8  UNL d   1      -1.472  -0.628   1.524  0.00  0.00     0.078 C 
ENDROOT
BRANCH   1   8
ATOM      8  C1  UNL d   1      -0.937   1.508  -0.541  0.00  0.00     0.053 C 
ATOM      9  C   UNL d   1      -1.521   1.335  -1.935  0.00  0.00     0.018 C 
ENDBRANCH   1   8
TORSDOF 1
ENDMDL
