MODEL 1
REMARK minimizedAffinity -1.71874106
REMARK minimizedRMSD -1
REMARK  1 active torsions:
REMARK  status: ('A' for Active; 'I' for Inactive)
REMARK    1  A    between atoms: C1_2  and  C2_3 
ROOT
ATOM      1  C2  UNL d   1       0.238   0.483   0.394  0.00  0.00    -0.076 A 
ATOM      2  C3  UNL d   1       1.407   0.637  -0.371  0.00  0.00     0.004 A 
ATOM      3  C4  UNL d   1       2.506  -0.200  -0.179  0.00  0.00    -0.003 A 
ATOM      4  C5  UNL d   1       2.452  -1.203   0.782  0.00  0.00     0.000 A 
ATOM      5  C6  UNL d   1       1.294  -1.381   1.538  0.00  0.00     0.000 A 
ATOM      6  C7  UNL d   1       0.172  -0.557   1.345  0.00  0.00    -0.073 A 
ATOM      7  C8  UNL d   1      -1.048  -0.790   2.193  0.00  0.00     0.078 C 
ENDROOT
BRANCH   1   8
ATOM      8  C1  UNL d   1      -0.911   1.437   0.160  0.00  0.00     0.053 C 
ATOM      9  C   UNL d   1      -0.914   2.012  -1.248  0.00  0.00     0.018 C 
ENDBRANCH   1   8
TORSDOF 1
ENDMDL
