MODEL 1
REMARK minimizedAffinity -1.33852518
REMARK minimizedRMSD -1
REMARK  1 active torsions:
REMARK  status: ('A' for Active; 'I' for Inactive)
REMARK    1  A    between atoms: C1_2  and  C2_3 
ROOT
ATOM      1  C2  UNL d   1      -0.381   1.115  -0.954  0.00  0.00    -0.076 A 
ATOM      2  C3  UNL d   1      -0.410   1.767  -2.199  0.00  0.00     0.004 A 
ATOM      3  C4  UNL d   1      -1.551   1.737  -2.999  0.00  0.00    -0.003 A 
ATOM      4  C5  UNL d   1      -2.683   1.055  -2.565  0.00  0.00     0.000 A 
ATOM      5  C6  UNL d   1      -2.678   0.417  -1.325  0.00  0.00     0.000 A 
ATOM      6  C7  UNL d   1      -1.541   0.452  -0.500  0.00  0.00    -0.073 A 
ATOM      7  C8  UNL d   1      -1.588  -0.258   0.826  0.00  0.00     0.078 C 
ENDROOT
BRANCH   1   8
ATOM      8  C1  UNL d   1       0.895   1.159  -0.143  0.00  0.00     0.053 C 
ATOM      9  C   UNL d   1       1.774  -0.060  -0.374  0.00  0.00     0.018 C 
ENDBRANCH   1   8
TORSDOF 1
ENDMDL
