MODEL 1
REMARK minimizedAffinity -3.1166656
REMARK minimizedRMSD -1
REMARK  1 active torsions:
REMARK  status: ('A' for Active; 'I' for Inactive)
REMARK    1  A    between atoms: C1_2  and  C2_3 
ROOT
ATOM      1  C2  UNL d   1       0.314   0.328   0.182  0.00  0.00    -0.076 A 
ATOM      2  C3  UNL d   1       1.555   0.669  -0.382  0.00  0.00     0.004 A 
ATOM      3  C4  UNL d   1       2.726   0.029   0.022  0.00  0.00    -0.003 A 
ATOM      4  C5  UNL d   1       2.674  -0.962   0.995  0.00  0.00     0.000 A 
ATOM      5  C6  UNL d   1       1.448  -1.326   1.552  0.00  0.00     0.000 A 
ATOM      6  C7  UNL d   1       0.257  -0.702   1.145  0.00  0.00    -0.073 A 
ATOM      7  C8  UNL d   1      -1.036  -1.129   1.783  0.00  0.00     0.078 C 
ENDROOT
BRANCH   1   8
ATOM      8  C1  UNL d   1      -0.919   1.075  -0.276  0.00  0.00     0.053 C 
ATOM      9  C   UNL d   1      -1.571   0.434  -1.491  0.00  0.00     0.018 C 
ENDBRANCH   1   8
TORSDOF 1
ENDMDL
