MODEL 1
REMARK minimizedAffinity -4.3171792
REMARK minimizedRMSD -1
REMARK  1 active torsions:
REMARK  status: ('A' for Active; 'I' for Inactive)
REMARK    1  A    between atoms: C1_2  and  C2_3 
ROOT
ATOM      1  C2  UNL d   1       0.179  -0.534   1.315  0.00  0.00    -0.076 A 
ATOM      2  C3  UNL d   1       0.474  -0.186  -0.015  0.00  0.00     0.004 A 
ATOM      3  C4  UNL d   1       1.660  -0.599  -0.619  0.00  0.00    -0.003 A 
ATOM      4  C5  UNL d   1       2.571  -1.367   0.097  0.00  0.00     0.000 A 
ATOM      5  C6  UNL d   1       2.287  -1.737   1.412  0.00  0.00     0.000 A 
ATOM      6  C7  UNL d   1       1.088  -1.342   2.030  0.00  0.00    -0.073 A 
ATOM      7  C8  UNL d   1       0.836  -1.764   3.452  0.00  0.00     0.078 C 
ENDROOT
BRANCH   1   8
ATOM      8  C1  UNL d   1      -1.111  -0.035   1.925  0.00  0.00     0.053 C 
ATOM      9  C   UNL d   1      -1.539   1.311   1.362  0.00  0.00     0.018 C 
ENDBRANCH   1   8
TORSDOF 1
ENDMDL
