MODEL 1
REMARK minimizedAffinity -2.73547649
REMARK minimizedRMSD -1
REMARK  1 active torsions:
REMARK  status: ('A' for Active; 'I' for Inactive)
REMARK    1  A    between atoms: C1_2  and  C2_3 
ROOT
ATOM      1  C2  UNL d   1       0.608  -0.684   0.673  0.00  0.00    -0.076 A 
ATOM      2  C3  UNL d   1       1.020  -0.132  -0.552  0.00  0.00     0.004 A 
ATOM      3  C4  UNL d   1       0.181   0.711  -1.278  0.00  0.00    -0.003 A 
ATOM      4  C5  UNL d   1      -1.085   1.017  -0.790  0.00  0.00     0.000 A 
ATOM      5  C6  UNL d   1      -1.504   0.492   0.433  0.00  0.00     0.000 A 
ATOM      6  C7  UNL d   1      -0.664  -0.347   1.185  0.00  0.00    -0.073 A 
ATOM      7  C8  UNL d   1      -1.169  -0.889   2.493  0.00  0.00     0.078 C 
ENDROOT
BRANCH   1   8
ATOM      8  C1  UNL d   1       1.551  -1.614   1.402  0.00  0.00     0.053 C 
ATOM      9  C   UNL d   1       2.979  -1.093   1.428  0.00  0.00     0.018 C 
ENDBRANCH   1   8
TORSDOF 1
ENDMDL
