MODEL 1
REMARK minimizedAffinity -3.49800062
REMARK minimizedRMSD -1
REMARK  1 active torsions:
REMARK  status: ('A' for Active; 'I' for Inactive)
REMARK    1  A    between atoms: C1_2  and  C2_3 
ROOT
ATOM      1  C2  UNL d   1       0.078   0.100  -0.146  0.00  0.00    -0.076 A 
ATOM      2  C3  UNL d   1       1.205   0.208  -0.979  0.00  0.00     0.004 A 
ATOM      3  C4  UNL d   1       2.285  -0.662  -0.842  0.00  0.00    -0.003 A 
ATOM      4  C5  UNL d   1       2.256  -1.656   0.131  0.00  0.00     0.000 A 
ATOM      5  C6  UNL d   1       1.138  -1.789   0.955  0.00  0.00     0.000 A 
ATOM      6  C7  UNL d   1       0.034  -0.930   0.818  0.00  0.00    -0.073 A 
ATOM      7  C8  UNL d   1      -1.142  -1.115   1.738  0.00  0.00     0.078 C 
ENDROOT
BRANCH   1   8
ATOM      8  C1  UNL d   1      -1.051   1.089  -0.323  0.00  0.00     0.053 C 
ATOM      9  C   UNL d   1      -1.906   0.785  -1.544  0.00  0.00     0.018 C 
ENDBRANCH   1   8
TORSDOF 1
ENDMDL
