MODEL 1
REMARK minimizedAffinity -1.55916536
REMARK minimizedRMSD -1
REMARK  1 active torsions:
REMARK  status: ('A' for Active; 'I' for Inactive)
REMARK    1  A    between atoms: C1_2  and  C2_3 
ROOT
ATOM      1  C2  UNL d   1       0.530   0.189   0.112  0.00  0.00    -0.076 A 
ATOM      2  C3  UNL d   1      -0.126  -0.641   1.037  0.00  0.00     0.004 A 
ATOM      3  C4  UNL d   1       0.592  -1.508   1.859  0.00  0.00    -0.003 A 
ATOM      4  C5  UNL d   1       1.979  -1.558   1.770  0.00  0.00     0.000 A 
ATOM      5  C6  UNL d   1       2.648  -0.728   0.871  0.00  0.00     0.000 A 
ATOM      6  C7  UNL d   1       1.940   0.163   0.046  0.00  0.00    -0.073 A 
ATOM      7  C8  UNL d   1       2.712   1.031  -0.910  0.00  0.00     0.078 C 
ENDROOT
BRANCH   1   8
ATOM      8  C1  UNL d   1      -0.303   1.089  -0.772  0.00  0.00     0.053 C 
ATOM      9  C   UNL d   1      -1.210   0.307  -1.710  0.00  0.00     0.018 C 
ENDBRANCH   1   8
TORSDOF 1
ENDMDL
