MODEL 1
REMARK minimizedAffinity -1.09595704
REMARK minimizedRMSD -1
REMARK  1 active torsions:
REMARK  status: ('A' for Active; 'I' for Inactive)
REMARK    1  A    between atoms: C1_2  and  C2_3 
ROOT
ATOM      1  C2  UNL d   1      -0.912   0.615  -0.904  0.00  0.00    -0.076 A 
ATOM      2  C3  UNL d   1      -1.663  -0.555  -0.698  0.00  0.00     0.004 A 
ATOM      3  C4  UNL d   1      -2.790  -0.831  -1.471  0.00  0.00    -0.003 A 
ATOM      4  C5  UNL d   1      -3.183   0.059  -2.464  0.00  0.00     0.000 A 
ATOM      5  C6  UNL d   1      -2.440   1.216  -2.695  0.00  0.00     0.000 A 
ATOM      6  C7  UNL d   1      -1.292   1.501  -1.935  0.00  0.00    -0.073 A 
ATOM      7  C8  UNL d   1      -0.531   2.766  -2.222  0.00  0.00     0.078 C 
ENDROOT
BRANCH   1   8
ATOM      8  C1  UNL d   1       0.284   0.874  -0.016  0.00  0.00     0.053 C 
ATOM      9  C   UNL d   1       1.450  -0.053  -0.325  0.00  0.00     0.018 C 
ENDBRANCH   1   8
TORSDOF 1
ENDMDL
