MODEL 1
REMARK minimizedAffinity -2.30471992
REMARK minimizedRMSD -1
REMARK  1 active torsions:
REMARK  status: ('A' for Active; 'I' for Inactive)
REMARK    1  A    between atoms: C1_2  and  C2_3 
ROOT
ATOM      1  C2  UNL d   1      -2.347   0.888  -0.992  0.00  0.00    -0.076 A 
ATOM      2  C3  UNL d   1      -1.311   1.362  -0.168  0.00  0.00     0.004 A 
ATOM      3  C4  UNL d   1      -1.185   0.924   1.149  0.00  0.00    -0.003 A 
ATOM      4  C5  UNL d   1      -2.093   0.005   1.664  0.00  0.00     0.000 A 
ATOM      5  C6  UNL d   1      -3.116  -0.489   0.855  0.00  0.00     0.000 A 
ATOM      6  C7  UNL d   1      -3.247  -0.070  -0.480  0.00  0.00    -0.073 A 
ATOM      7  C8  UNL d   1      -4.373  -0.631  -1.305  0.00  0.00     0.078 C 
ENDROOT
BRANCH   1   8
ATOM      8  C1  UNL d   1      -2.450   1.419  -2.404  0.00  0.00     0.053 C 
ATOM      9  C   UNL d   1      -1.338   2.402  -2.739  0.00  0.00     0.018 C 
ENDBRANCH   1   8
TORSDOF 1
ENDMDL
