MODEL 1
REMARK minimizedAffinity -2.69975042
REMARK minimizedRMSD -1
REMARK  1 active torsions:
REMARK  status: ('A' for Active; 'I' for Inactive)
REMARK    1  A    between atoms: C1_2  and  C2_3 
ROOT
ATOM      1  C2  UNL d   1      -0.791   0.590  -0.483  0.00  0.00    -0.076 A 
ATOM      2  C3  UNL d   1      -0.782   1.126  -1.783  0.00  0.00     0.004 A 
ATOM      3  C4  UNL d   1      -1.916   1.069  -2.590  0.00  0.00    -0.003 A 
ATOM      4  C5  UNL d   1      -3.079   0.476  -2.111  0.00  0.00     0.000 A 
ATOM      5  C6  UNL d   1      -3.112  -0.045  -0.818  0.00  0.00     0.000 A 
ATOM      6  C7  UNL d   1      -1.981   0.019   0.015  0.00  0.00    -0.073 A 
ATOM      7  C8  UNL d   1      -2.070  -0.564   1.399  0.00  0.00     0.078 C 
ENDROOT
BRANCH   1   8
ATOM      8  C1  UNL d   1       0.478   0.657   0.337  0.00  0.00     0.053 C 
ATOM      9  C   UNL d   1       1.534  -0.327  -0.143  0.00  0.00     0.018 C 
ENDBRANCH   1   8
TORSDOF 1
ENDMDL
