MODEL 1
REMARK minimizedAffinity -4.26543522
REMARK minimizedRMSD -1
REMARK  1 active torsions:
REMARK  status: ('A' for Active; 'I' for Inactive)
REMARK    1  A    between atoms: N_2  and  C1_3 
ROOT
ATOM      1  C1  UNL d   1       0.411  -0.111  -1.870  0.00  0.00     0.143 A 
ATOM      2  C2  UNL d   1       1.579  -0.658  -2.411  0.00  0.00    -0.057 A 
ATOM      3  C3  UNL d   1       2.039  -0.279  -3.678  0.00  0.00     0.033 A 
ATOM      4  C4  UNL d   1       1.321   0.636  -4.440  0.00  0.00    -0.042 A 
ATOM      5  C5  UNL d   1       0.144   1.174  -3.933  0.00  0.00     0.033 A 
ATOM      6  C6  UNL d   1      -0.307   0.797  -2.664  0.00  0.00    -0.057 A 
ENDROOT
BRANCH   1   7
ATOM      7  N   UNL d   1      -0.151  -0.520  -0.658  0.00  0.00    -0.732 N 
ATOM      8  C   UNL d   1       0.125   0.204   0.564  0.00  0.00     0.284 C 
ATOM      9  H3  UNL d   1      -1.120  -0.812  -0.758  0.00  0.00     0.395 HD
ENDBRANCH   1   7
TORSDOF 1
ENDMDL
