MODEL 1
REMARK minimizedAffinity -3.72835469
REMARK minimizedRMSD -1
REMARK  1 active torsions:
REMARK  status: ('A' for Active; 'I' for Inactive)
REMARK    1  A    between atoms: N_2  and  C1_3 
ROOT
ATOM      1  C1  UNL d   1      -0.726   0.093   1.239  0.00  0.00     0.143 A 
ATOM      2  C2  UNL d   1       0.668   0.027   1.141  0.00  0.00    -0.057 A 
ATOM      3  C3  UNL d   1       1.291  -0.598   0.054  0.00  0.00     0.033 A 
ATOM      4  C4  UNL d   1       0.528  -1.194  -0.945  0.00  0.00    -0.042 A 
ATOM      5  C5  UNL d   1      -0.859  -1.161  -0.856  0.00  0.00     0.033 A 
ATOM      6  C6  UNL d   1      -1.475  -0.531   0.229  0.00  0.00    -0.057 A 
ENDROOT
BRANCH   1   7
ATOM      7  N   UNL d   1      -1.404   0.613   2.344  0.00  0.00    -0.732 N 
ATOM      8  C   UNL d   1      -0.846   1.713   3.101  0.00  0.00     0.284 C 
ATOM      9  H3  UNL d   1      -2.407   0.683   2.186  0.00  0.00     0.395 HD
ENDBRANCH   1   7
TORSDOF 1
ENDMDL
