MODEL 1
REMARK minimizedAffinity -2.74172163
REMARK minimizedRMSD -1
REMARK  1 active torsions:
REMARK  status: ('A' for Active; 'I' for Inactive)
REMARK    1  A    between atoms: N_2  and  C1_3 
ROOT
ATOM      1  C1  UNL d   1      -0.321  -0.049  -0.147  0.00  0.00     0.143 A 
ATOM      2  C2  UNL d   1      -1.707   0.136  -0.111  0.00  0.00    -0.057 A 
ATOM      3  C3  UNL d   1      -2.326   0.781   0.967  0.00  0.00     0.033 A 
ATOM      4  C4  UNL d   1      -1.569   1.228   2.045  0.00  0.00    -0.042 A 
ATOM      5  C5  UNL d   1      -0.193   1.033   2.043  0.00  0.00     0.033 A 
ATOM      6  C6  UNL d   1       0.420   0.393   0.960  0.00  0.00    -0.057 A 
ENDROOT
BRANCH   1   7
ATOM      7  N   UNL d   1       0.342  -0.770  -1.143  0.00  0.00    -0.732 N 
ATOM      8  C   UNL d   1       0.552  -0.194  -2.454  0.00  0.00     0.284 C 
ATOM      9  H3  UNL d   1       1.141  -1.286  -0.782  0.00  0.00     0.395 HD
ENDBRANCH   1   7
TORSDOF 1
ENDMDL
