MODEL 1
REMARK minimizedAffinity -3.89057374
REMARK minimizedRMSD -1
REMARK  1 active torsions:
REMARK  status: ('A' for Active; 'I' for Inactive)
REMARK    1  A    between atoms: N_2  and  C1_3 
ROOT
ATOM      1  C1  UNL d   1      -0.217   0.269  -0.022  0.00  0.00     0.143 A 
ATOM      2  C2  UNL d   1       0.777   0.618   0.899  0.00  0.00    -0.057 A 
ATOM      3  C3  UNL d   1       0.451   1.040   2.193  0.00  0.00     0.033 A 
ATOM      4  C4  UNL d   1      -0.880   1.149   2.582  0.00  0.00    -0.042 A 
ATOM      5  C5  UNL d   1      -1.885   0.832   1.675  0.00  0.00     0.033 A 
ATOM      6  C6  UNL d   1      -1.554   0.405   0.386  0.00  0.00    -0.057 A 
ENDROOT
BRANCH   1   7
ATOM      7  N   UNL d   1       0.039  -0.063  -1.355  0.00  0.00    -0.732 N 
ATOM      8  C   UNL d   1       0.691   0.880  -2.238  0.00  0.00     0.284 C 
ATOM      9  H3  UNL d   1       0.361  -1.022  -1.461  0.00  0.00     0.395 HD
ENDBRANCH   1   7
TORSDOF 1
ENDMDL
