MODEL 1
REMARK minimizedAffinity -4.87108707
REMARK minimizedRMSD -1
REMARK  1 active torsions:
REMARK  status: ('A' for Active; 'I' for Inactive)
REMARK    1  A    between atoms: N_2  and  C1_3 
ROOT
ATOM      1  C1  UNL d   1       0.504   0.077   0.752  0.00  0.00     0.143 A 
ATOM      2  C2  UNL d   1      -0.854   0.399   0.859  0.00  0.00    -0.057 A 
ATOM      3  C3  UNL d   1      -1.388   0.906   2.050  0.00  0.00     0.033 A 
ATOM      4  C4  UNL d   1      -0.578   1.073   3.168  0.00  0.00    -0.042 A 
ATOM      5  C5  UNL d   1       0.769   0.736   3.092  0.00  0.00     0.033 A 
ATOM      6  C6  UNL d   1       1.299   0.237   1.898  0.00  0.00    -0.057 A 
ENDROOT
BRANCH   1   7
ATOM      7  N   UNL d   1       1.075  -0.522  -0.373  0.00  0.00    -0.732 N 
ATOM      8  C   UNL d   1       0.612  -0.187  -1.702  0.00  0.00     0.284 C 
ATOM      9  H3  UNL d   1       2.085  -0.611  -0.295  0.00  0.00     0.395 HD
ENDBRANCH   1   7
TORSDOF 1
ENDMDL
