MODEL 1
REMARK minimizedAffinity 7.86889553
REMARK minimizedRMSD -1
REMARK  0 active torsions:
REMARK  status: ('A' for Active; 'I' for Inactive)
ROOT
ATOM      1  C4' PXY d   1       3.736  -1.528   1.085  0.00  0.00     0.077 C 
ATOM      2  C1' PXY d   1       1.217   3.650   0.577  0.00  0.00     0.077 C 
ATOM      3  C1  PXY d   1       1.887   2.296   0.702  0.00  0.00    -0.082 A 
ATOM      4  C2  PXY d   1       1.165   1.236   1.025  0.00  0.00     0.003 A 
ATOM      5  C3  PXY d   1       1.760   0.010   1.174  0.00  0.00     0.003 A 
ATOM      6  C4  PXY d   1       3.100  -0.143   0.938  0.00  0.00    -0.082 A 
ATOM      7  C5  PXY d   1       3.842   0.932   0.598  0.00  0.00     0.003 A 
ATOM      8  C6  PXY d   1       3.226   2.176   0.493  0.00  0.00     0.003 A 
ENDROOT
TORSDOF 0
ENDMDL
