MODEL 1
REMARK minimizedAffinity 1.42529154
REMARK minimizedRMSD -1
REMARK  0 active torsions:
REMARK  status: ('A' for Active; 'I' for Inactive)
ROOT
ATOM      1  C4' PXY d   1      -5.671   2.048  -1.857  0.00  0.00     0.077 C 
ATOM      2  C1' PXY d   1      -0.622  -0.411  -3.230  0.00  0.00     0.077 C 
ATOM      3  C1  PXY d   1      -1.944   0.243  -2.878  0.00  0.00    -0.082 A 
ATOM      4  C2  PXY d   1      -2.476   0.044  -1.683  0.00  0.00     0.003 A 
ATOM      5  C3  PXY d   1      -3.686   0.601  -1.361  0.00  0.00     0.003 A 
ATOM      6  C4  PXY d   1      -4.333   1.415  -2.251  0.00  0.00    -0.082 A 
ATOM      7  C5  PXY d   1      -3.792   1.633  -3.469  0.00  0.00     0.003 A 
ATOM      8  C6  PXY d   1      -2.583   1.024  -3.792  0.00  0.00     0.003 A 
ENDROOT
TORSDOF 0
ENDMDL
