MODEL 1
REMARK minimizedAffinity 5.47172737
REMARK minimizedRMSD -1
REMARK  0 active torsions:
REMARK  status: ('A' for Active; 'I' for Inactive)
ROOT
ATOM      1  C4' PXY d   1       0.455   2.259  -0.362  0.00  0.00     0.077 C 
ATOM      2  C1' PXY d   1       3.948  -2.028   1.322  0.00  0.00     0.077 C 
ATOM      3  C1  PXY d   1       3.031  -0.900   0.893  0.00  0.00    -0.082 A 
ATOM      4  C2  PXY d   1       2.345  -1.007  -0.233  0.00  0.00     0.003 A 
ATOM      5  C3  PXY d   1       1.536   0.017  -0.653  0.00  0.00     0.003 A 
ATOM      6  C4  PXY d   1       1.386   1.141   0.116  0.00  0.00    -0.082 A 
ATOM      7  C5  PXY d   1       2.074   1.253   1.272  0.00  0.00     0.003 A 
ATOM      8  C6  PXY d   1       2.922   0.219   1.659  0.00  0.00     0.003 A 
ENDROOT
TORSDOF 0
ENDMDL
