MODEL 1
REMARK minimizedAffinity 6.65283632
REMARK minimizedRMSD -1
REMARK  0 active torsions:
REMARK  status: ('A' for Active; 'I' for Inactive)
ROOT
ATOM      1  C4' PXY d   1       2.199  -2.933  -0.649  0.00  0.00     0.077 C 
ATOM      2  C1' PXY d   1       1.606   2.772   0.067  0.00  0.00     0.077 C 
ATOM      3  C1  PXY d   1       1.750   1.276  -0.127  0.00  0.00    -0.082 A 
ATOM      4  C2  PXY d   1       2.537   0.584   0.681  0.00  0.00     0.003 A 
ATOM      5  C3  PXY d   1       2.704  -0.765   0.500  0.00  0.00     0.003 A 
ATOM      6  C4  PXY d   1       2.016  -1.422  -0.485  0.00  0.00    -0.082 A 
ATOM      7  C5  PXY d   1       1.203  -0.725  -1.307  0.00  0.00     0.003 A 
ATOM      8  C6  PXY d   1       1.079   0.650  -1.132  0.00  0.00     0.003 A 
ENDROOT
TORSDOF 0
ENDMDL
