MODEL 1
REMARK minimizedAffinity 3.23345041
REMARK minimizedRMSD -1
REMARK  0 active torsions:
REMARK  status: ('A' for Active; 'I' for Inactive)
ROOT
ATOM      1  C4' PXY d   1      -0.672   2.245   1.169  0.00  0.00     0.077 C 
ATOM      2  C1' PXY d   1       5.053   1.800   0.509  0.00  0.00     0.077 C 
ATOM      3  C1  PXY d   1       3.550   1.909   0.672  0.00  0.00    -0.082 A 
ATOM      4  C2  PXY d   1       3.032   2.967   1.275  0.00  0.00     0.003 A 
ATOM      5  C3  PXY d   1       1.677   3.066   1.459  0.00  0.00     0.003 A 
ATOM      6  C4  PXY d   1       0.839   2.098   0.974  0.00  0.00    -0.082 A 
ATOM      7  C5  PXY d   1       1.359   1.021   0.348  0.00  0.00     0.003 A 
ATOM      8  C6  PXY d   1       2.740   0.919   0.208  0.00  0.00     0.003 A 
ENDROOT
TORSDOF 0
ENDMDL
