MODEL 1
REMARK minimizedAffinity 5.88313437
REMARK minimizedRMSD -1
REMARK  0 active torsions:
REMARK  status: ('A' for Active; 'I' for Inactive)
ROOT
ATOM      1  C4' PXY d   1      -0.353  -4.295  -0.347  0.00  0.00     0.077 C 
ATOM      2  C1' PXY d   1       2.821   0.524  -0.012  0.00  0.00     0.077 C 
ATOM      3  C1  PXY d   1       1.999  -0.746  -0.095  0.00  0.00    -0.082 A 
ATOM      4  C2  PXY d   1       1.000  -0.824  -0.960  0.00  0.00     0.003 A 
ATOM      5  C3  PXY d   1       0.226  -1.954  -1.026  0.00  0.00     0.003 A 
ATOM      6  C4  PXY d   1       0.510  -3.035  -0.236  0.00  0.00    -0.082 A 
ATOM      7  C5  PXY d   1       1.534  -2.968   0.642  0.00  0.00     0.003 A 
ATOM      8  C6  PXY d   1       2.282  -1.797   0.722  0.00  0.00     0.003 A 
ENDROOT
TORSDOF 0
ENDMDL
