MODEL 1
REMARK minimizedAffinity 0.945184469
REMARK minimizedRMSD -1
REMARK  0 active torsions:
REMARK  status: ('A' for Active; 'I' for Inactive)
ROOT
ATOM      1  C4' PXY d   1       1.281   2.615   0.250  0.00  0.00     0.077 C 
ATOM      2  C1' PXY d   1       1.881  -3.029  -0.845  0.00  0.00     0.077 C 
ATOM      3  C1  PXY d   1       1.713  -1.548  -0.566  0.00  0.00    -0.082 A 
ATOM      4  C2  PXY d   1       2.747  -0.843  -0.136  0.00  0.00     0.003 A 
ATOM      5  C3  PXY d   1       2.605   0.490   0.152  0.00  0.00     0.003 A 
ATOM      6  C4  PXY d   1       1.406   1.120  -0.053  0.00  0.00    -0.082 A 
ATOM      7  C5  PXY d   1       0.350   0.409  -0.502  0.00  0.00     0.003 A 
ATOM      8  C6  PXY d   1       0.504  -0.952  -0.749  0.00  0.00     0.003 A 
ENDROOT
TORSDOF 0
ENDMDL
