MODEL 1
REMARK minimizedAffinity -0.898824215
REMARK minimizedRMSD -1
REMARK  0 active torsions:
REMARK  status: ('A' for Active; 'I' for Inactive)
ROOT
ATOM      1  C   UNL d   1      -1.596   1.660   0.995  0.00  0.00     0.172 C 
ATOM      2  N   UNL d   1      -0.706   0.827   0.222  0.00  0.00    -0.070 N 
ATOM      3  C1  UNL d   1      -0.237   1.109  -1.034  0.00  0.00    -0.004 A 
ATOM      4  C2  UNL d   1       0.581   0.070  -1.422  0.00  0.00    -0.047 A 
ATOM      5  C3  UNL d   1       0.604  -0.869  -0.364  0.00  0.00    -0.047 A 
ATOM      6  C4  UNL d   1      -0.201  -0.376   0.641  0.00  0.00    -0.004 A 
ENDROOT
TORSDOF 0
ENDMDL
