MODEL 1
REMARK minimizedAffinity -3.77722979
REMARK minimizedRMSD -1
REMARK  0 active torsions:
REMARK  status: ('A' for Active; 'I' for Inactive)
ROOT
ATOM      1  C   UNL d   1      -0.583   0.099  -0.364  0.00  0.00     0.172 C 
ATOM      2  N   UNL d   1      -0.894   1.449   0.045  0.00  0.00    -0.070 N 
ATOM      3  C1  UNL d   1      -1.676   1.799   1.113  0.00  0.00    -0.004 A 
ATOM      4  C2  UNL d   1      -1.727   3.175   1.166  0.00  0.00    -0.047 A 
ATOM      5  C3  UNL d   1      -0.950   3.669   0.091  0.00  0.00    -0.047 A 
ATOM      6  C4  UNL d   1      -0.446   2.579  -0.587  0.00  0.00    -0.004 A 
ENDROOT
TORSDOF 0
ENDMDL
