MODEL 1
REMARK minimizedAffinity -2.97969675
REMARK minimizedRMSD -1
REMARK  0 active torsions:
REMARK  status: ('A' for Active; 'I' for Inactive)
ROOT
ATOM      1  C   UNL d   1      -1.669   1.837   0.882  0.00  0.00     0.172 C 
ATOM      2  N   UNL d   1      -0.636   1.202   0.097  0.00  0.00    -0.070 N 
ATOM      3  C1  UNL d   1      -0.135  -0.055   0.305  0.00  0.00    -0.004 A 
ATOM      4  C2  UNL d   1       0.829  -0.288  -0.652  0.00  0.00    -0.047 A 
ATOM      5  C3  UNL d   1       0.911   0.870  -1.462  0.00  0.00    -0.047 A 
ATOM      6  C4  UNL d   1      -0.007   1.776  -0.976  0.00  0.00    -0.004 A 
ENDROOT
TORSDOF 0
ENDMDL
