MODEL 1
REMARK minimizedAffinity -2.77033615
REMARK minimizedRMSD -1
REMARK  0 active torsions:
REMARK  status: ('A' for Active; 'I' for Inactive)
ROOT
ATOM      1  C   UNL d   1       0.353  -0.648  -0.445  0.00  0.00     0.172 C 
ATOM      2  N   UNL d   1      -0.346   0.065   0.599  0.00  0.00    -0.070 N 
ATOM      3  C1  UNL d   1      -0.508   1.423   0.668  0.00  0.00    -0.004 A 
ATOM      4  C2  UNL d   1      -1.227   1.705   1.809  0.00  0.00    -0.047 A 
ATOM      5  C3  UNL d   1      -1.507   0.473   2.448  0.00  0.00    -0.047 A 
ATOM      6  C4  UNL d   1      -0.949  -0.525   1.678  0.00  0.00    -0.004 A 
ENDROOT
TORSDOF 0
ENDMDL
