MODEL 1
REMARK minimizedAffinity -3.67523289
REMARK minimizedRMSD -1
REMARK  0 active torsions:
REMARK  status: ('A' for Active; 'I' for Inactive)
ROOT
ATOM      1  C   UNL d   1       0.738  -0.720  -0.536  0.00  0.00     0.172 C 
ATOM      2  N   UNL d   1      -0.177   0.071   0.253  0.00  0.00    -0.070 N 
ATOM      3  C1  UNL d   1      -0.754  -0.317   1.433  0.00  0.00    -0.004 A 
ATOM      4  C2  UNL d   1      -1.559   0.714   1.868  0.00  0.00    -0.047 A 
ATOM      5  C3  UNL d   1      -1.462   1.757   0.916  0.00  0.00    -0.047 A 
ATOM      6  C4  UNL d   1      -0.600   1.332  -0.073  0.00  0.00    -0.004 A 
ENDROOT
TORSDOF 0
ENDMDL
