MODEL 1
REMARK minimizedAffinity -3.93042541
REMARK minimizedRMSD -1
REMARK  0 active torsions:
REMARK  status: ('A' for Active; 'I' for Inactive)
ROOT
ATOM      1  C   UNL d   1       0.048  -0.536  -0.292  0.00  0.00     0.172 C 
ATOM      2  N   UNL d   1      -0.697   0.390   0.528  0.00  0.00    -0.070 N 
ATOM      3  C1  UNL d   1      -1.704   1.210   0.093  0.00  0.00    -0.004 A 
ATOM      4  C2  UNL d   1      -2.156   1.934   1.175  0.00  0.00    -0.047 A 
ATOM      5  C3  UNL d   1      -1.394   1.537   2.299  0.00  0.00    -0.047 A 
ATOM      6  C4  UNL d   1      -0.498   0.580   1.870  0.00  0.00    -0.004 A 
ENDROOT
TORSDOF 0
ENDMDL
