MODEL 1
REMARK minimizedAffinity -2.54463673
REMARK minimizedRMSD -1
REMARK  0 active torsions:
REMARK  status: ('A' for Active; 'I' for Inactive)
ROOT
ATOM      1  C   UNL d   1      -1.469   1.921   2.010  0.00  0.00     0.172 C 
ATOM      2  N   UNL d   1      -0.744   1.082   1.084  0.00  0.00    -0.070 N 
ATOM      3  C1  UNL d   1      -0.263   1.472  -0.138  0.00  0.00    -0.004 A 
ATOM      4  C2  UNL d   1       0.366   0.387  -0.709  0.00  0.00    -0.047 A 
ATOM      5  C3  UNL d   1       0.258  -0.692   0.199  0.00  0.00    -0.047 A 
ATOM      6  C4  UNL d   1      -0.433  -0.234   1.301  0.00  0.00    -0.004 A 
ENDROOT
TORSDOF 0
ENDMDL
