MODEL 1
REMARK minimizedAffinity -2.90955234
REMARK minimizedRMSD -1
REMARK  0 active torsions:
REMARK  status: ('A' for Active; 'I' for Inactive)
ROOT
ATOM      1  C   UNL d   1      -1.286   1.760   2.219  0.00  0.00     0.172 C 
ATOM      2  N   UNL d   1      -0.544   1.124   1.156  0.00  0.00    -0.070 N 
ATOM      3  C1  UNL d   1      -0.202  -0.201   1.102  0.00  0.00    -0.004 A 
ATOM      4  C2  UNL d   1       0.498  -0.409  -0.066  0.00  0.00    -0.047 A 
ATOM      5  C3  UNL d   1       0.580   0.833  -0.738  0.00  0.00    -0.047 A 
ATOM      6  C4  UNL d   1      -0.073   1.765   0.041  0.00  0.00    -0.004 A 
ENDROOT
TORSDOF 0
ENDMDL
