MODEL 1
REMARK minimizedAffinity -3.22223401
REMARK minimizedRMSD -1
REMARK  0 active torsions:
REMARK  status: ('A' for Active; 'I' for Inactive)
ROOT
ATOM      1  C   UNL d   1       0.506  -0.421  -0.180  0.00  0.00     0.172 C 
ATOM      2  N   UNL d   1      -0.491   0.261   0.611  0.00  0.00    -0.070 N 
ATOM      3  C1  UNL d   1      -1.347   1.228   0.156  0.00  0.00    -0.004 A 
ATOM      4  C2  UNL d   1      -2.138   1.624   1.213  0.00  0.00    -0.047 A 
ATOM      5  C3  UNL d   1      -1.742   0.869   2.344  0.00  0.00    -0.047 A 
ATOM      6  C4  UNL d   1      -0.721   0.034   1.942  0.00  0.00    -0.004 A 
ENDROOT
TORSDOF 0
ENDMDL
