MODEL 1
REMARK minimizedAffinity -3.62513447
REMARK minimizedRMSD -1
REMARK  0 active torsions:
REMARK  status: ('A' for Active; 'I' for Inactive)
ROOT
ATOM      1  C   UNL d   1       0.414  -0.605  -0.636  0.00  0.00     0.172 C 
ATOM      2  N   UNL d   1      -0.377   0.395   0.043  0.00  0.00    -0.070 N 
ATOM      3  C1  UNL d   1      -0.732   1.615  -0.467  0.00  0.00    -0.004 A 
ATOM      4  C2  UNL d   1      -1.482   2.269   0.486  0.00  0.00    -0.047 A 
ATOM      5  C3  UNL d   1      -1.580   1.413   1.609  0.00  0.00    -0.047 A 
ATOM      6  C4  UNL d   1      -0.887   0.260   1.308  0.00  0.00    -0.004 A 
ENDROOT
TORSDOF 0
ENDMDL
