MODEL 1
REMARK minimizedAffinity -3.11512375
REMARK minimizedRMSD -1
REMARK  0 active torsions:
REMARK  status: ('A' for Active; 'I' for Inactive)
ROOT
ATOM      1  C   UNL d   1       1.238  -1.411  -1.057  0.00  0.00     0.172 C 
ATOM      2  N   UNL d   1       0.417  -0.513  -0.279  0.00  0.00    -0.070 N 
ATOM      3  C1  UNL d   1      -0.259   0.574  -0.764  0.00  0.00    -0.004 A 
ATOM      4  C2  UNL d   1      -0.921   1.164   0.290  0.00  0.00    -0.047 A 
ATOM      5  C3  UNL d   1      -0.632   0.407   1.450  0.00  0.00    -0.047 A 
ATOM      6  C4  UNL d   1       0.199  -0.626   1.069  0.00  0.00    -0.004 A 
ENDROOT
TORSDOF 0
ENDMDL
