MODEL 1
REMARK minimizedAffinity -1.85949922
REMARK minimizedRMSD -1
REMARK  0 active torsions:
REMARK  status: ('A' for Active; 'I' for Inactive)
ROOT
ATOM      1  C   UNL d   1       0.893  -0.764  -0.872  0.00  0.00     0.172 C 
ATOM      2  N   UNL d   1       0.062  -0.110   0.111  0.00  0.00    -0.070 N 
ATOM      3  C1  UNL d   1      -0.268  -0.616   1.341  0.00  0.00    -0.004 A 
ATOM      4  C2  UNL d   1      -1.071   0.307   1.975  0.00  0.00    -0.047 A 
ATOM      5  C3  UNL d   1      -1.230   1.405   1.096  0.00  0.00    -0.047 A 
ATOM      6  C4  UNL d   1      -0.518   1.120  -0.050  0.00  0.00    -0.004 A 
ENDROOT
TORSDOF 0
ENDMDL
