MODEL 1
REMARK minimizedAffinity -3.76703715
REMARK minimizedRMSD -1
REMARK  0 active torsions:
REMARK  status: ('A' for Active; 'I' for Inactive)
ROOT
ATOM      1  C   UNL d   1      -1.650   1.147   1.878  0.00  0.00     0.172 C 
ATOM      2  N   UNL d   1      -0.693   0.394   1.102  0.00  0.00    -0.070 N 
ATOM      3  C1  UNL d   1      -0.254  -0.872   1.386  0.00  0.00    -0.004 A 
ATOM      4  C2  UNL d   1       0.649  -1.235   0.411  0.00  0.00    -0.047 A 
ATOM      5  C3  UNL d   1       0.758  -0.149  -0.490  0.00  0.00    -0.047 A 
ATOM      6  C4  UNL d   1      -0.084   0.846  -0.038  0.00  0.00    -0.004 A 
ENDROOT
TORSDOF 0
ENDMDL
