MODEL 1
REMARK minimizedAffinity -2.82036829
REMARK minimizedRMSD -1
REMARK  0 active torsions:
REMARK  status: ('A' for Active; 'I' for Inactive)
ROOT
ATOM      1  C   UNL d   1      -1.893   1.585   1.523  0.00  0.00     0.172 C 
ATOM      2  N   UNL d   1      -0.903   0.807   0.816  0.00  0.00    -0.070 N 
ATOM      3  C1  UNL d   1      -0.242  -0.285   1.312  0.00  0.00    -0.004 A 
ATOM      4  C2  UNL d   1       0.614  -0.742   0.333  0.00  0.00    -0.047 A 
ATOM      5  C3  UNL d   1       0.463   0.106  -0.790  0.00  0.00    -0.047 A 
ATOM      6  C4  UNL d   1      -0.482   1.056  -0.463  0.00  0.00    -0.004 A 
ENDROOT
TORSDOF 0
ENDMDL
