MODEL 1
REMARK minimizedAffinity -4.20326424
REMARK minimizedRMSD -1
REMARK  0 active torsions:
REMARK  status: ('A' for Active; 'I' for Inactive)
ROOT
ATOM      1  C   UNL d   1       1.362  -0.357  -0.748  0.00  0.00     0.172 C 
ATOM      2  N   UNL d   1       0.319   0.344  -0.037  0.00  0.00    -0.070 N 
ATOM      3  C1  UNL d   1      -0.271   1.514  -0.435  0.00  0.00    -0.004 A 
ATOM      4  C2  UNL d   1      -1.214   1.854   0.511  0.00  0.00    -0.047 A 
ATOM      5  C3  UNL d   1      -1.189   0.855   1.512  0.00  0.00    -0.047 A 
ATOM      6  C4  UNL d   1      -0.231  -0.068   1.148  0.00  0.00    -0.004 A 
ENDROOT
TORSDOF 0
ENDMDL
