MODEL 1
REMARK minimizedAffinity -4.00173807
REMARK minimizedRMSD -1
REMARK  0 active torsions:
REMARK  status: ('A' for Active; 'I' for Inactive)
ROOT
ATOM      1  C   UNL d   1       0.645  -0.830  -0.642  0.00  0.00     0.172 C 
ATOM      2  N   UNL d   1      -0.222  -0.012   0.173  0.00  0.00    -0.070 N 
ATOM      3  C1  UNL d   1      -0.602  -0.287   1.459  0.00  0.00    -0.004 A 
ATOM      4  C2  UNL d   1      -1.427   0.733   1.883  0.00  0.00    -0.047 A 
ATOM      5  C3  UNL d   1      -1.547   1.652   0.814  0.00  0.00    -0.047 A 
ATOM      6  C4  UNL d   1      -0.791   1.167  -0.232  0.00  0.00    -0.004 A 
ENDROOT
TORSDOF 0
ENDMDL
