MODEL 1
REMARK minimizedAffinity -4.1539607
REMARK minimizedRMSD -1
REMARK  0 active torsions:
REMARK  status: ('A' for Active; 'I' for Inactive)
ROOT
ATOM      1  C   UNL d   1       0.751  -0.027  -0.430  0.00  0.00     0.172 C 
ATOM      2  N   UNL d   1      -0.317   0.643   0.274  0.00  0.00    -0.070 N 
ATOM      3  C1  UNL d   1      -1.012   1.732  -0.179  0.00  0.00    -0.004 A 
ATOM      4  C2  UNL d   1      -1.942   2.068   0.781  0.00  0.00    -0.047 A 
ATOM      5  C3  UNL d   1      -1.801   1.149   1.848  0.00  0.00    -0.047 A 
ATOM      6  C4  UNL d   1      -0.788   0.278   1.508  0.00  0.00    -0.004 A 
ENDROOT
TORSDOF 0
ENDMDL
