MODEL 1
REMARK minimizedAffinity -3.18445563
REMARK minimizedRMSD -1
REMARK  0 active torsions:
REMARK  status: ('A' for Active; 'I' for Inactive)
ROOT
ATOM      1  C   UNL d   1      -2.091   1.972   1.174  0.00  0.00     0.172 C 
ATOM      2  N   UNL d   1      -1.007   1.212   0.598  0.00  0.00    -0.070 N 
ATOM      3  C1  UNL d   1      -0.268   1.578  -0.495  0.00  0.00    -0.004 A 
ATOM      4  C2  UNL d   1       0.664   0.589  -0.725  0.00  0.00    -0.047 A 
ATOM      5  C3  UNL d   1       0.478  -0.406   0.264  0.00  0.00    -0.047 A 
ATOM      6  C4  UNL d   1      -0.563   0.005   1.069  0.00  0.00    -0.004 A 
ENDROOT
TORSDOF 0
ENDMDL
