MODEL 1
REMARK minimizedAffinity -3.43120146
REMARK minimizedRMSD -1
REMARK  0 active torsions:
REMARK  status: ('A' for Active; 'I' for Inactive)
ROOT
ATOM      1  C   UNL d   1       0.001  -0.660   0.969  0.00  0.00     0.172 C 
ATOM      2  N   UNL d   1      -0.785   0.551   0.945  0.00  0.00    -0.070 N 
ATOM      3  C1  UNL d   1      -1.168   1.276   2.041  0.00  0.00    -0.004 A 
ATOM      4  C2  UNL d   1      -1.901   2.356   1.598  0.00  0.00    -0.047 A 
ATOM      5  C3  UNL d   1      -1.962   2.276   0.186  0.00  0.00    -0.047 A 
ATOM      6  C4  UNL d   1      -1.263   1.149  -0.192  0.00  0.00    -0.004 A 
ENDROOT
TORSDOF 0
ENDMDL
