MODEL 1
REMARK minimizedAffinity 3.9101572
REMARK minimizedRMSD -1
REMARK  1 active torsions:
REMARK  status: ('A' for Active; 'I' for Inactive)
REMARK    1  A    between atoms: C3_4  and  O_7 
ROOT
ATOM      1  C   UNL d   1       1.327  -4.040   5.705  0.00  0.00    -0.033 A 
ATOM      2  C1  UNL d   1       0.209  -3.225   5.892  0.00  0.00     0.039 A 
ATOM      3  C2  UNL d   1      -1.063  -3.794   5.991  0.00  0.00    -0.080 A 
ATOM      4  C3  UNL d   1      -1.201  -5.177   5.903  0.00  0.00     0.150 A 
ATOM      5  C4  UNL d   1      -0.091  -5.994   5.720  0.00  0.00    -0.007 A 
ATOM      6  C5  UNL d   1       1.177  -5.424   5.620  0.00  0.00     0.039 A 
ENDROOT
BRANCH   4   7
ATOM      7  O   UNL d   1      -2.422  -5.777   5.989  0.00  0.00    -0.526 OA
ATOM      8  H5  UNL d   1      -3.099  -5.086   6.085  0.00  0.00     0.418 HD
ENDBRANCH   4   7
TORSDOF 1
ENDMDL
