MODEL 1
REMARK minimizedAffinity 0.723270178
REMARK minimizedRMSD -1
REMARK  1 active torsions:
REMARK  status: ('A' for Active; 'I' for Inactive)
REMARK    1  A    between atoms: C3_4  and  O_7 
ROOT
ATOM      1  C   UNL d   1       1.253   2.414   0.651  0.00  0.00    -0.033 A 
ATOM      2  C1  UNL d   1      -0.012   1.975   1.046  0.00  0.00     0.039 A 
ATOM      3  C2  UNL d   1      -0.221   1.522   2.350  0.00  0.00    -0.080 A 
ATOM      4  C3  UNL d   1       0.841   1.516   3.249  0.00  0.00     0.150 A 
ATOM      5  C4  UNL d   1       2.104   1.956   2.865  0.00  0.00    -0.007 A 
ATOM      6  C5  UNL d   1       2.311   2.406   1.561  0.00  0.00     0.039 A 
ENDROOT
BRANCH   4   7
ATOM      7  O   UNL d   1       0.687   1.079   4.531  0.00  0.00    -0.526 OA
ATOM      8  H5  UNL d   1      -0.230   0.779   4.646  0.00  0.00     0.418 HD
ENDBRANCH   4   7
TORSDOF 1
ENDMDL
