MODEL 1
REMARK minimizedAffinity 6.12570333
REMARK minimizedRMSD -1
REMARK  1 active torsions:
REMARK  status: ('A' for Active; 'I' for Inactive)
REMARK    1  A    between atoms: C3_4  and  O_7 
ROOT
ATOM      1  C   UNL d   1       2.111   2.257   0.420  0.00  0.00    -0.033 A 
ATOM      2  C1  UNL d   1       0.864   1.697   0.702  0.00  0.00     0.039 A 
ATOM      3  C2  UNL d   1       0.435   1.572   2.025  0.00  0.00    -0.080 A 
ATOM      4  C3  UNL d   1       1.262   2.011   3.055  0.00  0.00     0.150 A 
ATOM      5  C4  UNL d   1       2.505   2.574   2.781  0.00  0.00    -0.007 A 
ATOM      6  C5  UNL d   1       2.931   2.697   1.460  0.00  0.00     0.039 A 
ENDROOT
BRANCH   4   7
ATOM      7  O   UNL d   1       0.890   1.905   4.362  0.00  0.00    -0.526 OA
ATOM      8  H5  UNL d   1       0.021   1.472   4.400  0.00  0.00     0.418 HD
ENDBRANCH   4   7
TORSDOF 1
ENDMDL
