MODEL 1
REMARK minimizedAffinity -2.7542758
REMARK minimizedRMSD -1
REMARK  1 active torsions:
REMARK  status: ('A' for Active; 'I' for Inactive)
REMARK    1  A    between atoms: C3_4  and  O_7 
ROOT
ATOM      1  C   UNL d   1       0.882  -1.434  -0.100  0.00  0.00    -0.033 A 
ATOM      2  C1  UNL d   1       0.745  -0.053   0.051  0.00  0.00     0.039 A 
ATOM      3  C2  UNL d   1       1.788   0.798  -0.320  0.00  0.00    -0.080 A 
ATOM      4  C3  UNL d   1       2.959   0.256  -0.842  0.00  0.00     0.150 A 
ATOM      5  C4  UNL d   1       3.101  -1.118  -0.999  0.00  0.00    -0.007 A 
ATOM      6  C5  UNL d   1       2.059  -1.967  -0.627  0.00  0.00     0.039 A 
ENDROOT
BRANCH   4   7
ATOM      7  O   UNL d   1       4.006   1.047  -1.213  0.00  0.00    -0.526 OA
ATOM      8  H5  UNL d   1       3.777   1.971  -1.021  0.00  0.00     0.418 HD
ENDBRANCH   4   7
TORSDOF 1
ENDMDL
