MODEL 1
REMARK minimizedAffinity 6.02333975
REMARK minimizedRMSD -1
REMARK  1 active torsions:
REMARK  status: ('A' for Active; 'I' for Inactive)
REMARK    1  A    between atoms: C3_4  and  O_7 
ROOT
ATOM      1  C   UNL d   1      -0.726  -2.641  -1.590  0.00  0.00    -0.033 A 
ATOM      2  C1  UNL d   1      -1.474  -1.497  -1.874  0.00  0.00     0.039 A 
ATOM      3  C2  UNL d   1      -1.074  -0.257  -1.374  0.00  0.00    -0.080 A 
ATOM      4  C3  UNL d   1       0.076  -0.174  -0.593  0.00  0.00     0.150 A 
ATOM      5  C4  UNL d   1       0.829  -1.309  -0.309  0.00  0.00    -0.007 A 
ATOM      6  C5  UNL d   1       0.426  -2.547  -0.809  0.00  0.00     0.039 A 
ENDROOT
BRANCH   4   7
ATOM      7  O   UNL d   1       0.504   1.014  -0.078  0.00  0.00    -0.526 OA
ATOM      8  H5  UNL d   1      -0.130   1.705  -0.332  0.00  0.00     0.418 HD
ENDBRANCH   4   7
TORSDOF 1
ENDMDL
