MODEL 1
REMARK minimizedAffinity -2.40013385
REMARK minimizedRMSD -1
REMARK  1 active torsions:
REMARK  status: ('A' for Active; 'I' for Inactive)
REMARK    1  A    between atoms: C3_4  and  O_7 
ROOT
ATOM      1  C   UNL d   1      -1.616  -3.970   6.000  0.00  0.00    -0.033 A 
ATOM      2  C1  UNL d   1      -0.576  -3.038   5.999  0.00  0.00     0.039 A 
ATOM      3  C2  UNL d   1       0.733  -3.450   5.743  0.00  0.00    -0.080 A 
ATOM      4  C3  UNL d   1       0.989  -4.794   5.487  0.00  0.00     0.150 A 
ATOM      5  C4  UNL d   1      -0.043  -5.728   5.482  0.00  0.00    -0.007 A 
ATOM      6  C5  UNL d   1      -1.349  -5.314   5.740  0.00  0.00     0.039 A 
ENDROOT
BRANCH   4   7
ATOM      7  O   UNL d   1       2.251  -5.245   5.236  0.00  0.00    -0.526 OA
ATOM      8  H5  UNL d   1       2.864  -4.494   5.301  0.00  0.00     0.418 HD
ENDBRANCH   4   7
TORSDOF 1
ENDMDL
