MODEL 1
REMARK minimizedAffinity 0.0438782871
REMARK minimizedRMSD -1
REMARK  1 active torsions:
REMARK  status: ('A' for Active; 'I' for Inactive)
REMARK    1  A    between atoms: C3_4  and  O_7 
ROOT
ATOM      1  C   UNL d   1       0.710  -2.891  -0.754  0.00  0.00    -0.033 A 
ATOM      2  C1  UNL d   1      -0.436  -2.160  -1.073  0.00  0.00     0.039 A 
ATOM      3  C2  UNL d   1      -0.485  -0.788  -0.816  0.00  0.00    -0.080 A 
ATOM      4  C3  UNL d   1       0.617  -0.161  -0.242  0.00  0.00     0.150 A 
ATOM      5  C4  UNL d   1       1.763  -0.882   0.075  0.00  0.00    -0.007 A 
ATOM      6  C5  UNL d   1       1.810  -2.252  -0.181  0.00  0.00     0.039 A 
ENDROOT
BRANCH   4   7
ATOM      7  O   UNL d   1       0.614   1.175   0.032  0.00  0.00    -0.526 OA
ATOM      8  H5  UNL d   1      -0.254   1.537  -0.214  0.00  0.00     0.418 HD
ENDBRANCH   4   7
TORSDOF 1
ENDMDL
