MODEL 1
REMARK minimizedAffinity 13.2122202
REMARK minimizedRMSD -1
REMARK  0 active torsions:
REMARK  status: ('A' for Active; 'I' for Inactive)
ROOT
ATOM      1  C   UNL d   1      -2.285   5.922   5.719  0.00  0.00     0.077 C 
ATOM      2  C1  UNL d   1      -3.581   5.405   5.169  0.00  0.00    -0.074 A 
ATOM      3  C2  UNL d   1      -4.784   5.607   5.853  0.00  0.00    -0.005 A 
ATOM      4  C3  UNL d   1      -5.982   5.128   5.324  0.00  0.00     0.006 A 
ATOM      5  C4  UNL d   1      -5.990   4.444   4.108  0.00  0.00    -0.005 A 
ATOM      6  C5  UNL d   1      -4.797   4.234   3.409  0.00  0.00    -0.074 A 
ATOM      7  C6  UNL d   1      -4.789   3.509   2.096  0.00  0.00     0.077 C 
ATOM      8  C7  UNL d   1      -3.598   4.723   3.944  0.00  0.00    -0.001 A 
ENDROOT
TORSDOF 0
ENDMDL
