MODEL 1
REMARK minimizedAffinity 17.9263363
REMARK minimizedRMSD -1
REMARK  0 active torsions:
REMARK  status: ('A' for Active; 'I' for Inactive)
ROOT
ATOM      1  C   UNL d   1       5.907   2.389   5.859  0.00  0.00     0.077 C 
ATOM      2  C1  UNL d   1       5.125   3.082   4.783  0.00  0.00    -0.074 A 
ATOM      3  C2  UNL d   1       3.932   3.751   5.079  0.00  0.00    -0.005 A 
ATOM      4  C3  UNL d   1       3.221   4.400   4.070  0.00  0.00     0.006 A 
ATOM      5  C4  UNL d   1       3.693   4.387   2.757  0.00  0.00    -0.005 A 
ATOM      6  C5  UNL d   1       4.884   3.724   2.442  0.00  0.00    -0.074 A 
ATOM      7  C6  UNL d   1       5.411   3.708   1.038  0.00  0.00     0.077 C 
ATOM      8  C7  UNL d   1       5.597   3.080   3.463  0.00  0.00    -0.001 A 
ENDROOT
TORSDOF 0
ENDMDL
