MODEL 1
REMARK minimizedAffinity 3.88482332
REMARK minimizedRMSD -1
REMARK  0 active torsions:
REMARK  status: ('A' for Active; 'I' for Inactive)
ROOT
ATOM      1  C   UNL d   1      -6.000   0.394  -4.909  0.00  0.00     0.077 C 
ATOM      2  C1  UNL d   1      -4.905   0.373  -3.884  0.00  0.00    -0.074 A 
ATOM      3  C2  UNL d   1      -3.560   0.418  -4.268  0.00  0.00    -0.005 A 
ATOM      4  C3  UNL d   1      -2.553   0.407  -3.303  0.00  0.00     0.006 A 
ATOM      5  C4  UNL d   1      -2.879   0.351  -1.947  0.00  0.00    -0.005 A 
ATOM      6  C5  UNL d   1      -4.218   0.307  -1.545  0.00  0.00    -0.074 A 
ATOM      7  C6  UNL d   1      -4.585   0.257  -0.092  0.00  0.00     0.077 C 
ATOM      8  C7  UNL d   1      -5.224   0.325  -2.520  0.00  0.00    -0.001 A 
ENDROOT
TORSDOF 0
ENDMDL
