MODEL 1
REMARK minimizedAffinity 16.1347275
REMARK minimizedRMSD -1
REMARK  0 active torsions:
REMARK  status: ('A' for Active; 'I' for Inactive)
ROOT
ATOM      1  C   UNL d   1       6.000   3.023  -2.347  0.00  0.00     0.077 C 
ATOM      2  C1  UNL d   1       5.176   2.390  -1.265  0.00  0.00    -0.074 A 
ATOM      3  C2  UNL d   1       5.693   2.219   0.023  0.00  0.00    -0.005 A 
ATOM      4  C3  UNL d   1       4.912   1.637   1.022  0.00  0.00     0.006 A 
ATOM      5  C4  UNL d   1       3.609   1.222   0.744  0.00  0.00    -0.005 A 
ATOM      6  C5  UNL d   1       3.076   1.386  -0.539  0.00  0.00    -0.074 A 
ATOM      7  C6  UNL d   1       1.674   0.954  -0.853  0.00  0.00     0.077 C 
ATOM      8  C7  UNL d   1       3.864   1.977  -1.535  0.00  0.00    -0.001 A 
ENDROOT
TORSDOF 0
ENDMDL
