MODEL 1
REMARK minimizedAffinity 6.24213839
REMARK minimizedRMSD -1
REMARK  0 active torsions:
REMARK  status: ('A' for Active; 'I' for Inactive)
ROOT
ATOM      1  C   UNL d   1      -2.559   2.451  -4.048  0.00  0.00     0.023 A 
ATOM      2  C1  UNL d   1      -3.331   3.371  -3.338  0.00  0.00     0.003 A 
ATOM      3  C2  UNL d   1      -2.712   4.390  -2.610  0.00  0.00     0.048 A 
ATOM      4  C3  UNL d   1      -1.320   4.484  -2.599  0.00  0.00     0.023 A 
ATOM      5  C4  UNL d   1      -0.544   3.567  -3.309  0.00  0.00     0.048 A 
ATOM      6  C5  UNL d   1      -1.168   2.549  -4.034  0.00  0.00     0.003 A 
ATOM      7  I   UNL d   1      -0.397   6.000  -1.518  0.00  0.00    -0.146 I 
ENDROOT
TORSDOF 0
ENDMDL
