MODEL 1
REMARK minimizedAffinity 5.53962469
REMARK minimizedRMSD -1
REMARK  0 active torsions:
REMARK  status: ('A' for Active; 'I' for Inactive)
ROOT
ATOM      1  C   UNL d   1       2.238  -2.625  -1.176  0.00  0.00     0.023 A 
ATOM      2  C1  UNL d   1       3.004  -1.875  -0.284  0.00  0.00     0.003 A 
ATOM      3  C2  UNL d   1       4.084  -1.123  -0.750  0.00  0.00     0.048 A 
ATOM      4  C3  UNL d   1       4.392  -1.125  -2.110  0.00  0.00     0.023 A 
ATOM      5  C4  UNL d   1       3.629  -1.874  -3.006  0.00  0.00     0.048 A 
ATOM      6  C5  UNL d   1       2.550  -2.625  -2.535  0.00  0.00     0.003 A 
ATOM      7  I   UNL d   1       6.000  -0.007  -2.806  0.00  0.00    -0.146 I 
ENDROOT
TORSDOF 0
ENDMDL
