MODEL 1
REMARK minimizedAffinity 6.14786386
REMARK minimizedRMSD -1
REMARK  0 active torsions:
REMARK  status: ('A' for Active; 'I' for Inactive)
ROOT
ATOM      1  C   UNL d   1      -0.773   1.907  -4.498  0.00  0.00     0.023 A 
ATOM      2  C1  UNL d   1       0.387   2.591  -4.132  0.00  0.00     0.003 A 
ATOM      3  C2  UNL d   1       0.299   3.766  -3.382  0.00  0.00     0.048 A 
ATOM      4  C3  UNL d   1      -0.951   4.251  -3.001  0.00  0.00     0.023 A 
ATOM      5  C4  UNL d   1      -2.114   3.570  -3.364  0.00  0.00     0.048 A 
ATOM      6  C5  UNL d   1      -2.022   2.396  -4.115  0.00  0.00     0.003 A 
ATOM      7  I   UNL d   1      -1.085   5.999  -1.885  0.00  0.00    -0.146 I 
ENDROOT
TORSDOF 0
ENDMDL
