MODEL 1
REMARK minimizedAffinity 6.91391754
REMARK minimizedRMSD -1
REMARK  0 active torsions:
REMARK  status: ('A' for Active; 'I' for Inactive)
ROOT
ATOM      1  C   UNL d   1      -0.979   4.527  -4.203  0.00  0.00     0.023 A 
ATOM      2  C1  UNL d   1      -0.238   5.623  -3.761  0.00  0.00     0.003 A 
ATOM      3  C2  UNL d   1      -0.280   5.999  -2.417  0.00  0.00     0.048 A 
ATOM      4  C3  UNL d   1      -1.064   5.274  -1.521  0.00  0.00     0.023 A 
ATOM      5  C4  UNL d   1      -1.807   4.176  -1.958  0.00  0.00     0.048 A 
ATOM      6  C5  UNL d   1      -1.762   3.804  -3.303  0.00  0.00     0.003 A 
ATOM      7  I   UNL d   1      -1.129   5.832   0.481  0.00  0.00    -0.146 I 
ENDROOT
TORSDOF 0
ENDMDL
