MODEL 1
REMARK minimizedAffinity 7.24025059
REMARK minimizedRMSD -1
REMARK  0 active torsions:
REMARK  status: ('A' for Active; 'I' for Inactive)
ROOT
ATOM      1  C   UNL d   1      -2.363   6.000   0.727  0.00  0.00     0.023 A 
ATOM      2  C1  UNL d   1      -2.910   5.999  -0.556  0.00  0.00     0.003 A 
ATOM      3  C2  UNL d   1      -2.198   5.440  -1.619  0.00  0.00     0.048 A 
ATOM      4  C3  UNL d   1      -0.940   4.882  -1.392  0.00  0.00     0.023 A 
ATOM      5  C4  UNL d   1      -0.390   4.880  -0.110  0.00  0.00     0.048 A 
ATOM      6  C5  UNL d   1      -1.105   5.442   0.950  0.00  0.00     0.003 A 
ATOM      7  I   UNL d   1       0.121   4.049  -2.973  0.00  0.00    -0.146 I 
ENDROOT
TORSDOF 0
ENDMDL
