MODEL 1
REMARK minimizedAffinity 8.46430016
REMARK minimizedRMSD -1
REMARK  0 active torsions:
REMARK  status: ('A' for Active; 'I' for Inactive)
ROOT
ATOM      1  C   UNL d   1      -3.534  -5.805   0.454  0.00  0.00     0.023 A 
ATOM      2  C1  UNL d   1      -2.941  -4.794  -0.302  0.00  0.00     0.003 A 
ATOM      3  C2  UNL d   1      -3.091  -3.458   0.076  0.00  0.00     0.048 A 
ATOM      4  C3  UNL d   1      -3.833  -3.140   1.213  0.00  0.00     0.023 A 
ATOM      5  C4  UNL d   1      -4.428  -4.148   1.973  0.00  0.00     0.048 A 
ATOM      6  C5  UNL d   1      -4.276  -5.483   1.591  0.00  0.00     0.003 A 
ATOM      7  I   UNL d   1      -4.057  -1.153   1.778  0.00  0.00    -0.146 I 
ENDROOT
TORSDOF 0
ENDMDL
