MODEL 1
REMARK minimizedAffinity 6.50478172
REMARK minimizedRMSD -1
REMARK  0 active torsions:
REMARK  status: ('A' for Active; 'I' for Inactive)
ROOT
ATOM      1  C   UNL d   1      -0.661   2.414  -4.334  0.00  0.00     0.023 A 
ATOM      2  C1  UNL d   1      -2.036   2.453  -4.103  0.00  0.00     0.003 A 
ATOM      3  C2  UNL d   1      -2.589   3.481  -3.336  0.00  0.00     0.048 A 
ATOM      4  C3  UNL d   1      -1.760   4.468  -2.804  0.00  0.00     0.023 A 
ATOM      5  C4  UNL d   1      -0.384   4.435  -3.033  0.00  0.00     0.048 A 
ATOM      6  C5  UNL d   1       0.164   3.404  -3.800  0.00  0.00     0.003 A 
ATOM      7  I   UNL d   1      -2.580   6.000  -1.663  0.00  0.00    -0.146 I 
ENDROOT
TORSDOF 0
ENDMDL
