MODEL 1
REMARK minimizedAffinity 7.93893385
REMARK minimizedRMSD -1
REMARK  0 active torsions:
REMARK  status: ('A' for Active; 'I' for Inactive)
ROOT
ATOM      1  C   UNL d   1       4.643  -0.241  -1.175  0.00  0.00     0.023 A 
ATOM      2  C1  UNL d   1       3.439  -0.890  -0.899  0.00  0.00     0.003 A 
ATOM      3  C2  UNL d   1       2.973  -1.891  -1.753  0.00  0.00     0.048 A 
ATOM      4  C3  UNL d   1       3.716  -2.240  -2.880  0.00  0.00     0.023 A 
ATOM      5  C4  UNL d   1       4.922  -1.594  -3.160  0.00  0.00     0.048 A 
ATOM      6  C5  UNL d   1       5.383  -0.593  -2.304  0.00  0.00     0.003 A 
ATOM      7  I   UNL d   1       3.024  -3.731  -4.153  0.00  0.00    -0.146 I 
ENDROOT
TORSDOF 0
ENDMDL
