MODEL 1
REMARK minimizedAffinity 12.984251
REMARK minimizedRMSD -1
REMARK  0 active torsions:
REMARK  status: ('A' for Active; 'I' for Inactive)
ROOT
ATOM      1  C   UNL d   1      -1.418   2.204  -2.999  0.00  0.00     0.023 A 
ATOM      2  C1  UNL d   1      -0.581   1.343  -3.708  0.00  0.00     0.003 A 
ATOM      3  C2  UNL d   1       0.642   1.804  -4.200  0.00  0.00     0.048 A 
ATOM      4  C3  UNL d   1       1.022   3.127  -3.979  0.00  0.00     0.023 A 
ATOM      5  C4  UNL d   1       0.188   3.993  -3.269  0.00  0.00     0.048 A 
ATOM      6  C5  UNL d   1      -1.034   3.527  -2.779  0.00  0.00     0.003 A 
ATOM      7  I   UNL d   1       2.842   3.816  -4.710  0.00  0.00    -0.146 I 
ENDROOT
TORSDOF 0
ENDMDL
