MODEL 1
REMARK minimizedAffinity 10.3306017
REMARK minimizedRMSD -1
REMARK  0 active torsions:
REMARK  status: ('A' for Active; 'I' for Inactive)
ROOT
ATOM      1  C   UNL d   1      -4.512  -6.000  -0.379  0.00  0.00     0.023 A 
ATOM      2  C1  UNL d   1      -4.332  -4.817  -1.095  0.00  0.00     0.003 A 
ATOM      3  C2  UNL d   1      -4.188  -3.604  -0.418  0.00  0.00     0.048 A 
ATOM      4  C3  UNL d   1      -4.224  -3.582   0.976  0.00  0.00     0.023 A 
ATOM      5  C4  UNL d   1      -4.403  -4.764   1.697  0.00  0.00     0.048 A 
ATOM      6  C5  UNL d   1      -4.547  -5.974   1.016  0.00  0.00     0.003 A 
ATOM      7  I   UNL d   1      -4.009  -1.778   1.986  0.00  0.00    -0.146 I 
ENDROOT
TORSDOF 0
ENDMDL
