MODEL 1
REMARK minimizedAffinity 6.9426136
REMARK minimizedRMSD -1
REMARK  0 active torsions:
REMARK  status: ('A' for Active; 'I' for Inactive)
ROOT
ATOM      1  C   UNL d   1      -0.040   1.765  -4.396  0.00  0.00     0.023 A 
ATOM      2  C1  UNL d   1      -1.236   1.818  -3.679  0.00  0.00     0.003 A 
ATOM      3  C2  UNL d   1      -1.335   2.623  -2.542  0.00  0.00     0.048 A 
ATOM      4  C3  UNL d   1      -0.235   3.373  -2.128  0.00  0.00     0.023 A 
ATOM      5  C4  UNL d   1       0.963   3.323  -2.842  0.00  0.00     0.048 A 
ATOM      6  C5  UNL d   1       1.058   2.517  -3.978  0.00  0.00     0.003 A 
ATOM      7  I   UNL d   1      -0.380   4.571  -0.436  0.00  0.00    -0.146 I 
ENDROOT
TORSDOF 0
ENDMDL
