MODEL 1
REMARK minimizedAffinity 9.68617153
REMARK minimizedRMSD -1
REMARK  0 active torsions:
REMARK  status: ('A' for Active; 'I' for Inactive)
ROOT
ATOM      1  C   UNL d   1      -1.597   2.088  -3.252  0.00  0.00     0.023 A 
ATOM      2  C1  UNL d   1      -1.103   3.240  -2.640  0.00  0.00     0.003 A 
ATOM      3  C2  UNL d   1       0.155   3.733  -2.991  0.00  0.00     0.048 A 
ATOM      4  C3  UNL d   1       0.913   3.070  -3.956  0.00  0.00     0.023 A 
ATOM      5  C4  UNL d   1       0.422   1.918  -4.571  0.00  0.00     0.048 A 
ATOM      6  C5  UNL d   1      -0.836   1.428  -4.216  0.00  0.00     0.003 A 
ATOM      7  I   UNL d   1       2.786   3.803  -4.480  0.00  0.00    -0.146 I 
ENDROOT
TORSDOF 0
ENDMDL
