MODEL 1
REMARK minimizedAffinity 2.92383409
REMARK minimizedRMSD -1
REMARK  0 active torsions:
REMARK  status: ('A' for Active; 'I' for Inactive)
ROOT
ATOM      1  C   UNL d   1       2.254  -0.746  -0.334  0.00  0.00     0.023 A 
ATOM      2  C1  UNL d   1       2.531   0.529  -0.827  0.00  0.00     0.003 A 
ATOM      3  C2  UNL d   1       3.605   0.724  -1.698  0.00  0.00     0.048 A 
ATOM      4  C3  UNL d   1       4.398  -0.360  -2.072  0.00  0.00     0.023 A 
ATOM      5  C4  UNL d   1       4.125  -1.638  -1.581  0.00  0.00     0.048 A 
ATOM      6  C5  UNL d   1       3.050  -1.828  -0.711  0.00  0.00     0.003 A 
ATOM      7  I   UNL d   1       5.997  -0.071  -3.367  0.00  0.00    -0.146 I 
ENDROOT
TORSDOF 0
ENDMDL
