MODEL 1
REMARK minimizedAffinity 16.4374542
REMARK minimizedRMSD -1
REMARK  0 active torsions:
REMARK  status: ('A' for Active; 'I' for Inactive)
ROOT
ATOM      1  C   UNL d   1      -4.867  -1.564   5.935  0.00  0.00     0.023 A 
ATOM      2  C1  UNL d   1      -5.620  -2.676   5.556  0.00  0.00     0.003 A 
ATOM      3  C2  UNL d   1      -5.946  -2.875   4.213  0.00  0.00     0.048 A 
ATOM      4  C3  UNL d   1      -5.515  -1.960   3.254  0.00  0.00     0.023 A 
ATOM      5  C4  UNL d   1      -4.761  -0.847   3.628  0.00  0.00     0.048 A 
ATOM      6  C5  UNL d   1      -4.438  -0.651   4.972  0.00  0.00     0.003 A 
ATOM      7  I   UNL d   1      -5.999  -2.255   1.254  0.00  0.00    -0.146 I 
ENDROOT
TORSDOF 0
ENDMDL
