MODEL 1
REMARK minimizedAffinity 13.1668234
REMARK minimizedRMSD -1
REMARK  0 active torsions:
REMARK  status: ('A' for Active; 'I' for Inactive)
ROOT
ATOM      1  C   UNL d   1       0.038   0.659   1.367  0.00  0.00     0.023 A 
ATOM      2  C1  UNL d   1      -1.162   1.267   0.997  0.00  0.00     0.003 A 
ATOM      3  C2  UNL d   1      -1.772   0.932  -0.214  0.00  0.00     0.048 A 
ATOM      4  C3  UNL d   1      -1.177  -0.013  -1.049  0.00  0.00     0.023 A 
ATOM      5  C4  UNL d   1       0.023  -0.625  -0.682  0.00  0.00     0.048 A 
ATOM      6  C5  UNL d   1       0.629  -0.286   0.528  0.00  0.00     0.003 A 
ATOM      7  I   UNL d   1      -2.083  -0.514  -2.851  0.00  0.00    -0.146 I 
ENDROOT
TORSDOF 0
ENDMDL
