MODEL 1
REMARK minimizedAffinity -1.95423615
REMARK minimizedRMSD -1
REMARK  0 active torsions:
REMARK  status: ('A' for Active; 'I' for Inactive)
ROOT
ATOM      1  C   UNL d   1      -0.378   4.169   1.854  0.00  0.00     0.023 A 
ATOM      2  C1  UNL d   1      -1.239   3.368   1.104  0.00  0.00     0.003 A 
ATOM      3  C2  UNL d   1      -0.908   2.037   0.844  0.00  0.00     0.048 A 
ATOM      4  C3  UNL d   1       0.287   1.513   1.337  0.00  0.00     0.023 A 
ATOM      5  C4  UNL d   1       1.152   2.310   2.088  0.00  0.00     0.048 A 
ATOM      6  C5  UNL d   1       0.816   3.641   2.345  0.00  0.00     0.003 A 
ATOM      7  I   UNL d   1       0.782  -0.468   0.951  0.00  0.00    -0.146 I 
ENDROOT
TORSDOF 0
ENDMDL
