MODEL 1
REMARK minimizedAffinity 2.98435426
REMARK minimizedRMSD -1
REMARK  0 active torsions:
REMARK  status: ('A' for Active; 'I' for Inactive)
ROOT
ATOM      1  C   UNL d   1      -0.867   1.306  -1.110  0.00  0.00     0.023 A 
ATOM      2  C1  UNL d   1      -1.770   0.308  -1.478  0.00  0.00     0.003 A 
ATOM      3  C2  UNL d   1      -1.448  -1.035  -1.274  0.00  0.00     0.048 A 
ATOM      4  C3  UNL d   1      -0.223  -1.374  -0.701  0.00  0.00     0.023 A 
ATOM      5  C4  UNL d   1       0.683  -0.378  -0.330  0.00  0.00     0.048 A 
ATOM      6  C5  UNL d   1       0.357   0.963  -0.537  0.00  0.00     0.003 A 
ATOM      7  I   UNL d   1       0.258  -3.373  -0.397  0.00  0.00    -0.146 I 
ENDROOT
TORSDOF 0
ENDMDL
