MODEL 1
REMARK minimizedAffinity 0.452010602
REMARK minimizedRMSD -1
REMARK  1 active torsions:
REMARK  status: ('A' for Active; 'I' for Inactive)
REMARK    1  A    between atoms: C1_2  and  C2_3 
ROOT
ATOM      1  C2  UNL d   1       0.719   0.373  -0.234  0.00  0.00    -0.077 A 
ATOM      2  C3  UNL d   1      -0.490   0.050  -0.867  0.00  0.00     0.002 A 
ATOM      3  C4  UNL d   1      -0.748  -1.262  -1.269  0.00  0.00     0.002 A 
ATOM      4  C5  UNL d   1       0.195  -2.261  -1.038  0.00  0.00    -0.004 A 
ATOM      5  C6  UNL d   1       1.400  -1.950  -0.411  0.00  0.00     0.002 A 
ATOM      6  C7  UNL d   1       1.661  -0.639  -0.010  0.00  0.00     0.002 A 
ENDROOT
BRANCH   1   7
ATOM      7  C1  UNL d   1       0.978   1.777   0.245  0.00  0.00     0.055 C 
ATOM      8  C   UNL d   1       0.233   2.068   1.539  0.00  0.00     0.019 C 
ENDBRANCH   1   7
TORSDOF 1
ENDMDL
