MODEL 1
REMARK minimizedAffinity -3.85977626
REMARK minimizedRMSD -1
REMARK  1 active torsions:
REMARK  status: ('A' for Active; 'I' for Inactive)
REMARK    1  A    between atoms: C1_2  and  C2_3 
ROOT
ATOM      1  C2  UNL d   1       2.693  -0.239  -0.166  0.00  0.00    -0.077 A 
ATOM      2  C3  UNL d   1       2.146  -1.513   0.041  0.00  0.00     0.002 A 
ATOM      3  C4  UNL d   1       2.584  -2.601  -0.717  0.00  0.00     0.002 A 
ATOM      4  C5  UNL d   1       3.573  -2.426  -1.683  0.00  0.00    -0.004 A 
ATOM      5  C6  UNL d   1       4.121  -1.162  -1.897  0.00  0.00     0.002 A 
ATOM      6  C7  UNL d   1       3.684  -0.074  -1.142  0.00  0.00     0.002 A 
ENDROOT
BRANCH   1   7
ATOM      7  C1  UNL d   1       2.257   0.926   0.684  0.00  0.00     0.055 C 
ATOM      8  C   UNL d   1       3.362   1.964   0.811  0.00  0.00     0.019 C 
ENDBRANCH   1   7
TORSDOF 1
ENDMDL
