MODEL 1
REMARK minimizedAffinity 1.6809622
REMARK minimizedRMSD -1
REMARK  1 active torsions:
REMARK  status: ('A' for Active; 'I' for Inactive)
REMARK    1  A    between atoms: C1_2  and  C2_3 
ROOT
ATOM      1  C2  UNL d   1       2.582  -0.329  -0.674  0.00  0.00    -0.077 A 
ATOM      2  C3  UNL d   1       3.755   0.401  -0.910  0.00  0.00     0.002 A 
ATOM      3  C4  UNL d   1       3.965   1.626  -0.274  0.00  0.00     0.002 A 
ATOM      4  C5  UNL d   1       3.008   2.130   0.605  0.00  0.00    -0.004 A 
ATOM      5  C6  UNL d   1       1.837   1.412   0.845  0.00  0.00     0.002 A 
ATOM      6  C7  UNL d   1       1.625   0.187   0.209  0.00  0.00     0.002 A 
ENDROOT
BRANCH   1   7
ATOM      7  C1  UNL d   1       2.377  -1.674  -1.320  0.00  0.00     0.055 C 
ATOM      8  C   UNL d   1       1.853  -2.695  -0.321  0.00  0.00     0.019 C 
ENDBRANCH   1   7
TORSDOF 1
ENDMDL
