MODEL 1
REMARK minimizedAffinity 4.44592667
REMARK minimizedRMSD -1
REMARK  1 active torsions:
REMARK  status: ('A' for Active; 'I' for Inactive)
REMARK    1  A    between atoms: C1_2  and  C2_3 
ROOT
ATOM      1  C2  UNL d   1      -1.103  -2.197  -2.959  0.00  0.00    -0.077 A 
ATOM      2  C3  UNL d   1      -1.566  -0.954  -2.508  0.00  0.00     0.002 A 
ATOM      3  C4  UNL d   1      -1.332  -0.547  -1.193  0.00  0.00     0.002 A 
ATOM      4  C5  UNL d   1      -0.630  -1.376  -0.320  0.00  0.00    -0.004 A 
ATOM      5  C6  UNL d   1      -0.167  -2.616  -0.759  0.00  0.00     0.002 A 
ATOM      6  C7  UNL d   1      -0.402  -3.024  -2.073  0.00  0.00     0.002 A 
ENDROOT
BRANCH   1   7
ATOM      7  C1  UNL d   1      -1.312  -2.617  -4.391  0.00  0.00     0.055 C 
ATOM      8  C   UNL d   1      -2.183  -3.861  -4.482  0.00  0.00     0.019 C 
ENDBRANCH   1   7
TORSDOF 1
ENDMDL
