MODEL 1
REMARK minimizedAffinity -1.49252319
REMARK minimizedRMSD -1
REMARK  0 active torsions:
REMARK  status: ('A' for Active; 'I' for Inactive)
ROOT
ATOM      1  C   UNL d   1      -1.629   0.645   0.688  0.00  0.00     0.172 C 
ATOM      2  N   UNL d   1      -1.917   0.953   2.069  0.00  0.00    -0.070 N 
ATOM      3  C1  UNL d   1      -2.390   0.069   3.002  0.00  0.00    -0.004 A 
ATOM      4  C2  UNL d   1      -2.532   0.748   4.193  0.00  0.00    -0.047 A 
ATOM      5  C3  UNL d   1      -2.131   2.087   3.968  0.00  0.00    -0.047 A 
ATOM      6  C4  UNL d   1      -1.755   2.186   2.645  0.00  0.00    -0.004 A 
ENDROOT
TORSDOF 0
ENDMDL
