MODEL 1
REMARK minimizedAffinity -3.33899665
REMARK minimizedRMSD -1
REMARK  0 active torsions:
REMARK  status: ('A' for Active; 'I' for Inactive)
ROOT
ATOM      1  C   UNL d   1      -0.615   0.334   0.146  0.00  0.00     0.172 C 
ATOM      2  N   UNL d   1       0.593  -0.282  -0.350  0.00  0.00    -0.070 N 
ATOM      3  C1  UNL d   1       1.759   0.373  -0.648  0.00  0.00    -0.004 A 
ATOM      4  C2  UNL d   1       2.668  -0.565  -1.089  0.00  0.00    -0.047 A 
ATOM      5  C3  UNL d   1       2.027  -1.826  -1.054  0.00  0.00    -0.047 A 
ATOM      6  C4  UNL d   1       0.744  -1.622  -0.593  0.00  0.00    -0.004 A 
ENDROOT
TORSDOF 0
ENDMDL
