MODEL 1
REMARK minimizedAffinity -2.36742616
REMARK minimizedRMSD -1
REMARK  0 active torsions:
REMARK  status: ('A' for Active; 'I' for Inactive)
ROOT
ATOM      1  C   UNL d   1       2.246  -0.751  -1.121  0.00  0.00     0.172 C 
ATOM      2  N   UNL d   1       1.025  -0.434  -0.419  0.00  0.00    -0.070 N 
ATOM      3  C1  UNL d   1       0.273  -1.314   0.313  0.00  0.00    -0.004 A 
ATOM      4  C2  UNL d   1      -0.807  -0.626   0.820  0.00  0.00    -0.047 A 
ATOM      5  C3  UNL d   1      -0.702   0.714   0.378  0.00  0.00    -0.047 A 
ATOM      6  C4  UNL d   1       0.441   0.805  -0.388  0.00  0.00    -0.004 A 
ENDROOT
TORSDOF 0
ENDMDL
