MODEL 1
REMARK minimizedAffinity -0.451444507
REMARK minimizedRMSD -1
REMARK  0 active torsions:
REMARK  status: ('A' for Active; 'I' for Inactive)
ROOT
ATOM      1  C   UNL d   1      -2.328   0.776   2.074  0.00  0.00     0.172 C 
ATOM      2  N   UNL d   1      -1.253   0.568   1.133  0.00  0.00    -0.070 N 
ATOM      3  C1  UNL d   1      -0.244  -0.348   1.263  0.00  0.00    -0.004 A 
ATOM      4  C2  UNL d   1       0.576  -0.233   0.161  0.00  0.00    -0.047 A 
ATOM      5  C3  UNL d   1       0.041   0.788  -0.660  0.00  0.00    -0.047 A 
ATOM      6  C4  UNL d   1      -1.091   1.267  -0.034  0.00  0.00    -0.004 A 
ENDROOT
TORSDOF 0
ENDMDL
