MODEL 1
REMARK minimizedAffinity -3.55834317
REMARK minimizedRMSD -1
REMARK  0 active torsions:
REMARK  status: ('A' for Active; 'I' for Inactive)
ROOT
ATOM      1  C   UNL d   1       0.207   0.354   0.856  0.00  0.00     0.172 C 
ATOM      2  N   UNL d   1      -0.446   0.683   2.101  0.00  0.00    -0.070 N 
ATOM      3  C1  UNL d   1      -1.733   1.132   2.233  0.00  0.00    -0.004 A 
ATOM      4  C2  UNL d   1      -1.976   1.330   3.575  0.00  0.00    -0.047 A 
ATOM      5  C3  UNL d   1      -0.793   0.989   4.274  0.00  0.00    -0.047 A 
ATOM      6  C4  UNL d   1       0.138   0.592   3.337  0.00  0.00    -0.004 A 
ENDROOT
TORSDOF 0
ENDMDL
