MODEL 1
REMARK minimizedAffinity -2.97123528
REMARK minimizedRMSD -1
REMARK  0 active torsions:
REMARK  status: ('A' for Active; 'I' for Inactive)
ROOT
ATOM      1  C   UNL d   1       1.971  -1.426  -2.408  0.00  0.00     0.172 C 
ATOM      2  N   UNL d   1       1.289  -0.840  -1.279  0.00  0.00    -0.070 N 
ATOM      3  C1  UNL d   1       0.457  -1.503  -0.416  0.00  0.00    -0.004 A 
ATOM      4  C2  UNL d   1       0.010  -0.596   0.520  0.00  0.00    -0.047 A 
ATOM      5  C3  UNL d   1       0.592   0.656   0.209  0.00  0.00    -0.047 A 
ATOM      6  C4  UNL d   1       1.379   0.476  -0.909  0.00  0.00    -0.004 A 
ENDROOT
TORSDOF 0
ENDMDL
