MODEL 1
REMARK minimizedAffinity -2.06971359
REMARK minimizedRMSD -1
REMARK  0 active torsions:
REMARK  status: ('A' for Active; 'I' for Inactive)
ROOT
ATOM      1  C   UNL d   1      -1.749   0.015   3.183  0.00  0.00     0.172 C 
ATOM      2  N   UNL d   1      -1.501   0.326   1.795  0.00  0.00    -0.070 N 
ATOM      3  C1  UNL d   1      -0.312   0.152   1.138  0.00  0.00    -0.004 A 
ATOM      4  C2  UNL d   1      -0.485   0.565  -0.165  0.00  0.00    -0.047 A 
ATOM      5  C3  UNL d   1      -1.825   1.003  -0.296  0.00  0.00    -0.047 A 
ATOM      6  C4  UNL d   1      -2.431   0.844   0.932  0.00  0.00    -0.004 A 
ENDROOT
TORSDOF 0
ENDMDL
