MODEL 1
REMARK minimizedAffinity -2.82795191
REMARK minimizedRMSD -1
REMARK  0 active torsions:
REMARK  status: ('A' for Active; 'I' for Inactive)
ROOT
ATOM      1  C   UNL d   1      -0.491   0.484   1.497  0.00  0.00     0.172 C 
ATOM      2  N   UNL d   1       0.483  -0.095   0.601  0.00  0.00    -0.070 N 
ATOM      3  C1  UNL d   1       1.531  -0.895   0.971  0.00  0.00    -0.004 A 
ATOM      4  C2  UNL d   1       2.221  -1.240  -0.171  0.00  0.00    -0.047 A 
ATOM      5  C3  UNL d   1       1.566  -0.626  -1.264  0.00  0.00    -0.047 A 
ATOM      6  C4  UNL d   1       0.493   0.077  -0.758  0.00  0.00    -0.004 A 
ENDROOT
TORSDOF 0
ENDMDL
