MODEL 1
REMARK minimizedAffinity -3.49670434
REMARK minimizedRMSD -1
REMARK  0 active torsions:
REMARK  status: ('A' for Active; 'I' for Inactive)
ROOT
ATOM      1  C   UNL d   1       0.376  -0.128  -0.297  0.00  0.00     0.172 C 
ATOM      2  N   UNL d   1       1.239   0.386  -1.335  0.00  0.00    -0.070 N 
ATOM      3  C1  UNL d   1       0.883   1.300  -2.290  0.00  0.00    -0.004 A 
ATOM      4  C2  UNL d   1       1.983   1.528  -3.088  0.00  0.00    -0.047 A 
ATOM      5  C3  UNL d   1       3.037   0.722  -2.596  0.00  0.00    -0.047 A 
ATOM      6  C4  UNL d   1       2.549   0.025  -1.511  0.00  0.00    -0.004 A 
ENDROOT
TORSDOF 0
ENDMDL
