MODEL 1
REMARK minimizedAffinity -3.9103446
REMARK minimizedRMSD -1
REMARK  0 active torsions:
REMARK  status: ('A' for Active; 'I' for Inactive)
ROOT
ATOM      1  C   UNL d   1       1.033   1.102  -2.236  0.00  0.00     0.172 C 
ATOM      2  N   UNL d   1       1.078  -0.046  -1.360  0.00  0.00    -0.070 N 
ATOM      3  C1  UNL d   1       0.273  -0.250  -0.271  0.00  0.00    -0.004 A 
ATOM      4  C2  UNL d   1       0.627  -1.456   0.294  0.00  0.00    -0.047 A 
ATOM      5  C3  UNL d   1       1.682  -1.994  -0.481  0.00  0.00    -0.047 A 
ATOM      6  C4  UNL d   1       1.940  -1.101  -1.499  0.00  0.00    -0.004 A 
ENDROOT
TORSDOF 0
ENDMDL
