MODEL 1
REMARK minimizedAffinity -1.27609658
REMARK minimizedRMSD -1
REMARK  0 active torsions:
REMARK  status: ('A' for Active; 'I' for Inactive)
ROOT
ATOM      1  C   UNL d   1      -1.538   1.012   2.898  0.00  0.00     0.172 C 
ATOM      2  N   UNL d   1      -0.867   0.471   1.740  0.00  0.00    -0.070 N 
ATOM      3  C1  UNL d   1       0.336  -0.184   1.747  0.00  0.00    -0.004 A 
ATOM      4  C2  UNL d   1       0.630  -0.540   0.448  0.00  0.00    -0.047 A 
ATOM      5  C3  UNL d   1      -0.432  -0.082  -0.367  0.00  0.00    -0.047 A 
ATOM      6  C4  UNL d   1      -1.344   0.541   0.458  0.00  0.00    -0.004 A 
ENDROOT
TORSDOF 0
ENDMDL
