MODEL 1
REMARK minimizedAffinity -3.78169608
REMARK minimizedRMSD -1
REMARK  0 active torsions:
REMARK  status: ('A' for Active; 'I' for Inactive)
ROOT
ATOM      1  C   UNL d   1      -0.198   0.435   0.908  0.00  0.00     0.172 C 
ATOM      2  N   UNL d   1       0.939  -0.146   0.234  0.00  0.00    -0.070 N 
ATOM      3  C1  UNL d   1       2.206   0.373   0.216  0.00  0.00    -0.004 A 
ATOM      4  C2  UNL d   1       2.998  -0.473  -0.530  0.00  0.00    -0.047 A 
ATOM      5  C3  UNL d   1       2.178  -1.537  -0.976  0.00  0.00    -0.047 A 
ATOM      6  C4  UNL d   1       0.909  -1.309  -0.488  0.00  0.00    -0.004 A 
ENDROOT
TORSDOF 0
ENDMDL
