MODEL 1
REMARK minimizedAffinity -3.2384913
REMARK minimizedRMSD -1
REMARK  0 active torsions:
REMARK  status: ('A' for Active; 'I' for Inactive)
ROOT
ATOM      1  C   UNL d   1      -1.083   0.072   0.738  0.00  0.00     0.172 C 
ATOM      2  N   UNL d   1       0.042  -0.490   0.028  0.00  0.00    -0.070 N 
ATOM      3  C1  UNL d   1       0.330  -1.824  -0.082  0.00  0.00    -0.004 A 
ATOM      4  C2  UNL d   1       1.478  -1.947  -0.835  0.00  0.00    -0.047 A 
ATOM      5  C3  UNL d   1       1.895  -0.641  -1.188  0.00  0.00    -0.047 A 
ATOM      6  C4  UNL d   1       0.988   0.241  -0.641  0.00  0.00    -0.004 A 
ENDROOT
TORSDOF 0
ENDMDL
