MODEL 1
REMARK minimizedAffinity -3.66472936
REMARK minimizedRMSD -1
REMARK  0 active torsions:
REMARK  status: ('A' for Active; 'I' for Inactive)
ROOT
ATOM      1  C   UNL d   1      -0.828   0.028   0.098  0.00  0.00     0.172 C 
ATOM      2  N   UNL d   1       0.461  -0.425  -0.369  0.00  0.00    -0.070 N 
ATOM      3  C1  UNL d   1       1.450   0.373  -0.879  0.00  0.00    -0.004 A 
ATOM      4  C2  UNL d   1       2.517  -0.435  -1.208  0.00  0.00    -0.047 A 
ATOM      5  C3  UNL d   1       2.156  -1.765  -0.886  0.00  0.00    -0.047 A 
ATOM      6  C4  UNL d   1       0.878  -1.730  -0.369  0.00  0.00    -0.004 A 
ENDROOT
TORSDOF 0
ENDMDL
