MODEL 1
REMARK minimizedAffinity 0.43552649
REMARK minimizedRMSD -1
REMARK  0 active torsions:
REMARK  status: ('A' for Active; 'I' for Inactive)
ROOT
ATOM      1  C   UNL d   1      -0.957   0.706   3.170  0.00  0.00     0.172 C 
ATOM      2  N   UNL d   1      -0.575   0.550   1.787  0.00  0.00    -0.070 N 
ATOM      3  C1  UNL d   1       0.095   1.478   1.034  0.00  0.00    -0.004 A 
ATOM      4  C2  UNL d   1       0.269   0.951  -0.228  0.00  0.00    -0.047 A 
ATOM      5  C3  UNL d   1      -0.317  -0.337  -0.234  0.00  0.00    -0.047 A 
ATOM      6  C4  UNL d   1      -0.832  -0.559   1.026  0.00  0.00    -0.004 A 
ENDROOT
TORSDOF 0
ENDMDL
