MODEL 1
REMARK minimizedAffinity -3.4098649
REMARK minimizedRMSD -1
REMARK  0 active torsions:
REMARK  status: ('A' for Active; 'I' for Inactive)
ROOT
ATOM      1  C   UNL d   1      -1.216   0.247   0.753  0.00  0.00     0.172 C 
ATOM      2  N   UNL d   1       0.017  -0.248   0.187  0.00  0.00    -0.070 N 
ATOM      3  C1  UNL d   1       0.328  -1.565  -0.020  0.00  0.00    -0.004 A 
ATOM      4  C2  UNL d   1       1.588  -1.619  -0.575  0.00  0.00    -0.047 A 
ATOM      5  C3  UNL d   1       2.051  -0.288  -0.704  0.00  0.00    -0.047 A 
ATOM      6  C4  UNL d   1       1.059   0.540  -0.225  0.00  0.00    -0.004 A 
ENDROOT
TORSDOF 0
ENDMDL
