MODEL 1
REMARK minimizedAffinity -5.41723728
REMARK minimizedRMSD -1
REMARK  0 active torsions:
REMARK  status: ('A' for Active; 'I' for Inactive)
ROOT
ATOM      1  C   UNL d   1      -2.071  -1.982   1.142  0.00  0.00     0.020 A 
ATOM      2  C1  UNL d   1      -2.724  -1.897  -0.087  0.00  0.00     0.020 A 
ATOM      3  C2  UNL d   1      -2.195  -1.099  -1.105  0.00  0.00     0.034 A 
ATOM      4  C3  UNL d   1      -1.011  -0.384  -0.895  0.00  0.00     0.017 A 
ATOM      5  C4  UNL d   1      -0.356  -0.470   0.340  0.00  0.00     0.017 A 
ATOM      6  C5  UNL d   1      -0.890  -1.270   1.355  0.00  0.00     0.034 A 
ATOM      7 Cl   UNL d   1       1.109   0.384   0.673  0.00  0.00    -0.070 Cl
ATOM      8 Cl1  UNL d   1      -0.414   0.582  -2.197  0.00  0.00    -0.070 Cl
ENDROOT
TORSDOF 0
ENDMDL
