MODEL 1
REMARK minimizedAffinity -1.46450055
REMARK minimizedRMSD -1
REMARK  0 active torsions:
REMARK  status: ('A' for Active; 'I' for Inactive)
ROOT
ATOM      1  C   UNL d   1       0.798   0.864  -0.135  0.00  0.00     0.020 A 
ATOM      2  C1  UNL d   1       1.570   0.165   0.792  0.00  0.00     0.020 A 
ATOM      3  C2  UNL d   1       0.994  -0.855   1.553  0.00  0.00     0.034 A 
ATOM      4  C3  UNL d   1      -0.358  -1.178   1.388  0.00  0.00     0.017 A 
ATOM      5  C4  UNL d   1      -1.132  -0.475   0.457  0.00  0.00     0.017 A 
ATOM      6  C5  UNL d   1      -0.550   0.545  -0.302  0.00  0.00     0.034 A 
ATOM      7 Cl   UNL d   1      -2.807  -0.816   0.198  0.00  0.00    -0.070 Cl
ATOM      8 Cl1  UNL d   1      -1.005  -2.450   2.362  0.00  0.00    -0.070 Cl
ENDROOT
TORSDOF 0
ENDMDL
