MODEL 1
REMARK minimizedAffinity -2.75388598
REMARK minimizedRMSD -1
REMARK  0 active torsions:
REMARK  status: ('A' for Active; 'I' for Inactive)
ROOT
ATOM      1  C   UNL d   1      -2.495  -1.145  -1.699  0.00  0.00     0.020 A 
ATOM      2  C1  UNL d   1      -1.525  -0.327  -2.278  0.00  0.00     0.020 A 
ATOM      3  C2  UNL d   1      -0.395   0.041  -1.545  0.00  0.00     0.034 A 
ATOM      4  C3  UNL d   1      -0.233  -0.407  -0.229  0.00  0.00     0.017 A 
ATOM      5  C4  UNL d   1      -1.207  -1.228   0.351  0.00  0.00     0.017 A 
ATOM      6  C5  UNL d   1      -2.336  -1.594  -0.388  0.00  0.00     0.034 A 
ATOM      7 Cl   UNL d   1      -1.076  -1.821   1.969  0.00  0.00    -0.070 Cl
ATOM      8 Cl1  UNL d   1       1.189   0.088   0.619  0.00  0.00    -0.070 Cl
ENDROOT
TORSDOF 0
ENDMDL
