MODEL 1
REMARK minimizedAffinity -0.250999331
REMARK minimizedRMSD -1
REMARK  0 active torsions:
REMARK  status: ('A' for Active; 'I' for Inactive)
ROOT
ATOM      1  C   UNL d   1      -0.843   0.461   0.523  0.00  0.00     0.020 A 
ATOM      2  C1  UNL d   1      -0.184   0.093  -0.650  0.00  0.00     0.020 A 
ATOM      3  C2  UNL d   1       1.091   0.593  -0.921  0.00  0.00     0.034 A 
ATOM      4  C3  UNL d   1       1.712   1.464  -0.018  0.00  0.00     0.017 A 
ATOM      5  C4  UNL d   1       1.050   1.833   1.159  0.00  0.00     0.017 A 
ATOM      6  C5  UNL d   1      -0.227   1.329   1.425  0.00  0.00     0.034 A 
ATOM      7 Cl   UNL d   1       1.752   2.903   2.320  0.00  0.00    -0.070 Cl
ATOM      8 Cl1  UNL d   1       3.290   2.043  -0.417  0.00  0.00    -0.070 Cl
ENDROOT
TORSDOF 0
ENDMDL
