MODEL 1
REMARK minimizedAffinity -4.26559782
REMARK minimizedRMSD -1
REMARK  0 active torsions:
REMARK  status: ('A' for Active; 'I' for Inactive)
ROOT
ATOM      1  C   UNL d   1       1.010  -0.412  -0.153  0.00  0.00     0.020 A 
ATOM      2  C1  UNL d   1       0.225  -0.824   0.923  0.00  0.00     0.020 A 
ATOM      3  C2  UNL d   1      -1.156  -0.965   0.767  0.00  0.00     0.034 A 
ATOM      4  C3  UNL d   1      -1.756  -0.692  -0.468  0.00  0.00     0.017 A 
ATOM      5  C4  UNL d   1      -0.967  -0.278  -1.548  0.00  0.00     0.017 A 
ATOM      6  C5  UNL d   1       0.415  -0.139  -1.386  0.00  0.00     0.034 A 
ATOM      7 Cl   UNL d   1      -1.636   0.076  -3.102  0.00  0.00    -0.070 Cl
ATOM      8 Cl1  UNL d   1      -3.468  -0.888  -0.590  0.00  0.00    -0.070 Cl
ENDROOT
TORSDOF 0
ENDMDL
