MODEL 1
REMARK minimizedAffinity -3.67768097
REMARK minimizedRMSD -1
REMARK  0 active torsions:
REMARK  status: ('A' for Active; 'I' for Inactive)
ROOT
ATOM      1  C   UNL d   1      -2.929  -1.585   0.158  0.00  0.00     0.020 A 
ATOM      2  C1  UNL d   1      -2.275  -1.105   1.291  0.00  0.00     0.020 A 
ATOM      3  C2  UNL d   1      -1.143  -0.299   1.155  0.00  0.00     0.034 A 
ATOM      4  C3  UNL d   1      -0.661   0.029  -0.118  0.00  0.00     0.017 A 
ATOM      5  C4  UNL d   1      -1.319  -0.453  -1.255  0.00  0.00     0.017 A 
ATOM      6  C5  UNL d   1      -2.452  -1.260  -1.113  0.00  0.00     0.034 A 
ATOM      7 Cl   UNL d   1      -0.784  -0.091  -2.858  0.00  0.00    -0.070 Cl
ATOM      8 Cl1  UNL d   1       0.743   1.031  -0.212  0.00  0.00    -0.070 Cl
ENDROOT
TORSDOF 0
ENDMDL
