MODEL 1
REMARK minimizedAffinity -4.26733398
REMARK minimizedRMSD -1
REMARK  0 active torsions:
REMARK  status: ('A' for Active; 'I' for Inactive)
ROOT
ATOM      1  C   UNL d   1      -2.956  -0.913  -0.333  0.00  0.00     0.020 A 
ATOM      2  C1  UNL d   1      -2.138  -1.048   0.788  0.00  0.00     0.020 A 
ATOM      3  C2  UNL d   1      -0.790  -0.691   0.716  0.00  0.00     0.034 A 
ATOM      4  C3  UNL d   1      -0.256  -0.198  -0.480  0.00  0.00     0.017 A 
ATOM      5  C4  UNL d   1      -1.077  -0.063  -1.605  0.00  0.00     0.017 A 
ATOM      6  C5  UNL d   1      -2.426  -0.421  -1.527  0.00  0.00     0.034 A 
ATOM      7 Cl   UNL d   1      -0.490   0.539  -3.115  0.00  0.00    -0.070 Cl
ATOM      8 Cl1  UNL d   1       1.420   0.224  -0.497  0.00  0.00    -0.070 Cl
ENDROOT
TORSDOF 0
ENDMDL
