MODEL 1
REMARK minimizedAffinity -5.07966137
REMARK minimizedRMSD -1
REMARK  0 active torsions:
REMARK  status: ('A' for Active; 'I' for Inactive)
ROOT
ATOM      1  C   UNL d   1      -2.399   0.522  -1.689  0.00  0.00     0.020 A 
ATOM      2  C1  UNL d   1      -3.257  -0.290  -0.948  0.00  0.00     0.020 A 
ATOM      3  C2  UNL d   1      -2.759  -1.043   0.117  0.00  0.00     0.034 A 
ATOM      4  C3  UNL d   1      -1.400  -0.985   0.446  0.00  0.00     0.017 A 
ATOM      5  C4  UNL d   1      -0.539  -0.169  -0.298  0.00  0.00     0.017 A 
ATOM      6  C5  UNL d   1      -1.043   0.582  -1.364  0.00  0.00     0.034 A 
ATOM      7 Cl   UNL d   1       1.150  -0.045   0.048  0.00  0.00    -0.070 Cl
ATOM      8 Cl1  UNL d   1      -0.853  -1.942   1.777  0.00  0.00    -0.070 Cl
ENDROOT
TORSDOF 0
ENDMDL
