MODEL 1
REMARK minimizedAffinity -4.25411034
REMARK minimizedRMSD -1
REMARK  0 active torsions:
REMARK  status: ('A' for Active; 'I' for Inactive)
ROOT
ATOM      1  C   UNL d   1       0.041  -1.269   1.260  0.00  0.00     0.020 A 
ATOM      2  C1  UNL d   1      -1.247  -0.859   0.917  0.00  0.00     0.020 A 
ATOM      3  C2  UNL d   1      -1.434   0.315   0.185  0.00  0.00     0.034 A 
ATOM      4  C3  UNL d   1      -0.332   1.083  -0.208  0.00  0.00     0.017 A 
ATOM      5  C4  UNL d   1       0.961   0.671   0.137  0.00  0.00     0.017 A 
ATOM      6  C5  UNL d   1       1.142  -0.506   0.871  0.00  0.00     0.034 A 
ATOM      7 Cl   UNL d   1       2.370   1.566  -0.311  0.00  0.00    -0.070 Cl
ATOM      8 Cl1  UNL d   1      -0.637   2.523  -1.112  0.00  0.00    -0.070 Cl
ENDROOT
TORSDOF 0
ENDMDL
