MODEL 1
REMARK minimizedAffinity -4.41120052
REMARK minimizedRMSD -1
REMARK  0 active torsions:
REMARK  status: ('A' for Active; 'I' for Inactive)
ROOT
ATOM      1  C   UNL d   1       1.234   0.424  -0.323  0.00  0.00     0.020 A 
ATOM      2  C1  UNL d   1       0.405   0.760  -1.392  0.00  0.00     0.020 A 
ATOM      3  C2  UNL d   1      -0.898   0.260  -1.450  0.00  0.00     0.034 A 
ATOM      4  C3  UNL d   1      -1.375  -0.579  -0.436  0.00  0.00     0.017 A 
ATOM      5  C4  UNL d   1      -0.542  -0.916   0.637  0.00  0.00     0.017 A 
ATOM      6  C5  UNL d   1       0.761  -0.413   0.689  0.00  0.00     0.034 A 
ATOM      7 Cl   UNL d   1      -1.060  -1.946   1.925  0.00  0.00    -0.070 Cl
ATOM      8 Cl1  UNL d   1      -2.997  -1.160  -0.571  0.00  0.00    -0.070 Cl
ENDROOT
TORSDOF 0
ENDMDL
