MODEL 1
REMARK minimizedAffinity 0.57831341
REMARK minimizedRMSD -1
REMARK  0 active torsions:
REMARK  status: ('A' for Active; 'I' for Inactive)
ROOT
ATOM      1  C   UNL d   1       1.589   0.094   0.278  0.00  0.00     0.020 A 
ATOM      2  C1  UNL d   1       0.751   0.685  -0.667  0.00  0.00     0.020 A 
ATOM      3  C2  UNL d   1      -0.616   0.401  -0.664  0.00  0.00     0.034 A 
ATOM      4  C3  UNL d   1      -1.150  -0.477   0.286  0.00  0.00     0.017 A 
ATOM      5  C4  UNL d   1      -0.309  -1.070   1.235  0.00  0.00     0.017 A 
ATOM      6  C5  UNL d   1       1.059  -0.782   1.227  0.00  0.00     0.034 A 
ATOM      7 Cl   UNL d   1      -0.895  -2.164   2.438  0.00  0.00    -0.070 Cl
ATOM      8 Cl1  UNL d   1      -2.850  -0.782   0.232  0.00  0.00    -0.070 Cl
ENDROOT
TORSDOF 0
ENDMDL
