MODEL 1
REMARK minimizedAffinity -4.23321199
REMARK minimizedRMSD -1
REMARK  0 active torsions:
REMARK  status: ('A' for Active; 'I' for Inactive)
ROOT
ATOM      1  C   UNL d   1      -1.984  -2.169   1.532  0.00  0.00     0.020 A 
ATOM      2  C1  UNL d   1      -2.896  -2.023   0.487  0.00  0.00     0.020 A 
ATOM      3  C2  UNL d   1      -2.669  -1.069  -0.508  0.00  0.00     0.034 A 
ATOM      4  C3  UNL d   1      -1.529  -0.259  -0.460  0.00  0.00     0.017 A 
ATOM      5  C4  UNL d   1      -0.615  -0.407   0.589  0.00  0.00     0.017 A 
ATOM      6  C5  UNL d   1      -0.846  -1.364   1.583  0.00  0.00     0.034 A 
ATOM      7 Cl   UNL d   1       0.815   0.555   0.715  0.00  0.00    -0.070 Cl
ATOM      8 Cl1  UNL d   1      -1.313   0.898  -1.725  0.00  0.00    -0.070 Cl
ENDROOT
TORSDOF 0
ENDMDL
