MODEL 1
REMARK minimizedAffinity -5.12527657
REMARK minimizedRMSD -1
REMARK  0 active torsions:
REMARK  status: ('A' for Active; 'I' for Inactive)
ROOT
ATOM      1  C   UNL d   1      -3.205  -0.249  -0.739  0.00  0.00     0.020 A 
ATOM      2  C1  UNL d   1      -2.270   0.536  -1.413  0.00  0.00     0.020 A 
ATOM      3  C2  UNL d   1      -0.914   0.436  -1.093  0.00  0.00     0.034 A 
ATOM      4  C3  UNL d   1      -0.490  -0.451  -0.097  0.00  0.00     0.017 A 
ATOM      5  C4  UNL d   1      -1.429  -1.238   0.579  0.00  0.00     0.017 A 
ATOM      6  C5  UNL d   1      -2.785  -1.134   0.255  0.00  0.00     0.034 A 
ATOM      7 Cl   UNL d   1      -0.981  -2.354   1.820  0.00  0.00    -0.070 Cl
ATOM      8 Cl1  UNL d   1       1.202  -0.523   0.247  0.00  0.00    -0.070 Cl
ENDROOT
TORSDOF 0
ENDMDL
