MODEL 1
REMARK minimizedAffinity -2.13844156
REMARK minimizedRMSD -1
REMARK  0 active torsions:
REMARK  status: ('A' for Active; 'I' for Inactive)
ROOT
ATOM      1  C   UNL d   1       1.286   0.102  -0.611  0.00  0.00     0.020 A 
ATOM      2  C1  UNL d   1       0.354   0.523  -1.559  0.00  0.00     0.020 A 
ATOM      3  C2  UNL d   1      -1.003   0.253  -1.372  0.00  0.00     0.034 A 
ATOM      4  C3  UNL d   1      -1.433  -0.439  -0.234  0.00  0.00     0.017 A 
ATOM      5  C4  UNL d   1      -0.497  -0.861   0.717  0.00  0.00     0.017 A 
ATOM      6  C5  UNL d   1       0.861  -0.588   0.525  0.00  0.00     0.034 A 
ATOM      7 Cl   UNL d   1      -0.951  -1.720   2.146  0.00  0.00    -0.070 Cl
ATOM      8 Cl1  UNL d   1      -3.126  -0.738  -0.068  0.00  0.00    -0.070 Cl
ENDROOT
TORSDOF 0
ENDMDL
