MODEL 1
REMARK minimizedAffinity -3.23949027
REMARK minimizedRMSD -1
REMARK  0 active torsions:
REMARK  status: ('A' for Active; 'I' for Inactive)
ROOT
ATOM      1  C   UNL d   1       0.335  -0.527   1.075  0.00  0.00     0.020 A 
ATOM      2  C1  UNL d   1       1.135   0.079   0.108  0.00  0.00     0.020 A 
ATOM      3  C2  UNL d   1       0.578   0.475  -1.110  0.00  0.00     0.034 A 
ATOM      4  C3  UNL d   1      -0.782   0.266  -1.364  0.00  0.00     0.017 A 
ATOM      5  C4  UNL d   1      -1.584  -0.342  -0.392  0.00  0.00     0.017 A 
ATOM      6  C5  UNL d   1      -1.022  -0.737   0.826  0.00  0.00     0.034 A 
ATOM      7 Cl   UNL d   1      -3.271  -0.634  -0.632  0.00  0.00    -0.070 Cl
ATOM      8 Cl1  UNL d   1      -1.403   0.782  -2.892  0.00  0.00    -0.070 Cl
ENDROOT
TORSDOF 0
ENDMDL
