MODEL 1
REMARK minimizedAffinity -3.87352371
REMARK minimizedRMSD -1
REMARK  0 active torsions:
REMARK  status: ('A' for Active; 'I' for Inactive)
ROOT
ATOM      1  C   UNL d   1      -2.872   0.007  -0.785  0.00  0.00     0.020 A 
ATOM      2  C1  UNL d   1      -1.921   0.619  -1.600  0.00  0.00     0.020 A 
ATOM      3  C2  UNL d   1      -0.565   0.526  -1.282  0.00  0.00     0.034 A 
ATOM      4  C3  UNL d   1      -0.155  -0.180  -0.145  0.00  0.00     0.017 A 
ATOM      5  C4  UNL d   1      -1.110  -0.794   0.673  0.00  0.00     0.017 A 
ATOM      6  C5  UNL d   1      -2.467  -0.698   0.350  0.00  0.00     0.034 A 
ATOM      7 Cl   UNL d   1      -0.682  -1.683   2.092  0.00  0.00    -0.070 Cl
ATOM      8 Cl1  UNL d   1       1.539  -0.255   0.188  0.00  0.00    -0.070 Cl
ENDROOT
TORSDOF 0
ENDMDL
