MODEL 1
REMARK minimizedAffinity -3.62563992
REMARK minimizedRMSD -1
REMARK  0 active torsions:
REMARK  status: ('A' for Active; 'I' for Inactive)
ROOT
ATOM      1  C   UNL d   1       1.703  -0.180   0.078  0.00  0.00     0.020 A 
ATOM      2  C1  UNL d   1       0.927   0.331  -0.962  0.00  0.00     0.020 A 
ATOM      3  C2  UNL d   1      -0.463   0.209  -0.921  0.00  0.00     0.034 A 
ATOM      4  C3  UNL d   1      -1.083  -0.426   0.161  0.00  0.00     0.017 A 
ATOM      5  C4  UNL d   1      -0.303  -0.939   1.205  0.00  0.00     0.017 A 
ATOM      6  C5  UNL d   1       1.088  -0.814   1.159  0.00  0.00     0.034 A 
ATOM      7 Cl   UNL d   1      -0.996  -1.736   2.573  0.00  0.00    -0.070 Cl
ATOM      8 Cl1  UNL d   1      -2.807  -0.542   0.146  0.00  0.00    -0.070 Cl
ENDROOT
TORSDOF 0
ENDMDL
