MODEL 1
REMARK minimizedAffinity -2.02540398
REMARK minimizedRMSD -1
REMARK  0 active torsions:
REMARK  status: ('A' for Active; 'I' for Inactive)
ROOT
ATOM      1  C1  DEN d   1       2.454   5.662  -5.626  0.00  0.00     0.130 A 
ATOM      2  C2  DEN d   1       1.148   5.110  -5.276  0.00  0.00    -0.031 A 
ATOM      3  C3  DEN d   1       1.299   3.650  -5.111  0.00  0.00     0.027 A 
ATOM      4  C4  DEN d   1       3.417   2.200  -5.357  0.00  0.00     0.027 A 
ATOM      5  C5  DEN d   1       4.762   2.218  -5.654  0.00  0.00    -0.003 A 
ATOM      6  C6  DEN d   1       5.419   3.371  -5.994  0.00  0.00     0.001 A 
ATOM      7  C7  DEN d   1       4.741   4.562  -6.000  0.00  0.00     0.017 A 
ATOM      8  C8  DEN d   1       3.384   4.550  -5.708  0.00  0.00    -0.094 A 
ATOM      9  C9  DEN d   1       2.740   3.376  -5.356  0.00  0.00    -0.072 A 
ENDROOT
TORSDOF 0
ENDMDL
