MODEL 1
REMARK minimizedAffinity -1.35496056
REMARK minimizedRMSD -1
REMARK  0 active torsions:
REMARK  status: ('A' for Active; 'I' for Inactive)
ROOT
ATOM      1  C1  DEN d   1       1.050   3.657  -5.964  0.00  0.00     0.130 A 
ATOM      2  C2  DEN d   1       0.397   4.963  -5.986  0.00  0.00    -0.031 A 
ATOM      3  C3  DEN d   1       1.449   5.999  -5.995  0.00  0.00     0.027 A 
ATOM      4  C4  DEN d   1       4.012   5.710  -5.983  0.00  0.00     0.027 A 
ATOM      5  C5  DEN d   1       5.037   4.791  -5.954  0.00  0.00    -0.003 A 
ATOM      6  C6  DEN d   1       4.808   3.442  -5.893  0.00  0.00     0.001 A 
ATOM      7  C7  DEN d   1       3.521   2.971  -5.904  0.00  0.00     0.017 A 
ATOM      8  C8  DEN d   1       2.482   3.892  -5.925  0.00  0.00    -0.094 A 
ATOM      9  C9  DEN d   1       2.735   5.251  -6.000  0.00  0.00    -0.072 A 
ENDROOT
TORSDOF 0
ENDMDL
