MODEL 1
REMARK minimizedAffinity 3.12379456
REMARK minimizedRMSD -1
REMARK  0 active torsions:
REMARK  status: ('A' for Active; 'I' for Inactive)
ROOT
ATOM      1  C1  DEN d   1       5.993   3.633  -5.917  0.00  0.00     0.130 A 
ATOM      2  C2  DEN d   1       6.000   5.091  -6.000  0.00  0.00    -0.031 A 
ATOM      3  C3  DEN d   1       4.598   5.554  -5.998  0.00  0.00     0.027 A 
ATOM      4  C4  DEN d   1       2.429   4.164  -5.870  0.00  0.00     0.027 A 
ATOM      5  C5  DEN d   1       1.917   2.887  -5.798  0.00  0.00    -0.003 A 
ATOM      6  C6  DEN d   1       2.719   1.777  -5.795  0.00  0.00     0.001 A 
ATOM      7  C7  DEN d   1       4.081   1.924  -5.819  0.00  0.00     0.017 A 
ATOM      8  C8  DEN d   1       4.605   3.208  -5.899  0.00  0.00    -0.094 A 
ATOM      9  C9  DEN d   1       3.777   4.318  -5.889  0.00  0.00    -0.072 A 
ENDROOT
TORSDOF 0
ENDMDL
