MODEL 1
REMARK minimizedAffinity -1.25417244
REMARK minimizedRMSD -1
REMARK  0 active torsions:
REMARK  status: ('A' for Active; 'I' for Inactive)
ROOT
ATOM      1  C1  DEN d   1       3.805   3.371   1.520  0.00  0.00     0.130 A 
ATOM      2  C2  DEN d   1       5.033   4.045   1.932  0.00  0.00    -0.031 A 
ATOM      3  C3  DEN d   1       5.997   3.014   2.366  0.00  0.00     0.027 A 
ATOM      4  C4  DEN d   1       5.710   0.452   2.435  0.00  0.00     0.027 A 
ATOM      5  C5  DEN d   1       4.838  -0.587   2.194  0.00  0.00    -0.003 A 
ATOM      6  C6  DEN d   1       3.560  -0.379   1.747  0.00  0.00     0.001 A 
ATOM      7  C7  DEN d   1       3.132   0.895   1.485  0.00  0.00     0.017 A 
ATOM      8  C8  DEN d   1       4.003   1.948   1.732  0.00  0.00    -0.094 A 
ATOM      9  C9  DEN d   1       5.295   1.717   2.172  0.00  0.00    -0.072 A 
ENDROOT
TORSDOF 0
ENDMDL
