MODEL 1
REMARK minimizedAffinity -2.87527537
REMARK minimizedRMSD -1
REMARK  0 active torsions:
REMARK  status: ('A' for Active; 'I' for Inactive)
ROOT
ATOM      1  C1  DEN d   1       3.770   2.319  -5.968  0.00  0.00     0.130 A 
ATOM      2  C2  DEN d   1       5.167   2.743  -5.990  0.00  0.00    -0.031 A 
ATOM      3  C3  DEN d   1       5.195   4.220  -6.000  0.00  0.00     0.027 A 
ATOM      4  C4  DEN d   1       3.222   5.881  -5.978  0.00  0.00     0.027 A 
ATOM      5  C5  DEN d   1       1.849   5.993  -5.971  0.00  0.00    -0.003 A 
ATOM      6  C6  DEN d   1       1.027   4.897  -5.996  0.00  0.00     0.001 A 
ATOM      7  C7  DEN d   1       1.570   3.640  -5.984  0.00  0.00     0.017 A 
ATOM      8  C8  DEN d   1       2.954   3.519  -5.999  0.00  0.00    -0.094 A 
ATOM      9  C9  DEN d   1       3.768   4.638  -5.961  0.00  0.00    -0.072 A 
ENDROOT
TORSDOF 0
ENDMDL
