MODEL 1
REMARK minimizedAffinity -1.63143468
REMARK minimizedRMSD -1
REMARK  0 active torsions:
REMARK  status: ('A' for Active; 'I' for Inactive)
ROOT
ATOM      1  C1  DEN d   1       2.166   4.896  -5.607  0.00  0.00     0.130 A 
ATOM      2  C2  DEN d   1       1.390   3.713  -5.246  0.00  0.00    -0.031 A 
ATOM      3  C3  DEN d   1       2.328   2.585  -5.082  0.00  0.00     0.027 A 
ATOM      4  C4  DEN d   1       4.894   2.556  -5.345  0.00  0.00     0.027 A 
ATOM      5  C5  DEN d   1       5.999   3.317  -5.654  0.00  0.00    -0.003 A 
ATOM      6  C6  DEN d   1       5.902   4.639  -5.999  0.00  0.00     0.001 A 
ATOM      7  C7  DEN d   1       4.677   5.252  -6.000  0.00  0.00     0.017 A 
ATOM      8  C8  DEN d   1       3.557   4.489  -5.697  0.00  0.00    -0.094 A 
ATOM      9  C9  DEN d   1       3.677   3.157  -5.339  0.00  0.00    -0.072 A 
ENDROOT
TORSDOF 0
ENDMDL
