MODEL 1
REMARK minimizedAffinity 0.944411159
REMARK minimizedRMSD -1
REMARK  0 active torsions:
REMARK  status: ('A' for Active; 'I' for Inactive)
ROOT
ATOM      1  C1  DEN d   1       1.129   3.740  -5.263  0.00  0.00     0.130 A 
ATOM      2  C2  DEN d   1       0.792   5.109  -5.644  0.00  0.00    -0.031 A 
ATOM      3  C3  DEN d   1       2.045   5.805  -5.999  0.00  0.00     0.027 A 
ATOM      4  C4  DEN d   1       4.460   4.900  -5.999  0.00  0.00     0.027 A 
ATOM      5  C5  DEN d   1       5.247   3.800  -5.739  0.00  0.00    -0.003 A 
ATOM      6  C6  DEN d   1       4.724   2.623  -5.273  0.00  0.00     0.001 A 
ATOM      7  C7  DEN d   1       3.371   2.504  -5.096  0.00  0.00     0.017 A 
ATOM      8  C8  DEN d   1       2.572   3.611  -5.349  0.00  0.00    -0.094 A 
ATOM      9  C9  DEN d   1       3.118   4.789  -5.831  0.00  0.00    -0.072 A 
ENDROOT
TORSDOF 0
ENDMDL
