MODEL 1
REMARK minimizedAffinity -1.11390519
REMARK minimizedRMSD -1
REMARK  0 active torsions:
REMARK  status: ('A' for Active; 'I' for Inactive)
ROOT
ATOM      1  C1  DEN d   1       1.901   6.000  -6.000  0.00  0.00     0.130 A 
ATOM      2  C2  DEN d   1       0.767   5.091  -5.852  0.00  0.00    -0.031 A 
ATOM      3  C3  DEN d   1       1.297   3.728  -5.651  0.00  0.00     0.027 A 
ATOM      4  C4  DEN d   1       3.751   2.940  -5.548  0.00  0.00     0.027 A 
ATOM      5  C5  DEN d   1       5.064   3.345  -5.632  0.00  0.00    -0.003 A 
ATOM      6  C6  DEN d   1       5.413   4.647  -5.876  0.00  0.00     0.001 A 
ATOM      7  C7  DEN d   1       4.435   5.599  -6.000  0.00  0.00     0.017 A 
ATOM      8  C8  DEN d   1       3.109   5.197  -5.924  0.00  0.00    -0.094 A 
ATOM      9  C9  DEN d   1       2.777   3.878  -5.664  0.00  0.00    -0.072 A 
ENDROOT
TORSDOF 0
ENDMDL
