MODEL 1
REMARK minimizedAffinity -0.381274402
REMARK minimizedRMSD -1
REMARK  0 active torsions:
REMARK  status: ('A' for Active; 'I' for Inactive)
ROOT
ATOM      1  C1  DEN d   1       2.001   5.497  -5.957  0.00  0.00     0.130 A 
ATOM      2  C2  DEN d   1       0.941   4.494  -5.982  0.00  0.00    -0.031 A 
ATOM      3  C3  DEN d   1       1.575   3.160  -6.000  0.00  0.00     0.027 A 
ATOM      4  C4  DEN d   1       4.082   2.555  -5.987  0.00  0.00     0.027 A 
ATOM      5  C5  DEN d   1       5.360   3.067  -5.981  0.00  0.00    -0.003 A 
ATOM      6  C6  DEN d   1       5.607   4.414  -6.000  0.00  0.00     0.001 A 
ATOM      7  C7  DEN d   1       4.559   5.297  -5.981  0.00  0.00     0.017 A 
ATOM      8  C8  DEN d   1       3.267   4.787  -5.995  0.00  0.00    -0.094 A 
ATOM      9  C9  DEN d   1       3.039   3.422  -5.963  0.00  0.00    -0.072 A 
ENDROOT
TORSDOF 0
ENDMDL
