MODEL 1
REMARK minimizedAffinity -3.19906425
REMARK minimizedRMSD -1
REMARK  0 active torsions:
REMARK  status: ('A' for Active; 'I' for Inactive)
ROOT
ATOM      1  C1  DEN d   1       1.826   6.000  -5.927  0.00  0.00     0.130 A 
ATOM      2  C2  DEN d   1       0.845   4.918  -5.958  0.00  0.00    -0.031 A 
ATOM      3  C3  DEN d   1       1.578   3.637  -5.994  0.00  0.00     0.027 A 
ATOM      4  C4  DEN d   1       4.125   3.225  -5.999  0.00  0.00     0.027 A 
ATOM      5  C5  DEN d   1       5.360   3.833  -5.992  0.00  0.00    -0.003 A 
ATOM      6  C6  DEN d   1       5.504   5.195  -5.997  0.00  0.00     0.001 A 
ATOM      7  C7  DEN d   1       4.392   5.995  -5.964  0.00  0.00     0.017 A 
ATOM      8  C8  DEN d   1       3.142   5.389  -5.978  0.00  0.00    -0.094 A 
ATOM      9  C9  DEN d   1       3.018   4.010  -5.961  0.00  0.00    -0.072 A 
ENDROOT
TORSDOF 0
ENDMDL
