MODEL 1
REMARK minimizedAffinity 0.223339036
REMARK minimizedRMSD -1
REMARK  0 active torsions:
REMARK  status: ('A' for Active; 'I' for Inactive)
ROOT
ATOM      1  C1  DEN d   1       3.029   5.995  -5.898  0.00  0.00     0.130 A 
ATOM      2  C2  DEN d   1       4.490   5.999  -5.898  0.00  0.00    -0.031 A 
ATOM      3  C3  DEN d   1       4.949   4.596  -5.925  0.00  0.00     0.027 A 
ATOM      4  C4  DEN d   1       3.550   2.430  -5.972  0.00  0.00     0.027 A 
ATOM      5  C5  DEN d   1       2.270   1.920  -5.971  0.00  0.00    -0.003 A 
ATOM      6  C6  DEN d   1       1.163   2.725  -5.912  0.00  0.00     0.001 A 
ATOM      7  C7  DEN d   1       1.314   4.087  -5.897  0.00  0.00     0.017 A 
ATOM      8  C8  DEN d   1       2.602   4.608  -5.890  0.00  0.00    -0.094 A 
ATOM      9  C9  DEN d   1       3.707   3.778  -5.963  0.00  0.00    -0.072 A 
ENDROOT
TORSDOF 0
ENDMDL
