MODEL 1
REMARK minimizedAffinity -2.66864777
REMARK minimizedRMSD -1
REMARK  0 active torsions:
REMARK  status: ('A' for Active; 'I' for Inactive)
ROOT
ATOM      1  C1  DEN d   1       3.633   1.946  -6.000  0.00  0.00     0.130 A 
ATOM      2  C2  DEN d   1       4.844   1.139  -5.873  0.00  0.00    -0.031 A 
ATOM      3  C3  DEN d   1       5.988   2.057  -5.695  0.00  0.00     0.027 A 
ATOM      4  C4  DEN d   1       6.000   4.634  -5.599  0.00  0.00     0.027 A 
ATOM      5  C5  DEN d   1       5.215   5.764  -5.671  0.00  0.00    -0.003 A 
ATOM      6  C6  DEN d   1       3.864   5.702  -5.890  0.00  0.00     0.001 A 
ATOM      7  C7  DEN d   1       3.250   4.483  -5.999  0.00  0.00     0.017 A 
ATOM      8  C8  DEN d   1       4.035   3.340  -5.935  0.00  0.00    -0.094 A 
ATOM      9  C9  DEN d   1       5.397   3.423  -5.701  0.00  0.00    -0.072 A 
ENDROOT
TORSDOF 0
ENDMDL
