MODEL 1
REMARK minimizedAffinity 3.75087428
REMARK minimizedRMSD -1
REMARK  0 active torsions:
REMARK  status: ('A' for Active; 'I' for Inactive)
ROOT
ATOM      1  C1  DEN d   1       4.083   0.799   0.516  0.00  0.00     0.130 A 
ATOM      2  C2  DEN d   1       2.624   0.831   0.549  0.00  0.00    -0.031 A 
ATOM      3  C3  DEN d   1       2.187   0.382   1.886  0.00  0.00     0.027 A 
ATOM      4  C4  DEN d   1       3.621  -0.352   3.900  0.00  0.00     0.027 A 
ATOM      5  C5  DEN d   1       4.908  -0.556   4.346  0.00  0.00    -0.003 A 
ATOM      6  C6  DEN d   1       6.000  -0.357   3.543  0.00  0.00     0.001 A 
ATOM      7  C7  DEN d   1       5.827   0.102   2.264  0.00  0.00     0.017 A 
ATOM      8  C8  DEN d   1       4.532   0.303   1.805  0.00  0.00    -0.094 A 
ATOM      9  C9  DEN d   1       3.442   0.108   2.636  0.00  0.00    -0.072 A 
ENDROOT
TORSDOF 0
ENDMDL
