MODEL 1
REMARK minimizedAffinity 6.77441359
REMARK minimizedRMSD -1
REMARK  0 active torsions:
REMARK  status: ('A' for Active; 'I' for Inactive)
ROOT
ATOM      1  C1  DEN d   1       3.632   1.958  -5.907  0.00  0.00     0.130 A 
ATOM      2  C2  DEN d   1       4.903   1.241  -5.854  0.00  0.00    -0.031 A 
ATOM      3  C3  DEN d   1       5.990   2.240  -5.826  0.00  0.00     0.027 A 
ATOM      4  C4  DEN d   1       5.830   4.814  -5.854  0.00  0.00     0.027 A 
ATOM      5  C5  DEN d   1       4.964   5.884  -5.907  0.00  0.00    -0.003 A 
ATOM      6  C6  DEN d   1       3.607   5.722  -5.997  0.00  0.00     0.001 A 
ATOM      7  C7  DEN d   1       3.072   4.461  -5.991  0.00  0.00     0.017 A 
ATOM      8  C8  DEN d   1       3.939   3.377  -5.946  0.00  0.00    -0.094 A 
ATOM      9  C9  DEN d   1       5.307   3.562  -5.843  0.00  0.00    -0.072 A 
ENDROOT
TORSDOF 0
ENDMDL
