MODEL 1
REMARK minimizedAffinity 3.05777454
REMARK minimizedRMSD -1
REMARK  0 active torsions:
REMARK  status: ('A' for Active; 'I' for Inactive)
ROOT
ATOM      1  C1  DEN d   1      -0.014   1.179   3.019  0.00  0.00     0.130 A 
ATOM      2  C2  DEN d   1      -0.552   2.509   2.743  0.00  0.00    -0.031 A 
ATOM      3  C3  DEN d   1       0.433   3.238   1.919  0.00  0.00     0.027 A 
ATOM      4  C4  DEN d   1       2.723   2.439   1.042  0.00  0.00     0.027 A 
ATOM      5  C5  DEN d   1       3.616   1.390   1.026  0.00  0.00    -0.003 A 
ATOM      6  C6  DEN d   1       3.378   0.219   1.696  0.00  0.00     0.001 A 
ATOM      7  C7  DEN d   1       2.199   0.052   2.373  0.00  0.00     0.017 A 
ATOM      8  C8  DEN d   1       1.298   1.108   2.400  0.00  0.00    -0.094 A 
ATOM      9  C9  DEN d   1       1.551   2.280   1.707  0.00  0.00    -0.072 A 
ENDROOT
TORSDOF 0
ENDMDL
