MODEL 1
REMARK minimizedAffinity 8.58469963
REMARK minimizedRMSD -1
REMARK  0 active torsions:
REMARK  status: ('A' for Active; 'I' for Inactive)
ROOT
ATOM      1  C1  DEN d   1       4.274  -0.702   2.167  0.00  0.00     0.130 A 
ATOM      2  C2  DEN d   1       5.436   0.156   2.382  0.00  0.00    -0.031 A 
ATOM      3  C3  DEN d   1       5.170   1.456   1.735  0.00  0.00     0.027 A 
ATOM      4  C4  DEN d   1       3.081   2.222   0.430  0.00  0.00     0.027 A 
ATOM      5  C5  DEN d   1       1.839   1.838  -0.026  0.00  0.00    -0.003 A 
ATOM      6  C6  DEN d   1       1.340   0.580   0.186  0.00  0.00     0.001 A 
ATOM      7  C7  DEN d   1       2.069  -0.326   0.911  0.00  0.00     0.017 A 
ATOM      8  C8  DEN d   1       3.325   0.051   1.368  0.00  0.00    -0.094 A 
ATOM      9  C9  DEN d   1       3.806   1.332   1.154  0.00  0.00    -0.072 A 
ENDROOT
TORSDOF 0
ENDMDL
