MODEL 1
REMARK minimizedAffinity -4.33388853
REMARK minimizedRMSD -1
REMARK  1 active torsions:
REMARK  status: ('A' for Active; 'I' for Inactive)
REMARK    1  A    between atoms: N_2  and  C1_3 
ROOT
ATOM      1  C1  UNL d   1       0.124   0.608   0.332  0.00  0.00     0.143 A 
ATOM      2  C2  UNL d   1       1.280   0.964  -0.372  0.00  0.00    -0.057 A 
ATOM      3  C3  UNL d   1       2.151   1.947   0.112  0.00  0.00     0.033 A 
ATOM      4  C4  UNL d   1       1.866   2.615   1.299  0.00  0.00    -0.042 A 
ATOM      5  C5  UNL d   1       0.710   2.295   2.003  0.00  0.00     0.033 A 
ATOM      6  C6  UNL d   1      -0.153   1.308   1.517  0.00  0.00    -0.057 A 
ENDROOT
BRANCH   1   7
ATOM      7  N   UNL d   1      -0.832  -0.291  -0.146  0.00  0.00    -0.732 N 
ATOM      8  C   UNL d   1      -0.643  -0.963  -1.414  0.00  0.00     0.284 C 
ATOM      9  H3  UNL d   1      -1.207  -0.887   0.589  0.00  0.00     0.395 HD
ENDBRANCH   1   7
TORSDOF 1
ENDMDL
