MODEL 1
REMARK minimizedAffinity -4.8523941
REMARK minimizedRMSD -1
REMARK  1 active torsions:
REMARK  status: ('A' for Active; 'I' for Inactive)
REMARK    1  A    between atoms: N_2  and  C1_3 
ROOT
ATOM      1  C1  UNL d   1       0.565   0.194   0.247  0.00  0.00     0.143 A 
ATOM      2  C2  UNL d   1       1.397   1.258  -0.118  0.00  0.00    -0.057 A 
ATOM      3  C3  UNL d   1       1.326   2.493   0.538  0.00  0.00     0.033 A 
ATOM      4  C4  UNL d   1       0.398   2.695   1.555  0.00  0.00    -0.042 A 
ATOM      5  C5  UNL d   1      -0.456   1.660   1.917  0.00  0.00     0.033 A 
ATOM      6  C6  UNL d   1      -0.376   0.427   1.262  0.00  0.00    -0.057 A 
ENDROOT
BRANCH   1   7
ATOM      7  N   UNL d   1       0.519  -1.026  -0.433  0.00  0.00    -0.732 N 
ATOM      8  C   UNL d   1      -0.745  -1.582  -0.864  0.00  0.00     0.284 C 
ATOM      9  H3  UNL d   1       1.269  -1.119  -1.114  0.00  0.00     0.395 HD
ENDBRANCH   1   7
TORSDOF 1
ENDMDL
