MODEL 1
REMARK minimizedAffinity -2.76850033
REMARK minimizedRMSD -1
REMARK  1 active torsions:
REMARK  status: ('A' for Active; 'I' for Inactive)
REMARK    1  A    between atoms: N_2  and  C1_3 
ROOT
ATOM      1  C1  UNL d   1      -0.706  -1.043  -0.565  0.00  0.00     0.143 A 
ATOM      2  C2  UNL d   1       0.671  -0.925  -0.780  0.00  0.00    -0.057 A 
ATOM      3  C3  UNL d   1       1.451  -0.039  -0.027  0.00  0.00     0.033 A 
ATOM      4  C4  UNL d   1       0.860   0.769   0.938  0.00  0.00    -0.042 A 
ATOM      5  C5  UNL d   1      -0.512   0.687   1.152  0.00  0.00     0.033 A 
ATOM      6  C6  UNL d   1      -1.284  -0.205   0.402  0.00  0.00    -0.057 A 
ENDROOT
BRANCH   1   7
ATOM      7  N   UNL d   1      -1.551  -1.833  -1.348  0.00  0.00    -0.732 N 
ATOM      8  C   UNL d   1      -2.353  -1.241  -2.396  0.00  0.00     0.284 C 
ATOM      9  H3  UNL d   1      -1.127  -2.723  -1.601  0.00  0.00     0.395 HD
ENDBRANCH   1   7
TORSDOF 1
ENDMDL
