MODEL 1
REMARK minimizedAffinity -4.57456017
REMARK minimizedRMSD -1
REMARK  1 active torsions:
REMARK  status: ('A' for Active; 'I' for Inactive)
REMARK    1  A    between atoms: N_2  and  C1_3 
ROOT
ATOM      1  C1  UNL d   1       0.145   0.280   0.304  0.00  0.00     0.143 A 
ATOM      2  C2  UNL d   1      -0.049   0.662   1.636  0.00  0.00    -0.057 A 
ATOM      3  C3  UNL d   1       0.441   1.881   2.120  0.00  0.00     0.033 A 
ATOM      4  C4  UNL d   1       1.160   2.730   1.285  0.00  0.00    -0.042 A 
ATOM      5  C5  UNL d   1       1.386   2.359  -0.036  0.00  0.00     0.033 A 
ATOM      6  C6  UNL d   1       0.889   1.143  -0.515  0.00  0.00    -0.057 A 
ENDROOT
BRANCH   1   7
ATOM      7  N   UNL d   1      -0.232  -0.963  -0.211  0.00  0.00    -0.732 N 
ATOM      8  C   UNL d   1      -0.818  -1.067  -1.530  0.00  0.00     0.284 C 
ATOM      9  H3  UNL d   1       0.444  -1.693   0.002  0.00  0.00     0.395 HD
ENDBRANCH   1   7
TORSDOF 1
ENDMDL
