MODEL 1
REMARK minimizedAffinity -3.74784636
REMARK minimizedRMSD -1
REMARK  1 active torsions:
REMARK  status: ('A' for Active; 'I' for Inactive)
REMARK    1  A    between atoms: N_2  and  C1_3 
ROOT
ATOM      1  C1  UNL d   1      -0.290  -0.157  -0.250  0.00  0.00     0.143 A 
ATOM      2  C2  UNL d   1       0.770   0.606  -0.748  0.00  0.00    -0.057 A 
ATOM      3  C3  UNL d   1       1.286   1.690  -0.028  0.00  0.00     0.033 A 
ATOM      4  C4  UNL d   1       0.729   2.049   1.195  0.00  0.00    -0.042 A 
ATOM      5  C5  UNL d   1      -0.342   1.319   1.699  0.00  0.00     0.033 A 
ATOM      6  C6  UNL d   1      -0.848   0.234   0.978  0.00  0.00    -0.057 A 
ENDROOT
BRANCH   1   7
ATOM      7  N   UNL d   1      -0.912  -1.185  -0.963  0.00  0.00    -0.732 N 
ATOM      8  C   UNL d   1      -1.417  -0.954  -2.299  0.00  0.00     0.284 C 
ATOM      9  H3  UNL d   1      -0.441  -2.079  -0.845  0.00  0.00     0.395 HD
ENDBRANCH   1   7
TORSDOF 1
ENDMDL
