MODEL 1
REMARK minimizedAffinity -3.34148884
REMARK minimizedRMSD -1
REMARK  1 active torsions:
REMARK  status: ('A' for Active; 'I' for Inactive)
REMARK    1  A    between atoms: N_2  and  C1_3 
ROOT
ATOM      1  C1  UNL d   1      -0.328  -0.963  -0.231  0.00  0.00     0.143 A 
ATOM      2  C2  UNL d   1       0.963  -0.523  -0.543  0.00  0.00    -0.057 A 
ATOM      3  C3  UNL d   1       1.575   0.505   0.184  0.00  0.00     0.033 A 
ATOM      4  C4  UNL d   1       0.893   1.133   1.221  0.00  0.00    -0.042 A 
ATOM      5  C5  UNL d   1      -0.400   0.729   1.532  0.00  0.00     0.033 A 
ATOM      6  C6  UNL d   1      -1.004  -0.303   0.807  0.00  0.00    -0.057 A 
ENDROOT
BRANCH   1   7
ATOM      7  N   UNL d   1      -1.028  -1.913  -0.980  0.00  0.00    -0.732 N 
ATOM      8  C   UNL d   1      -1.870  -1.507  -2.084  0.00  0.00     0.284 C 
ATOM      9  H3  UNL d   1      -0.475  -2.747  -1.163  0.00  0.00     0.395 HD
ENDBRANCH   1   7
TORSDOF 1
ENDMDL
