MODEL 1
REMARK minimizedAffinity -4.43205404
REMARK minimizedRMSD -1
REMARK  1 active torsions:
REMARK  status: ('A' for Active; 'I' for Inactive)
REMARK    1  A    between atoms: N_2  and  C1_3 
ROOT
ATOM      1  C1  UNL d   1       0.722  -0.076  -0.103  0.00  0.00     0.143 A 
ATOM      2  C2  UNL d   1       0.151   0.913   0.706  0.00  0.00    -0.057 A 
ATOM      3  C3  UNL d   1       0.873   2.053   1.077  0.00  0.00     0.033 A 
ATOM      4  C4  UNL d   1       2.193   2.212   0.668  0.00  0.00    -0.042 A 
ATOM      5  C5  UNL d   1       2.789   1.230  -0.116  0.00  0.00     0.033 A 
ATOM      6  C6  UNL d   1       2.060   0.096  -0.488  0.00  0.00    -0.057 A 
ENDROOT
BRANCH   1   7
ATOM      7  N   UNL d   1       0.089  -1.279  -0.424  0.00  0.00    -0.732 N 
ATOM      8  C   UNL d   1      -1.293  -1.293  -0.853  0.00  0.00     0.284 C 
ATOM      9  H3  UNL d   1       0.693  -1.908  -0.947  0.00  0.00     0.395 HD
ENDBRANCH   1   7
TORSDOF 1
ENDMDL
