MODEL 1
REMARK minimizedAffinity -1.57242537
REMARK minimizedRMSD -1
REMARK  1 active torsions:
REMARK  status: ('A' for Active; 'I' for Inactive)
REMARK    1  A    between atoms: N_2  and  C1_3 
ROOT
ATOM      1  C1  UNL d   1      -0.985  -0.973  -1.395  0.00  0.00     0.143 A 
ATOM      2  C2  UNL d   1      -0.313  -1.555  -2.476  0.00  0.00    -0.057 A 
ATOM      3  C3  UNL d   1      -0.964  -1.789  -3.693  0.00  0.00     0.033 A 
ATOM      4  C4  UNL d   1      -2.309  -1.471  -3.843  0.00  0.00    -0.042 A 
ATOM      5  C5  UNL d   1      -3.003  -0.914  -2.774  0.00  0.00     0.033 A 
ATOM      6  C6  UNL d   1      -2.346  -0.677  -1.563  0.00  0.00    -0.057 A 
ENDROOT
BRANCH   1   7
ATOM      7  N   UNL d   1      -0.421  -0.805  -0.128  0.00  0.00    -0.732 N 
ATOM      8  C   UNL d   1      -0.657   0.404   0.630  0.00  0.00     0.284 C 
ATOM      9  H3  UNL d   1      -0.454  -1.657   0.427  0.00  0.00     0.395 HD
ENDBRANCH   1   7
TORSDOF 1
ENDMDL
