MODEL 1
REMARK minimizedAffinity -3.47827077
REMARK minimizedRMSD -1
REMARK  1 active torsions:
REMARK  status: ('A' for Active; 'I' for Inactive)
REMARK    1  A    between atoms: N_2  and  C1_3 
ROOT
ATOM      1  C1  UNL d   1       0.551   0.979   0.246  0.00  0.00     0.143 A 
ATOM      2  C2  UNL d   1       0.635   1.793   1.381  0.00  0.00    -0.057 A 
ATOM      3  C3  UNL d   1       1.843   2.393   1.756  0.00  0.00     0.033 A 
ATOM      4  C4  UNL d   1       2.999   2.166   1.016  0.00  0.00    -0.042 A 
ATOM      5  C5  UNL d   1       2.944   1.340  -0.102  0.00  0.00     0.033 A 
ATOM      6  C6  UNL d   1       1.733   0.749  -0.475  0.00  0.00    -0.057 A 
ENDROOT
BRANCH   1   7
ATOM      7  N   UNL d   1      -0.598   0.275  -0.123  0.00  0.00    -0.732 N 
ATOM      8  C   UNL d   1      -0.503  -0.913  -0.944  0.00  0.00     0.284 C 
ATOM      9  H3  UNL d   1      -1.270   0.203   0.638  0.00  0.00     0.395 HD
ENDBRANCH   1   7
TORSDOF 1
ENDMDL
