MODEL 1
REMARK minimizedAffinity -4.35748768
REMARK minimizedRMSD -1
REMARK  1 active torsions:
REMARK  status: ('A' for Active; 'I' for Inactive)
REMARK    1  A    between atoms: N_2  and  C1_3 
ROOT
ATOM      1  C1  UNL d   1       0.915   0.091   0.067  0.00  0.00     0.143 A 
ATOM      2  C2  UNL d   1       0.128   0.884   0.909  0.00  0.00    -0.057 A 
ATOM      3  C3  UNL d   1       0.649   2.029   1.524  0.00  0.00     0.033 A 
ATOM      4  C4  UNL d   1       1.979   2.387   1.328  0.00  0.00    -0.042 A 
ATOM      5  C5  UNL d   1       2.786   1.600   0.515  0.00  0.00     0.033 A 
ATOM      6  C6  UNL d   1       2.258   0.461  -0.101  0.00  0.00    -0.057 A 
ENDROOT
BRANCH   1   7
ATOM      7  N   UNL d   1       0.483  -1.113  -0.494  0.00  0.00    -0.732 N 
ATOM      8  C   UNL d   1      -0.812  -1.206  -1.134  0.00  0.00     0.284 C 
ATOM      9  H3  UNL d   1       1.227  -1.600  -0.989  0.00  0.00     0.395 HD
ENDBRANCH   1   7
TORSDOF 1
ENDMDL
