MODEL 1
REMARK minimizedAffinity -1.05995393
REMARK minimizedRMSD -1
REMARK  1 active torsions:
REMARK  status: ('A' for Active; 'I' for Inactive)
REMARK    1  A    between atoms: N_2  and  C1_3 
ROOT
ATOM      1  C1  UNL d   1       1.388   1.582   0.754  0.00  0.00     0.143 A 
ATOM      2  C2  UNL d   1       0.747   0.601  -0.010  0.00  0.00    -0.057 A 
ATOM      3  C3  UNL d   1      -0.476   0.050   0.393  0.00  0.00     0.033 A 
ATOM      4  C4  UNL d   1      -1.067   0.452   1.586  0.00  0.00    -0.042 A 
ATOM      5  C5  UNL d   1      -0.436   1.408   2.374  0.00  0.00     0.033 A 
ATOM      6  C6  UNL d   1       0.782   1.959   1.963  0.00  0.00    -0.057 A 
ENDROOT
BRANCH   1   7
ATOM      7  N   UNL d   1       2.652   2.097   0.457  0.00  0.00    -0.732 N 
ATOM      8  C   UNL d   1       3.709   1.228  -0.015  0.00  0.00     0.284 C 
ATOM      9  H3  UNL d   1       2.604   2.992  -0.024  0.00  0.00     0.395 HD
ENDBRANCH   1   7
TORSDOF 1
ENDMDL
