MODEL 1
REMARK minimizedAffinity -3.88942027
REMARK minimizedRMSD -1
REMARK  1 active torsions:
REMARK  status: ('A' for Active; 'I' for Inactive)
REMARK    1  A    between atoms: N_2  and  C1_3 
ROOT
ATOM      1  C1  UNL d   1       0.469   0.115   0.232  0.00  0.00     0.143 A 
ATOM      2  C2  UNL d   1      -0.352   0.855   1.089  0.00  0.00    -0.057 A 
ATOM      3  C3  UNL d   1       0.166   1.886   1.882  0.00  0.00     0.033 A 
ATOM      4  C4  UNL d   1       1.526   2.177   1.853  0.00  0.00    -0.042 A 
ATOM      5  C5  UNL d   1       2.366   1.438   1.027  0.00  0.00     0.033 A 
ATOM      6  C6  UNL d   1       1.841   0.415   0.233  0.00  0.00    -0.057 A 
ENDROOT
BRANCH   1   7
ATOM      7  N   UNL d   1       0.031  -0.986  -0.507  0.00  0.00    -0.732 N 
ATOM      8  C   UNL d   1      -1.067  -0.857  -1.441  0.00  0.00     0.284 C 
ATOM      9  H3  UNL d   1       0.802  -1.556  -0.848  0.00  0.00     0.395 HD
ENDBRANCH   1   7
TORSDOF 1
ENDMDL
