MODEL 1
REMARK minimizedAffinity -4.24843979
REMARK minimizedRMSD -1
REMARK  1 active torsions:
REMARK  status: ('A' for Active; 'I' for Inactive)
REMARK    1  A    between atoms: N_2  and  C1_3 
ROOT
ATOM      1  C1  UNL d   1       1.864   5.408  -4.228  0.00  0.00     0.143 A 
ATOM      2  C2  UNL d   1       2.814   5.615  -5.234  0.00  0.00    -0.057 A 
ATOM      3  C3  UNL d   1       4.102   5.076  -5.139  0.00  0.00     0.033 A 
ATOM      4  C4  UNL d   1       4.475   4.344  -4.016  0.00  0.00    -0.042 A 
ATOM      5  C5  UNL d   1       3.556   4.147  -2.992  0.00  0.00     0.033 A 
ATOM      6  C6  UNL d   1       2.268   4.682  -3.097  0.00  0.00    -0.057 A 
ENDROOT
BRANCH   1   7
ATOM      7  N   UNL d   1       0.599   6.000  -4.219  0.00  0.00    -0.732 N 
ATOM      8  C   UNL d   1      -0.231   5.948  -3.035  0.00  0.00     0.284 C 
ATOM      9  H3  UNL d   1       0.587   6.899  -4.696  0.00  0.00     0.395 HD
ENDBRANCH   1   7
TORSDOF 1
ENDMDL
