MODEL 1
REMARK minimizedAffinity -3.80146742
REMARK minimizedRMSD -1
REMARK  2 active torsions:
REMARK  status: ('A' for Active; 'I' for Inactive)
REMARK    1  A    between atoms: C2'_3  and  C1'_4 
REMARK    2  A    between atoms: C1'_4  and  C1_5 
ROOT
ATOM      1  C1  I4B d   1      -0.047  -0.029  -0.195  0.00  0.00    -0.075 A 
ATOM      2  C2  I4B d   1      -0.252  -1.249  -0.791  0.00  0.00     0.003 A 
ATOM      3  C3  I4B d   1       0.732  -2.263  -0.695  0.00  0.00     0.002 A 
ATOM      4  C4  I4B d   1       1.918  -1.999  -0.041  0.00  0.00    -0.004 A 
ATOM      5  C5  I4B d   1       2.114  -0.770   0.582  0.00  0.00     0.002 A 
ATOM      6  C6  I4B d   1       1.120   0.217   0.516  0.00  0.00     0.003 A 
ENDROOT
BRANCH   1   7
ATOM      7  C1' I4B d   1      -1.093   1.030  -0.344  0.00  0.00     0.060 C 
BRANCH   7   8
ATOM      8  C2' I4B d   1      -2.268   0.654   0.535  0.00  0.00    -0.013 C 
ATOM      9  C4' I4B d   1      -2.427   1.622   1.677  0.00  0.00     0.013 C 
ATOM     10  C3' I4B d   1      -3.497   0.623  -0.324  0.00  0.00     0.013 C 
ENDBRANCH   7   8
ENDBRANCH   1   7
TORSDOF 2
ENDMDL
