MODEL 1
REMARK minimizedAffinity -3.39167428
REMARK minimizedRMSD -1
REMARK  2 active torsions:
REMARK  status: ('A' for Active; 'I' for Inactive)
REMARK    1  A    between atoms: C2'_3  and  C1'_4 
REMARK    2  A    between atoms: C1'_4  and  C1_5 
ROOT
ATOM      1  C1  I4B d   1      -1.920   0.878   0.056  0.00  0.00    -0.075 A 
ATOM      2  C2  I4B d   1      -3.136   0.567  -0.499  0.00  0.00     0.003 A 
ATOM      3  C3  I4B d   1      -4.313   0.626   0.286  0.00  0.00     0.002 A 
ATOM      4  C4  I4B d   1      -4.223   0.948   1.625  0.00  0.00    -0.004 A 
ATOM      5  C5  I4B d   1      -2.992   1.285   2.180  0.00  0.00     0.002 A 
ATOM      6  C6  I4B d   1      -1.834   1.262   1.388  0.00  0.00     0.003 A 
ENDROOT
BRANCH   1   7
ATOM      7  C1' I4B d   1      -0.693   0.774  -0.793  0.00  0.00     0.060 C 
BRANCH   7   8
ATOM      8  C2' I4B d   1       0.388   0.101   0.029  0.00  0.00    -0.013 C 
ATOM      9  C4' I4B d   1       0.625  -1.312  -0.435  0.00  0.00     0.013 C 
ATOM     10  C3' I4B d   1       1.636   0.925  -0.084  0.00  0.00     0.013 C 
ENDBRANCH   7   8
ENDBRANCH   1   7
TORSDOF 2
ENDMDL
