MODEL 1
REMARK minimizedAffinity -5.35484123
REMARK minimizedRMSD -1
REMARK  2 active torsions:
REMARK  status: ('A' for Active; 'I' for Inactive)
REMARK    1  A    between atoms: C1_2  and  C2_3 
REMARK    2  A    between atoms: C2_3  and  C3_4 
ROOT
ATOM      1  C3  UNL d   1      -1.344   0.123   0.590  0.00  0.00    -0.075 A 
ATOM      2  C4  UNL d   1      -2.496   0.188   1.386  0.00  0.00     0.002 A 
ATOM      3  C5  UNL d   1      -2.981  -0.954   2.025  0.00  0.00     0.002 A 
ATOM      4  C6  UNL d   1      -2.327  -2.174   1.868  0.00  0.00    -0.004 A 
ATOM      5  C7  UNL d   1      -1.191  -2.253   1.065  0.00  0.00     0.002 A 
ATOM      6  C8  UNL d   1      -0.701  -1.111   0.429  0.00  0.00     0.002 A 
ENDROOT
BRANCH   1   7
ATOM      7  C2  UNL d   1      -0.797   1.361  -0.080  0.00  0.00     0.056 C 
BRANCH   7   8
ATOM      8  C1  UNL d   1       0.681   1.258  -0.471  0.00  0.00     0.007 C 
ATOM      9  C   UNL d   1       0.994   1.909  -1.812  0.00  0.00     0.009 C 
ENDBRANCH   7   8
ENDBRANCH   1   7
TORSDOF 2
ENDMDL
