MODEL 1
REMARK minimizedAffinity -3.47872519
REMARK minimizedRMSD -1
REMARK  2 active torsions:
REMARK  status: ('A' for Active; 'I' for Inactive)
REMARK    1  A    between atoms: C1_2  and  C2_3 
REMARK    2  A    between atoms: C2_3  and  C3_4 
ROOT
ATOM      1  C3  UNL d   1      -1.468  -0.342   1.235  0.00  0.00    -0.075 A 
ATOM      2  C4  UNL d   1      -0.895  -1.583   1.546  0.00  0.00     0.002 A 
ATOM      3  C5  UNL d   1       0.292  -1.989   0.935  0.00  0.00     0.002 A 
ATOM      4  C6  UNL d   1       0.915  -1.165   0.001  0.00  0.00    -0.004 A 
ATOM      5  C7  UNL d   1       0.346   0.063  -0.329  0.00  0.00     0.002 A 
ATOM      6  C8  UNL d   1      -0.839   0.474   0.284  0.00  0.00     0.002 A 
ENDROOT
BRANCH   1   7
ATOM      7  C2  UNL d   1      -2.737   0.116   1.914  0.00  0.00     0.056 C 
BRANCH   7   8
ATOM      8  C1  UNL d   1      -3.064  -0.645   3.202  0.00  0.00     0.007 C 
ATOM      9  C   UNL d   1      -3.154   0.256   4.426  0.00  0.00     0.009 C 
ENDBRANCH   7   8
ENDBRANCH   1   7
TORSDOF 2
ENDMDL
