MODEL 1
REMARK minimizedAffinity -5.81080532
REMARK minimizedRMSD -1
REMARK  2 active torsions:
REMARK  status: ('A' for Active; 'I' for Inactive)
REMARK    1  A    between atoms: C1_2  and  C2_3 
REMARK    2  A    between atoms: C2_3  and  C3_4 
ROOT
ATOM      1  C3  UNL d   1      -0.277   0.176   0.353  0.00  0.00    -0.075 A 
ATOM      2  C4  UNL d   1      -1.523   0.514   0.901  0.00  0.00     0.002 A 
ATOM      3  C5  UNL d   1      -2.360  -0.474   1.421  0.00  0.00     0.002 A 
ATOM      4  C6  UNL d   1      -1.967  -1.811   1.392  0.00  0.00    -0.004 A 
ATOM      5  C7  UNL d   1      -0.739  -2.160   0.835  0.00  0.00     0.002 A 
ATOM      6  C8  UNL d   1       0.102  -1.173   0.317  0.00  0.00     0.002 A 
ENDROOT
BRANCH   1   7
ATOM      7  C2  UNL d   1       0.645   1.243  -0.185  0.00  0.00     0.056 C 
BRANCH   7   8
ATOM      8  C1  UNL d   1       0.241   1.780  -1.562  0.00  0.00     0.007 C 
ATOM      9  C   UNL d   1       1.430   2.033  -2.480  0.00  0.00     0.009 C 
ENDBRANCH   7   8
ENDBRANCH   1   7
TORSDOF 2
ENDMDL
