MODEL 1
REMARK minimizedAffinity -3.89500856
REMARK minimizedRMSD -1
REMARK  2 active torsions:
REMARK  status: ('A' for Active; 'I' for Inactive)
REMARK    1  A    between atoms: C1_2  and  C2_3 
REMARK    2  A    between atoms: C2_3  and  C3_4 
ROOT
ATOM      1  C3  UNL d   1      -0.317   0.066   0.515  0.00  0.00    -0.075 A 
ATOM      2  C4  UNL d   1       0.268  -1.209   0.508  0.00  0.00     0.002 A 
ATOM      3  C5  UNL d   1      -0.339  -2.270   1.182  0.00  0.00     0.002 A 
ATOM      4  C6  UNL d   1      -1.529  -2.068   1.877  0.00  0.00    -0.004 A 
ATOM      5  C7  UNL d   1      -2.110  -0.801   1.904  0.00  0.00     0.002 A 
ATOM      6  C8  UNL d   1      -1.507   0.261   1.228  0.00  0.00     0.002 A 
ENDROOT
BRANCH   1   7
ATOM      7  C2  UNL d   1       0.319   1.211  -0.237  0.00  0.00     0.056 C 
BRANCH   7   8
ATOM      8  C1  UNL d   1      -0.175   1.361  -1.679  0.00  0.00     0.007 C 
ATOM      9  C   UNL d   1       0.797   2.124  -2.570  0.00  0.00     0.009 C 
ENDBRANCH   7   8
ENDBRANCH   1   7
TORSDOF 2
ENDMDL
