MODEL 1
REMARK minimizedAffinity -5.16305017
REMARK minimizedRMSD -1
REMARK  2 active torsions:
REMARK  status: ('A' for Active; 'I' for Inactive)
REMARK    1  A    between atoms: C1_2  and  C2_3 
REMARK    2  A    between atoms: C2_3  and  C3_4 
ROOT
ATOM      1  C3  UNL d   1      -1.311  -1.240   1.383  0.00  0.00    -0.075 A 
ATOM      2  C4  UNL d   1      -1.064   0.031   0.846  0.00  0.00     0.002 A 
ATOM      3  C5  UNL d   1       0.100   0.278   0.117  0.00  0.00     0.002 A 
ATOM      4  C6  UNL d   1       1.034  -0.737  -0.075  0.00  0.00    -0.004 A 
ATOM      5  C7  UNL d   1       0.807  -2.000   0.468  0.00  0.00     0.002 A 
ATOM      6  C8  UNL d   1      -0.359  -2.251   1.194  0.00  0.00     0.002 A 
ENDROOT
BRANCH   1   7
ATOM      7  C2  UNL d   1      -2.583  -1.522   2.147  0.00  0.00     0.056 C 
BRANCH   7   8
ATOM      8  C1  UNL d   1      -3.303  -0.265   2.645  0.00  0.00     0.007 C 
ATOM      9  C   UNL d   1      -2.877   0.156   4.045  0.00  0.00     0.009 C 
ENDBRANCH   7   8
ENDBRANCH   1   7
TORSDOF 2
ENDMDL
