MODEL 1
REMARK minimizedAffinity -0.391018063
REMARK minimizedRMSD -1
REMARK  2 active torsions:
REMARK  status: ('A' for Active; 'I' for Inactive)
REMARK    1  A    between atoms: C1_2  and  C2_3 
REMARK    2  A    between atoms: C2_3  and  C3_4 
ROOT
ATOM      1  C3  UNL d   1       0.570   1.219  -1.285  0.00  0.00    -0.075 A 
ATOM      2  C4  UNL d   1      -0.482   1.630  -2.116  0.00  0.00     0.002 A 
ATOM      3  C5  UNL d   1      -0.230   2.046  -3.424  0.00  0.00     0.002 A 
ATOM      4  C6  UNL d   1       1.075   2.067  -3.912  0.00  0.00    -0.004 A 
ATOM      5  C7  UNL d   1       2.129   1.676  -3.089  0.00  0.00     0.002 A 
ATOM      6  C8  UNL d   1       1.879   1.255  -1.782  0.00  0.00     0.002 A 
ENDROOT
BRANCH   1   7
ATOM      7  C2  UNL d   1       0.300   0.740   0.122  0.00  0.00     0.056 C 
BRANCH   7   8
ATOM      8  C1  UNL d   1       1.193  -0.424   0.566  0.00  0.00     0.007 C 
ATOM      9  C   UNL d   1       0.446  -1.746   0.678  0.00  0.00     0.009 C 
ENDBRANCH   7   8
ENDBRANCH   1   7
TORSDOF 2
ENDMDL
