MODEL 1
REMARK minimizedAffinity -4.56174564
REMARK minimizedRMSD -1
REMARK  2 active torsions:
REMARK  status: ('A' for Active; 'I' for Inactive)
REMARK    1  A    between atoms: C1_2  and  C2_3 
REMARK    2  A    between atoms: C2_3  and  C3_4 
ROOT
ATOM      1  C3  UNL d   1      -0.146   0.545   0.237  0.00  0.00    -0.075 A 
ATOM      2  C4  UNL d   1      -1.367   0.638   0.922  0.00  0.00     0.002 A 
ATOM      3  C5  UNL d   1      -1.881  -0.463   1.607  0.00  0.00     0.002 A 
ATOM      4  C6  UNL d   1      -1.188  -1.672   1.608  0.00  0.00    -0.004 A 
ATOM      5  C7  UNL d   1       0.017  -1.781   0.918  0.00  0.00     0.002 A 
ATOM      6  C8  UNL d   1       0.536  -0.679   0.235  0.00  0.00     0.002 A 
ENDROOT
BRANCH   1   7
ATOM      7  C2  UNL d   1       0.429   1.742  -0.481  0.00  0.00     0.056 C 
BRANCH   7   8
ATOM      8  C1  UNL d   1      -0.495   2.330  -1.552  0.00  0.00     0.007 C 
ATOM      9  C   UNL d   1       0.186   2.508  -2.902  0.00  0.00     0.009 C 
ENDBRANCH   7   8
ENDBRANCH   1   7
TORSDOF 2
ENDMDL
