MODEL 1
REMARK minimizedAffinity -4.79813528
REMARK minimizedRMSD -1
REMARK  2 active torsions:
REMARK  status: ('A' for Active; 'I' for Inactive)
REMARK    1  A    between atoms: C1_2  and  C2_3 
REMARK    2  A    between atoms: C2_3  and  C3_4 
ROOT
ATOM      1  C3  UNL d   1      -1.480  -0.450   0.473  0.00  0.00    -0.075 A 
ATOM      2  C4  UNL d   1      -2.251   0.243   1.418  0.00  0.00     0.002 A 
ATOM      3  C5  UNL d   1      -3.003  -0.451   2.365  0.00  0.00     0.002 A 
ATOM      4  C6  UNL d   1      -3.002  -1.845   2.375  0.00  0.00    -0.004 A 
ATOM      5  C7  UNL d   1      -2.254  -2.544   1.431  0.00  0.00     0.002 A 
ATOM      6  C8  UNL d   1      -1.497  -1.851   0.484  0.00  0.00     0.002 A 
ENDROOT
BRANCH   1   7
ATOM      7  C2  UNL d   1      -0.641   0.296  -0.537  0.00  0.00     0.056 C 
BRANCH   7   8
ATOM      8  C1  UNL d   1       0.657   0.873   0.036  0.00  0.00     0.007 C 
ATOM      9  C   UNL d   1       1.466  -0.142   0.834  0.00  0.00     0.009 C 
ENDBRANCH   7   8
ENDBRANCH   1   7
TORSDOF 2
ENDMDL
