MODEL 1
REMARK minimizedAffinity -5.01580238
REMARK minimizedRMSD -1
REMARK  2 active torsions:
REMARK  status: ('A' for Active; 'I' for Inactive)
REMARK    1  A    between atoms: C1_2  and  C2_3 
REMARK    2  A    between atoms: C2_3  and  C3_4 
ROOT
ATOM      1  C3  UNL d   1      -0.793  -1.007   0.986  0.00  0.00    -0.075 A 
ATOM      2  C4  UNL d   1      -0.941  -2.199   1.708  0.00  0.00     0.002 A 
ATOM      3  C5  UNL d   1      -2.210  -2.698   2.001  0.00  0.00     0.002 A 
ATOM      4  C6  UNL d   1      -3.346  -2.007   1.585  0.00  0.00    -0.004 A 
ATOM      5  C7  UNL d   1      -3.212  -0.812   0.881  0.00  0.00     0.002 A 
ATOM      6  C8  UNL d   1      -1.942  -0.313   0.583  0.00  0.00     0.002 A 
ENDROOT
BRANCH   1   7
ATOM      7  C2  UNL d   1       0.578  -0.477   0.640  0.00  0.00     0.056 C 
BRANCH   7   8
ATOM      8  C1  UNL d   1       0.622   1.037   0.408  0.00  0.00     0.007 C 
ATOM      9  C   UNL d   1       0.752   1.415  -1.061  0.00  0.00     0.009 C 
ENDBRANCH   7   8
ENDBRANCH   1   7
TORSDOF 2
ENDMDL
