MODEL 1
REMARK minimizedAffinity -0.392667413
REMARK minimizedRMSD -1
REMARK  2 active torsions:
REMARK  status: ('A' for Active; 'I' for Inactive)
REMARK    1  A    between atoms: C1_2  and  C2_3 
REMARK    2  A    between atoms: C2_3  and  C3_4 
ROOT
ATOM      1  C3  UNL d   1       0.408  -0.061   0.450  0.00  0.00    -0.075 A 
ATOM      2  C4  UNL d   1      -0.115   0.860   1.370  0.00  0.00     0.002 A 
ATOM      3  C5  UNL d   1      -1.104   1.764   0.983  0.00  0.00     0.002 A 
ATOM      4  C6  UNL d   1      -1.575   1.767  -0.328  0.00  0.00    -0.004 A 
ATOM      5  C7  UNL d   1      -1.051   0.869  -1.255  0.00  0.00     0.002 A 
ATOM      6  C8  UNL d   1      -0.065  -0.041  -0.869  0.00  0.00     0.002 A 
ENDROOT
BRANCH   1   7
ATOM      7  C2  UNL d   1       1.457  -1.062   0.869  0.00  0.00     0.056 C 
BRANCH   7   8
ATOM      8  C1  UNL d   1       0.893  -2.436   1.246  0.00  0.00     0.007 C 
ATOM      9  C   UNL d   1      -0.504  -2.367   1.848  0.00  0.00     0.009 C 
ENDBRANCH   7   8
ENDBRANCH   1   7
TORSDOF 2
ENDMDL
