MODEL 1
REMARK minimizedAffinity -6.29342985
REMARK minimizedRMSD -1
REMARK  2 active torsions:
REMARK  status: ('A' for Active; 'I' for Inactive)
REMARK    1  A    between atoms: C1_2  and  C2_3 
REMARK    2  A    between atoms: C2_3  and  C3_4 
ROOT
ATOM      1  C3  UNL d   1      -0.922  -0.633   0.737  0.00  0.00    -0.075 A 
ATOM      2  C4  UNL d   1      -1.769   0.311   1.336  0.00  0.00     0.002 A 
ATOM      3  C5  UNL d   1      -2.805  -0.099   2.175  0.00  0.00     0.002 A 
ATOM      4  C6  UNL d   1      -3.015  -1.455   2.416  0.00  0.00    -0.004 A 
ATOM      5  C7  UNL d   1      -2.191  -2.402   1.813  0.00  0.00     0.002 A 
ATOM      6  C8  UNL d   1      -1.150  -1.995   0.977  0.00  0.00     0.002 A 
ENDROOT
BRANCH   1   7
ATOM      7  C2  UNL d   1       0.220  -0.195  -0.148  0.00  0.00     0.056 C 
BRANCH   7   8
ATOM      8  C1  UNL d   1       0.201   1.297  -0.498  0.00  0.00     0.007 C 
ATOM      9  C   UNL d   1       1.085   1.646  -1.688  0.00  0.00     0.009 C 
ENDBRANCH   7   8
ENDBRANCH   1   7
TORSDOF 2
ENDMDL
