MODEL 1
REMARK minimizedAffinity -3.50321269
REMARK minimizedRMSD -1
REMARK  1 active torsions:
REMARK  status: ('A' for Active; 'I' for Inactive)
REMARK    1  A    between atoms: C1_2  and  C2_3 
ROOT
ATOM      1  C2  UNL d   1       0.194  -0.310  -0.264  0.00  0.00    -0.073 A 
ATOM      2  C3  UNL d   1       0.623  -0.884   0.938  0.00  0.00    -0.002 A 
ATOM      3  C4  UNL d   1       0.102  -0.443   2.155  0.00  0.00     0.004 A 
ATOM      4  C5  UNL d   1      -0.858   0.568   2.183  0.00  0.00    -0.004 A 
ATOM      5  C6  UNL d   1      -1.309   1.146   0.991  0.00  0.00    -0.075 A 
ATOM      6  C7  UNL d   1      -2.339   2.236   1.004  0.00  0.00     0.076 C 
ATOM      7  C8  UNL d   1      -0.778   0.700  -0.227  0.00  0.00     0.001 A 
ENDROOT
BRANCH   1   8
ATOM      8  C1  UNL d   1       0.749  -0.787  -1.581  0.00  0.00     0.053 C 
ATOM      9  C   UNL d   1       0.680  -2.300  -1.715  0.00  0.00     0.018 C 
ENDBRANCH   1   8
TORSDOF 1
ENDMDL
