MODEL 1
REMARK minimizedAffinity -1.21495664
REMARK minimizedRMSD -1
REMARK  1 active torsions:
REMARK  status: ('A' for Active; 'I' for Inactive)
REMARK    1  A    between atoms: C1_2  and  C2_3 
ROOT
ATOM      1  C2  UNL d   1       0.323   0.825  -0.133  0.00  0.00    -0.073 A 
ATOM      2  C3  UNL d   1      -0.938   1.386   0.098  0.00  0.00    -0.002 A 
ATOM      3  C4  UNL d   1      -1.655   1.057   1.249  0.00  0.00     0.004 A 
ATOM      4  C5  UNL d   1      -1.117   0.170   2.182  0.00  0.00    -0.004 A 
ATOM      5  C6  UNL d   1       0.147  -0.391   1.974  0.00  0.00    -0.075 A 
ATOM      6  C7  UNL d   1       0.739  -1.348   2.967  0.00  0.00     0.076 C 
ATOM      7  C8  UNL d   1       0.860  -0.057   0.815  0.00  0.00     0.001 A 
ENDROOT
BRANCH   1   8
ATOM      8  C1  UNL d   1       1.104   1.183  -1.371  0.00  0.00     0.053 C 
ATOM      9  C   UNL d   1       0.963   2.654  -1.729  0.00  0.00     0.018 C 
ENDBRANCH   1   8
TORSDOF 1
ENDMDL
