MODEL 1
REMARK minimizedAffinity -6.57528973
REMARK minimizedRMSD -1
REMARK  1 active torsions:
REMARK  status: ('A' for Active; 'I' for Inactive)
REMARK    1  A    between atoms: C1_2  and  C2_3 
ROOT
ATOM      1  C2  UNL d   1      -0.684   0.452   0.673  0.00  0.00    -0.073 A 
ATOM      2  C3  UNL d   1      -1.693   0.785   1.584  0.00  0.00    -0.002 A 
ATOM      3  C4  UNL d   1      -2.099   2.112   1.732  0.00  0.00     0.004 A 
ATOM      4  C5  UNL d   1      -1.506   3.117   0.969  0.00  0.00    -0.004 A 
ATOM      5  C6  UNL d   1      -0.504   2.803   0.045  0.00  0.00    -0.075 A 
ATOM      6  C7  UNL d   1       0.146   3.873  -0.783  0.00  0.00     0.076 C 
ATOM      7  C8  UNL d   1      -0.100   1.468  -0.097  0.00  0.00     0.001 A 
ENDROOT
BRANCH   1   8
ATOM      8  C1  UNL d   1      -0.248  -0.980   0.504  0.00  0.00     0.053 C 
ATOM      9  C   UNL d   1       0.625  -1.169  -0.727  0.00  0.00     0.018 C 
ENDBRANCH   1   8
TORSDOF 1
ENDMDL
