MODEL 1
REMARK minimizedAffinity -3.30215669
REMARK minimizedRMSD -1
REMARK  1 active torsions:
REMARK  status: ('A' for Active; 'I' for Inactive)
REMARK    1  A    between atoms: C1_2  and  C2_3 
ROOT
ATOM      1  C2  UNL d   1       0.317   0.037   0.053  0.00  0.00    -0.073 A 
ATOM      2  C3  UNL d   1       0.107  -1.020   0.945  0.00  0.00    -0.002 A 
ATOM      3  C4  UNL d   1      -0.527  -0.796   2.168  0.00  0.00     0.004 A 
ATOM      4  C5  UNL d   1      -0.964   0.484   2.507  0.00  0.00    -0.004 A 
ATOM      5  C6  UNL d   1      -0.775   1.552   1.623  0.00  0.00    -0.075 A 
ATOM      6  C7  UNL d   1      -1.238   2.935   1.974  0.00  0.00     0.076 C 
ATOM      7  C8  UNL d   1      -0.135   1.319   0.399  0.00  0.00     0.001 A 
ENDROOT
BRANCH   1   8
ATOM      8  C1  UNL d   1       0.995  -0.202  -1.271  0.00  0.00     0.053 C 
ATOM      9  C   UNL d   1       0.526  -1.490  -1.928  0.00  0.00     0.018 C 
ENDBRANCH   1   8
TORSDOF 1
ENDMDL
