MODEL 1
REMARK minimizedAffinity -6.51143456
REMARK minimizedRMSD -1
REMARK  1 active torsions:
REMARK  status: ('A' for Active; 'I' for Inactive)
REMARK    1  A    between atoms: C1_2  and  C2_3 
ROOT
ATOM      1  C2  UNL d   1      -0.577   0.440   0.430  0.00  0.00    -0.073 A 
ATOM      2  C3  UNL d   1      -1.505   0.818   1.407  0.00  0.00    -0.002 A 
ATOM      3  C4  UNL d   1      -1.945   2.140   1.486  0.00  0.00     0.004 A 
ATOM      4  C5  UNL d   1      -1.469   3.094   0.587  0.00  0.00    -0.004 A 
ATOM      5  C6  UNL d   1      -0.551   2.733  -0.404  0.00  0.00    -0.075 A 
ATOM      6  C7  UNL d   1      -0.027   3.747  -1.377  0.00  0.00     0.076 C 
ATOM      7  C8  UNL d   1      -0.111   1.404  -0.476  0.00  0.00     0.001 A 
ENDROOT
BRANCH   1   8
ATOM      8  C1  UNL d   1      -0.103  -0.988   0.336  0.00  0.00     0.053 C 
ATOM      9  C   UNL d   1       0.636  -1.259  -0.965  0.00  0.00     0.018 C 
ENDBRANCH   1   8
TORSDOF 1
ENDMDL
