MODEL 1
REMARK minimizedAffinity -2.61475348
REMARK minimizedRMSD -1
REMARK  1 active torsions:
REMARK  status: ('A' for Active; 'I' for Inactive)
REMARK    1  A    between atoms: C1_2  and  C2_3 
ROOT
ATOM      1  C2  UNL d   1      -1.329   1.046   0.297  0.00  0.00    -0.073 A 
ATOM      2  C3  UNL d   1      -0.544   1.257  -0.842  0.00  0.00    -0.002 A 
ATOM      3  C4  UNL d   1       0.687   0.614  -0.978  0.00  0.00     0.004 A 
ATOM      4  C5  UNL d   1       1.142  -0.249   0.018  0.00  0.00    -0.004 A 
ATOM      5  C6  UNL d   1       0.367  -0.482   1.158  0.00  0.00    -0.075 A 
ATOM      6  C7  UNL d   1       0.843  -1.406   2.240  0.00  0.00     0.076 C 
ATOM      7  C8  UNL d   1      -0.868   0.169   1.289  0.00  0.00     0.001 A 
ENDROOT
BRANCH   1   8
ATOM      8  C1  UNL d   1      -2.662   1.733   0.446  0.00  0.00     0.053 C 
ATOM      9  C   UNL d   1      -2.649   2.770   1.558  0.00  0.00     0.018 C 
ENDBRANCH   1   8
TORSDOF 1
ENDMDL
