MODEL 1
REMARK minimizedAffinity -4.99046326
REMARK minimizedRMSD -1
REMARK  1 active torsions:
REMARK  status: ('A' for Active; 'I' for Inactive)
REMARK    1  A    between atoms: C1_2  and  C2_3 
ROOT
ATOM      1  C2  UNL d   1      -1.033   1.139   1.476  0.00  0.00    -0.073 A 
ATOM      2  C3  UNL d   1      -0.611  -0.193   1.547  0.00  0.00    -0.002 A 
ATOM      3  C4  UNL d   1       0.261  -0.709   0.588  0.00  0.00     0.004 A 
ATOM      4  C5  UNL d   1       0.726   0.103  -0.447  0.00  0.00    -0.004 A 
ATOM      5  C6  UNL d   1       0.326   1.440  -0.528  0.00  0.00    -0.075 A 
ATOM      6  C7  UNL d   1       0.816   2.326  -1.636  0.00  0.00     0.076 C 
ATOM      7  C8  UNL d   1      -0.552   1.950   0.438  0.00  0.00     0.001 A 
ENDROOT
BRANCH   1   8
ATOM      8  C1  UNL d   1      -1.970   1.702   2.513  0.00  0.00     0.053 C 
ATOM      9  C   UNL d   1      -2.787   2.865   1.972  0.00  0.00     0.018 C 
ENDBRANCH   1   8
TORSDOF 1
ENDMDL
