MODEL 1
REMARK minimizedAffinity -6.58430529
REMARK minimizedRMSD -1
REMARK  1 active torsions:
REMARK  status: ('A' for Active; 'I' for Inactive)
REMARK    1  A    between atoms: C1_2  and  C2_3 
ROOT
ATOM      1  C2  UNL d   1      -0.550   0.551   0.486  0.00  0.00    -0.073 A 
ATOM      2  C3  UNL d   1      -1.626   0.698   1.368  0.00  0.00    -0.002 A 
ATOM      3  C4  UNL d   1      -2.158   1.962   1.625  0.00  0.00     0.004 A 
ATOM      4  C5  UNL d   1      -1.625   3.089   1.000  0.00  0.00    -0.004 A 
ATOM      5  C6  UNL d   1      -0.556   2.961   0.107  0.00  0.00    -0.075 A 
ATOM      6  C7  UNL d   1       0.031   4.163  -0.572  0.00  0.00     0.076 C 
ATOM      7  C8  UNL d   1      -0.026   1.688  -0.145  0.00  0.00     0.001 A 
ENDROOT
BRANCH   1   8
ATOM      8  C1  UNL d   1       0.024  -0.813   0.200  0.00  0.00     0.053 C 
ATOM      9  C   UNL d   1       0.731  -0.863  -1.145  0.00  0.00     0.018 C 
ENDBRANCH   1   8
TORSDOF 1
ENDMDL
