MODEL 1
REMARK minimizedAffinity -6.01518106
REMARK minimizedRMSD -1
REMARK  1 active torsions:
REMARK  status: ('A' for Active; 'I' for Inactive)
REMARK    1  A    between atoms: C1_2  and  C2_3 
ROOT
ATOM      1  C2  UNL d   1      -0.438   0.610   0.245  0.00  0.00    -0.073 A 
ATOM      2  C3  UNL d   1      -1.357   0.869   1.269  0.00  0.00    -0.002 A 
ATOM      3  C4  UNL d   1      -1.813   2.168   1.495  0.00  0.00     0.004 A 
ATOM      4  C5  UNL d   1      -1.362   3.220   0.696  0.00  0.00    -0.004 A 
ATOM      5  C6  UNL d   1      -0.454   2.979  -0.339  0.00  0.00    -0.075 A 
ATOM      6  C7  UNL d   1       0.043   4.099  -1.206  0.00  0.00     0.076 C 
ATOM      7  C8  UNL d   1       0.002   1.672  -0.558  0.00  0.00     0.001 A 
ENDROOT
BRANCH   1   8
ATOM      8  C1  UNL d   1       0.052  -0.792  -0.007  0.00  0.00     0.053 C 
ATOM      9  C   UNL d   1       1.333  -0.809  -0.826  0.00  0.00     0.018 C 
ENDBRANCH   1   8
TORSDOF 1
ENDMDL
