MODEL 1
REMARK minimizedAffinity -5.13747644
REMARK minimizedRMSD -1
REMARK  1 active torsions:
REMARK  status: ('A' for Active; 'I' for Inactive)
REMARK    1  A    between atoms: C1_2  and  C2_3 
ROOT
ATOM      1  C2  UNL d   1       0.092  -0.322  -0.040  0.00  0.00    -0.073 A 
ATOM      2  C3  UNL d   1      -0.652  -0.547   1.124  0.00  0.00    -0.002 A 
ATOM      3  C4  UNL d   1      -1.305   0.511   1.759  0.00  0.00     0.004 A 
ATOM      4  C5  UNL d   1      -1.226   1.801   1.234  0.00  0.00    -0.004 A 
ATOM      5  C6  UNL d   1      -0.497   2.043   0.065  0.00  0.00    -0.075 A 
ATOM      6  C7  UNL d   1      -0.401   3.425  -0.512  0.00  0.00     0.076 C 
ATOM      7  C8  UNL d   1       0.157   0.976  -0.565  0.00  0.00     0.001 A 
ENDROOT
BRANCH   1   8
ATOM      8  C1  UNL d   1       0.792  -1.462  -0.732  0.00  0.00     0.053 C 
ATOM      9  C   UNL d   1       0.142  -1.808  -2.063  0.00  0.00     0.018 C 
ENDBRANCH   1   8
TORSDOF 1
ENDMDL
