MODEL 1
REMARK minimizedAffinity -5.09893179
REMARK minimizedRMSD -1
REMARK  1 active torsions:
REMARK  status: ('A' for Active; 'I' for Inactive)
REMARK    1  A    between atoms: C1_2  and  C2_3 
ROOT
ATOM      1  C2  UNL d   1       0.090  -0.504  -0.012  0.00  0.00    -0.073 A 
ATOM      2  C3  UNL d   1       0.045  -1.312   1.130  0.00  0.00    -0.002 A 
ATOM      3  C4  UNL d   1      -0.644  -0.887   2.267  0.00  0.00     0.004 A 
ATOM      4  C5  UNL d   1      -1.299   0.345   2.272  0.00  0.00    -0.004 A 
ATOM      5  C6  UNL d   1      -1.274   1.161   1.136  0.00  0.00    -0.075 A 
ATOM      6  C7  UNL d   1      -1.972   2.489   1.126  0.00  0.00     0.076 C 
ATOM      7  C8  UNL d   1      -0.579   0.728  -0.001  0.00  0.00     0.001 A 
ENDROOT
BRANCH   1   8
ATOM      8  C1  UNL d   1       0.827  -0.962  -1.244  0.00  0.00     0.053 C 
ATOM      9  C   UNL d   1       0.156  -2.159  -1.898  0.00  0.00     0.018 C 
ENDBRANCH   1   8
TORSDOF 1
ENDMDL
