MODEL 1
REMARK minimizedAffinity -5.59454823
REMARK minimizedRMSD -1
REMARK  1 active torsions:
REMARK  status: ('A' for Active; 'I' for Inactive)
REMARK    1  A    between atoms: C1_2  and  C2_3 
ROOT
ATOM      1  C2  UNL d   1      -1.127   0.855   1.295  0.00  0.00    -0.073 A 
ATOM      2  C3  UNL d   1      -2.095   1.544   2.034  0.00  0.00    -0.002 A 
ATOM      3  C4  UNL d   1      -2.409   2.868   1.723  0.00  0.00     0.004 A 
ATOM      4  C5  UNL d   1      -1.765   3.513   0.667  0.00  0.00    -0.004 A 
ATOM      5  C6  UNL d   1      -0.803   2.837  -0.091  0.00  0.00    -0.075 A 
ATOM      6  C7  UNL d   1      -0.099   3.517  -1.228  0.00  0.00     0.076 C 
ATOM      7  C8  UNL d   1      -0.491   1.509   0.230  0.00  0.00     0.001 A 
ENDROOT
BRANCH   1   8
ATOM      8  C1  UNL d   1      -0.789  -0.576   1.623  0.00  0.00     0.053 C 
ATOM      9  C   UNL d   1       0.663  -0.904   1.314  0.00  0.00     0.018 C 
ENDBRANCH   1   8
TORSDOF 1
ENDMDL
