MODEL 1
REMARK minimizedAffinity -1.9054172
REMARK minimizedRMSD -1
REMARK  1 active torsions:
REMARK  status: ('A' for Active; 'I' for Inactive)
REMARK    1  A    between atoms: C1_2  and  C2_3 
ROOT
ATOM      1  C2  UNL d   1      -0.323  -0.474  -0.663  0.00  0.00    -0.073 A 
ATOM      2  C3  UNL d   1       0.535  -0.761   0.405  0.00  0.00    -0.002 A 
ATOM      3  C4  UNL d   1       0.387  -0.100   1.625  0.00  0.00     0.004 A 
ATOM      4  C5  UNL d   1      -0.623   0.847   1.792  0.00  0.00    -0.004 A 
ATOM      5  C6  UNL d   1      -1.498   1.139   0.741  0.00  0.00    -0.075 A 
ATOM      6  C7  UNL d   1      -2.588   2.157   0.904  0.00  0.00     0.076 C 
ATOM      7  C8  UNL d   1      -1.341   0.473  -0.482  0.00  0.00     0.001 A 
ENDROOT
BRANCH   1   8
ATOM      8  C1  UNL d   1      -0.171  -1.190  -1.980  0.00  0.00     0.053 C 
ATOM      9  C   UNL d   1      -0.058  -2.696  -1.801  0.00  0.00     0.018 C 
ENDBRANCH   1   8
TORSDOF 1
ENDMDL
