MODEL 1
REMARK minimizedAffinity 0.890275955
REMARK minimizedRMSD -1
REMARK  0 active torsions:
REMARK  status: ('A' for Active; 'I' for Inactive)
ROOT
ATOM      1  C4' PXY d   1      -0.782   1.790   4.522  0.00  0.00     0.077 C 
ATOM      2  C1' PXY d   1       0.141  -0.892  -0.515  0.00  0.00     0.077 C 
ATOM      3  C1  PXY d   1      -0.112  -0.184   0.801  0.00  0.00    -0.082 A 
ATOM      4  C2  PXY d   1       0.904   0.087   1.604  0.00  0.00     0.003 A 
ATOM      5  C3  PXY d   1       0.689   0.699   2.812  0.00  0.00     0.003 A 
ATOM      6  C4  PXY d   1      -0.572   1.085   3.179  0.00  0.00    -0.082 A 
ATOM      7  C5  PXY d   1      -1.613   0.822   2.361  0.00  0.00     0.003 A 
ATOM      8  C6  PXY d   1      -1.379   0.163   1.157  0.00  0.00     0.003 A 
ENDROOT
TORSDOF 0
ENDMDL
