MODEL 1
REMARK minimizedAffinity 8.26350784
REMARK minimizedRMSD -1
REMARK  0 active torsions:
REMARK  status: ('A' for Active; 'I' for Inactive)
ROOT
ATOM      1  C4' PXY d   1       2.678  -1.144   3.103  0.00  0.00     0.077 C 
ATOM      2  C1' PXY d   1      -2.234   1.795   2.299  0.00  0.00     0.077 C 
ATOM      3  C1  PXY d   1      -0.952   1.018   2.520  0.00  0.00    -0.082 A 
ATOM      4  C2  PXY d   1       0.197   1.516   2.091  0.00  0.00     0.003 A 
ATOM      5  C3  PXY d   1       1.362   0.812   2.254  0.00  0.00     0.003 A 
ATOM      6  C4  PXY d   1       1.359  -0.390   2.910  0.00  0.00    -0.082 A 
ATOM      7  C5  PXY d   1       0.193  -0.899   3.361  0.00  0.00     0.003 A 
ATOM      8  C6  PXY d   1      -0.984  -0.188   3.149  0.00  0.00     0.003 A 
ENDROOT
TORSDOF 0
ENDMDL
