MODEL 1
REMARK minimizedAffinity -1.8303237
REMARK minimizedRMSD -1
REMARK  0 active torsions:
REMARK  status: ('A' for Active; 'I' for Inactive)
ROOT
ATOM      1  C4' PXY d   1      -6.000   5.982  -1.383  0.00  0.00     0.077 C 
ATOM      2  C1' PXY d   1      -3.095   1.094  -0.342  0.00  0.00     0.077 C 
ATOM      3  C1  PXY d   1      -3.847   2.383  -0.611  0.00  0.00    -0.082 A 
ATOM      4  C2  PXY d   1      -5.170   2.384  -0.598  0.00  0.00     0.003 A 
ATOM      5  C3  PXY d   1      -5.865   3.533  -0.871  0.00  0.00     0.003 A 
ATOM      6  C4  PXY d   1      -5.200   4.706  -1.107  0.00  0.00    -0.082 A 
ATOM      7  C5  PXY d   1      -3.850   4.716  -1.112  0.00  0.00     0.003 A 
ATOM      8  C6  PXY d   1      -3.162   3.529  -0.873  0.00  0.00     0.003 A 
ENDROOT
TORSDOF 0
ENDMDL
