MODEL 1
REMARK minimizedAffinity 0.0205862876
REMARK minimizedRMSD -1
REMARK  0 active torsions:
REMARK  status: ('A' for Active; 'I' for Inactive)
ROOT
ATOM      1  C4' PXY d   1       3.547   1.762   3.556  0.00  0.00     0.077 C 
ATOM      2  C1' PXY d   1      -1.816   0.461   1.835  0.00  0.00     0.077 C 
ATOM      3  C1  PXY d   1      -0.413   0.815   2.286  0.00  0.00    -0.082 A 
ATOM      4  C2  PXY d   1       0.585  -0.015   2.030  0.00  0.00     0.003 A 
ATOM      5  C3  PXY d   1       1.855   0.275   2.459  0.00  0.00     0.003 A 
ATOM      6  C4  PXY d   1       2.115   1.450   3.111  0.00  0.00    -0.082 A 
ATOM      7  C5  PXY d   1       1.104   2.307   3.367  0.00  0.00     0.003 A 
ATOM      8  C6  PXY d   1      -0.185   1.976   2.959  0.00  0.00     0.003 A 
ENDROOT
TORSDOF 0
ENDMDL
