MODEL 1
REMARK minimizedAffinity 1.15322733
REMARK minimizedRMSD -1
REMARK  0 active torsions:
REMARK  status: ('A' for Active; 'I' for Inactive)
ROOT
ATOM      1  C4' PXY d   1      -4.531   0.936  -0.770  0.00  0.00     0.077 C 
ATOM      2  C1' PXY d   1      -0.123   0.418   2.933  0.00  0.00     0.077 C 
ATOM      3  C1  PXY d   1      -1.282   0.565   1.968  0.00  0.00    -0.082 A 
ATOM      4  C2  PXY d   1      -1.753  -0.502   1.343  0.00  0.00     0.003 A 
ATOM      5  C3  PXY d   1      -2.780  -0.383   0.443  0.00  0.00     0.003 A 
ATOM      6  C4  PXY d   1      -3.368   0.834   0.220  0.00  0.00    -0.082 A 
ATOM      7  C5  PXY d   1      -2.900   1.926   0.861  0.00  0.00     0.003 A 
ATOM      8  C6  PXY d   1      -1.830   1.790   1.740  0.00  0.00     0.003 A 
ENDROOT
TORSDOF 0
ENDMDL
