MODEL 1
REMARK minimizedAffinity 5.33872795
REMARK minimizedRMSD -1
REMARK  0 active torsions:
REMARK  status: ('A' for Active; 'I' for Inactive)
ROOT
ATOM      1  C4' PXY d   1      -1.694  -1.543   0.656  0.00  0.00     0.077 C 
ATOM      2  C1' PXY d   1      -0.172   2.729   4.240  0.00  0.00     0.077 C 
ATOM      3  C1  PXY d   1      -0.559   1.609   3.295  0.00  0.00    -0.082 A 
ATOM      4  C2  PXY d   1      -1.835   1.406   3.009  0.00  0.00     0.003 A 
ATOM      5  C3  PXY d   1      -2.205   0.378   2.181  0.00  0.00     0.003 A 
ATOM      6  C4  PXY d   1      -1.256  -0.418   1.598  0.00  0.00    -0.082 A 
ATOM      7  C5  PXY d   1       0.049  -0.211   1.876  0.00  0.00     0.003 A 
ATOM      8  C6  PXY d   1       0.401   0.812   2.752  0.00  0.00     0.003 A 
ENDROOT
TORSDOF 0
ENDMDL
