MODEL 1
REMARK minimizedAffinity 5.30122852
REMARK minimizedRMSD -1
REMARK  0 active torsions:
REMARK  status: ('A' for Active; 'I' for Inactive)
ROOT
ATOM      1  C4' PXY d   1      -0.765   0.664   2.934  0.00  0.00     0.077 C 
ATOM      2  C1' PXY d   1       0.288  -2.659  -1.677  0.00  0.00     0.077 C 
ATOM      3  C1  PXY d   1       0.024  -1.789  -0.464  0.00  0.00    -0.082 A 
ATOM      4  C2  PXY d   1      -1.211  -1.661  -0.007  0.00  0.00     0.003 A 
ATOM      5  C3  PXY d   1      -1.472  -0.853   1.069  0.00  0.00     0.003 A 
ATOM      6  C4  PXY d   1      -0.451  -0.211   1.718  0.00  0.00    -0.082 A 
ATOM      7  C5  PXY d   1       0.814  -0.345   1.264  0.00  0.00     0.003 A 
ATOM      8  C6  PXY d   1       1.052  -1.138   0.145  0.00  0.00     0.003 A 
ENDROOT
TORSDOF 0
ENDMDL
