MODEL 1
REMARK minimizedAffinity 0.830330729
REMARK minimizedRMSD -1
REMARK  0 active torsions:
REMARK  status: ('A' for Active; 'I' for Inactive)
ROOT
ATOM      1  C4' PXY d   1       0.905  -0.369   3.155  0.00  0.00     0.077 C 
ATOM      2  C1' PXY d   1      -3.727   1.003  -0.020  0.00  0.00     0.077 C 
ATOM      3  C1  PXY d   1      -2.510   0.656   0.816  0.00  0.00    -0.082 A 
ATOM      4  C2  PXY d   1      -1.857  -0.471   0.583  0.00  0.00     0.003 A 
ATOM      5  C3  PXY d   1      -0.775  -0.816   1.350  0.00  0.00     0.003 A 
ATOM      6  C4  PXY d   1      -0.323   0.026   2.330  0.00  0.00    -0.082 A 
ATOM      7  C5  PXY d   1      -0.978   1.183   2.566  0.00  0.00     0.003 A 
ATOM      8  C6  PXY d   1      -2.099   1.495   1.804  0.00  0.00     0.003 A 
ENDROOT
TORSDOF 0
ENDMDL
