MODEL 1
REMARK minimizedAffinity 5.40905333
REMARK minimizedRMSD -1
REMARK  0 active torsions:
REMARK  status: ('A' for Active; 'I' for Inactive)
ROOT
ATOM      1  C4' PXY d   1       3.657  -1.163   1.260  0.00  0.00     0.077 C 
ATOM      2  C1' PXY d   1      -1.753   0.549   2.364  0.00  0.00     0.077 C 
ATOM      3  C1  PXY d   1      -0.338   0.092   2.064  0.00  0.00    -0.082 A 
ATOM      4  C2  PXY d   1       0.575   0.122   3.021  0.00  0.00     0.003 A 
ATOM      5  C3  PXY d   1       1.867  -0.256   2.759  0.00  0.00     0.003 A 
ATOM      6  C4  PXY d   1       2.214  -0.721   1.519  0.00  0.00    -0.082 A 
ATOM      7  C5  PXY d   1       1.286  -0.765   0.540  0.00  0.00     0.003 A 
ATOM      8  C6  PXY d   1      -0.010  -0.337   0.815  0.00  0.00     0.003 A 
ENDROOT
TORSDOF 0
ENDMDL
