MODEL 1
REMARK minimizedAffinity -4.74012756
REMARK minimizedRMSD -1
REMARK  0 active torsions:
REMARK  status: ('A' for Active; 'I' for Inactive)
ROOT
ATOM      1  C1  BNZ d   1      -1.084  -0.309   1.805  0.00  0.00     0.000 A 
ATOM      2  C2  BNZ d   1      -1.786   0.833   2.084  0.00  0.00     0.000 A 
ATOM      3  C3  BNZ d   1      -1.808   1.874   1.198  0.00  0.00     0.000 A 
ATOM      4  C4  BNZ d   1      -1.097   1.788   0.056  0.00  0.00     0.000 A 
ATOM      5  C5  BNZ d   1      -0.377   0.646  -0.235  0.00  0.00     0.000 A 
ATOM      6  C6  BNZ d   1      -0.388  -0.415   0.641  0.00  0.00     0.000 A 
ENDROOT
TORSDOF 0
ENDMDL
