MODEL 1
REMARK minimizedAffinity -4.81120253
REMARK minimizedRMSD -1
REMARK  0 active torsions:
REMARK  status: ('A' for Active; 'I' for Inactive)
ROOT
ATOM      1  C1  BNZ d   1      -0.190   0.386  -0.018  0.00  0.00     0.000 A 
ATOM      2  C2  BNZ d   1      -0.356   1.701  -0.361  0.00  0.00     0.000 A 
ATOM      3  C3  BNZ d   1      -1.089   2.543   0.427  0.00  0.00     0.000 A 
ATOM      4  C4  BNZ d   1      -1.687   2.061   1.536  0.00  0.00     0.000 A 
ATOM      5  C5  BNZ d   1      -1.537   0.735   1.890  0.00  0.00     0.000 A 
ATOM      6  C6  BNZ d   1      -0.766  -0.101   1.115  0.00  0.00     0.000 A 
ENDROOT
TORSDOF 0
ENDMDL
