MODEL 1
REMARK minimizedAffinity -4.28996038
REMARK minimizedRMSD -1
REMARK  0 active torsions:
REMARK  status: ('A' for Active; 'I' for Inactive)
ROOT
ATOM      1  C1  BNZ d   1      -0.371   0.128   1.372  0.00  0.00     0.000 A 
ATOM      2  C2  BNZ d   1      -1.475   0.723   1.922  0.00  0.00     0.000 A 
ATOM      3  C3  BNZ d   1      -2.228   1.605   1.199  0.00  0.00     0.000 A 
ATOM      4  C4  BNZ d   1      -1.854   1.922  -0.057  0.00  0.00     0.000 A 
ATOM      5  C5  BNZ d   1      -0.738   1.338  -0.623  0.00  0.00     0.000 A 
ATOM      6  C6  BNZ d   1      -0.005   0.421   0.094  0.00  0.00     0.000 A 
ENDROOT
TORSDOF 0
ENDMDL
