MODEL 1
REMARK minimizedAffinity -4.64165068
REMARK minimizedRMSD -1
REMARK  0 active torsions:
REMARK  status: ('A' for Active; 'I' for Inactive)
ROOT
ATOM      1  C1  BNZ d   1      -1.930   0.710   1.904  0.00  0.00     0.000 A 
ATOM      2  C2  BNZ d   1      -1.111  -0.379   1.768  0.00  0.00     0.000 A 
ATOM      3  C3  BNZ d   1      -0.181  -0.436   0.767  0.00  0.00     0.000 A 
ATOM      4  C4  BNZ d   1      -0.100   0.577  -0.119  0.00  0.00     0.000 A 
ATOM      5  C5  BNZ d   1      -0.925   1.677  -0.002  0.00  0.00     0.000 A 
ATOM      6  C6  BNZ d   1      -1.833   1.748   1.030  0.00  0.00     0.000 A 
ENDROOT
TORSDOF 0
ENDMDL
