MODEL 1
REMARK minimizedAffinity -2.71941113
REMARK minimizedRMSD -1
REMARK  0 active torsions:
REMARK  status: ('A' for Active; 'I' for Inactive)
ROOT
ATOM      1  C1  BNZ d   1       0.919  -1.046  -0.741  0.00  0.00     0.000 A 
ATOM      2  C2  BNZ d   1       0.100  -1.274   0.333  0.00  0.00     0.000 A 
ATOM      3  C3  BNZ d   1      -0.721  -0.291   0.809  0.00  0.00     0.000 A 
ATOM      4  C4  BNZ d   1      -0.693   0.930   0.237  0.00  0.00     0.000 A 
ATOM      5  C5  BNZ d   1       0.133   1.179  -0.841  0.00  0.00     0.000 A 
ATOM      6  C6  BNZ d   1       0.930   0.175  -1.342  0.00  0.00     0.000 A 
ENDROOT
TORSDOF 0
ENDMDL
