MODEL 1
REMARK minimizedAffinity -3.67086267
REMARK minimizedRMSD -1
REMARK  0 active torsions:
REMARK  status: ('A' for Active; 'I' for Inactive)
ROOT
ATOM      1  C1  BNZ d   1       0.094   0.166  -0.780  0.00  0.00     0.000 A 
ATOM      2  C2  BNZ d   1      -0.770   1.182  -0.469  0.00  0.00     0.000 A 
ATOM      3  C3  BNZ d   1      -1.200   1.367   0.816  0.00  0.00     0.000 A 
ATOM      4  C4  BNZ d   1      -0.797   0.513   1.779  0.00  0.00     0.000 A 
ATOM      5  C5  BNZ d   1       0.066  -0.522   1.479  0.00  0.00     0.000 A 
ATOM      6  C6  BNZ d   1       0.527  -0.682   0.193  0.00  0.00     0.000 A 
ENDROOT
TORSDOF 0
ENDMDL
