MODEL 1
REMARK minimizedAffinity -2.88612032
REMARK minimizedRMSD -1
REMARK  0 active torsions:
REMARK  status: ('A' for Active; 'I' for Inactive)
ROOT
ATOM      1  C1  BNZ d   1      -1.335   1.173   0.480  0.00  0.00     0.000 A 
ATOM      2  C2  BNZ d   1      -0.654   0.949  -0.687  0.00  0.00     0.000 A 
ATOM      3  C3  BNZ d   1       0.368   0.044  -0.739  0.00  0.00     0.000 A 
ATOM      4  C4  BNZ d   1       0.735  -0.606   0.385  0.00  0.00     0.000 A 
ATOM      5  C5  BNZ d   1       0.065  -0.385   1.571  0.00  0.00     0.000 A 
ATOM      6  C6  BNZ d   1      -0.990   0.498   1.610  0.00  0.00     0.000 A 
ENDROOT
TORSDOF 0
ENDMDL
