MODEL 1
REMARK minimizedAffinity -3.41902518
REMARK minimizedRMSD -1
REMARK  0 active torsions:
REMARK  status: ('A' for Active; 'I' for Inactive)
ROOT
ATOM      1  C1  BNZ d   1      -0.213   0.697  -0.690  0.00  0.00     0.000 A 
ATOM      2  C2  BNZ d   1      -0.975   1.799  -0.407  0.00  0.00     0.000 A 
ATOM      3  C3  BNZ d   1      -1.593   1.929   0.805  0.00  0.00     0.000 A 
ATOM      4  C4  BNZ d   1      -1.482   0.941   1.717  0.00  0.00     0.000 A 
ATOM      5  C5  BNZ d   1      -0.724  -0.180   1.443  0.00  0.00     0.000 A 
ATOM      6  C6  BNZ d   1      -0.071  -0.290   0.236  0.00  0.00     0.000 A 
ENDROOT
TORSDOF 0
ENDMDL
