MODEL 1
REMARK minimizedAffinity -3.75842142
REMARK minimizedRMSD -1
REMARK  0 active torsions:
REMARK  status: ('A' for Active; 'I' for Inactive)
ROOT
ATOM      1  C1  BNZ d   1      -1.077   1.660   0.206  0.00  0.00     0.000 A 
ATOM      2  C2  BNZ d   1      -1.382   1.716   1.540  0.00  0.00     0.000 A 
ATOM      3  C3  BNZ d   1      -0.959   0.739   2.396  0.00  0.00     0.000 A 
ATOM      4  C4  BNZ d   1      -0.267  -0.313   1.912  0.00  0.00     0.000 A 
ATOM      5  C5  BNZ d   1       0.040  -0.388   0.568  0.00  0.00     0.000 A 
ATOM      6  C6  BNZ d   1      -0.353   0.617  -0.284  0.00  0.00     0.000 A 
ENDROOT
TORSDOF 0
ENDMDL
