MODEL 1
REMARK minimizedAffinity -5.27034283
REMARK minimizedRMSD -1
REMARK  0 active torsions:
REMARK  status: ('A' for Active; 'I' for Inactive)
ROOT
ATOM      1  C1  BNZ d   1      -0.611   0.417   0.839  0.00  0.00     0.000 A 
ATOM      2  C2  BNZ d   1      -1.255   1.292   1.673  0.00  0.00     0.000 A 
ATOM      3  C3  BNZ d   1      -1.547   2.563   1.264  0.00  0.00     0.000 A 
ATOM      4  C4  BNZ d   1      -1.160   2.970   0.038  0.00  0.00     0.000 A 
ATOM      5  C5  BNZ d   1      -0.502   2.103  -0.811  0.00  0.00     0.000 A 
ATOM      6  C6  BNZ d   1      -0.245   0.812  -0.410  0.00  0.00     0.000 A 
ENDROOT
TORSDOF 0
ENDMDL
