MODEL 1
REMARK minimizedAffinity -5.10545015
REMARK minimizedRMSD -1
REMARK  0 active torsions:
REMARK  status: ('A' for Active; 'I' for Inactive)
ROOT
ATOM      1  C1  BNZ d   1      -0.252   3.073  -0.104  0.00  0.00     0.000 A 
ATOM      2  C2  BNZ d   1       0.340   1.929  -0.568  0.00  0.00     0.000 A 
ATOM      3  C3  BNZ d   1       0.119   0.728   0.047  0.00  0.00     0.000 A 
ATOM      4  C4  BNZ d   1      -0.660   0.680   1.148  0.00  0.00     0.000 A 
ATOM      5  C5  BNZ d   1      -1.256   1.828   1.633  0.00  0.00     0.000 A 
ATOM      6  C6  BNZ d   1      -1.062   3.028   0.988  0.00  0.00     0.000 A 
ENDROOT
TORSDOF 0
ENDMDL
