MODEL 1
REMARK minimizedAffinity -5.31320238
REMARK minimizedRMSD -1
REMARK  0 active torsions:
REMARK  status: ('A' for Active; 'I' for Inactive)
ROOT
ATOM      1  C1  BNZ d   1      -0.121   0.798  -0.199  0.00  0.00     0.000 A 
ATOM      2  C2  BNZ d   1       0.012   2.013  -0.816  0.00  0.00     0.000 A 
ATOM      3  C3  BNZ d   1      -0.626   3.120  -0.329  0.00  0.00     0.000 A 
ATOM      4  C4  BNZ d   1      -1.426   3.002   0.750  0.00  0.00     0.000 A 
ATOM      5  C5  BNZ d   1      -1.578   1.782   1.378  0.00  0.00     0.000 A 
ATOM      6  C6  BNZ d   1      -0.904   0.678   0.908  0.00  0.00     0.000 A 
ENDROOT
TORSDOF 0
ENDMDL
