MODEL 1
REMARK minimizedAffinity -3.94276571
REMARK minimizedRMSD -1
REMARK  0 active torsions:
REMARK  status: ('A' for Active; 'I' for Inactive)
ROOT
ATOM      1  C1  BNZ d   1      -0.249   0.961  -0.206  0.00  0.00     0.000 A 
ATOM      2  C2  BNZ d   1      -1.457   1.586  -0.045  0.00  0.00     0.000 A 
ATOM      3  C3  BNZ d   1      -2.237   1.331   1.048  0.00  0.00     0.000 A 
ATOM      4  C4  BNZ d   1      -1.829   0.421   1.956  0.00  0.00     0.000 A 
ATOM      5  C5  BNZ d   1      -0.618  -0.225   1.803  0.00  0.00     0.000 A 
ATOM      6  C6  BNZ d   1       0.183   0.064   0.722  0.00  0.00     0.000 A 
ENDROOT
TORSDOF 0
ENDMDL
