MODEL 1
REMARK minimizedAffinity -3.64495182
REMARK minimizedRMSD -1
REMARK  0 active torsions:
REMARK  status: ('A' for Active; 'I' for Inactive)
ROOT
ATOM      1  C1  BNZ d   1      -0.986   1.752   0.252  0.00  0.00     0.000 A 
ATOM      2  C2  BNZ d   1      -0.132   0.809  -0.256  0.00  0.00     0.000 A 
ATOM      3  C3  BNZ d   1       0.385  -0.170   0.545  0.00  0.00     0.000 A 
ATOM      4  C4  BNZ d   1       0.081  -0.182   1.859  0.00  0.00     0.000 A 
ATOM      5  C5  BNZ d   1      -0.771   0.767   2.388  0.00  0.00     0.000 A 
ATOM      6  C6  BNZ d   1      -1.321   1.728   1.571  0.00  0.00     0.000 A 
ENDROOT
TORSDOF 0
ENDMDL
