MODEL 1
REMARK minimizedAffinity -4.29902649
REMARK minimizedRMSD -1
REMARK  0 active torsions:
REMARK  status: ('A' for Active; 'I' for Inactive)
ROOT
ATOM      1  C1  BNZ d   1      -0.534   0.540   1.683  0.00  0.00     0.000 A 
ATOM      2  C2  BNZ d   1      -1.366   1.615   1.852  0.00  0.00     0.000 A 
ATOM      3  C3  BNZ d   1      -1.857   2.296   0.774  0.00  0.00     0.000 A 
ATOM      4  C4  BNZ d   1      -1.484   1.928  -0.469  0.00  0.00     0.000 A 
ATOM      5  C5  BNZ d   1      -0.639   0.852  -0.656  0.00  0.00     0.000 A 
ATOM      6  C6  BNZ d   1      -0.178   0.144   0.431  0.00  0.00     0.000 A 
ENDROOT
TORSDOF 0
ENDMDL
