MODEL 1
REMARK minimizedAffinity -5.47524309
REMARK minimizedRMSD -1
REMARK  0 active torsions:
REMARK  status: ('A' for Active; 'I' for Inactive)
ROOT
ATOM      1  C1  BNZ d   1      -0.681   0.119   1.429  0.00  0.00     0.000 A 
ATOM      2  C2  BNZ d   1      -1.413   1.175   1.903  0.00  0.00     0.000 A 
ATOM      3  C3  BNZ d   1      -1.547   2.320   1.168  0.00  0.00     0.000 A 
ATOM      4  C4  BNZ d   1      -0.918   2.422  -0.020  0.00  0.00     0.000 A 
ATOM      5  C5  BNZ d   1      -0.169   1.370  -0.508  0.00  0.00     0.000 A 
ATOM      6  C6  BNZ d   1      -0.068   0.205   0.217  0.00  0.00     0.000 A 
ENDROOT
TORSDOF 0
ENDMDL
