MODEL 1
REMARK minimizedAffinity 1.35073519
REMARK minimizedRMSD -1
REMARK  0 active torsions:
REMARK  status: ('A' for Active; 'I' for Inactive)
ROOT
ATOM      1  C   UNL d   1      -4.858   1.792  -5.980  0.00  0.00     0.020 A 
ATOM      2  C1  UNL d   1      -4.856   0.957  -4.863  0.00  0.00     0.020 A 
ATOM      3  C2  UNL d   1      -5.210   1.465  -3.611  0.00  0.00     0.034 A 
ATOM      4  C3  UNL d   1      -5.568   2.811  -3.473  0.00  0.00     0.017 A 
ATOM      5  C4  UNL d   1      -5.570   3.648  -4.595  0.00  0.00     0.017 A 
ATOM      6  C5  UNL d   1      -5.214   3.135  -5.846  0.00  0.00     0.034 A 
ATOM      7 Cl   UNL d   1      -6.000   5.320  -4.504  0.00  0.00    -0.070 Cl
ATOM      8 Cl1  UNL d   1      -5.995   3.371  -1.896  0.00  0.00    -0.070 Cl
ENDROOT
TORSDOF 0
ENDMDL
