MODEL 1
REMARK minimizedAffinity 4.89647388
REMARK minimizedRMSD -1
REMARK  0 active torsions:
REMARK  status: ('A' for Active; 'I' for Inactive)
ROOT
ATOM      1  C   UNL d   1      -2.589  -3.055  -0.191  0.00  0.00     0.020 A 
ATOM      2  C1  UNL d   1      -3.510  -2.188  -0.779  0.00  0.00     0.020 A 
ATOM      3  C2  UNL d   1      -3.342  -0.807  -0.662  0.00  0.00     0.034 A 
ATOM      4  C3  UNL d   1      -2.251  -0.288   0.044  0.00  0.00     0.017 A 
ATOM      5  C4  UNL d   1      -1.327  -1.158   0.634  0.00  0.00     0.017 A 
ATOM      6  C5  UNL d   1      -1.500  -2.541   0.514  0.00  0.00     0.034 A 
ATOM      7 Cl   UNL d   1       0.044  -0.593   1.521  0.00  0.00    -0.070 Cl
ATOM      8 Cl1  UNL d   1      -2.105   1.431   0.148  0.00  0.00    -0.070 Cl
ENDROOT
TORSDOF 0
ENDMDL
