MODEL 1
REMARK minimizedAffinity 5.01416969
REMARK minimizedRMSD -1
REMARK  0 active torsions:
REMARK  status: ('A' for Active; 'I' for Inactive)
ROOT
ATOM      1  C   UNL d   1       1.927  -3.164   4.886  0.00  0.00     0.020 A 
ATOM      2  C1  UNL d   1       1.198  -2.050   5.300  0.00  0.00     0.020 A 
ATOM      3  C2  UNL d   1       0.784  -1.099   4.365  0.00  0.00     0.034 A 
ATOM      4  C3  UNL d   1       1.098  -1.261   3.011  0.00  0.00     0.017 A 
ATOM      5  C4  UNL d   1       1.829  -2.380   2.596  0.00  0.00     0.017 A 
ATOM      6  C5  UNL d   1       2.242  -3.328   3.536  0.00  0.00     0.034 A 
ATOM      7 Cl   UNL d   1       2.255  -2.648   0.942  0.00  0.00    -0.070 Cl
ATOM      8 Cl1  UNL d   1       0.554  -0.046   1.909  0.00  0.00    -0.070 Cl
ENDROOT
TORSDOF 0
ENDMDL
