MODEL 1
REMARK minimizedAffinity 7.81597471
REMARK minimizedRMSD -1
REMARK  0 active torsions:
REMARK  status: ('A' for Active; 'I' for Inactive)
ROOT
ATOM      1  C   UNL d   1       1.421  -2.285   5.627  0.00  0.00     0.020 A 
ATOM      2  C1  UNL d   1       2.149  -3.399   5.211  0.00  0.00     0.020 A 
ATOM      3  C2  UNL d   1       2.500  -3.542   3.866  0.00  0.00     0.034 A 
ATOM      4  C3  UNL d   1       2.123  -2.569   2.934  0.00  0.00     0.017 A 
ATOM      5  C4  UNL d   1       1.393  -1.450   3.353  0.00  0.00     0.017 A 
ATOM      6  C5  UNL d   1       1.044  -1.313   4.700  0.00  0.00     0.034 A 
ATOM      7 Cl   UNL d   1       0.892  -0.208   2.260  0.00  0.00    -0.070 Cl
ATOM      8 Cl1  UNL d   1       2.591  -2.809   1.288  0.00  0.00    -0.070 Cl
ENDROOT
TORSDOF 0
ENDMDL
