MODEL 1
REMARK minimizedAffinity 10.3719597
REMARK minimizedRMSD -1
REMARK  0 active torsions:
REMARK  status: ('A' for Active; 'I' for Inactive)
ROOT
ATOM      1  C   UNL d   1      -0.558  -1.244   0.604  0.00  0.00     0.020 A 
ATOM      2  C1  UNL d   1      -1.516  -0.233   0.552  0.00  0.00     0.020 A 
ATOM      3  C2  UNL d   1      -2.807  -0.517   0.100  0.00  0.00     0.034 A 
ATOM      4  C3  UNL d   1      -3.143  -1.816  -0.300  0.00  0.00     0.017 A 
ATOM      5  C4  UNL d   1      -2.180  -2.830  -0.247  0.00  0.00     0.017 A 
ATOM      6  C5  UNL d   1      -0.889  -2.540   0.206  0.00  0.00     0.034 A 
ATOM      7 Cl   UNL d   1      -2.520  -4.456  -0.724  0.00  0.00    -0.070 Cl
ATOM      8 Cl1  UNL d   1      -4.758  -2.096  -0.847  0.00  0.00    -0.070 Cl
ENDROOT
TORSDOF 0
ENDMDL
