MODEL 1
REMARK minimizedAffinity 8.90509319
REMARK minimizedRMSD -1
REMARK  0 active torsions:
REMARK  status: ('A' for Active; 'I' for Inactive)
ROOT
ATOM      1  C   UNL d   1       1.492  -0.942   5.332  0.00  0.00     0.020 A 
ATOM      2  C1  UNL d   1       1.391  -0.046   4.268  0.00  0.00     0.020 A 
ATOM      3  C2  UNL d   1       1.835  -0.418   2.998  0.00  0.00     0.034 A 
ATOM      4  C3  UNL d   1       2.382  -1.689   2.788  0.00  0.00     0.017 A 
ATOM      5  C4  UNL d   1       2.484  -2.588   3.856  0.00  0.00     0.017 A 
ATOM      6  C5  UNL d   1       2.037  -2.210   5.126  0.00  0.00     0.034 A 
ATOM      7 Cl   UNL d   1       3.148  -4.173   3.674  0.00  0.00    -0.070 Cl
ATOM      8 Cl1  UNL d   1       2.911  -2.082   1.190  0.00  0.00    -0.070 Cl
ENDROOT
TORSDOF 0
ENDMDL
