MODEL 1
REMARK minimizedAffinity 3.0852356
REMARK minimizedRMSD -1
REMARK  0 active torsions:
REMARK  status: ('A' for Active; 'I' for Inactive)
ROOT
ATOM      1  C   UNL d   1       1.386  -1.196   1.517  0.00  0.00     0.020 A 
ATOM      2  C1  UNL d   1       0.867  -0.436   2.564  0.00  0.00     0.020 A 
ATOM      3  C2  UNL d   1       0.850  -0.954   3.861  0.00  0.00     0.034 A 
ATOM      4  C3  UNL d   1       1.353  -2.236   4.114  0.00  0.00     0.017 A 
ATOM      5  C4  UNL d   1       1.874  -2.998   3.062  0.00  0.00     0.017 A 
ATOM      6  C5  UNL d   1       1.889  -2.474   1.766  0.00  0.00     0.034 A 
ATOM      7 Cl   UNL d   1       2.513  -4.586   3.296  0.00  0.00    -0.070 Cl
ATOM      8 Cl1  UNL d   1       1.300  -2.813   5.742  0.00  0.00    -0.070 Cl
ENDROOT
TORSDOF 0
ENDMDL
