MODEL 1
REMARK minimizedAffinity 10.4390249
REMARK minimizedRMSD -1
REMARK  0 active torsions:
REMARK  status: ('A' for Active; 'I' for Inactive)
ROOT
ATOM      1  C   UNL d   1      -2.280  -2.793  -0.042  0.00  0.00     0.020 A 
ATOM      2  C1  UNL d   1      -2.577  -1.475   0.307  0.00  0.00     0.020 A 
ATOM      3  C2  UNL d   1      -1.644  -0.713   1.013  0.00  0.00     0.034 A 
ATOM      4  C3  UNL d   1      -0.410  -1.266   1.373  0.00  0.00     0.017 A 
ATOM      5  C4  UNL d   1      -0.113  -2.589   1.023  0.00  0.00     0.017 A 
ATOM      6  C5  UNL d   1      -1.051  -3.348   0.316  0.00  0.00     0.034 A 
ATOM      7 Cl   UNL d   1       1.388  -3.341   1.432  0.00  0.00    -0.070 Cl
ATOM      8 Cl1  UNL d   1       0.695  -0.265   2.245  0.00  0.00    -0.070 Cl
ENDROOT
TORSDOF 0
ENDMDL
