MODEL 1
REMARK minimizedAffinity 13.7165241
REMARK minimizedRMSD -1
REMARK  1 active torsions:
REMARK  status: ('A' for Active; 'I' for Inactive)
REMARK    1  A    between atoms: C1_2  and  C2_3 
ROOT
ATOM      1  C2  UNL d   1      -0.167  -1.624   2.489  0.00  0.00    -0.076 A 
ATOM      2  C3  UNL d   1      -1.300  -1.851   1.688  0.00  0.00     0.004 A 
ATOM      3  C4  UNL d   1      -2.502  -1.195   1.944  0.00  0.00    -0.003 A 
ATOM      4  C5  UNL d   1      -2.592  -0.300   3.004  0.00  0.00     0.000 A 
ATOM      5  C6  UNL d   1      -1.473  -0.049   3.798  0.00  0.00     0.000 A 
ATOM      6  C7  UNL d   1      -0.248  -0.690   3.544  0.00  0.00    -0.073 A 
ATOM      7  C8  UNL d   1       0.924  -0.386   4.436  0.00  0.00     0.078 C 
ENDROOT
BRANCH   1   8
ATOM      8  C1  UNL d   1       1.103  -2.385   2.180  0.00  0.00     0.053 C 
ATOM      9  C   UNL d   1       1.776  -1.902   0.904  0.00  0.00     0.018 C 
ENDBRANCH   1   8
TORSDOF 1
ENDMDL
