MODEL 1
REMARK minimizedAffinity 11.9535961
REMARK minimizedRMSD -1
REMARK  1 active torsions:
REMARK  status: ('A' for Active; 'I' for Inactive)
REMARK    1  A    between atoms: C1_2  and  C2_3 
ROOT
ATOM      1  C2  UNL d   1      -2.148  -0.369   2.580  0.00  0.00    -0.076 A 
ATOM      2  C3  UNL d   1      -2.658  -1.676   2.671  0.00  0.00     0.004 A 
ATOM      3  C4  UNL d   1      -1.897  -2.705   3.223  0.00  0.00    -0.003 A 
ATOM      4  C5  UNL d   1      -0.616  -2.444   3.695  0.00  0.00     0.000 A 
ATOM      5  C6  UNL d   1      -0.102  -1.150   3.630  0.00  0.00     0.000 A 
ATOM      6  C7  UNL d   1      -0.861  -0.097   3.090  0.00  0.00    -0.073 A 
ATOM      7  C8  UNL d   1      -0.254   1.278   3.039  0.00  0.00     0.078 C 
ENDROOT
BRANCH   1   8
ATOM      8  C1  UNL d   1      -3.008   0.701   1.946  0.00  0.00     0.053 C 
ATOM      9  C   UNL d   1      -4.129   1.167   2.863  0.00  0.00     0.018 C 
ENDBRANCH   1   8
TORSDOF 1
ENDMDL
