MODEL 1
REMARK minimizedAffinity 5.13304138
REMARK minimizedRMSD -1
REMARK  1 active torsions:
REMARK  status: ('A' for Active; 'I' for Inactive)
REMARK    1  A    between atoms: C1_2  and  C2_3 
ROOT
ATOM      1  C2  UNL d   1       0.777  -2.970   1.919  0.00  0.00    -0.076 A 
ATOM      2  C3  UNL d   1       0.618  -4.307   2.323  0.00  0.00     0.004 A 
ATOM      3  C4  UNL d   1       1.641  -5.237   2.145  0.00  0.00    -0.003 A 
ATOM      4  C5  UNL d   1       2.840  -4.845   1.560  0.00  0.00     0.000 A 
ATOM      5  C6  UNL d   1       3.022  -3.519   1.169  0.00  0.00     0.000 A 
ATOM      6  C7  UNL d   1       2.007  -2.565   1.357  0.00  0.00    -0.073 A 
ATOM      7  C8  UNL d   1       2.255  -1.150   0.911  0.00  0.00     0.078 C 
ENDROOT
BRANCH   1   8
ATOM      8  C1  UNL d   1      -0.376  -2.013   2.113  0.00  0.00     0.053 C 
ATOM      9  C   UNL d   1      -0.394  -1.396   3.503  0.00  0.00     0.018 C 
ENDBRANCH   1   8
TORSDOF 1
ENDMDL
