MODEL 1
REMARK minimizedAffinity -1.57574797
REMARK minimizedRMSD -1
REMARK  1 active torsions:
REMARK  status: ('A' for Active; 'I' for Inactive)
REMARK    1  A    between atoms: C1_2  and  C2_3 
ROOT
ATOM      1  C2  UNL d   1       3.893  -3.860   4.839  0.00  0.00    -0.076 A 
ATOM      2  C3  UNL d   1       3.250  -3.266   3.739  0.00  0.00     0.004 A 
ATOM      3  C4  UNL d   1       2.874  -4.024   2.632  0.00  0.00    -0.003 A 
ATOM      4  C5  UNL d   1       3.133  -5.390   2.607  0.00  0.00     0.000 A 
ATOM      5  C6  UNL d   1       3.754  -6.000   3.697  0.00  0.00     0.000 A 
ATOM      6  C7  UNL d   1       4.125  -5.252   4.828  0.00  0.00    -0.073 A 
ATOM      7  C8  UNL d   1       4.796  -5.960   5.973  0.00  0.00     0.078 C 
ENDROOT
BRANCH   1   8
ATOM      8  C1  UNL d   1       4.302  -2.982   6.000  0.00  0.00     0.053 C 
ATOM      9  C   UNL d   1       5.782  -2.631   5.971  0.00  0.00     0.018 C 
ENDBRANCH   1   8
TORSDOF 1
ENDMDL
