MODEL 1
REMARK minimizedAffinity 4.43245459
REMARK minimizedRMSD -1
REMARK  1 active torsions:
REMARK  status: ('A' for Active; 'I' for Inactive)
REMARK    1  A    between atoms: C1_2  and  C2_3 
ROOT
ATOM      1  C2  UNL d   1       1.626  -1.987   2.687  0.00  0.00    -0.076 A 
ATOM      2  C3  UNL d   1       1.174  -1.995   1.356  0.00  0.00     0.004 A 
ATOM      3  C4  UNL d   1       1.881  -2.671   0.363  0.00  0.00    -0.003 A 
ATOM      4  C5  UNL d   1       3.051  -3.349   0.684  0.00  0.00     0.000 A 
ATOM      5  C6  UNL d   1       3.505  -3.366   2.003  0.00  0.00     0.000 A 
ATOM      6  C7  UNL d   1       2.796  -2.704   3.019  0.00  0.00    -0.073 A 
ATOM      7  C8  UNL d   1       3.334  -2.750   4.423  0.00  0.00     0.078 C 
ENDROOT
BRANCH   1   8
ATOM      8  C1  UNL d   1       0.833  -1.214   3.717  0.00  0.00     0.053 C 
ATOM      9  C   UNL d   1      -0.668  -1.322   3.496  0.00  0.00     0.018 C 
ENDBRANCH   1   8
TORSDOF 1
ENDMDL
