MODEL 1
REMARK minimizedAffinity 3.56796408
REMARK minimizedRMSD -1
REMARK  1 active torsions:
REMARK  status: ('A' for Active; 'I' for Inactive)
REMARK    1  A    between atoms: C1_2  and  C2_3 
ROOT
ATOM      1  C2  UNL d   1       5.978   1.073  -0.849  0.00  0.00    -0.076 A 
ATOM      2  C3  UNL d   1       5.988   1.795  -2.056  0.00  0.00     0.004 A 
ATOM      3  C4  UNL d   1       5.998   1.138  -3.285  0.00  0.00    -0.003 A 
ATOM      4  C5  UNL d   1       5.998  -0.252  -3.328  0.00  0.00     0.000 A 
ATOM      5  C6  UNL d   1       5.970  -0.984  -2.141  0.00  0.00     0.000 A 
ATOM      6  C7  UNL d   1       5.943  -0.337  -0.894  0.00  0.00    -0.073 A 
ATOM      7  C8  UNL d   1       5.920  -1.176   0.354  0.00  0.00     0.078 C 
ENDROOT
BRANCH   1   8
ATOM      8  C1  UNL d   1       5.994   1.840   0.454  0.00  0.00     0.053 C 
ATOM      9  C   UNL d   1       5.996   3.347   0.243  0.00  0.00     0.018 C 
ENDBRANCH   1   8
TORSDOF 1
ENDMDL
