MODEL 1
REMARK minimizedAffinity -1.20969188
REMARK minimizedRMSD -1
REMARK  1 active torsions:
REMARK  status: ('A' for Active; 'I' for Inactive)
REMARK    1  A    between atoms: C1_2  and  C2_3 
ROOT
ATOM      1  C2  UNL d   1       5.983   1.314  -0.326  0.00  0.00    -0.076 A 
ATOM      2  C3  UNL d   1       5.978   2.281  -1.346  0.00  0.00     0.004 A 
ATOM      3  C4  UNL d   1       5.987   1.908  -2.689  0.00  0.00    -0.003 A 
ATOM      4  C5  UNL d   1       6.000   0.561  -3.033  0.00  0.00     0.000 A 
ATOM      5  C6  UNL d   1       5.987  -0.412  -2.034  0.00  0.00     0.000 A 
ATOM      6  C7  UNL d   1       5.961  -0.053  -0.676  0.00  0.00    -0.073 A 
ATOM      7  C8  UNL d   1       5.954  -1.144   0.360  0.00  0.00     0.078 C 
ENDROOT
BRANCH   1   8
ATOM      8  C1  UNL d   1       6.000   1.779   1.113  0.00  0.00     0.053 C 
ATOM      9  C   UNL d   1       5.994   3.295   1.235  0.00  0.00     0.018 C 
ENDBRANCH   1   8
TORSDOF 1
ENDMDL
