MODEL 1
REMARK minimizedAffinity 0.822689712
REMARK minimizedRMSD -1
REMARK  1 active torsions:
REMARK  status: ('A' for Active; 'I' for Inactive)
REMARK    1  A    between atoms: C1_2  and  C2_3 
ROOT
ATOM      1  C2  UNL d   1       5.989   1.845  -1.176  0.00  0.00    -0.076 A 
ATOM      2  C3  UNL d   1       5.999   3.181  -0.739  0.00  0.00     0.004 A 
ATOM      3  C4  UNL d   1       5.982   3.491   0.620  0.00  0.00    -0.003 A 
ATOM      4  C5  UNL d   1       5.955   2.470   1.564  0.00  0.00     0.000 A 
ATOM      5  C6  UNL d   1       5.962   1.139   1.148  0.00  0.00     0.000 A 
ATOM      6  C7  UNL d   1       5.996   0.809  -0.217  0.00  0.00    -0.073 A 
ATOM      7  C8  UNL d   1       5.996  -0.643  -0.609  0.00  0.00     0.078 C 
ENDROOT
BRANCH   1   8
ATOM      8  C1  UNL d   1       5.981   1.569  -2.663  0.00  0.00     0.053 C 
ATOM      9  C   UNL d   1       5.971   0.082  -2.979  0.00  0.00     0.018 C 
ENDBRANCH   1   8
TORSDOF 1
ENDMDL
