MODEL 1
REMARK minimizedAffinity -4.81339884
REMARK minimizedRMSD -1
REMARK  0 active torsions:
REMARK  status: ('A' for Active; 'I' for Inactive)
ROOT
ATOM      1  C   UNL d   1       3.088  -0.776   0.324  0.00  0.00     0.124 A 
ATOM      2  C1  UNL d   1       2.117  -1.646  -0.151  0.00  0.00     0.062 A 
ATOM      3  C2  UNL d   1       0.786  -1.244  -0.213  0.00  0.00     0.162 A 
ATOM      4  C3  UNL d   1       0.418   0.036   0.200  0.00  0.00    -0.034 A 
ATOM      5  C4  UNL d   1       1.400   0.906   0.678  0.00  0.00     0.162 A 
ATOM      6  C5  UNL d   1       2.728   0.499   0.738  0.00  0.00     0.062 A 
ATOM      7  F   UNL d   1       3.665   1.342   1.198  0.00  0.00    -0.097 F 
ATOM      8  F1  UNL d   1       1.080   2.143   1.084  0.00  0.00    -0.096 F 
ATOM      9  I   UNL d   1      -1.572   0.641   0.109  0.00  0.00    -0.060 I 
ATOM     10  F2  UNL d   1      -0.131  -2.107  -0.677  0.00  0.00    -0.096 F 
ATOM     11  F3  UNL d   1       2.462  -2.879  -0.551  0.00  0.00    -0.097 F 
ATOM     12  F4  UNL d   1       4.368  -1.166   0.384  0.00  0.00    -0.092 F 
ENDROOT
TORSDOF 0
ENDMDL
