MODEL 1
REMARK minimizedAffinity -2.49959779
REMARK minimizedRMSD -1
REMARK  0 active torsions:
REMARK  status: ('A' for Active; 'I' for Inactive)
ROOT
ATOM      1  C   UNL d   1       2.792   1.085   0.706  0.00  0.00     0.124 A 
ATOM      2  C1  UNL d   1       3.039  -0.247   1.007  0.00  0.00     0.062 A 
ATOM      3  C2  UNL d   1       2.057  -1.208   0.787  0.00  0.00     0.162 A 
ATOM      4  C3  UNL d   1       0.818  -0.841   0.262  0.00  0.00    -0.034 A 
ATOM      5  C4  UNL d   1       0.576   0.501  -0.037  0.00  0.00     0.162 A 
ATOM      6  C5  UNL d   1       1.561   1.458   0.185  0.00  0.00     0.062 A 
ATOM      7  F   UNL d   1       1.321   2.745  -0.107  0.00  0.00    -0.097 F 
ATOM      8  F1  UNL d   1      -0.604   0.889  -0.543  0.00  0.00    -0.096 F 
ATOM      9  I   UNL d   1      -0.654  -2.275  -0.068  0.00  0.00    -0.060 I 
ATOM     10  F2  UNL d   1       2.323  -2.488   1.087  0.00  0.00    -0.096 F 
ATOM     11  F3  UNL d   1       4.227  -0.610   1.512  0.00  0.00    -0.097 F 
ATOM     12  F4  UNL d   1       3.739   2.008   0.920  0.00  0.00    -0.092 F 
ENDROOT
TORSDOF 0
ENDMDL
