MODEL 1
REMARK minimizedAffinity -3.49992108
REMARK minimizedRMSD -1
REMARK  0 active torsions:
REMARK  status: ('A' for Active; 'I' for Inactive)
ROOT
ATOM      1  C   UNL d   1       3.088   0.210   0.509  0.00  0.00     0.124 A 
ATOM      2  C1  UNL d   1       2.570   1.412   0.048  0.00  0.00     0.062 A 
ATOM      3  C2  UNL d   1       1.207   1.538  -0.200  0.00  0.00     0.162 A 
ATOM      4  C3  UNL d   1       0.350   0.458   0.014  0.00  0.00    -0.034 A 
ATOM      5  C4  UNL d   1       0.878  -0.748   0.477  0.00  0.00     0.162 A 
ATOM      6  C5  UNL d   1       2.242  -0.869   0.723  0.00  0.00     0.062 A 
ATOM      7  F   UNL d   1       2.741  -2.031   1.168  0.00  0.00    -0.097 F 
ATOM      8  F1  UNL d   1       0.083  -1.806   0.694  0.00  0.00    -0.096 F 
ATOM      9  I   UNL d   1      -1.690   0.642  -0.354  0.00  0.00    -0.060 I 
ATOM     10  F2  UNL d   1       0.734   2.712  -0.645  0.00  0.00    -0.096 F 
ATOM     11  F3  UNL d   1       3.386   2.456  -0.161  0.00  0.00    -0.097 F 
ATOM     12  F4  UNL d   1       4.401   0.092   0.745  0.00  0.00    -0.092 F 
ENDROOT
TORSDOF 0
ENDMDL
