MODEL 1
REMARK minimizedAffinity -4.67016888
REMARK minimizedRMSD -1
REMARK  0 active torsions:
REMARK  status: ('A' for Active; 'I' for Inactive)
ROOT
ATOM      1  C   UNL d   1       2.644  -0.214   0.574  0.00  0.00     0.124 A 
ATOM      2  C1  UNL d   1       2.255   1.076   0.243  0.00  0.00     0.062 A 
ATOM      3  C2  UNL d   1       0.910   1.372   0.039  0.00  0.00     0.162 A 
ATOM      4  C3  UNL d   1      -0.057   0.375   0.167  0.00  0.00    -0.034 A 
ATOM      5  C4  UNL d   1       0.342  -0.921   0.500  0.00  0.00     0.162 A 
ATOM      6  C5  UNL d   1       1.687  -1.211   0.703  0.00  0.00     0.062 A 
ATOM      7  F   UNL d   1       2.061  -2.459   1.023  0.00  0.00    -0.097 F 
ATOM      8  F1  UNL d   1      -0.562  -1.904   0.632  0.00  0.00    -0.096 F 
ATOM      9  I   UNL d   1      -2.069   0.812  -0.137  0.00  0.00    -0.060 I 
ATOM     10  F2  UNL d   1       0.563   2.627  -0.280  0.00  0.00    -0.096 F 
ATOM     11  F3  UNL d   1       3.177   2.041   0.117  0.00  0.00    -0.097 F 
ATOM     12  F4  UNL d   1       3.938  -0.496   0.769  0.00  0.00    -0.092 F 
ENDROOT
TORSDOF 0
ENDMDL
