MODEL 1
REMARK minimizedAffinity -1.42229509
REMARK minimizedRMSD -1
REMARK  0 active torsions:
REMARK  status: ('A' for Active; 'I' for Inactive)
ROOT
ATOM      1  C   UNL d   1       2.712  -0.497   0.378  0.00  0.00     0.124 A 
ATOM      2  C1  UNL d   1       2.216   0.797   0.455  0.00  0.00     0.062 A 
ATOM      3  C2  UNL d   1       0.902   1.067   0.083  0.00  0.00     0.162 A 
ATOM      4  C3  UNL d   1       0.074   0.040  -0.370  0.00  0.00    -0.034 A 
ATOM      5  C4  UNL d   1       0.580  -1.259  -0.447  0.00  0.00     0.162 A 
ATOM      6  C5  UNL d   1       1.894  -1.523  -0.073  0.00  0.00     0.062 A 
ATOM      7  F   UNL d   1       2.371  -2.774  -0.149  0.00  0.00    -0.097 F 
ATOM      8  F1  UNL d   1      -0.188  -2.270  -0.878  0.00  0.00    -0.096 F 
ATOM      9  I   UNL d   1      -1.890   0.439  -0.929  0.00  0.00    -0.060 I 
ATOM     10  F2  UNL d   1       0.450   2.327   0.168  0.00  0.00    -0.096 F 
ATOM     11  F3  UNL d   1       3.005   1.791   0.890  0.00  0.00    -0.097 F 
ATOM     12  F4  UNL d   1       3.977  -0.754   0.736  0.00  0.00    -0.092 F 
ENDROOT
TORSDOF 0
ENDMDL
