MODEL 1
REMARK minimizedAffinity -1.56170166
REMARK minimizedRMSD -1
REMARK  0 active torsions:
REMARK  status: ('A' for Active; 'I' for Inactive)
ROOT
ATOM      1  C   UNL d   1       1.875  -0.205  -0.252  0.00  0.00     0.124 A 
ATOM      2  C1  UNL d   1       1.368   1.081  -0.379  0.00  0.00     0.062 A 
ATOM      3  C2  UNL d   1       0.006   1.316  -0.212  0.00  0.00     0.162 A 
ATOM      4  C3  UNL d   1      -0.858   0.262   0.086  0.00  0.00    -0.034 A 
ATOM      5  C4  UNL d   1      -0.340  -1.028   0.211  0.00  0.00     0.162 A 
ATOM      6  C5  UNL d   1       1.021  -1.258   0.043  0.00  0.00     0.062 A 
ATOM      7  F   UNL d   1       1.510  -2.500   0.166  0.00  0.00    -0.097 F 
ATOM      8  F1  UNL d   1      -1.143  -2.064   0.497  0.00  0.00    -0.096 F 
ATOM      9  I   UNL d   1      -2.895   0.608   0.338  0.00  0.00    -0.060 I 
ATOM     10  F2  UNL d   1      -0.457   2.568  -0.340  0.00  0.00    -0.096 F 
ATOM     11  F3  UNL d   1       2.191   2.100  -0.665  0.00  0.00    -0.097 F 
ATOM     12  F4  UNL d   1       3.186  -0.428  -0.415  0.00  0.00    -0.092 F 
ENDROOT
TORSDOF 0
ENDMDL
