MODEL 1
REMARK minimizedAffinity -2.81400895
REMARK minimizedRMSD -1
REMARK  0 active torsions:
REMARK  status: ('A' for Active; 'I' for Inactive)
ROOT
ATOM      1  C   UNL d   1       2.497  -0.491  -0.358  0.00  0.00     0.124 A 
ATOM      2  C1  UNL d   1       2.014   0.707   0.149  0.00  0.00     0.062 A 
ATOM      3  C2  UNL d   1       0.643   0.938   0.213  0.00  0.00     0.162 A 
ATOM      4  C3  UNL d   1      -0.256  -0.032  -0.231  0.00  0.00    -0.034 A 
ATOM      5  C4  UNL d   1       0.238  -1.235  -0.741  0.00  0.00     0.162 A 
ATOM      6  C5  UNL d   1       1.609  -1.461  -0.803  0.00  0.00     0.062 A 
ATOM      7  F   UNL d   1       2.074  -2.619  -1.293  0.00  0.00    -0.097 F 
ATOM      8  F1  UNL d   1      -0.598  -2.189  -1.177  0.00  0.00    -0.096 F 
ATOM      9  I   UNL d   1      -2.307   0.309  -0.138  0.00  0.00    -0.060 I 
ATOM     10  F2  UNL d   1       0.204   2.105   0.708  0.00  0.00    -0.096 F 
ATOM     11  F3  UNL d   1       2.870   1.645   0.578  0.00  0.00    -0.097 F 
ATOM     12  F4  UNL d   1       3.817  -0.710  -0.420  0.00  0.00    -0.092 F 
ENDROOT
TORSDOF 0
ENDMDL
