MODEL 1
REMARK minimizedAffinity 12.3220253
REMARK minimizedRMSD -1
REMARK  0 active torsions:
REMARK  status: ('A' for Active; 'I' for Inactive)
ROOT
ATOM      1  C   UNL d   1       1.705  -2.135   1.802  0.00  0.00     0.023 A 
ATOM      2  C1  UNL d   1       0.692  -1.707   2.660  0.00  0.00     0.003 A 
ATOM      3  C2  UNL d   1       0.467  -0.342   2.851  0.00  0.00     0.048 A 
ATOM      4  C3  UNL d   1       1.258   0.590   2.180  0.00  0.00     0.023 A 
ATOM      5  C4  UNL d   1       2.273   0.166   1.320  0.00  0.00     0.048 A 
ATOM      6  C5  UNL d   1       2.494  -1.200   1.132  0.00  0.00     0.003 A 
ATOM      7  I   UNL d   1       0.926   2.622   2.462  0.00  0.00    -0.146 I 
ENDROOT
TORSDOF 0
ENDMDL
