MODEL 1
REMARK minimizedAffinity 6.23998547
REMARK minimizedRMSD -1
REMARK  0 active torsions:
REMARK  status: ('A' for Active; 'I' for Inactive)
ROOT
ATOM      1  C   UNL d   1      -0.411  -5.999   0.261  0.00  0.00     0.023 A 
ATOM      2  C1  UNL d   1       0.954  -5.726   0.353  0.00  0.00     0.003 A 
ATOM      3  C2  UNL d   1       1.400  -4.637   1.105  0.00  0.00     0.048 A 
ATOM      4  C3  UNL d   1       0.475  -3.826   1.763  0.00  0.00     0.023 A 
ATOM      5  C4  UNL d   1      -0.891  -4.096   1.674  0.00  0.00     0.048 A 
ATOM      6  C5  UNL d   1      -1.332  -5.186   0.920  0.00  0.00     0.003 A 
ATOM      7  I   UNL d   1       1.136  -2.205   2.883  0.00  0.00    -0.146 I 
ENDROOT
TORSDOF 0
ENDMDL
