MODEL 1
REMARK minimizedAffinity 15.0330858
REMARK minimizedRMSD -1
REMARK  0 active torsions:
REMARK  status: ('A' for Active; 'I' for Inactive)
ROOT
ATOM      1  C   UNL d   1      -5.443   0.527  -1.496  0.00  0.00     0.023 A 
ATOM      2  C1  UNL d   1      -4.785  -0.217  -2.476  0.00  0.00     0.003 A 
ATOM      3  C2  UNL d   1      -4.640   0.298  -3.765  0.00  0.00     0.048 A 
ATOM      4  C3  UNL d   1      -5.153   1.558  -4.069  0.00  0.00     0.023 A 
ATOM      5  C4  UNL d   1      -5.811   2.307  -3.091  0.00  0.00     0.048 A 
ATOM      6  C5  UNL d   1      -5.955   1.787  -1.804  0.00  0.00     0.003 A 
ATOM      7  I   UNL d   1      -4.938   2.327  -5.987  0.00  0.00    -0.146 I 
ENDROOT
TORSDOF 0
ENDMDL
