MODEL 1
REMARK minimizedAffinity 15.1679573
REMARK minimizedRMSD -1
REMARK  0 active torsions:
REMARK  status: ('A' for Active; 'I' for Inactive)
ROOT
ATOM      1  C   UNL d   1      -5.221  -5.952  -5.490  0.00  0.00     0.023 A 
ATOM      2  C1  UNL d   1      -4.301  -5.716  -4.468  0.00  0.00     0.003 A 
ATOM      3  C2  UNL d   1      -4.141  -4.428  -3.954  0.00  0.00     0.048 A 
ATOM      4  C3  UNL d   1      -4.905  -3.380  -4.465  0.00  0.00     0.023 A 
ATOM      5  C4  UNL d   1      -5.828  -3.611  -5.487  0.00  0.00     0.048 A 
ATOM      6  C5  UNL d   1      -5.983  -4.900  -5.999  0.00  0.00     0.003 A 
ATOM      7  I   UNL d   1      -4.669  -1.461  -3.702  0.00  0.00    -0.146 I 
ENDROOT
TORSDOF 0
ENDMDL
