MODEL 1
REMARK minimizedAffinity 15.2428474
REMARK minimizedRMSD -1
REMARK  0 active torsions:
REMARK  status: ('A' for Active; 'I' for Inactive)
ROOT
ATOM      1  C   UNL d   1       0.094  -2.410   5.683  0.00  0.00     0.023 A 
ATOM      2  C1  UNL d   1      -0.219  -2.711   4.357  0.00  0.00     0.003 A 
ATOM      3  C2  UNL d   1       0.297  -1.928   3.322  0.00  0.00     0.048 A 
ATOM      4  C3  UNL d   1       1.125  -0.846   3.620  0.00  0.00     0.023 A 
ATOM      5  C4  UNL d   1       1.442  -0.543   4.945  0.00  0.00     0.048 A 
ATOM      6  C5  UNL d   1       0.924  -1.328   5.977  0.00  0.00     0.003 A 
ATOM      7  I   UNL d   1       1.894   0.320   2.081  0.00  0.00    -0.146 I 
ENDROOT
TORSDOF 0
ENDMDL
