MODEL 1
REMARK minimizedAffinity 12.8142471
REMARK minimizedRMSD -1
REMARK  0 active torsions:
REMARK  status: ('A' for Active; 'I' for Inactive)
ROOT
ATOM      1  C   UNL d   1      -2.069   1.209   0.081  0.00  0.00     0.023 A 
ATOM      2  C1  UNL d   1      -2.626   2.252  -0.659  0.00  0.00     0.003 A 
ATOM      3  C2  UNL d   1      -3.741   2.937  -0.172  0.00  0.00     0.048 A 
ATOM      4  C3  UNL d   1      -4.293   2.574   1.056  0.00  0.00     0.023 A 
ATOM      5  C4  UNL d   1      -3.739   1.531   1.800  0.00  0.00     0.048 A 
ATOM      6  C5  UNL d   1      -2.625   0.849   1.309  0.00  0.00     0.003 A 
ATOM      7  I   UNL d   1      -5.953   3.593   1.783  0.00  0.00    -0.146 I 
ENDROOT
TORSDOF 0
ENDMDL
