MODEL 1
REMARK minimizedAffinity -1.83680487
REMARK minimizedRMSD -1
REMARK  0 active torsions:
REMARK  status: ('A' for Active; 'I' for Inactive)
ROOT
ATOM      1  C   UNL d   1      -5.968  -4.048  -1.899  0.00  0.00     0.023 A 
ATOM      2  C1  UNL d   1      -5.954  -3.300  -3.076  0.00  0.00     0.003 A 
ATOM      3  C2  UNL d   1      -5.453  -3.858  -4.254  0.00  0.00     0.048 A 
ATOM      4  C3  UNL d   1      -4.968  -5.166  -4.247  0.00  0.00     0.023 A 
ATOM      5  C4  UNL d   1      -4.980  -5.918  -3.072  0.00  0.00     0.048 A 
ATOM      6  C5  UNL d   1      -5.481  -5.355  -1.897  0.00  0.00     0.003 A 
ATOM      7  I   UNL d   1      -4.221  -5.999  -5.999  0.00  0.00    -0.146 I 
ENDROOT
TORSDOF 0
ENDMDL
