MODEL 1
REMARK minimizedAffinity 6.56812191
REMARK minimizedRMSD -1
REMARK  0 active torsions:
REMARK  status: ('A' for Active; 'I' for Inactive)
ROOT
ATOM      1  C   UNL d   1       5.049   0.627  -4.109  0.00  0.00     0.023 A 
ATOM      2  C1  UNL d   1       4.818  -0.523  -3.354  0.00  0.00     0.003 A 
ATOM      3  C2  UNL d   1       5.090  -1.781  -3.895  0.00  0.00     0.048 A 
ATOM      4  C3  UNL d   1       5.594  -1.882  -5.191  0.00  0.00     0.023 A 
ATOM      5  C4  UNL d   1       5.828  -0.735  -5.950  0.00  0.00     0.048 A 
ATOM      6  C5  UNL d   1       5.554   0.521  -5.405  0.00  0.00     0.003 A 
ATOM      7  I   UNL d   1       5.999  -3.754  -5.998  0.00  0.00    -0.146 I 
ENDROOT
TORSDOF 0
ENDMDL
