MODEL 1
REMARK minimizedAffinity -0.490852326
REMARK minimizedRMSD -1
REMARK  0 active torsions:
REMARK  status: ('A' for Active; 'I' for Inactive)
ROOT
ATOM      1  C   UNL d   1      -4.672  -3.584  -1.989  0.00  0.00     0.023 A 
ATOM      2  C1  UNL d   1      -4.614  -4.977  -2.015  0.00  0.00     0.003 A 
ATOM      3  C2  UNL d   1      -4.995  -5.672  -3.165  0.00  0.00     0.048 A 
ATOM      4  C3  UNL d   1      -5.432  -4.966  -4.286  0.00  0.00     0.023 A 
ATOM      5  C4  UNL d   1      -5.490  -3.572  -4.265  0.00  0.00     0.048 A 
ATOM      6  C5  UNL d   1      -5.109  -2.882  -3.113  0.00  0.00     0.003 A 
ATOM      7  I   UNL d   1      -5.999  -5.998  -5.999  0.00  0.00    -0.146 I 
ENDROOT
TORSDOF 0
ENDMDL
