MODEL 1
REMARK minimizedAffinity 2.29096794
REMARK minimizedRMSD -1
REMARK  0 active torsions:
REMARK  status: ('A' for Active; 'I' for Inactive)
ROOT
ATOM      1  C   UNL d   1      -5.480  -3.517  -5.909  0.00  0.00     0.023 A 
ATOM      2  C1  UNL d   1      -5.429  -2.829  -4.697  0.00  0.00     0.003 A 
ATOM      3  C2  UNL d   1      -5.376  -3.534  -3.493  0.00  0.00     0.048 A 
ATOM      4  C3  UNL d   1      -5.372  -4.929  -3.509  0.00  0.00     0.023 A 
ATOM      5  C4  UNL d   1      -5.422  -5.622  -4.719  0.00  0.00     0.048 A 
ATOM      6  C5  UNL d   1      -5.476  -4.912  -5.920  0.00  0.00     0.003 A 
ATOM      7  I   UNL d   1      -5.292  -5.981  -1.718  0.00  0.00    -0.146 I 
ENDROOT
TORSDOF 0
ENDMDL
