MODEL 1
REMARK minimizedAffinity 3.50302601
REMARK minimizedRMSD -1
REMARK  0 active torsions:
REMARK  status: ('A' for Active; 'I' for Inactive)
ROOT
ATOM      1  C   UNL d   1      -5.653  -5.322  -1.829  0.00  0.00     0.023 A 
ATOM      2  C1  UNL d   1      -5.513  -3.934  -1.827  0.00  0.00     0.003 A 
ATOM      3  C2  UNL d   1      -5.612  -3.219  -3.023  0.00  0.00     0.048 A 
ATOM      4  C3  UNL d   1      -5.852  -3.899  -4.217  0.00  0.00     0.023 A 
ATOM      5  C4  UNL d   1      -5.994  -5.287  -4.223  0.00  0.00     0.048 A 
ATOM      6  C5  UNL d   1      -5.893  -5.998  -3.026  0.00  0.00     0.003 A 
ATOM      7  I   UNL d   1      -6.000  -2.837  -5.997  0.00  0.00    -0.146 I 
ENDROOT
TORSDOF 0
ENDMDL
