MODEL 1
REMARK minimizedAffinity -2.96839643
REMARK minimizedRMSD -1
REMARK  0 active torsions:
REMARK  status: ('A' for Active; 'I' for Inactive)
ROOT
ATOM      1  C   UNL d   1      -4.496  -4.403  -1.558  0.00  0.00     0.023 A 
ATOM      2  C1  UNL d   1      -3.861  -5.490  -2.158  0.00  0.00     0.003 A 
ATOM      3  C2  UNL d   1      -4.290  -5.950  -3.405  0.00  0.00     0.048 A 
ATOM      4  C3  UNL d   1      -5.355  -5.317  -4.046  0.00  0.00     0.023 A 
ATOM      5  C4  UNL d   1      -5.992  -4.228  -3.450  0.00  0.00     0.048 A 
ATOM      6  C5  UNL d   1      -5.560  -3.772  -2.203  0.00  0.00     0.003 A 
ATOM      7  I   UNL d   1      -5.996  -6.000  -5.902  0.00  0.00    -0.146 I 
ENDROOT
TORSDOF 0
ENDMDL
