MODEL 1
REMARK minimizedAffinity 0.564363539
REMARK minimizedRMSD -1
REMARK  0 active torsions:
REMARK  status: ('A' for Active; 'I' for Inactive)
ROOT
ATOM      1  C   UNL d   1       5.494   0.197  -6.000  0.00  0.00     0.023 A 
ATOM      2  C1  UNL d   1       6.000  -1.075  -5.731  0.00  0.00     0.003 A 
ATOM      3  C2  UNL d   1       5.392  -1.879  -4.764  0.00  0.00     0.048 A 
ATOM      4  C3  UNL d   1       4.279  -1.405  -4.071  0.00  0.00     0.023 A 
ATOM      5  C4  UNL d   1       3.768  -0.134  -4.338  0.00  0.00     0.048 A 
ATOM      6  C5  UNL d   1       4.380   0.667  -5.304  0.00  0.00     0.003 A 
ATOM      7  I   UNL d   1       3.373  -2.601  -2.633  0.00  0.00    -0.146 I 
ENDROOT
TORSDOF 0
ENDMDL
