MODEL 1
REMARK minimizedAffinity -1.24716461
REMARK minimizedRMSD -1
REMARK  0 active torsions:
REMARK  status: ('A' for Active; 'I' for Inactive)
ROOT
ATOM      1  C   UNL d   1       5.223   1.323  -6.000  0.00  0.00     0.023 A 
ATOM      2  C1  UNL d   1       3.914   1.504  -5.553  0.00  0.00     0.003 A 
ATOM      3  C2  UNL d   1       3.380   0.648  -4.588  0.00  0.00     0.048 A 
ATOM      4  C3  UNL d   1       4.160  -0.387  -4.074  0.00  0.00     0.023 A 
ATOM      5  C4  UNL d   1       5.470  -0.572  -4.518  0.00  0.00     0.048 A 
ATOM      6  C5  UNL d   1       6.000   0.286  -5.483  0.00  0.00     0.003 A 
ATOM      7  I   UNL d   1       3.366  -1.663  -2.637  0.00  0.00    -0.146 I 
ENDROOT
TORSDOF 0
ENDMDL
