MODEL 1
REMARK minimizedAffinity -1.45566118
REMARK minimizedRMSD -1
REMARK  0 active torsions:
REMARK  status: ('A' for Active; 'I' for Inactive)
ROOT
ATOM      1  C   UNL d   1      -5.987  -4.074  -6.000  0.00  0.00     0.023 A 
ATOM      2  C1  UNL d   1      -5.969  -3.267  -4.862  0.00  0.00     0.003 A 
ATOM      3  C2  UNL d   1      -5.651  -3.818  -3.619  0.00  0.00     0.048 A 
ATOM      4  C3  UNL d   1      -5.351  -5.176  -3.521  0.00  0.00     0.023 A 
ATOM      5  C4  UNL d   1      -5.368  -5.987  -4.656  0.00  0.00     0.048 A 
ATOM      6  C5  UNL d   1      -5.687  -5.433  -5.897  0.00  0.00     0.003 A 
ATOM      7  I   UNL d   1      -4.878  -5.998  -1.671  0.00  0.00    -0.146 I 
ENDROOT
TORSDOF 0
ENDMDL
