MODEL 1
REMARK minimizedAffinity -0.0384069681
REMARK minimizedRMSD -1
REMARK  0 active torsions:
REMARK  status: ('A' for Active; 'I' for Inactive)
ROOT
ATOM      1  C   UNL d   1      -4.914  -5.471  -5.869  0.00  0.00     0.023 A 
ATOM      2  C1  UNL d   1      -5.478  -4.202  -5.996  0.00  0.00     0.003 A 
ATOM      3  C2  UNL d   1      -5.790  -3.458  -4.857  0.00  0.00     0.048 A 
ATOM      4  C3  UNL d   1      -5.535  -3.989  -3.593  0.00  0.00     0.023 A 
ATOM      5  C4  UNL d   1      -4.969  -5.258  -3.461  0.00  0.00     0.048 A 
ATOM      6  C5  UNL d   1      -4.660  -5.999  -4.603  0.00  0.00     0.003 A 
ATOM      7  I   UNL d   1      -5.998  -2.883  -1.895  0.00  0.00    -0.146 I 
ENDROOT
TORSDOF 0
ENDMDL
