MODEL 1
REMARK minimizedAffinity -0.0259911809
REMARK minimizedRMSD -1
REMARK  0 active torsions:
REMARK  status: ('A' for Active; 'I' for Inactive)
ROOT
ATOM      1  C   UNL d   1       0.039  -2.051  -1.355  0.00  0.00     0.077 C 
ATOM      2  C1  UNL d   1      -0.010  -0.879  -0.420  0.00  0.00    -0.074 A 
ATOM      3  C2  UNL d   1      -1.179  -0.567   0.281  0.00  0.00    -0.005 A 
ATOM      4  C3  UNL d   1      -1.207   0.521   1.154  0.00  0.00     0.006 A 
ATOM      5  C4  UNL d   1      -0.067   1.306   1.335  0.00  0.00    -0.005 A 
ATOM      6  C5  UNL d   1       1.111   1.008   0.643  0.00  0.00    -0.074 A 
ATOM      7  C6  UNL d   1       2.348   1.836   0.833  0.00  0.00     0.077 C 
ATOM      8  C7  UNL d   1       1.133  -0.090  -0.227  0.00  0.00    -0.001 A 
ENDROOT
TORSDOF 0
ENDMDL
