MODEL 1
REMARK minimizedAffinity 5.71350098
REMARK minimizedRMSD -1
REMARK  0 active torsions:
REMARK  status: ('A' for Active; 'I' for Inactive)
ROOT
ATOM      1  C   UNL d   1       1.664  -1.280   3.695  0.00  0.00     0.077 C 
ATOM      2  C1  UNL d   1       0.389  -0.821   3.053  0.00  0.00    -0.074 A 
ATOM      3  C2  UNL d   1       0.410   0.020   1.935  0.00  0.00    -0.005 A 
ATOM      4  C3  UNL d   1      -0.784   0.432   1.342  0.00  0.00     0.006 A 
ATOM      5  C4  UNL d   1      -2.008   0.007   1.860  0.00  0.00    -0.005 A 
ATOM      6  C5  UNL d   1      -2.049  -0.834   2.976  0.00  0.00    -0.074 A 
ATOM      7  C6  UNL d   1      -3.356  -1.307   3.540  0.00  0.00     0.077 C 
ATOM      8  C7  UNL d   1      -0.845  -1.249   3.562  0.00  0.00    -0.001 A 
ENDROOT
TORSDOF 0
ENDMDL
