MODEL 1
REMARK minimizedAffinity 7.08062553
REMARK minimizedRMSD -1
REMARK  0 active torsions:
REMARK  status: ('A' for Active; 'I' for Inactive)
ROOT
ATOM      1  C   UNL d   1       0.121  -0.625   0.637  0.00  0.00     0.077 C 
ATOM      2  C1  UNL d   1      -1.335  -0.373   0.380  0.00  0.00    -0.074 A 
ATOM      3  C2  UNL d   1      -1.896   0.889   0.600  0.00  0.00    -0.005 A 
ATOM      4  C3  UNL d   1      -3.250   1.111   0.347  0.00  0.00     0.006 A 
ATOM      5  C4  UNL d   1      -4.055   0.074  -0.126  0.00  0.00    -0.005 A 
ATOM      6  C5  UNL d   1      -3.512  -1.194  -0.353  0.00  0.00    -0.074 A 
ATOM      7  C6  UNL d   1      -4.361  -2.316  -0.872  0.00  0.00     0.077 C 
ATOM      8  C7  UNL d   1      -2.149  -1.407  -0.104  0.00  0.00    -0.001 A 
ENDROOT
TORSDOF 0
ENDMDL
