MODEL 1
REMARK minimizedAffinity -1.90353274
REMARK minimizedRMSD -1
REMARK  0 active torsions:
REMARK  status: ('A' for Active; 'I' for Inactive)
ROOT
ATOM      1  C   UNL d   1      -0.136  -1.057  -0.329  0.00  0.00     0.077 C 
ATOM      2  C1  UNL d   1      -0.400  -0.560   1.061  0.00  0.00    -0.074 A 
ATOM      3  C2  UNL d   1      -1.448   0.329   1.320  0.00  0.00    -0.005 A 
ATOM      4  C3  UNL d   1      -1.687   0.775   2.620  0.00  0.00     0.006 A 
ATOM      5  C4  UNL d   1      -0.882   0.336   3.672  0.00  0.00    -0.005 A 
ATOM      6  C5  UNL d   1       0.170  -0.554   3.433  0.00  0.00    -0.074 A 
ATOM      7  C6  UNL d   1       1.039  -1.042   4.554  0.00  0.00     0.077 C 
ATOM      8  C7  UNL d   1       0.400  -1.002   2.125  0.00  0.00    -0.001 A 
ENDROOT
TORSDOF 0
ENDMDL
