MODEL 1
REMARK minimizedAffinity -0.567856312
REMARK minimizedRMSD -1
REMARK  0 active torsions:
REMARK  status: ('A' for Active; 'I' for Inactive)
ROOT
ATOM      1  C   UNL d   1      -4.024  -1.830   3.726  0.00  0.00     0.077 C 
ATOM      2  C1  UNL d   1      -2.556  -1.560   3.578  0.00  0.00    -0.074 A 
ATOM      3  C2  UNL d   1      -2.049  -0.959   2.421  0.00  0.00    -0.005 A 
ATOM      4  C3  UNL d   1      -0.682  -0.705   2.301  0.00  0.00     0.006 A 
ATOM      5  C4  UNL d   1       0.189  -1.048   3.336  0.00  0.00    -0.005 A 
ATOM      6  C5  UNL d   1      -0.300  -1.649   4.500  0.00  0.00    -0.074 A 
ATOM      7  C6  UNL d   1       0.622  -2.015   5.625  0.00  0.00     0.077 C 
ATOM      8  C7  UNL d   1      -1.675  -1.895   4.616  0.00  0.00    -0.001 A 
ENDROOT
TORSDOF 0
ENDMDL
