MODEL 1
REMARK minimizedAffinity -1.9250977
REMARK minimizedRMSD -1
REMARK  0 active torsions:
REMARK  status: ('A' for Active; 'I' for Inactive)
ROOT
ATOM      1  C   UNL d   1      -0.037  -0.735   3.858  0.00  0.00     0.077 C 
ATOM      2  C1  UNL d   1      -0.778  -0.357   2.610  0.00  0.00    -0.074 A 
ATOM      3  C2  UNL d   1      -2.063   0.192   2.675  0.00  0.00    -0.005 A 
ATOM      4  C3  UNL d   1      -2.736   0.548   1.506  0.00  0.00     0.006 A 
ATOM      5  C4  UNL d   1      -2.132   0.358   0.263  0.00  0.00    -0.005 A 
ATOM      6  C5  UNL d   1      -0.848  -0.188   0.178  0.00  0.00    -0.074 A 
ATOM      7  C6  UNL d   1      -0.180  -0.389  -1.150  0.00  0.00     0.077 C 
ATOM      8  C7  UNL d   1      -0.175  -0.536   1.357  0.00  0.00    -0.001 A 
ENDROOT
TORSDOF 0
ENDMDL
