MODEL 1
REMARK minimizedAffinity -2.15415955
REMARK minimizedRMSD -1
REMARK  0 active torsions:
REMARK  status: ('A' for Active; 'I' for Inactive)
ROOT
ATOM      1  C   UNL d   1      -1.548   0.215   2.809  0.00  0.00     0.077 C 
ATOM      2  C1  UNL d   1      -0.949  -0.296   1.532  0.00  0.00    -0.074 A 
ATOM      3  C2  UNL d   1      -1.757  -0.608   0.434  0.00  0.00    -0.005 A 
ATOM      4  C3  UNL d   1      -1.184  -1.073  -0.750  0.00  0.00     0.006 A 
ATOM      5  C4  UNL d   1       0.199  -1.232  -0.847  0.00  0.00    -0.005 A 
ATOM      6  C5  UNL d   1       1.022  -0.924   0.241  0.00  0.00    -0.074 A 
ATOM      7  C6  UNL d   1       2.511  -1.079   0.150  0.00  0.00     0.077 C 
ATOM      8  C7  UNL d   1       0.440  -0.450   1.424  0.00  0.00    -0.001 A 
ENDROOT
TORSDOF 0
ENDMDL
