MODEL 1
REMARK minimizedAffinity 7.05975771
REMARK minimizedRMSD -1
REMARK  0 active torsions:
REMARK  status: ('A' for Active; 'I' for Inactive)
ROOT
ATOM      1  C   UNL d   1       0.929   2.601   0.654  0.00  0.00     0.077 C 
ATOM      2  C1  UNL d   1       0.535   1.287   0.047  0.00  0.00    -0.074 A 
ATOM      3  C2  UNL d   1      -0.748   1.092  -0.472  0.00  0.00    -0.005 A 
ATOM      4  C3  UNL d   1      -1.098  -0.133  -1.042  0.00  0.00     0.006 A 
ATOM      5  C4  UNL d   1      -0.168  -1.172  -1.099  0.00  0.00    -0.005 A 
ATOM      6  C5  UNL d   1       1.121  -0.995  -0.585  0.00  0.00    -0.074 A 
ATOM      7  C6  UNL d   1       2.135  -2.098  -0.647  0.00  0.00     0.077 C 
ATOM      8  C7  UNL d   1       1.466   0.241  -0.020  0.00  0.00    -0.001 A 
ENDROOT
TORSDOF 0
ENDMDL
