MODEL 1
REMARK minimizedAffinity 0.00528044021
REMARK minimizedRMSD -1
REMARK  0 active torsions:
REMARK  status: ('A' for Active; 'I' for Inactive)
ROOT
ATOM      1  C   UNL d   1      -0.116   0.048   0.008  0.00  0.00     0.077 C 
ATOM      2  C1  UNL d   1       1.216  -0.582  -0.272  0.00  0.00    -0.074 A 
ATOM      3  C2  UNL d   1       1.350  -1.972  -0.355  0.00  0.00    -0.005 A 
ATOM      4  C3  UNL d   1       2.593  -2.544  -0.626  0.00  0.00     0.006 A 
ATOM      5  C4  UNL d   1       3.713  -1.733  -0.816  0.00  0.00    -0.005 A 
ATOM      6  C5  UNL d   1       3.598  -0.341  -0.738  0.00  0.00    -0.074 A 
ATOM      7  C6  UNL d   1       4.789   0.545  -0.949  0.00  0.00     0.077 C 
ATOM      8  C7  UNL d   1       2.344   0.226  -0.472  0.00  0.00    -0.001 A 
ENDROOT
TORSDOF 0
ENDMDL
