MODEL 1
REMARK minimizedAffinity 2.61922002
REMARK minimizedRMSD -1
REMARK  0 active torsions:
REMARK  status: ('A' for Active; 'I' for Inactive)
ROOT
ATOM      1  C   UNL d   1      -0.754  -1.632   6.000  0.00  0.00     0.077 C 
ATOM      2  C1  UNL d   1      -0.724  -3.131   5.965  0.00  0.00    -0.074 A 
ATOM      3  C2  UNL d   1      -1.908  -3.874   6.000  0.00  0.00    -0.005 A 
ATOM      4  C3  UNL d   1      -1.866  -5.268   5.957  0.00  0.00     0.006 A 
ATOM      5  C4  UNL d   1      -0.640  -5.931   5.880  0.00  0.00    -0.005 A 
ATOM      6  C5  UNL d   1       0.554  -5.205   5.844  0.00  0.00    -0.074 A 
ATOM      7  C6  UNL d   1       1.879  -5.902   5.751  0.00  0.00     0.077 C 
ATOM      8  C7  UNL d   1       0.502  -3.805   5.879  0.00  0.00    -0.001 A 
ENDROOT
TORSDOF 0
ENDMDL
