MODEL 1
REMARK minimizedAffinity 8.13244438
REMARK minimizedRMSD -1
REMARK  0 active torsions:
REMARK  status: ('A' for Active; 'I' for Inactive)
ROOT
ATOM      1  C   UNL d   1      -1.827  -1.230  -0.471  0.00  0.00     0.077 C 
ATOM      2  C1  UNL d   1      -0.369  -1.137  -0.134  0.00  0.00    -0.074 A 
ATOM      3  C2  UNL d   1       0.053  -0.667   1.114  0.00  0.00    -0.005 A 
ATOM      4  C3  UNL d   1       1.412  -0.596   1.416  0.00  0.00     0.006 A 
ATOM      5  C4  UNL d   1       2.363  -0.993   0.475  0.00  0.00    -0.005 A 
ATOM      6  C5  UNL d   1       1.961  -1.466  -0.778  0.00  0.00    -0.074 A 
ATOM      7  C6  UNL d   1       2.969  -1.906  -1.798  0.00  0.00     0.077 C 
ATOM      8  C7  UNL d   1       0.592  -1.542  -1.072  0.00  0.00    -0.001 A 
ENDROOT
TORSDOF 0
ENDMDL
