MODEL 1
REMARK minimizedAffinity 5.96325064
REMARK minimizedRMSD -1
REMARK  0 active torsions:
REMARK  status: ('A' for Active; 'I' for Inactive)
ROOT
ATOM      1  C   UNL d   1      -1.267  -0.860  -0.738  0.00  0.00     0.077 C 
ATOM      2  C1  UNL d   1       0.179  -1.255  -0.729  0.00  0.00    -0.074 A 
ATOM      3  C2  UNL d   1       0.556  -2.602  -0.697  0.00  0.00    -0.005 A 
ATOM      4  C3  UNL d   1       1.905  -2.955  -0.699  0.00  0.00     0.006 A 
ATOM      5  C4  UNL d   1       2.890  -1.967  -0.733  0.00  0.00    -0.005 A 
ATOM      6  C5  UNL d   1       2.532  -0.615  -0.767  0.00  0.00    -0.074 A 
ATOM      7  C6  UNL d   1       3.578   0.459  -0.813  0.00  0.00     0.077 C 
ATOM      8  C7  UNL d   1       1.174  -0.269  -0.771  0.00  0.00    -0.001 A 
ENDROOT
TORSDOF 0
ENDMDL
