MODEL 1
REMARK minimizedAffinity 9.07889462
REMARK minimizedRMSD -1
REMARK  0 active torsions:
REMARK  status: ('A' for Active; 'I' for Inactive)
ROOT
ATOM      1  C   UNL d   1      -1.276  -0.060  -1.237  0.00  0.00     0.077 C 
ATOM      2  C1  UNL d   1      -2.743  -0.111  -0.930  0.00  0.00    -0.074 A 
ATOM      3  C2  UNL d   1      -3.217   0.151   0.359  0.00  0.00    -0.005 A 
ATOM      4  C3  UNL d   1      -4.586   0.109   0.627  0.00  0.00     0.006 A 
ATOM      5  C4  UNL d   1      -5.492  -0.195  -0.389  0.00  0.00    -0.005 A 
ATOM      6  C5  UNL d   1      -5.036  -0.459  -1.685  0.00  0.00    -0.074 A 
ATOM      7  C6  UNL d   1      -5.998  -0.778  -2.791  0.00  0.00     0.077 C 
ATOM      8  C7  UNL d   1      -3.661  -0.408  -1.948  0.00  0.00    -0.001 A 
ENDROOT
TORSDOF 0
ENDMDL
