MODEL 1
REMARK minimizedAffinity 2.66035914
REMARK minimizedRMSD -1
REMARK  0 active torsions:
REMARK  status: ('A' for Active; 'I' for Inactive)
ROOT
ATOM      1  C   UNL d   1       3.762   1.917   0.026  0.00  0.00     0.077 C 
ATOM      2  C1  UNL d   1       3.242   0.550  -0.302  0.00  0.00    -0.074 A 
ATOM      3  C2  UNL d   1       4.060  -0.401  -0.921  0.00  0.00    -0.005 A 
ATOM      4  C3  UNL d   1       3.565  -1.672  -1.212  0.00  0.00     0.006 A 
ATOM      5  C4  UNL d   1       2.250  -2.006  -0.887  0.00  0.00    -0.005 A 
ATOM      6  C5  UNL d   1       1.417  -1.069  -0.267  0.00  0.00    -0.074 A 
ATOM      7  C6  UNL d   1       0.004  -1.414   0.098  0.00  0.00     0.077 C 
ATOM      8  C7  UNL d   1       1.924   0.204   0.029  0.00  0.00    -0.001 A 
ENDROOT
TORSDOF 0
ENDMDL
