MODEL 1
REMARK minimizedAffinity -1.23029792
REMARK minimizedRMSD -1
REMARK  0 active torsions:
REMARK  status: ('A' for Active; 'I' for Inactive)
ROOT
ATOM      1  C   UNL d   1       2.174  -1.883   0.276  0.00  0.00     0.077 C 
ATOM      2  C1  UNL d   1       1.131  -0.863  -0.070  0.00  0.00    -0.074 A 
ATOM      3  C2  UNL d   1      -0.039  -1.231  -0.744  0.00  0.00    -0.005 A 
ATOM      4  C3  UNL d   1      -1.005  -0.273  -1.050  0.00  0.00     0.006 A 
ATOM      5  C4  UNL d   1      -0.812   1.061  -0.687  0.00  0.00    -0.005 A 
ATOM      6  C5  UNL d   1       0.350   1.447  -0.012  0.00  0.00    -0.074 A 
ATOM      7  C6  UNL d   1       0.569   2.874   0.394  0.00  0.00     0.077 C 
ATOM      8  C7  UNL d   1       1.313   0.477   0.298  0.00  0.00    -0.001 A 
ENDROOT
TORSDOF 0
ENDMDL
