MODEL 1
REMARK minimizedAffinity 10.6300068
REMARK minimizedRMSD -1
REMARK  0 active torsions:
REMARK  status: ('A' for Active; 'I' for Inactive)
ROOT
ATOM      1  C   UNL d   1       1.813  -2.411  -1.321  0.00  0.00     0.077 C 
ATOM      2  C1  UNL d   1       1.785  -1.437  -0.181  0.00  0.00    -0.074 A 
ATOM      3  C2  UNL d   1       1.823  -0.058  -0.413  0.00  0.00    -0.005 A 
ATOM      4  C3  UNL d   1       1.787   0.836   0.657  0.00  0.00     0.006 A 
ATOM      5  C4  UNL d   1       1.713   0.362   1.967  0.00  0.00    -0.005 A 
ATOM      6  C5  UNL d   1       1.674  -1.013   2.218  0.00  0.00    -0.074 A 
ATOM      7  C6  UNL d   1       1.585  -1.540   3.620  0.00  0.00     0.077 C 
ATOM      8  C7  UNL d   1       1.704  -1.905   1.138  0.00  0.00    -0.001 A 
ENDROOT
TORSDOF 0
ENDMDL
