MODEL 1
REMARK minimizedAffinity -0.468490094
REMARK minimizedRMSD -1
REMARK  0 active torsions:
REMARK  status: ('A' for Active; 'I' for Inactive)
ROOT
ATOM      1  C   UNL d   1       0.435   1.887   2.619  0.00  0.00     0.172 C 
ATOM      2  N   UNL d   1       0.046   1.923   1.229  0.00  0.00    -0.070 N 
ATOM      3  C1  UNL d   1      -1.170   1.539   0.730  0.00  0.00    -0.004 A 
ATOM      4  C2  UNL d   1      -1.145   1.725  -0.635  0.00  0.00    -0.047 A 
ATOM      5  C3  UNL d   1       0.131   2.239  -0.968  0.00  0.00    -0.047 A 
ATOM      6  C4  UNL d   1       0.848   2.351   0.204  0.00  0.00    -0.004 A 
ENDROOT
TORSDOF 0
ENDMDL
