MODEL 1
REMARK minimizedAffinity 0.370894104
REMARK minimizedRMSD -1
REMARK  0 active torsions:
REMARK  status: ('A' for Active; 'I' for Inactive)
ROOT
ATOM      1  C   UNL d   1      -0.160   0.498   1.141  0.00  0.00     0.172 C 
ATOM      2  N   UNL d   1       0.250   1.482   2.116  0.00  0.00    -0.070 N 
ATOM      3  C1  UNL d   1       1.503   2.024   2.225  0.00  0.00    -0.004 A 
ATOM      4  C2  UNL d   1       1.487   2.919   3.273  0.00  0.00    -0.047 A 
ATOM      5  C3  UNL d   1       0.179   2.914   3.813  0.00  0.00    -0.047 A 
ATOM      6  C4  UNL d   1      -0.566   2.016   3.077  0.00  0.00    -0.004 A 
ENDROOT
TORSDOF 0
ENDMDL
