MODEL 1
REMARK minimizedAffinity -0.188612714
REMARK minimizedRMSD -1
REMARK  0 active torsions:
REMARK  status: ('A' for Active; 'I' for Inactive)
ROOT
ATOM      1  C   UNL d   1      -5.397  -1.567   3.288  0.00  0.00     0.172 C 
ATOM      2  N   UNL d   1      -4.120  -1.287   2.674  0.00  0.00    -0.070 N 
ATOM      3  C1  UNL d   1      -3.792  -0.139   2.002  0.00  0.00    -0.004 A 
ATOM      4  C2  UNL d   1      -2.489  -0.261   1.571  0.00  0.00    -0.047 A 
ATOM      5  C3  UNL d   1      -2.018  -1.526   1.997  0.00  0.00    -0.047 A 
ATOM      6  C4  UNL d   1      -3.048  -2.139   2.677  0.00  0.00    -0.004 A 
ENDROOT
TORSDOF 0
ENDMDL
