MODEL 1
REMARK minimizedAffinity 2.68992114
REMARK minimizedRMSD -1
REMARK  0 active torsions:
REMARK  status: ('A' for Active; 'I' for Inactive)
ROOT
ATOM      1  C   UNL d   1      -0.743   3.341   4.728  0.00  0.00     0.172 C 
ATOM      2  N   UNL d   1       0.328   2.991   3.824  0.00  0.00    -0.070 N 
ATOM      3  C1  UNL d   1       1.654   3.279   4.008  0.00  0.00    -0.004 A 
ATOM      4  C2  UNL d   1       2.348   2.778   2.929  0.00  0.00    -0.047 A 
ATOM      5  C3  UNL d   1       1.407   2.169   2.065  0.00  0.00    -0.047 A 
ATOM      6  C4  UNL d   1       0.164   2.315   2.644  0.00  0.00    -0.004 A 
ENDROOT
TORSDOF 0
ENDMDL
