MODEL 1
REMARK minimizedAffinity -2.91458201
REMARK minimizedRMSD -1
REMARK  0 active torsions:
REMARK  status: ('A' for Active; 'I' for Inactive)
ROOT
ATOM      1  C   UNL d   1      -0.001   1.213   1.169  0.00  0.00     0.172 C 
ATOM      2  N   UNL d   1       0.247   2.455   1.863  0.00  0.00    -0.070 N 
ATOM      3  C1  UNL d   1      -0.570   3.020   2.804  0.00  0.00    -0.004 A 
ATOM      4  C2  UNL d   1       0.018   4.194   3.224  0.00  0.00    -0.047 A 
ATOM      5  C3  UNL d   1       1.231   4.338   2.510  0.00  0.00    -0.047 A 
ATOM      6  C4  UNL d   1       1.348   3.248   1.674  0.00  0.00    -0.004 A 
ENDROOT
TORSDOF 0
ENDMDL
