MODEL 1
REMARK minimizedAffinity -1.17133415
REMARK minimizedRMSD -1
REMARK  0 active torsions:
REMARK  status: ('A' for Active; 'I' for Inactive)
ROOT
ATOM      1  C   UNL d   1      -1.033   3.798   4.016  0.00  0.00     0.172 C 
ATOM      2  N   UNL d   1      -0.287   3.204   2.931  0.00  0.00    -0.070 N 
ATOM      3  C1  UNL d   1      -0.733   2.203   2.109  0.00  0.00    -0.004 A 
ATOM      4  C2  UNL d   1       0.269   1.919   1.207  0.00  0.00    -0.047 A 
ATOM      5  C3  UNL d   1       1.356   2.778   1.497  0.00  0.00    -0.047 A 
ATOM      6  C4  UNL d   1       0.984   3.563   2.568  0.00  0.00    -0.004 A 
ENDROOT
TORSDOF 0
ENDMDL
