MODEL 1
REMARK minimizedAffinity 5.27002954
REMARK minimizedRMSD -1
REMARK  0 active torsions:
REMARK  status: ('A' for Active; 'I' for Inactive)
ROOT
ATOM      1  C   UNL d   1       0.745   1.239   1.286  0.00  0.00     0.172 C 
ATOM      2  N   UNL d   1       0.852   2.191   2.366  0.00  0.00    -0.070 N 
ATOM      3  C1  UNL d   1      -0.155   2.539   3.226  0.00  0.00    -0.004 A 
ATOM      4  C2  UNL d   1       0.346   3.472   4.108  0.00  0.00    -0.047 A 
ATOM      5  C3  UNL d   1       1.701   3.693   3.765  0.00  0.00    -0.047 A 
ATOM      6  C4  UNL d   1       1.988   2.888   2.683  0.00  0.00    -0.004 A 
ENDROOT
TORSDOF 0
ENDMDL
