MODEL 1
REMARK minimizedAffinity -1.95063889
REMARK minimizedRMSD -1
REMARK  0 active torsions:
REMARK  status: ('A' for Active; 'I' for Inactive)
ROOT
ATOM      1  C   UNL d   1       0.009   2.435   1.296  0.00  0.00     0.172 C 
ATOM      2  N   UNL d   1      -0.361   3.137   2.503  0.00  0.00    -0.070 N 
ATOM      3  C1  UNL d   1      -1.640   3.350   2.943  0.00  0.00    -0.004 A 
ATOM      4  C2  UNL d   1      -1.568   4.053   4.126  0.00  0.00    -0.047 A 
ATOM      5  C3  UNL d   1      -0.199   4.271   4.406  0.00  0.00    -0.047 A 
ATOM      6  C4  UNL d   1       0.527   3.694   3.385  0.00  0.00    -0.004 A 
ENDROOT
TORSDOF 0
ENDMDL
