MODEL 1
REMARK minimizedAffinity -2.91877437
REMARK minimizedRMSD -1
REMARK  0 active torsions:
REMARK  status: ('A' for Active; 'I' for Inactive)
ROOT
ATOM      1  C   UNL d   1      -1.435   3.406   4.208  0.00  0.00     0.172 C 
ATOM      2  N   UNL d   1      -0.628   2.874   3.136  0.00  0.00    -0.070 N 
ATOM      3  C1  UNL d   1       0.539   3.418   2.669  0.00  0.00    -0.004 A 
ATOM      4  C2  UNL d   1       0.999   2.616   1.647  0.00  0.00    -0.047 A 
ATOM      5  C3  UNL d   1       0.076   1.555   1.493  0.00  0.00    -0.047 A 
ATOM      6  C4  UNL d   1      -0.921   1.739   2.427  0.00  0.00    -0.004 A 
ENDROOT
TORSDOF 0
ENDMDL
