MODEL 1
REMARK minimizedAffinity -1.93438828
REMARK minimizedRMSD -1
REMARK  0 active torsions:
REMARK  status: ('A' for Active; 'I' for Inactive)
ROOT
ATOM      1  C   UNL d   1      -1.517   3.500   4.739  0.00  0.00     0.172 C 
ATOM      2  N   UNL d   1      -0.892   3.017   3.531  0.00  0.00    -0.070 N 
ATOM      3  C1  UNL d   1       0.414   3.222   3.171  0.00  0.00    -0.004 A 
ATOM      4  C2  UNL d   1       0.619   2.603   1.957  0.00  0.00    -0.047 A 
ATOM      5  C3  UNL d   1      -0.606   2.008   1.573  0.00  0.00    -0.047 A 
ATOM      6  C4  UNL d   1      -1.524   2.279   2.565  0.00  0.00    -0.004 A 
ENDROOT
TORSDOF 0
ENDMDL
