MODEL 1
REMARK minimizedAffinity 3.01228166
REMARK minimizedRMSD -1
REMARK  0 active torsions:
REMARK  status: ('A' for Active; 'I' for Inactive)
ROOT
ATOM      1  C   UNL d   1       0.100   1.289   0.895  0.00  0.00     0.172 C 
ATOM      2  N   UNL d   1       0.671   2.211   1.849  0.00  0.00    -0.070 N 
ATOM      3  C1  UNL d   1       2.001   2.518   1.965  0.00  0.00    -0.004 A 
ATOM      4  C2  UNL d   1       2.135   3.432   2.987  0.00  0.00    -0.047 A 
ATOM      5  C3  UNL d   1       0.842   3.683   3.504  0.00  0.00    -0.047 A 
ATOM      6  C4  UNL d   1      -0.045   2.914   2.781  0.00  0.00    -0.004 A 
ENDROOT
TORSDOF 0
ENDMDL
