MODEL 1
REMARK minimizedAffinity 0.449528158
REMARK minimizedRMSD -1
REMARK  0 active torsions:
REMARK  status: ('A' for Active; 'I' for Inactive)
ROOT
ATOM      1  C   UNL d   1      -0.115   2.246   1.908  0.00  0.00     0.172 C 
ATOM      2  N   UNL d   1      -0.355   3.157   3.002  0.00  0.00    -0.070 N 
ATOM      3  C1  UNL d   1      -1.281   2.983   3.996  0.00  0.00    -0.004 A 
ATOM      4  C2  UNL d   1      -1.199   4.068   4.843  0.00  0.00    -0.047 A 
ATOM      5  C3  UNL d   1      -0.190   4.923   4.339  0.00  0.00    -0.047 A 
ATOM      6  C4  UNL d   1       0.315   4.335   3.199  0.00  0.00    -0.004 A 
ENDROOT
TORSDOF 0
ENDMDL
