MODEL 1
REMARK minimizedAffinity 6.49636602
REMARK minimizedRMSD -1
REMARK  0 active torsions:
REMARK  status: ('A' for Active; 'I' for Inactive)
ROOT
ATOM      1  C   UNL d   1      -0.922   3.326   4.842  0.00  0.00     0.172 C 
ATOM      2  N   UNL d   1      -0.763   2.820   3.499  0.00  0.00    -0.070 N 
ATOM      3  C1  UNL d   1       0.217   3.191   2.617  0.00  0.00    -0.004 A 
ATOM      4  C2  UNL d   1       0.024   2.484   1.450  0.00  0.00    -0.047 A 
ATOM      5  C3  UNL d   1      -1.112   1.661   1.637  0.00  0.00    -0.047 A 
ATOM      6  C4  UNL d   1      -1.579   1.889   2.914  0.00  0.00    -0.004 A 
ENDROOT
TORSDOF 0
ENDMDL
