MODEL 1
REMARK minimizedAffinity 3.05194545
REMARK minimizedRMSD -1
REMARK  0 active torsions:
REMARK  status: ('A' for Active; 'I' for Inactive)
ROOT
ATOM      1  C   UNL d   1       2.866   4.505   4.691  0.00  0.00     0.172 C 
ATOM      2  N   UNL d   1       1.722   3.900   4.050  0.00  0.00    -0.070 N 
ATOM      3  C1  UNL d   1       0.687   3.274   4.690  0.00  0.00    -0.004 A 
ATOM      4  C2  UNL d   1      -0.200   2.835   3.731  0.00  0.00    -0.047 A 
ATOM      5  C3  UNL d   1       0.322   3.209   2.470  0.00  0.00    -0.047 A 
ATOM      6  C4  UNL d   1       1.512   3.867   2.696  0.00  0.00    -0.004 A 
ENDROOT
TORSDOF 0
ENDMDL
