MODEL 1
REMARK minimizedAffinity 0.422498226
REMARK minimizedRMSD -1
REMARK  0 active torsions:
REMARK  status: ('A' for Active; 'I' for Inactive)
ROOT
ATOM      1  C   UNL d   1       2.459  -5.536  -4.573  0.00  0.00     0.172 C 
ATOM      2  N   UNL d   1       3.899  -5.637  -4.593  0.00  0.00    -0.070 N 
ATOM      3  C1  UNL d   1       4.689  -5.999  -3.533  0.00  0.00    -0.004 A 
ATOM      4  C2  UNL d   1       6.000  -5.975  -3.957  0.00  0.00    -0.047 A 
ATOM      5  C3  UNL d   1       5.999  -5.585  -5.317  0.00  0.00    -0.047 A 
ATOM      6  C4  UNL d   1       4.686  -5.382  -5.685  0.00  0.00    -0.004 A 
ENDROOT
TORSDOF 0
ENDMDL
