MODEL 1
REMARK minimizedAffinity 4.60575724
REMARK minimizedRMSD -1
REMARK  0 active torsions:
REMARK  status: ('A' for Active; 'I' for Inactive)
ROOT
ATOM      1  C   UNL d   1       3.045  -1.493  -0.400  0.00  0.00     0.172 C 
ATOM      2  N   UNL d   1       2.030  -2.430  -0.819  0.00  0.00    -0.070 N 
ATOM      3  C1  UNL d   1       1.860  -2.907  -2.092  0.00  0.00    -0.004 A 
ATOM      4  C2  UNL d   1       0.789  -3.774  -2.078  0.00  0.00    -0.047 A 
ATOM      5  C3  UNL d   1       0.298  -3.819  -0.751  0.00  0.00    -0.047 A 
ATOM      6  C4  UNL d   1       1.084  -2.978   0.007  0.00  0.00    -0.004 A 
ENDROOT
TORSDOF 0
ENDMDL
