MODEL 1
REMARK minimizedAffinity -1.77535641
REMARK minimizedRMSD -1
REMARK  0 active torsions:
REMARK  status: ('A' for Active; 'I' for Inactive)
ROOT
ATOM      1  C   UNL d   1      -0.696   0.660   0.533  0.00  0.00     0.172 C 
ATOM      2  N   UNL d   1      -0.067   1.701   1.312  0.00  0.00    -0.070 N 
ATOM      3  C1  UNL d   1      -0.379   2.030   2.604  0.00  0.00    -0.004 A 
ATOM      4  C2  UNL d   1       0.442   3.069   2.986  0.00  0.00    -0.047 A 
ATOM      5  C3  UNL d   1       1.276   3.375   1.884  0.00  0.00    -0.047 A 
ATOM      6  C4  UNL d   1       0.940   2.513   0.862  0.00  0.00    -0.004 A 
ENDROOT
TORSDOF 0
ENDMDL
