MODEL 1
REMARK minimizedAffinity -1.79843855
REMARK minimizedRMSD -1
REMARK  0 active torsions:
REMARK  status: ('A' for Active; 'I' for Inactive)
ROOT
ATOM      1  C   UNL d   1      -4.741  -5.547  -5.796  0.00  0.00     0.020 A 
ATOM      2  C1  UNL d   1      -5.619  -4.464  -5.829  0.00  0.00     0.020 A 
ATOM      3  C2  UNL d   1      -5.994  -3.833  -4.641  0.00  0.00     0.034 A 
ATOM      4  C3  UNL d   1      -5.492  -4.285  -3.415  0.00  0.00     0.017 A 
ATOM      5  C4  UNL d   1      -4.611  -5.372  -3.383  0.00  0.00     0.017 A 
ATOM      6  C5  UNL d   1      -4.238  -6.000  -4.576  0.00  0.00     0.034 A 
ATOM      7 Cl   UNL d   1      -3.950  -5.986  -1.909  0.00  0.00    -0.070 Cl
ATOM      8 Cl1  UNL d   1      -6.000  -3.458  -1.986  0.00  0.00    -0.070 Cl
ENDROOT
TORSDOF 0
ENDMDL
