MODEL 1
REMARK minimizedAffinity -0.737086833
REMARK minimizedRMSD -1
REMARK  0 active torsions:
REMARK  status: ('A' for Active; 'I' for Inactive)
ROOT
ATOM      1  C   UNL d   1      -6.000  -4.017  -5.899  0.00  0.00     0.020 A 
ATOM      2  C1  UNL d   1      -5.868  -5.402  -5.797  0.00  0.00     0.020 A 
ATOM      3  C2  UNL d   1      -5.661  -5.993  -4.549  0.00  0.00     0.034 A 
ATOM      4  C3  UNL d   1      -5.585  -5.201  -3.398  0.00  0.00     0.017 A 
ATOM      5  C4  UNL d   1      -5.718  -3.811  -3.502  0.00  0.00     0.017 A 
ATOM      6  C5  UNL d   1      -5.925  -3.224  -4.754  0.00  0.00     0.034 A 
ATOM      7 Cl   UNL d   1      -5.635  -2.768  -2.127  0.00  0.00    -0.070 Cl
ATOM      8 Cl1  UNL d   1      -5.328  -6.000  -1.888  0.00  0.00    -0.070 Cl
ENDROOT
TORSDOF 0
ENDMDL
