MODEL 1
REMARK minimizedAffinity 6.38442039
REMARK minimizedRMSD -1
REMARK  0 active torsions:
REMARK  status: ('A' for Active; 'I' for Inactive)
ROOT
ATOM      1  C   UNL d   1      -4.972  -2.221  -5.222  0.00  0.00     0.020 A 
ATOM      2  C1  UNL d   1      -4.760  -2.218  -3.844  0.00  0.00     0.020 A 
ATOM      3  C2  UNL d   1      -4.930  -3.394  -3.109  0.00  0.00     0.034 A 
ATOM      4  C3  UNL d   1      -5.312  -4.577  -3.752  0.00  0.00     0.017 A 
ATOM      5  C4  UNL d   1      -5.525  -4.578  -5.136  0.00  0.00     0.017 A 
ATOM      6  C5  UNL d   1      -5.354  -3.398  -5.866  0.00  0.00     0.034 A 
ATOM      7 Cl   UNL d   1      -5.998  -5.998  -5.999  0.00  0.00    -0.070 Cl
ATOM      8 Cl1  UNL d   1      -5.503  -5.993  -2.782  0.00  0.00    -0.070 Cl
ENDROOT
TORSDOF 0
ENDMDL
