MODEL 1
REMARK minimizedAffinity 0.23275283
REMARK minimizedRMSD -1
REMARK  0 active torsions:
REMARK  status: ('A' for Active; 'I' for Inactive)
ROOT
ATOM      1  C   UNL d   1      -5.481  -5.448  -5.657  0.00  0.00     0.020 A 
ATOM      2  C1  UNL d   1      -5.998  -4.153  -5.629  0.00  0.00     0.020 A 
ATOM      3  C2  UNL d   1      -5.947  -3.406  -4.450  0.00  0.00     0.034 A 
ATOM      4  C3  UNL d   1      -5.379  -3.954  -3.294  0.00  0.00     0.017 A 
ATOM      5  C4  UNL d   1      -4.861  -5.253  -3.323  0.00  0.00     0.017 A 
ATOM      6  C5  UNL d   1      -4.914  -5.997  -4.506  0.00  0.00     0.034 A 
ATOM      7 Cl   UNL d   1      -4.145  -5.997  -1.936  0.00  0.00    -0.070 Cl
ATOM      8 Cl1  UNL d   1      -5.350  -2.973  -1.871  0.00  0.00    -0.070 Cl
ENDROOT
TORSDOF 0
ENDMDL
