MODEL 1
REMARK minimizedAffinity 0.634764016
REMARK minimizedRMSD -1
REMARK  0 active torsions:
REMARK  status: ('A' for Active; 'I' for Inactive)
ROOT
ATOM      1  C   UNL d   1      -5.863  -3.479  -5.925  0.00  0.00     0.020 A 
ATOM      2  C1  UNL d   1      -5.999  -4.865  -5.979  0.00  0.00     0.020 A 
ATOM      3  C2  UNL d   1      -5.886  -5.624  -4.812  0.00  0.00     0.034 A 
ATOM      4  C3  UNL d   1      -5.637  -4.996  -3.586  0.00  0.00     0.017 A 
ATOM      5  C4  UNL d   1      -5.500  -3.605  -3.532  0.00  0.00     0.017 A 
ATOM      6  C5  UNL d   1      -5.614  -2.850  -4.704  0.00  0.00     0.034 A 
ATOM      7 Cl   UNL d   1      -5.191  -2.759  -2.057  0.00  0.00    -0.070 Cl
ATOM      8 Cl1  UNL d   1      -5.510  -5.997  -2.183  0.00  0.00    -0.070 Cl
ENDROOT
TORSDOF 0
ENDMDL
