MODEL 1
REMARK minimizedAffinity 1.84865558
REMARK minimizedRMSD -1
REMARK  0 active torsions:
REMARK  status: ('A' for Active; 'I' for Inactive)
ROOT
ATOM      1  C   UNL d   1       0.640   5.174  -1.624  0.00  0.00     0.020 A 
ATOM      2  C1  UNL d   1       1.847   5.075  -0.933  0.00  0.00     0.020 A 
ATOM      3  C2  UNL d   1       2.064   4.009  -0.056  0.00  0.00     0.034 A 
ATOM      4  C3  UNL d   1       1.072   3.039   0.131  0.00  0.00     0.017 A 
ATOM      5  C4  UNL d   1      -0.138   3.139  -0.564  0.00  0.00     0.017 A 
ATOM      6  C5  UNL d   1      -0.350   4.208  -1.440  0.00  0.00     0.034 A 
ATOM      7 Cl   UNL d   1      -1.408   1.980  -0.385  0.00  0.00    -0.070 Cl
ATOM      8 Cl1  UNL d   1       1.409   1.749   1.230  0.00  0.00    -0.070 Cl
ENDROOT
TORSDOF 0
ENDMDL
