MODEL 1
REMARK minimizedAffinity 4.20324564
REMARK minimizedRMSD -1
REMARK  0 active torsions:
REMARK  status: ('A' for Active; 'I' for Inactive)
ROOT
ATOM      1  C   UNL d   1       4.491   0.456  -5.901  0.00  0.00     0.020 A 
ATOM      2  C1  UNL d   1       5.787   0.309  -5.409  0.00  0.00     0.020 A 
ATOM      3  C2  UNL d   1       6.000  -0.315  -4.177  0.00  0.00     0.034 A 
ATOM      4  C3  UNL d   1       4.915  -0.794  -3.435  0.00  0.00     0.017 A 
ATOM      5  C4  UNL d   1       3.614  -0.646  -3.930  0.00  0.00     0.017 A 
ATOM      6  C5  UNL d   1       3.407  -0.021  -5.163  0.00  0.00     0.034 A 
ATOM      7 Cl   UNL d   1       2.225  -1.212  -3.070  0.00  0.00    -0.070 Cl
ATOM      8 Cl1  UNL d   1       5.251  -1.556  -1.920  0.00  0.00    -0.070 Cl
ENDROOT
TORSDOF 0
ENDMDL
