MODEL 1
REMARK minimizedAffinity 11.4019165
REMARK minimizedRMSD -1
REMARK  0 active torsions:
REMARK  status: ('A' for Active; 'I' for Inactive)
ROOT
ATOM      1  C   UNL d   1       1.969  -4.959   3.641  0.00  0.00     0.020 A 
ATOM      2  C1  UNL d   1       2.186  -5.992   2.730  0.00  0.00     0.020 A 
ATOM      3  C2  UNL d   1       1.849  -5.819   1.386  0.00  0.00     0.034 A 
ATOM      4  C3  UNL d   1       1.292  -4.612   0.949  0.00  0.00     0.017 A 
ATOM      5  C4  UNL d   1       1.074  -3.576   1.865  0.00  0.00     0.017 A 
ATOM      6  C5  UNL d   1       1.414  -3.754   3.210  0.00  0.00     0.034 A 
ATOM      7 Cl   UNL d   1       0.391  -2.057   1.401  0.00  0.00    -0.070 Cl
ATOM      8 Cl1  UNL d   1       0.899  -4.468  -0.727  0.00  0.00    -0.070 Cl
ENDROOT
TORSDOF 0
ENDMDL
