MODEL 1
REMARK minimizedAffinity -1.17011738
REMARK minimizedRMSD -1
REMARK  0 active torsions:
REMARK  status: ('A' for Active; 'I' for Inactive)
ROOT
ATOM      1  C   UNL d   1      -5.999  -4.108  -5.926  0.00  0.00     0.020 A 
ATOM      2  C1  UNL d   1      -5.568  -5.434  -5.912  0.00  0.00     0.020 A 
ATOM      3  C2  UNL d   1      -5.082  -5.998  -4.730  0.00  0.00     0.034 A 
ATOM      4  C3  UNL d   1      -5.026  -5.236  -3.558  0.00  0.00     0.017 A 
ATOM      5  C4  UNL d   1      -5.459  -3.905  -3.573  0.00  0.00     0.017 A 
ATOM      6  C5  UNL d   1      -5.944  -3.345  -4.758  0.00  0.00     0.034 A 
ATOM      7 Cl   UNL d   1      -5.421  -2.902  -2.165  0.00  0.00    -0.070 Cl
ATOM      8 Cl1  UNL d   1      -4.415  -5.998  -2.133  0.00  0.00    -0.070 Cl
ENDROOT
TORSDOF 0
ENDMDL
