MODEL 1
REMARK minimizedAffinity 12.3185139
REMARK minimizedRMSD -1
REMARK  0 active torsions:
REMARK  status: ('A' for Active; 'I' for Inactive)
ROOT
ATOM      1  C   UNL d   1       5.079   0.863  -6.000  0.00  0.00     0.020 A 
ATOM      2  C1  UNL d   1       5.999   0.047  -5.344  0.00  0.00     0.020 A 
ATOM      3  C2  UNL d   1       5.570  -0.822  -4.338  0.00  0.00     0.034 A 
ATOM      4  C3  UNL d   1       4.216  -0.876  -3.986  0.00  0.00     0.017 A 
ATOM      5  C4  UNL d   1       3.293  -0.056  -4.646  0.00  0.00     0.017 A 
ATOM      6  C5  UNL d   1       3.729   0.812  -5.652  0.00  0.00     0.034 A 
ATOM      7 Cl   UNL d   1       1.607  -0.067  -4.267  0.00  0.00    -0.070 Cl
ATOM      8 Cl1  UNL d   1       3.755  -1.974  -2.734  0.00  0.00    -0.070 Cl
ENDROOT
TORSDOF 0
ENDMDL
