MODEL 1
REMARK minimizedAffinity -2.34217119
REMARK minimizedRMSD -1
REMARK  0 active torsions:
REMARK  status: ('A' for Active; 'I' for Inactive)
ROOT
ATOM      1  C   UNL d   1      -6.000  -4.355  -5.169  0.00  0.00     0.020 A 
ATOM      2  C1  UNL d   1      -5.293  -5.554  -5.260  0.00  0.00     0.020 A 
ATOM      3  C2  UNL d   1      -4.533  -6.000  -4.176  0.00  0.00     0.034 A 
ATOM      4  C3  UNL d   1      -4.478  -5.247  -2.998  0.00  0.00     0.017 A 
ATOM      5  C4  UNL d   1      -5.188  -4.044  -2.907  0.00  0.00     0.017 A 
ATOM      6  C5  UNL d   1      -5.948  -3.602  -3.995  0.00  0.00     0.034 A 
ATOM      7 Cl   UNL d   1      -5.169  -3.061  -1.486  0.00  0.00    -0.070 Cl
ATOM      8 Cl1  UNL d   1      -3.519  -5.859  -1.697  0.00  0.00    -0.070 Cl
ENDROOT
TORSDOF 0
ENDMDL
