MODEL 1
REMARK minimizedAffinity -1.73706317
REMARK minimizedRMSD -1
REMARK  0 active torsions:
REMARK  status: ('A' for Active; 'I' for Inactive)
ROOT
ATOM      1  C   UNL d   1      -5.468  -5.224  -2.060  0.00  0.00     0.020 A 
ATOM      2  C1  UNL d   1      -4.182  -5.752  -1.957  0.00  0.00     0.020 A 
ATOM      3  C2  UNL d   1      -3.424  -5.975  -3.109  0.00  0.00     0.034 A 
ATOM      4  C3  UNL d   1      -3.952  -5.669  -4.369  0.00  0.00     0.017 A 
ATOM      5  C4  UNL d   1      -5.243  -5.139  -4.471  0.00  0.00     0.017 A 
ATOM      6  C5  UNL d   1      -5.997  -4.917  -3.315  0.00  0.00     0.034 A 
ATOM      7 Cl   UNL d   1      -5.961  -4.736  -5.990  0.00  0.00    -0.070 Cl
ATOM      8 Cl1  UNL d   1      -2.959  -5.971  -5.750  0.00  0.00    -0.070 Cl
ENDROOT
TORSDOF 0
ENDMDL
