MODEL 1
REMARK minimizedAffinity 5.09188128
REMARK minimizedRMSD -1
REMARK  0 active torsions:
REMARK  status: ('A' for Active; 'I' for Inactive)
ROOT
ATOM      1  C   UNL d   1       4.959  -0.094  -5.618  0.00  0.00     0.020 A 
ATOM      2  C1  UNL d   1       6.000  -0.763  -4.974  0.00  0.00     0.020 A 
ATOM      3  C2  UNL d   1       5.720  -1.664  -3.945  0.00  0.00     0.034 A 
ATOM      4  C3  UNL d   1       4.396  -1.899  -3.556  0.00  0.00     0.017 A 
ATOM      5  C4  UNL d   1       3.352  -1.228  -4.202  0.00  0.00     0.017 A 
ATOM      6  C5  UNL d   1       3.638  -0.326  -5.232  0.00  0.00     0.034 A 
ATOM      7 Cl   UNL d   1       1.694  -1.465  -3.778  0.00  0.00    -0.070 Cl
ATOM      8 Cl1  UNL d   1       4.123  -3.027  -2.275  0.00  0.00    -0.070 Cl
ENDROOT
TORSDOF 0
ENDMDL
