MODEL 1
REMARK minimizedAffinity 1.9881736
REMARK minimizedRMSD -1
REMARK  0 active torsions:
REMARK  status: ('A' for Active; 'I' for Inactive)
ROOT
ATOM      1  C   UNL d   1       5.602  -0.006  -5.999  0.00  0.00     0.020 A 
ATOM      2  C1  UNL d   1       6.000  -1.038  -5.150  0.00  0.00     0.020 A 
ATOM      3  C2  UNL d   1       5.734  -0.959  -3.782  0.00  0.00     0.034 A 
ATOM      4  C3  UNL d   1       5.068   0.155  -3.258  0.00  0.00     0.017 A 
ATOM      5  C4  UNL d   1       4.668   1.191  -4.110  0.00  0.00     0.017 A 
ATOM      6  C5  UNL d   1       4.937   1.106  -5.480  0.00  0.00     0.034 A 
ATOM      7 Cl   UNL d   1       3.842   2.597  -3.537  0.00  0.00    -0.070 Cl
ATOM      8 Cl1  UNL d   1       4.771   0.187  -1.556  0.00  0.00    -0.070 Cl
ENDROOT
TORSDOF 0
ENDMDL
