MODEL 1
REMARK minimizedAffinity -1.19010198
REMARK minimizedRMSD -1
REMARK  0 active torsions:
REMARK  status: ('A' for Active; 'I' for Inactive)
ROOT
ATOM      1  C1  BNZ d   1      -4.926  -1.376  -1.860  0.00  0.00     0.000 A 
ATOM      2  C2  BNZ d   1      -4.140  -1.534  -0.749  0.00  0.00     0.000 A 
ATOM      3  C3  BNZ d   1      -4.123  -0.588   0.237  0.00  0.00     0.000 A 
ATOM      4  C4  BNZ d   1      -4.860   0.533   0.094  0.00  0.00     0.000 A 
ATOM      5  C5  BNZ d   1      -5.650   0.711  -1.025  0.00  0.00     0.000 A 
ATOM      6  C6  BNZ d   1      -5.694  -0.261  -1.997  0.00  0.00     0.000 A 
ENDROOT
TORSDOF 0
ENDMDL
