MODEL 1
REMARK minimizedAffinity 0.531870067
REMARK minimizedRMSD -1
REMARK  0 active torsions:
REMARK  status: ('A' for Active; 'I' for Inactive)
ROOT
ATOM      1  C1  BNZ d   1       0.848   0.027   0.395  0.00  0.00     0.000 A 
ATOM      2  C2  BNZ d   1       0.565  -0.797   1.452  0.00  0.00     0.000 A 
ATOM      3  C3  BNZ d   1       1.556  -1.226   2.290  0.00  0.00     0.000 A 
ATOM      4  C4  BNZ d   1       2.833  -0.866   2.046  0.00  0.00     0.000 A 
ATOM      5  C5  BNZ d   1       3.135  -0.043   0.979  0.00  0.00     0.000 A 
ATOM      6  C6  BNZ d   1       2.130   0.419   0.161  0.00  0.00     0.000 A 
ENDROOT
TORSDOF 0
ENDMDL
