MODEL 1
REMARK minimizedAffinity 0.464675963
REMARK minimizedRMSD -1
REMARK  0 active torsions:
REMARK  status: ('A' for Active; 'I' for Inactive)
ROOT
ATOM      1  C1  BNZ d   1       2.315  -0.474   2.173  0.00  0.00     0.000 A 
ATOM      2  C2  BNZ d   1       2.223  -1.721   2.732  0.00  0.00     0.000 A 
ATOM      3  C3  BNZ d   1       1.344  -2.645   2.240  0.00  0.00     0.000 A 
ATOM      4  C4  BNZ d   1       0.531  -2.309   1.218  0.00  0.00     0.000 A 
ATOM      5  C5  BNZ d   1       0.605  -1.052   0.650  0.00  0.00     0.000 A 
ATOM      6  C6  BNZ d   1       1.518  -0.137   1.122  0.00  0.00     0.000 A 
ENDROOT
TORSDOF 0
ENDMDL
