MODEL 1
REMARK minimizedAffinity 3.00674677
REMARK minimizedRMSD -1
REMARK  0 active torsions:
REMARK  status: ('A' for Active; 'I' for Inactive)
ROOT
ATOM      1  C1  BNZ d   1       2.234   0.035   0.728  0.00  0.00     0.000 A 
ATOM      2  C2  BNZ d   1       2.421  -0.835   1.769  0.00  0.00     0.000 A 
ATOM      3  C3  BNZ d   1       1.377  -1.559   2.272  0.00  0.00     0.000 A 
ATOM      4  C4  BNZ d   1       0.141  -1.383   1.762  0.00  0.00     0.000 A 
ATOM      5  C5  BNZ d   1      -0.065  -0.502   0.719  0.00  0.00     0.000 A 
ATOM      6  C6  BNZ d   1       0.995   0.196   0.189  0.00  0.00     0.000 A 
ENDROOT
TORSDOF 0
ENDMDL
