MODEL 1
REMARK minimizedAffinity 0.416019231
REMARK minimizedRMSD -1
REMARK  0 active torsions:
REMARK  status: ('A' for Active; 'I' for Inactive)
ROOT
ATOM      1  C1  BNZ d   1       1.835   0.097   0.020  0.00  0.00     0.000 A 
ATOM      2  C2  BNZ d   1       2.806  -0.291   0.904  0.00  0.00     0.000 A 
ATOM      3  C3  BNZ d   1       2.476  -0.894   2.086  0.00  0.00     0.000 A 
ATOM      4  C4  BNZ d   1       1.177  -1.071   2.400  0.00  0.00     0.000 A 
ATOM      5  C5  BNZ d   1       0.186  -0.677   1.524  0.00  0.00     0.000 A 
ATOM      6  C6  BNZ d   1       0.522  -0.105   0.318  0.00  0.00     0.000 A 
ENDROOT
TORSDOF 0
ENDMDL
