MODEL 1
REMARK minimizedAffinity -0.674024701
REMARK minimizedRMSD -1
REMARK  0 active torsions:
REMARK  status: ('A' for Active; 'I' for Inactive)
ROOT
ATOM      1  C1  BNZ d   1      -1.253  -5.977  -3.000  0.00  0.00     0.000 A 
ATOM      2  C2  BNZ d   1      -1.871  -5.970  -4.222  0.00  0.00     0.000 A 
ATOM      3  C3  BNZ d   1      -1.140  -5.996  -5.377  0.00  0.00     0.000 A 
ATOM      4  C4  BNZ d   1       0.207  -5.989  -5.309  0.00  0.00     0.000 A 
ATOM      5  C5  BNZ d   1       0.845  -5.987  -4.085  0.00  0.00     0.000 A 
ATOM      6  C6  BNZ d   1       0.106  -6.000  -2.924  0.00  0.00     0.000 A 
ENDROOT
TORSDOF 0
ENDMDL
