MODEL 1
REMARK minimizedAffinity -2.51391196
REMARK minimizedRMSD -1
REMARK  0 active torsions:
REMARK  status: ('A' for Active; 'I' for Inactive)
ROOT
ATOM      1  C1  BNZ d   1       0.556  -6.000  -5.262  0.00  0.00     0.000 A 
ATOM      2  C2  BNZ d   1      -0.784  -5.949  -5.540  0.00  0.00     0.000 A 
ATOM      3  C3  BNZ d   1      -1.706  -5.885  -4.534  0.00  0.00     0.000 A 
ATOM      4  C4  BNZ d   1      -1.291  -5.912  -3.251  0.00  0.00     0.000 A 
ATOM      5  C5  BNZ d   1       0.056  -5.972  -2.954  0.00  0.00     0.000 A 
ATOM      6  C6  BNZ d   1       0.984  -5.998  -3.970  0.00  0.00     0.000 A 
ENDROOT
TORSDOF 0
ENDMDL
