MODEL 1
REMARK minimizedAffinity -0.840740621
REMARK minimizedRMSD -1
REMARK  0 active torsions:
REMARK  status: ('A' for Active; 'I' for Inactive)
ROOT
ATOM      1  C1  BNZ d   1      -0.530  -5.835  -5.998  0.00  0.00     0.000 A 
ATOM      2  C2  BNZ d   1       0.839  -5.823  -5.968  0.00  0.00     0.000 A 
ATOM      3  C3  BNZ d   1       1.514  -5.923  -4.783  0.00  0.00     0.000 A 
ATOM      4  C4  BNZ d   1       0.820  -5.996  -3.629  0.00  0.00     0.000 A 
ATOM      5  C5  BNZ d   1      -0.560  -6.000  -3.642  0.00  0.00     0.000 A 
ATOM      6  C6  BNZ d   1      -1.236  -5.938  -4.839  0.00  0.00     0.000 A 
ENDROOT
TORSDOF 0
ENDMDL
