MODEL 1
REMARK minimizedAffinity -2.39243531
REMARK minimizedRMSD -1
REMARK  0 active torsions:
REMARK  status: ('A' for Active; 'I' for Inactive)
ROOT
ATOM      1  C1  BNZ d   1      -0.560  -5.848  -4.400  0.00  0.00     0.000 A 
ATOM      2  C2  BNZ d   1      -1.878  -5.667  -4.722  0.00  0.00     0.000 A 
ATOM      3  C3  BNZ d   1      -2.837  -5.625  -3.748  0.00  0.00     0.000 A 
ATOM      4  C4  BNZ d   1      -2.482  -5.803  -2.460  0.00  0.00     0.000 A 
ATOM      5  C5  BNZ d   1      -1.158  -5.996  -2.120  0.00  0.00     0.000 A 
ATOM      6  C6  BNZ d   1      -0.191  -5.999  -3.098  0.00  0.00     0.000 A 
ENDROOT
TORSDOF 0
ENDMDL
