MODEL 1
REMARK minimizedAffinity 0.617565751
REMARK minimizedRMSD -1
REMARK  0 active torsions:
REMARK  status: ('A' for Active; 'I' for Inactive)
ROOT
ATOM      1  C1  BNZ d   1       0.641  -5.909  -4.075  0.00  0.00     0.000 A 
ATOM      2  C2  BNZ d   1      -0.184  -5.974  -5.166  0.00  0.00     0.000 A 
ATOM      3  C3  BNZ d   1      -1.542  -5.992  -5.016  0.00  0.00     0.000 A 
ATOM      4  C4  BNZ d   1      -2.072  -5.985  -3.776  0.00  0.00     0.000 A 
ATOM      5  C5  BNZ d   1      -1.254  -5.930  -2.666  0.00  0.00     0.000 A 
ATOM      6  C6  BNZ d   1       0.112  -5.873  -2.822  0.00  0.00     0.000 A 
ENDROOT
TORSDOF 0
ENDMDL
