MODEL 1
REMARK minimizedAffinity -1.20295656
REMARK minimizedRMSD -1
REMARK  0 active torsions:
REMARK  status: ('A' for Active; 'I' for Inactive)
ROOT
ATOM      1  C1  BNZ d   1       0.745  -5.233  -4.473  0.00  0.00     0.000 A 
ATOM      2  C2  BNZ d   1      -0.026  -5.238  -3.342  0.00  0.00     0.000 A 
ATOM      3  C3  BNZ d   1      -1.332  -5.642  -3.386  0.00  0.00     0.000 A 
ATOM      4  C4  BNZ d   1      -1.875  -6.000  -4.568  0.00  0.00     0.000 A 
ATOM      5  C5  BNZ d   1      -1.113  -5.991  -5.719  0.00  0.00     0.000 A 
ATOM      6  C6  BNZ d   1       0.211  -5.621  -5.663  0.00  0.00     0.000 A 
ENDROOT
TORSDOF 0
ENDMDL
