MODEL 1
REMARK minimizedAffinity 0.18980886
REMARK minimizedRMSD -1
REMARK  0 active torsions:
REMARK  status: ('A' for Active; 'I' for Inactive)
ROOT
ATOM      1  C1  BNZ d   1      -1.560  -5.987  -2.571  0.00  0.00     0.000 A 
ATOM      2  C2  BNZ d   1      -0.191  -5.999  -2.567  0.00  0.00     0.000 A 
ATOM      3  C3  BNZ d   1       0.513  -5.985  -3.738  0.00  0.00     0.000 A 
ATOM      4  C4  BNZ d   1      -0.152  -6.000  -4.912  0.00  0.00     0.000 A 
ATOM      5  C5  BNZ d   1      -1.533  -5.997  -4.933  0.00  0.00     0.000 A 
ATOM      6  C6  BNZ d   1      -2.238  -5.972  -3.751  0.00  0.00     0.000 A 
ENDROOT
TORSDOF 0
ENDMDL
