MODEL 1
REMARK minimizedAffinity -1.92916024
REMARK minimizedRMSD -1
REMARK  0 active torsions:
REMARK  status: ('A' for Active; 'I' for Inactive)
ROOT
ATOM      1  C1  BNZ d   1      -1.346  -5.764  -5.933  0.00  0.00     0.000 A 
ATOM      2  C2  BNZ d   1      -1.968  -5.942  -4.726  0.00  0.00     0.000 A 
ATOM      3  C3  BNZ d   1      -1.244  -5.999  -3.568  0.00  0.00     0.000 A 
ATOM      4  C4  BNZ d   1       0.102  -5.920  -3.622  0.00  0.00     0.000 A 
ATOM      5  C5  BNZ d   1       0.743  -5.749  -4.833  0.00  0.00     0.000 A 
ATOM      6  C6  BNZ d   1       0.009  -5.652  -5.992  0.00  0.00     0.000 A 
ENDROOT
TORSDOF 0
ENDMDL
