MODEL 1
REMARK minimizedAffinity 1.68245661
REMARK minimizedRMSD -1
REMARK  0 active torsions:
REMARK  status: ('A' for Active; 'I' for Inactive)
ROOT
ATOM      1  C1  BNZ d   1      -4.485   0.631  -0.050  0.00  0.00     0.000 A 
ATOM      2  C2  BNZ d   1      -3.656  -0.411  -0.372  0.00  0.00     0.000 A 
ATOM      3  C3  BNZ d   1      -3.833  -1.113  -1.532  0.00  0.00     0.000 A 
ATOM      4  C4  BNZ d   1      -4.861  -0.799  -2.346  0.00  0.00     0.000 A 
ATOM      5  C5  BNZ d   1      -5.711   0.242  -2.031  0.00  0.00     0.000 A 
ATOM      6  C6  BNZ d   1      -5.506   0.972  -0.882  0.00  0.00     0.000 A 
ENDROOT
TORSDOF 0
ENDMDL
