MODEL 1
REMARK minimizedAffinity 5.7679925
REMARK minimizedRMSD -1
REMARK  2 active torsions:
REMARK  status: ('A' for Active; 'I' for Inactive)
REMARK    1  A    between atoms: C1_2  and  C2_3 
REMARK    2  A    between atoms: C2_3  and  C3_4 
ROOT
ATOM      1  C3  UNL d   1       0.860  -1.429   1.030  0.00  0.00    -0.075 A 
ATOM      2  C4  UNL d   1       0.907  -2.270   2.151  0.00  0.00     0.002 A 
ATOM      3  C5  UNL d   1       1.605  -1.885   3.296  0.00  0.00     0.002 A 
ATOM      4  C6  UNL d   1       2.272  -0.662   3.331  0.00  0.00    -0.004 A 
ATOM      5  C7  UNL d   1       2.246   0.174   2.217  0.00  0.00     0.002 A 
ATOM      6  C8  UNL d   1       1.545  -0.207   1.071  0.00  0.00     0.002 A 
ENDROOT
BRANCH   1   7
ATOM      7  C2  UNL d   1       0.082  -1.826  -0.202  0.00  0.00     0.056 C 
BRANCH   7   8
ATOM      8  C1  UNL d   1       0.950  -2.036  -1.447  0.00  0.00     0.007 C 
ATOM      9  C   UNL d   1       0.875  -3.453  -2.000  0.00  0.00     0.009 C 
ENDBRANCH   7   8
ENDBRANCH   1   7
TORSDOF 2
ENDMDL
