MODEL 1
REMARK minimizedAffinity 6.38705015
REMARK minimizedRMSD -1
REMARK  2 active torsions:
REMARK  status: ('A' for Active; 'I' for Inactive)
REMARK    1  A    between atoms: C1_2  and  C2_3 
REMARK    2  A    between atoms: C2_3  and  C3_4 
ROOT
ATOM      1  C3  UNL d   1       0.753  -2.757   1.078  0.00  0.00    -0.075 A 
ATOM      2  C4  UNL d   1       0.759  -1.368   0.881  0.00  0.00     0.002 A 
ATOM      3  C5  UNL d   1       1.212  -0.512   1.885  0.00  0.00     0.002 A 
ATOM      4  C6  UNL d   1       1.655  -1.031   3.099  0.00  0.00    -0.004 A 
ATOM      5  C7  UNL d   1       1.639  -2.408   3.312  0.00  0.00     0.002 A 
ATOM      6  C8  UNL d   1       1.189  -3.267   2.308  0.00  0.00     0.002 A 
ENDROOT
BRANCH   1   7
ATOM      7  C2  UNL d   1       0.291  -3.691  -0.015  0.00  0.00     0.056 C 
BRANCH   7   8
ATOM      8  C1  UNL d   1       1.145  -3.633  -1.287  0.00  0.00     0.007 C 
ATOM      9  C   UNL d   1       0.930  -2.362  -2.097  0.00  0.00     0.009 C 
ENDBRANCH   7   8
ENDBRANCH   1   7
TORSDOF 2
ENDMDL
