MODEL 1
REMARK minimizedAffinity 5.75310659
REMARK minimizedRMSD -1
REMARK  2 active torsions:
REMARK  status: ('A' for Active; 'I' for Inactive)
REMARK    1  A    between atoms: C1_2  and  C2_3 
REMARK    2  A    between atoms: C2_3  and  C3_4 
ROOT
ATOM      1  C3  UNL d   1       2.467  -3.632   3.588  0.00  0.00    -0.075 A 
ATOM      2  C4  UNL d   1       2.010  -4.591   2.673  0.00  0.00     0.002 A 
ATOM      3  C5  UNL d   1       1.198  -4.218   1.601  0.00  0.00     0.002 A 
ATOM      4  C6  UNL d   1       0.825  -2.886   1.437  0.00  0.00    -0.004 A 
ATOM      5  C7  UNL d   1       1.259  -1.927   2.349  0.00  0.00     0.002 A 
ATOM      6  C8  UNL d   1       2.076  -2.297   3.420  0.00  0.00     0.002 A 
ENDROOT
BRANCH   1   7
ATOM      7  C2  UNL d   1       3.370  -4.024   4.732  0.00  0.00     0.056 C 
BRANCH   7   8
ATOM      8  C1  UNL d   1       4.599  -3.123   4.894  0.00  0.00     0.007 C 
ATOM      9  C   UNL d   1       5.568  -3.214   3.723  0.00  0.00     0.009 C 
ENDBRANCH   7   8
ENDBRANCH   1   7
TORSDOF 2
ENDMDL
