MODEL 1
REMARK minimizedAffinity -0.301140547
REMARK minimizedRMSD -1
REMARK  2 active torsions:
REMARK  status: ('A' for Active; 'I' for Inactive)
REMARK    1  A    between atoms: C1_2  and  C2_3 
REMARK    2  A    between atoms: C2_3  and  C3_4 
ROOT
ATOM      1  C3  UNL d   1      -3.958   3.224  -0.753  0.00  0.00    -0.075 A 
ATOM      2  C4  UNL d   1      -3.599   2.490   0.386  0.00  0.00     0.002 A 
ATOM      3  C5  UNL d   1      -4.439   2.454   1.500  0.00  0.00     0.002 A 
ATOM      4  C6  UNL d   1      -5.641   3.159   1.492  0.00  0.00    -0.004 A 
ATOM      5  C7  UNL d   1      -6.000   3.905   0.372  0.00  0.00     0.002 A 
ATOM      6  C8  UNL d   1      -5.163   3.939  -0.745  0.00  0.00     0.002 A 
ENDROOT
BRANCH   1   7
ATOM      7  C2  UNL d   1      -3.068   3.243  -1.973  0.00  0.00     0.056 C 
BRANCH   7   8
ATOM      8  C1  UNL d   1      -3.394   2.154  -3.000  0.00  0.00     0.007 C 
ATOM      9  C   UNL d   1      -4.819   1.630  -2.887  0.00  0.00     0.009 C 
ENDBRANCH   7   8
ENDBRANCH   1   7
TORSDOF 2
ENDMDL
