MODEL 1
REMARK minimizedAffinity 1.20154953
REMARK minimizedRMSD -1
REMARK  2 active torsions:
REMARK  status: ('A' for Active; 'I' for Inactive)
REMARK    1  A    between atoms: C1_2  and  C2_3 
REMARK    2  A    between atoms: C2_3  and  C3_4 
ROOT
ATOM      1  C3  UNL d   1      -4.823   3.697   0.548  0.00  0.00    -0.075 A 
ATOM      2  C4  UNL d   1      -4.931   4.517   1.681  0.00  0.00     0.002 A 
ATOM      3  C5  UNL d   1      -3.832   4.717   2.517  0.00  0.00     0.002 A 
ATOM      4  C6  UNL d   1      -2.618   4.093   2.239  0.00  0.00    -0.004 A 
ATOM      5  C7  UNL d   1      -2.505   3.263   1.126  0.00  0.00     0.002 A 
ATOM      6  C8  UNL d   1      -3.601   3.065   0.285  0.00  0.00     0.002 A 
ENDROOT
BRANCH   1   7
ATOM      7  C2  UNL d   1      -6.000   3.500  -0.377  0.00  0.00     0.056 C 
BRANCH   7   8
ATOM      8  C1  UNL d   1      -5.999   2.153  -1.109  0.00  0.00     0.007 C 
ATOM      9  C   UNL d   1      -5.623   2.270  -2.581  0.00  0.00     0.009 C 
ENDBRANCH   7   8
ENDBRANCH   1   7
TORSDOF 2
ENDMDL
