MODEL 1
REMARK minimizedAffinity 8.44048786
REMARK minimizedRMSD -1
REMARK  2 active torsions:
REMARK  status: ('A' for Active; 'I' for Inactive)
REMARK    1  A    between atoms: C2'_3  and  C1'_4 
REMARK    2  A    between atoms: C1'_4  and  C1_5 
ROOT
ATOM      1  C1  I4B d   1       3.640   0.022   0.871  0.00  0.00    -0.075 A 
ATOM      2  C2  I4B d   1       4.883   0.599   0.961  0.00  0.00     0.003 A 
ATOM      3  C3  I4B d   1       5.969  -0.131   1.502  0.00  0.00     0.002 A 
ATOM      4  C4  I4B d   1       5.759  -1.407   1.984  0.00  0.00    -0.004 A 
ATOM      5  C5  I4B d   1       4.504  -1.997   1.871  0.00  0.00     0.002 A 
ATOM      6  C6  I4B d   1       3.440  -1.283   1.300  0.00  0.00     0.003 A 
ENDROOT
BRANCH   1   7
ATOM      7  C1' I4B d   1       2.508   0.833   0.326  0.00  0.00     0.060 C 
BRANCH   7   8
ATOM      8  C2' I4B d   1       2.407   0.554  -1.160  0.00  0.00    -0.013 C 
ATOM      9  C4' I4B d   1       0.972   0.538  -1.616  0.00  0.00     0.013 C 
ATOM     10  C3' I4B d   1       3.194   1.606  -1.883  0.00  0.00     0.013 C 
ENDBRANCH   7   8
ENDBRANCH   1   7
TORSDOF 2
ENDMDL
