MODEL 1
REMARK minimizedAffinity 7.89721966
REMARK minimizedRMSD -1
REMARK  2 active torsions:
REMARK  status: ('A' for Active; 'I' for Inactive)
REMARK    1  A    between atoms: C2'_3  and  C1'_4 
REMARK    2  A    between atoms: C1'_4  and  C1_5 
ROOT
ATOM      1  C1  I4B d   1       3.496   1.477  -1.053  0.00  0.00    -0.075 A 
ATOM      2  C2  I4B d   1       2.477   0.615  -1.374  0.00  0.00     0.003 A 
ATOM      3  C3  I4B d   1       2.166  -0.470  -0.518  0.00  0.00     0.002 A 
ATOM      4  C4  I4B d   1       2.927  -0.682   0.614  0.00  0.00    -0.004 A 
ATOM      5  C5  I4B d   1       3.944   0.207   0.949  0.00  0.00     0.002 A 
ATOM      6  C6  I4B d   1       4.222   1.301   0.117  0.00  0.00     0.003 A 
ENDROOT
BRANCH   1   7
ATOM      7  C1' I4B d   1       3.818   2.593  -1.996  0.00  0.00     0.060 C 
BRANCH   7   8
ATOM      8  C2' I4B d   1       5.321   2.788  -1.991  0.00  0.00    -0.013 C 
ATOM      9  C4' I4B d   1       5.996   1.842  -2.949  0.00  0.00     0.013 C 
ATOM     10  C3' I4B d   1       5.604   4.216  -2.351  0.00  0.00     0.013 C 
ENDBRANCH   7   8
ENDBRANCH   1   7
TORSDOF 2
ENDMDL
