MODEL 1
REMARK minimizedAffinity 10.4133701
REMARK minimizedRMSD -1
REMARK  2 active torsions:
REMARK  status: ('A' for Active; 'I' for Inactive)
REMARK    1  A    between atoms: C2'_3  and  C1'_4 
REMARK    2  A    between atoms: C1'_4  and  C1_5 
ROOT
ATOM      1  C1  I4B d   1      -4.663   3.974   1.859  0.00  0.00    -0.075 A 
ATOM      2  C2  I4B d   1      -3.538   4.497   2.447  0.00  0.00     0.003 A 
ATOM      3  C3  I4B d   1      -3.628   5.159   3.695  0.00  0.00     0.002 A 
ATOM      4  C4  I4B d   1      -4.862   5.319   4.292  0.00  0.00    -0.004 A 
ATOM      5  C5  I4B d   1      -5.998   4.768   3.706  0.00  0.00     0.002 A 
ATOM      6  C6  I4B d   1      -5.897   4.080   2.488  0.00  0.00     0.003 A 
ENDROOT
BRANCH   1   7
ATOM      7  C1' I4B d   1      -4.537   3.310   0.525  0.00  0.00     0.060 C 
BRANCH   7   8
ATOM      8  C2' I4B d   1      -4.400   1.819   0.757  0.00  0.00    -0.013 C 
ATOM      9  C4' I4B d   1      -5.111   1.033  -0.314  0.00  0.00     0.013 C 
ATOM     10  C3' I4B d   1      -2.938   1.488   0.790  0.00  0.00     0.013 C 
ENDBRANCH   7   8
ENDBRANCH   1   7
TORSDOF 2
ENDMDL
