MODEL 1
REMARK minimizedAffinity 18.3486938
REMARK minimizedRMSD -1
REMARK  2 active torsions:
REMARK  status: ('A' for Active; 'I' for Inactive)
REMARK    1  A    between atoms: C2'_3  and  C1'_4 
REMARK    2  A    between atoms: C1'_4  and  C1_5 
ROOT
ATOM      1  C1  I4B d   1      -3.665   1.526  -0.336  0.00  0.00    -0.075 A 
ATOM      2  C2  I4B d   1      -3.725   1.202   0.996  0.00  0.00     0.003 A 
ATOM      3  C3  I4B d   1      -3.583   2.208   1.982  0.00  0.00     0.002 A 
ATOM      4  C4  I4B d   1      -3.334   3.509   1.594  0.00  0.00    -0.004 A 
ATOM      5  C5  I4B d   1      -3.296   3.840   0.242  0.00  0.00     0.002 A 
ATOM      6  C6  I4B d   1      -3.475   2.845  -0.729  0.00  0.00     0.003 A 
ENDROOT
BRANCH   1   7
ATOM      7  C1' I4B d   1      -3.785   0.433  -1.350  0.00  0.00     0.060 C 
BRANCH   7   8
ATOM      8  C2' I4B d   1      -5.253   0.079  -1.482  0.00  0.00    -0.013 C 
ATOM      9  C4' I4B d   1      -5.999   0.364  -0.206  0.00  0.00     0.013 C 
ATOM     10  C3' I4B d   1      -5.818   0.865  -2.627  0.00  0.00     0.013 C 
ENDBRANCH   7   8
ENDBRANCH   1   7
TORSDOF 2
ENDMDL
