MODEL 1
REMARK minimizedAffinity 15.5395346
REMARK minimizedRMSD -1
REMARK  2 active torsions:
REMARK  status: ('A' for Active; 'I' for Inactive)
REMARK    1  A    between atoms: C2'_3  and  C1'_4 
REMARK    2  A    between atoms: C1'_4  and  C1_5 
ROOT
ATOM      1  C1  I4B d   1       2.480  -0.647  -0.750  0.00  0.00    -0.075 A 
ATOM      2  C2  I4B d   1       2.962   0.317  -1.601  0.00  0.00     0.003 A 
ATOM      3  C3  I4B d   1       3.314   1.595  -1.104  0.00  0.00     0.002 A 
ATOM      4  C4  I4B d   1       3.122   1.881   0.233  0.00  0.00    -0.004 A 
ATOM      5  C5  I4B d   1       2.656   0.895   1.098  0.00  0.00     0.002 A 
ATOM      6  C6  I4B d   1       2.344  -0.380   0.606  0.00  0.00     0.003 A 
ENDROOT
BRANCH   1   7
ATOM      7  C1' I4B d   1       2.087  -1.975  -1.315  0.00  0.00     0.060 C 
BRANCH   7   8
ATOM      8  C2' I4B d   1       2.040  -1.845  -2.824  0.00  0.00    -0.013 C 
ATOM      9  C4' I4B d   1       2.872  -2.910  -3.489  0.00  0.00     0.013 C 
ATOM     10  C3' I4B d   1       0.605  -1.933  -3.251  0.00  0.00     0.013 C 
ENDBRANCH   7   8
ENDBRANCH   1   7
TORSDOF 2
ENDMDL
