MODEL 1
REMARK minimizedAffinity 12.983222
REMARK minimizedRMSD -1
REMARK  2 active torsions:
REMARK  status: ('A' for Active; 'I' for Inactive)
REMARK    1  A    between atoms: C2'_3  and  C1'_4 
REMARK    2  A    between atoms: C1'_4  and  C1_5 
ROOT
ATOM      1  C1  I4B d   1      -5.383   2.247  -1.925  0.00  0.00    -0.075 A 
ATOM      2  C2  I4B d   1      -5.929   2.534  -3.152  0.00  0.00     0.003 A 
ATOM      3  C3  I4B d   1      -5.998   3.873  -3.606  0.00  0.00     0.002 A 
ATOM      4  C4  I4B d   1      -5.560   4.892  -2.785  0.00  0.00    -0.004 A 
ATOM      5  C5  I4B d   1      -4.987   4.598  -1.552  0.00  0.00     0.002 A 
ATOM      6  C6  I4B d   1      -4.886   3.267  -1.123  0.00  0.00     0.003 A 
ENDROOT
BRANCH   1   7
ATOM      7  C1' I4B d   1      -5.356   0.825  -1.463  0.00  0.00     0.060 C 
BRANCH   7   8
ATOM      8  C2' I4B d   1      -4.114   0.633  -0.616  0.00  0.00    -0.013 C 
ATOM      9  C4' I4B d   1      -4.462   0.513   0.844  0.00  0.00     0.013 C 
ATOM     10  C3' I4B d   1      -3.405  -0.594  -1.106  0.00  0.00     0.013 C 
ENDBRANCH   7   8
ENDBRANCH   1   7
TORSDOF 2
ENDMDL
