MODEL 1
REMARK minimizedAffinity 14.2364464
REMARK minimizedRMSD -1
REMARK  2 active torsions:
REMARK  status: ('A' for Active; 'I' for Inactive)
REMARK    1  A    between atoms: C2'_3  and  C1'_4 
REMARK    2  A    between atoms: C1'_4  and  C1_5 
ROOT
ATOM      1  C1  I4B d   1      -5.578  -2.107  -0.269  0.00  0.00    -0.075 A 
ATOM      2  C2  I4B d   1      -6.000  -1.596   0.934  0.00  0.00     0.003 A 
ATOM      3  C3  I4B d   1      -5.648  -2.240   2.144  0.00  0.00     0.002 A 
ATOM      4  C4  I4B d   1      -4.920  -3.412   2.104  0.00  0.00    -0.004 A 
ATOM      5  C5  I4B d   1      -4.474  -3.916   0.886  0.00  0.00     0.002 A 
ATOM      6  C6  I4B d   1      -4.794  -3.253  -0.308  0.00  0.00     0.003 A 
ENDROOT
BRANCH   1   7
ATOM      7  C1' I4B d   1      -5.996  -1.419  -1.530  0.00  0.00     0.060 C 
BRANCH   7   8
ATOM      8  C2' I4B d   1      -5.167  -1.983  -2.666  0.00  0.00    -0.013 C 
ATOM      9  C4' I4B d   1      -5.999  -2.856  -3.567  0.00  0.00     0.013 C 
ATOM     10  C3' I4B d   1      -4.574  -0.832  -3.422  0.00  0.00     0.013 C 
ENDBRANCH   7   8
ENDBRANCH   1   7
TORSDOF 2
ENDMDL
