MODEL 1
REMARK minimizedAffinity 22.0627251
REMARK minimizedRMSD -1
REMARK  2 active torsions:
REMARK  status: ('A' for Active; 'I' for Inactive)
REMARK    1  A    between atoms: C2'_3  and  C1'_4 
REMARK    2  A    between atoms: C1'_4  and  C1_5 
ROOT
ATOM      1  C1  I4B d   1       3.250   3.092  -5.519  0.00  0.00    -0.075 A 
ATOM      2  C2  I4B d   1       2.423   4.078  -5.995  0.00  0.00     0.003 A 
ATOM      3  C3  I4B d   1       2.565   5.410  -5.537  0.00  0.00     0.002 A 
ATOM      4  C4  I4B d   1       3.507   5.700  -4.571  0.00  0.00    -0.004 A 
ATOM      5  C5  I4B d   1       4.361   4.703  -4.107  0.00  0.00     0.002 A 
ATOM      6  C6  I4B d   1       4.240   3.393  -4.592  0.00  0.00     0.003 A 
ENDROOT
BRANCH   1   7
ATOM      7  C1' I4B d   1       3.051   1.689  -6.000  0.00  0.00     0.060 C 
BRANCH   7   8
ATOM      8  C2' I4B d   1       1.932   1.071  -5.186  0.00  0.00    -0.013 C 
ATOM      9  C4' I4B d   1       0.671   0.947  -6.000  0.00  0.00     0.013 C 
ATOM     10  C3' I4B d   1       2.398  -0.269  -4.702  0.00  0.00     0.013 C 
ENDBRANCH   7   8
ENDBRANCH   1   7
TORSDOF 2
ENDMDL
