MODEL 1
REMARK minimizedAffinity 17.3629093
REMARK minimizedRMSD -1
REMARK  2 active torsions:
REMARK  status: ('A' for Active; 'I' for Inactive)
REMARK    1  A    between atoms: C2'_3  and  C1'_4 
REMARK    2  A    between atoms: C1'_4  and  C1_5 
ROOT
ATOM      1  C1  I4B d   1      -2.372  -3.386  -5.890  0.00  0.00    -0.075 A 
ATOM      2  C2  I4B d   1      -3.469  -2.575  -5.735  0.00  0.00     0.003 A 
ATOM      3  C3  I4B d   1      -4.769  -3.135  -5.696  0.00  0.00     0.002 A 
ATOM      4  C4  I4B d   1      -4.929  -4.496  -5.866  0.00  0.00    -0.004 A 
ATOM      5  C5  I4B d   1      -3.814  -5.318  -5.999  0.00  0.00     0.002 A 
ATOM      6  C6  I4B d   1      -2.526  -4.762  -6.000  0.00  0.00     0.003 A 
ENDROOT
BRANCH   1   7
ATOM      7  C1' I4B d   1      -1.016  -2.757  -5.960  0.00  0.00     0.060 C 
BRANCH   7   8
ATOM      8  C2' I4B d   1      -0.954  -1.665  -4.912  0.00  0.00    -0.013 C 
ATOM      9  C4' I4B d   1       0.213  -1.868  -3.982  0.00  0.00     0.013 C 
ATOM     10  C3' I4B d   1      -0.857  -0.348  -5.622  0.00  0.00     0.013 C 
ENDBRANCH   7   8
ENDBRANCH   1   7
TORSDOF 2
ENDMDL
