MODEL 1
REMARK minimizedAffinity 8.54030704
REMARK minimizedRMSD -1
REMARK  2 active torsions:
REMARK  status: ('A' for Active; 'I' for Inactive)
REMARK    1  A    between atoms: C2'_3  and  C1'_4 
REMARK    2  A    between atoms: C1'_4  and  C1_5 
ROOT
ATOM      1  C1  I4B d   1      -5.959  -3.038  -2.458  0.00  0.00    -0.075 A 
ATOM      2  C2  I4B d   1      -5.977  -3.902  -3.525  0.00  0.00     0.003 A 
ATOM      3  C3  I4B d   1      -5.971  -3.399  -4.849  0.00  0.00     0.002 A 
ATOM      4  C4  I4B d   1      -5.998  -2.035  -5.058  0.00  0.00    -0.004 A 
ATOM      5  C5  I4B d   1      -5.956  -1.161  -3.975  0.00  0.00     0.002 A 
ATOM      6  C6  I4B d   1      -5.924  -1.666  -2.667  0.00  0.00     0.003 A 
ENDROOT
BRANCH   1   7
ATOM      7  C1' I4B d   1      -5.999  -3.603  -1.074  0.00  0.00     0.060 C 
BRANCH   7   8
ATOM      8  C2' I4B d   1      -4.862  -2.986  -0.285  0.00  0.00    -0.013 C 
ATOM      9  C4' I4B d   1      -5.376  -2.239   0.918  0.00  0.00     0.013 C 
ATOM     10  C3' I4B d   1      -3.929  -4.088   0.121  0.00  0.00     0.013 C 
ENDBRANCH   7   8
ENDBRANCH   1   7
TORSDOF 2
ENDMDL
