MODEL 1
REMARK minimizedAffinity 9.52802277
REMARK minimizedRMSD -1
REMARK  2 active torsions:
REMARK  status: ('A' for Active; 'I' for Inactive)
REMARK    1  A    between atoms: C2'_3  and  C1'_4 
REMARK    2  A    between atoms: C1'_4  and  C1_5 
ROOT
ATOM      1  C1  I4B d   1      -5.552  -2.074  -3.440  0.00  0.00    -0.075 A 
ATOM      2  C2  I4B d   1      -5.996  -2.764  -2.339  0.00  0.00     0.003 A 
ATOM      3  C3  I4B d   1      -5.591  -2.370  -1.041  0.00  0.00     0.002 A 
ATOM      4  C4  I4B d   1      -4.708  -1.321  -0.893  0.00  0.00    -0.004 A 
ATOM      5  C5  I4B d   1      -4.276  -0.609  -2.008  0.00  0.00     0.002 A 
ATOM      6  C6  I4B d   1      -4.710  -0.979  -3.289  0.00  0.00     0.003 A 
ENDROOT
BRANCH   1   7
ATOM      7  C1' I4B d   1      -5.972  -2.537  -4.799  0.00  0.00     0.060 C 
BRANCH   7   8
ATOM      8  C2' I4B d   1      -5.144  -3.755  -5.154  0.00  0.00    -0.013 C 
ATOM      9  C4' I4B d   1      -5.937  -4.730  -5.984  0.00  0.00     0.013 C 
ATOM     10  C3' I4B d   1      -3.923  -3.287  -5.888  0.00  0.00     0.013 C 
ENDBRANCH   7   8
ENDBRANCH   1   7
TORSDOF 2
ENDMDL
