MODEL 1
REMARK minimizedAffinity 4.97592974
REMARK minimizedRMSD -1
REMARK  2 active torsions:
REMARK  status: ('A' for Active; 'I' for Inactive)
REMARK    1  A    between atoms: C2'_3  and  C1'_4 
REMARK    2  A    between atoms: C1'_4  and  C1_5 
ROOT
ATOM      1  C1  I4B d   1      -5.400  -2.588  -3.645  0.00  0.00    -0.075 A 
ATOM      2  C2  I4B d   1      -4.998  -1.282  -3.771  0.00  0.00     0.003 A 
ATOM      3  C3  I4B d   1      -4.398  -0.834  -4.973  0.00  0.00     0.002 A 
ATOM      4  C4  I4B d   1      -4.174  -1.732  -5.997  0.00  0.00    -0.004 A 
ATOM      5  C5  I4B d   1      -4.603  -3.050  -5.875  0.00  0.00     0.002 A 
ATOM      6  C6  I4B d   1      -5.231  -3.479  -4.697  0.00  0.00     0.003 A 
ENDROOT
BRANCH   1   7
ATOM      7  C1' I4B d   1      -6.000  -3.035  -2.349  0.00  0.00     0.060 C 
BRANCH   7   8
ATOM      8  C2' I4B d   1      -5.088  -2.577  -1.230  0.00  0.00    -0.013 C 
ATOM      9  C4' I4B d   1      -5.876  -1.981  -0.093  0.00  0.00     0.013 C 
ATOM     10  C3' I4B d   1      -4.287  -3.760  -0.772  0.00  0.00     0.013 C 
ENDBRANCH   7   8
ENDBRANCH   1   7
TORSDOF 2
ENDMDL
