MODEL 1
REMARK minimizedAffinity 16.0830898
REMARK minimizedRMSD -1
REMARK  2 active torsions:
REMARK  status: ('A' for Active; 'I' for Inactive)
REMARK    1  A    between atoms: C2'_3  and  C1'_4 
REMARK    2  A    between atoms: C1'_4  and  C1_5 
ROOT
ATOM      1  C1  I4B d   1       1.085  -0.601  -4.380  0.00  0.00    -0.075 A 
ATOM      2  C2  I4B d   1       2.395  -0.259  -4.608  0.00  0.00     0.003 A 
ATOM      3  C3  I4B d   1       3.154   0.370  -3.592  0.00  0.00     0.002 A 
ATOM      4  C4  I4B d   1       2.554   0.681  -2.389  0.00  0.00    -0.004 A 
ATOM      5  C5  I4B d   1       1.233   0.313  -2.152  0.00  0.00     0.002 A 
ATOM      6  C6  I4B d   1       0.497  -0.343  -3.149  0.00  0.00     0.003 A 
ENDROOT
BRANCH   1   7
ATOM      7  C1' I4B d   1       0.302  -1.234  -5.487  0.00  0.00     0.060 C 
BRANCH   7   8
ATOM      8  C2' I4B d   1      -1.169  -1.001  -5.210  0.00  0.00    -0.013 C 
ATOM      9  C4' I4B d   1      -1.669   0.231  -5.918  0.00  0.00     0.013 C 
ATOM     10  C3' I4B d   1      -1.921  -2.221  -5.650  0.00  0.00     0.013 C 
ENDBRANCH   7   8
ENDBRANCH   1   7
TORSDOF 2
ENDMDL
