MODEL 1
REMARK minimizedAffinity 14.7855959
REMARK minimizedRMSD -1
REMARK  2 active torsions:
REMARK  status: ('A' for Active; 'I' for Inactive)
REMARK    1  A    between atoms: C2'_3  and  C1'_4 
REMARK    2  A    between atoms: C1'_4  and  C1_5 
ROOT
ATOM      1  C1  I4B d   1      -1.639  -0.625   2.525  0.00  0.00    -0.075 A 
ATOM      2  C2  I4B d   1      -2.855  -0.312   3.081  0.00  0.00     0.003 A 
ATOM      3  C3  I4B d   1      -3.132  -0.654   4.427  0.00  0.00     0.002 A 
ATOM      4  C4  I4B d   1      -2.191  -1.349   5.160  0.00  0.00    -0.004 A 
ATOM      5  C5  I4B d   1      -0.951  -1.645   4.601  0.00  0.00     0.002 A 
ATOM      6  C6  I4B d   1      -0.668  -1.270   3.280  0.00  0.00     0.003 A 
ENDROOT
BRANCH   1   7
ATOM      7  C1' I4B d   1      -1.392  -0.278   1.092  0.00  0.00     0.060 C 
BRANCH   7   8
ATOM      8  C2' I4B d   1      -1.345   1.232   0.978  0.00  0.00    -0.013 C 
ATOM      9  C4' I4B d   1      -2.732   1.818   0.922  0.00  0.00     0.013 C 
ATOM     10  C3' I4B d   1      -0.581   1.762   2.155  0.00  0.00     0.013 C 
ENDBRANCH   7   8
ENDBRANCH   1   7
TORSDOF 2
ENDMDL
