MODEL 1
REMARK minimizedAffinity 3.77098656
REMARK minimizedRMSD -1
REMARK  2 active torsions:
REMARK  status: ('A' for Active; 'I' for Inactive)
REMARK    1  A    between atoms: C2'_3  and  C1'_4 
REMARK    2  A    between atoms: C1'_4  and  C1_5 
ROOT
ATOM      1  C1  I4B d   1      -3.094   1.444   1.710  0.00  0.00    -0.075 A 
ATOM      2  C2  I4B d   1      -1.762   1.775   1.739  0.00  0.00     0.003 A 
ATOM      3  C3  I4B d   1      -0.823   0.899   2.335  0.00  0.00     0.002 A 
ATOM      4  C4  I4B d   1      -1.263  -0.266   2.931  0.00  0.00    -0.004 A 
ATOM      5  C5  I4B d   1      -2.610  -0.611   2.880  0.00  0.00     0.002 A 
ATOM      6  C6  I4B d   1      -3.530   0.244   2.255  0.00  0.00     0.003 A 
ENDROOT
BRANCH   1   7
ATOM      7  C1' I4B d   1      -4.063   2.408   1.102  0.00  0.00     0.060 C 
BRANCH   7   8
ATOM      8  C2' I4B d   1      -4.572   3.316   2.203  0.00  0.00    -0.013 C 
ATOM      9  C4' I4B d   1      -3.504   4.276   2.656  0.00  0.00     0.013 C 
ATOM     10  C3' I4B d   1      -5.773   4.047   1.683  0.00  0.00     0.013 C 
ENDBRANCH   7   8
ENDBRANCH   1   7
TORSDOF 2
ENDMDL
