MODEL 1
REMARK minimizedAffinity 8.64795303
REMARK minimizedRMSD -1
REMARK  2 active torsions:
REMARK  status: ('A' for Active; 'I' for Inactive)
REMARK    1  A    between atoms: C2'_3  and  C1'_4 
REMARK    2  A    between atoms: C1'_4  and  C1_5 
ROOT
ATOM      1  C1  I4B d   1      -4.519   0.153   1.432  0.00  0.00    -0.075 A 
ATOM      2  C2  I4B d   1      -3.325  -0.519   1.509  0.00  0.00     0.003 A 
ATOM      3  C3  I4B d   1      -2.115   0.194   1.687  0.00  0.00     0.002 A 
ATOM      4  C4  I4B d   1      -2.140   1.573   1.732  0.00  0.00    -0.004 A 
ATOM      5  C5  I4B d   1      -3.353   2.252   1.677  0.00  0.00     0.002 A 
ATOM      6  C6  I4B d   1      -4.552   1.538   1.538  0.00  0.00     0.003 A 
ENDROOT
BRANCH   1   7
ATOM      7  C1' I4B d   1      -5.774  -0.629   1.211  0.00  0.00     0.060 C 
BRANCH   7   8
ATOM      8  C2' I4B d   1      -5.403  -1.918   0.506  0.00  0.00    -0.013 C 
ATOM      9  C4' I4B d   1      -5.918  -3.118   1.257  0.00  0.00     0.013 C 
ATOM     10  C3' I4B d   1      -5.966  -1.865  -0.883  0.00  0.00     0.013 C 
ENDBRANCH   7   8
ENDBRANCH   1   7
TORSDOF 2
ENDMDL
