MODEL 1
REMARK minimizedAffinity 13.0087614
REMARK minimizedRMSD -1
REMARK  2 active torsions:
REMARK  status: ('A' for Active; 'I' for Inactive)
REMARK    1  A    between atoms: C2'_3  and  C1'_4 
REMARK    2  A    between atoms: C1'_4  and  C1_5 
ROOT
ATOM      1  C1  I4B d   1      -5.654  -2.863  -2.935  0.00  0.00    -0.075 A 
ATOM      2  C2  I4B d   1      -5.104  -4.014  -2.427  0.00  0.00     0.003 A 
ATOM      3  C3  I4B d   1      -4.767  -4.097  -1.054  0.00  0.00     0.002 A 
ATOM      4  C4  I4B d   1      -4.949  -2.997  -0.242  0.00  0.00    -0.004 A 
ATOM      5  C5  I4B d   1      -5.529  -1.839  -0.753  0.00  0.00     0.002 A 
ATOM      6  C6  I4B d   1      -5.895  -1.776  -2.106  0.00  0.00     0.003 A 
ENDROOT
BRANCH   1   7
ATOM      7  C1' I4B d   1      -5.968  -2.798  -4.396  0.00  0.00     0.060 C 
BRANCH   7   8
ATOM      8  C2' I4B d   1      -5.087  -3.805  -5.108  0.00  0.00    -0.013 C 
ATOM      9  C4' I4B d   1      -5.899  -4.706  -6.000  0.00  0.00     0.013 C 
ATOM     10  C3' I4B d   1      -4.060  -3.047  -5.895  0.00  0.00     0.013 C 
ENDBRANCH   7   8
ENDBRANCH   1   7
TORSDOF 2
ENDMDL
