MODEL 1
REMARK minimizedAffinity 2.45625162
REMARK minimizedRMSD -1
REMARK  2 active torsions:
REMARK  status: ('A' for Active; 'I' for Inactive)
REMARK    1  A    between atoms: C2'_3  and  C1'_4 
REMARK    2  A    between atoms: C1'_4  and  C1_5 
ROOT
ATOM      1  C1  I4B d   1      -1.514   0.887   1.465  0.00  0.00    -0.075 A 
ATOM      2  C2  I4B d   1      -1.976  -0.022   0.546  0.00  0.00     0.003 A 
ATOM      3  C3  I4B d   1      -3.357  -0.327   0.477  0.00  0.00     0.002 A 
ATOM      4  C4  I4B d   1      -4.228   0.259   1.373  0.00  0.00    -0.004 A 
ATOM      5  C5  I4B d   1      -3.761   1.197   2.289  0.00  0.00     0.002 A 
ATOM      6  C6  I4B d   1      -2.398   1.523   2.327  0.00  0.00     0.003 A 
ENDROOT
BRANCH   1   7
ATOM      7  C1' I4B d   1      -0.045   1.161   1.532  0.00  0.00     0.060 C 
BRANCH   7   8
ATOM      8  C2' I4B d   1       0.515   0.413   2.725  0.00  0.00    -0.013 C 
ATOM      9  C4' I4B d   1      -0.122  -0.945   2.865  0.00  0.00     0.013 C 
ATOM     10  C3' I4B d   1       1.999   0.299   2.544  0.00  0.00     0.013 C 
ENDBRANCH   7   8
ENDBRANCH   1   7
TORSDOF 2
ENDMDL
