MODEL 1
REMARK minimizedAffinity 8.71652317
REMARK minimizedRMSD -1
REMARK  2 active torsions:
REMARK  status: ('A' for Active; 'I' for Inactive)
REMARK    1  A    between atoms: C2'_3  and  C1'_4 
REMARK    2  A    between atoms: C1'_4  and  C1_5 
ROOT
ATOM      1  C1  I4B d   1       0.762   0.733  -2.790  0.00  0.00    -0.075 A 
ATOM      2  C2  I4B d   1      -0.151   0.123  -3.614  0.00  0.00     0.003 A 
ATOM      3  C3  I4B d   1      -1.472   0.625  -3.711  0.00  0.00     0.002 A 
ATOM      4  C4  I4B d   1      -1.848   1.701  -2.932  0.00  0.00    -0.004 A 
ATOM      5  C5  I4B d   1      -0.915   2.332  -2.115  0.00  0.00     0.002 A 
ATOM      6  C6  I4B d   1       0.402   1.853  -2.052  0.00  0.00     0.003 A 
ENDROOT
BRANCH   1   7
ATOM      7  C1' I4B d   1       2.138   0.156  -2.688  0.00  0.00     0.060 C 
BRANCH   7   8
ATOM      8  C2' I4B d   1       2.519  -0.387  -4.050  0.00  0.00    -0.013 C 
ATOM      9  C4' I4B d   1       3.754   0.290  -4.582  0.00  0.00     0.013 C 
ATOM     10  C3' I4B d   1       2.727  -1.866  -3.916  0.00  0.00     0.013 C 
ENDBRANCH   7   8
ENDBRANCH   1   7
TORSDOF 2
ENDMDL
