MODEL 1
REMARK minimizedAffinity 12.4928665
REMARK minimizedRMSD -1
REMARK  2 active torsions:
REMARK  status: ('A' for Active; 'I' for Inactive)
REMARK    1  A    between atoms: C2'_3  and  C1'_4 
REMARK    2  A    between atoms: C1'_4  and  C1_5 
ROOT
ATOM      1  C1  I4B d   1       4.477   0.915  -4.739  0.00  0.00    -0.075 A 
ATOM      2  C2  I4B d   1       4.158   1.763  -5.770  0.00  0.00     0.003 A 
ATOM      3  C3  I4B d   1       4.774   3.034  -5.865  0.00  0.00     0.002 A 
ATOM      4  C4  I4B d   1       5.660   3.435  -4.886  0.00  0.00    -0.004 A 
ATOM      5  C5  I4B d   1       6.000   2.565  -3.854  0.00  0.00     0.002 A 
ATOM      6  C6  I4B d   1       5.414   1.293  -3.786  0.00  0.00     0.003 A 
ENDROOT
BRANCH   1   7
ATOM      7  C1' I4B d   1       3.783  -0.407  -4.651  0.00  0.00     0.060 C 
BRANCH   7   8
ATOM      8  C2' I4B d   1       2.730  -0.310  -3.566  0.00  0.00    -0.013 C 
ATOM      9  C4' I4B d   1       1.343  -0.303  -4.152  0.00  0.00     0.013 C 
ATOM     10  C3' I4B d   1       2.918  -1.469  -2.634  0.00  0.00     0.013 C 
ENDBRANCH   7   8
ENDBRANCH   1   7
TORSDOF 2
ENDMDL
