MODEL 1
REMARK minimizedAffinity 9.49171352
REMARK minimizedRMSD -1
REMARK  2 active torsions:
REMARK  status: ('A' for Active; 'I' for Inactive)
REMARK    1  A    between atoms: C2'_3  and  C1'_4 
REMARK    2  A    between atoms: C1'_4  and  C1_5 
ROOT
ATOM      1  C1  I4B d   1      -2.291   0.250   1.885  0.00  0.00    -0.075 A 
ATOM      2  C2  I4B d   1      -1.766   1.443   1.453  0.00  0.00     0.003 A 
ATOM      3  C3  I4B d   1      -0.390   1.722   1.630  0.00  0.00     0.002 A 
ATOM      4  C4  I4B d   1       0.410   0.809   2.286  0.00  0.00    -0.004 A 
ATOM      5  C5  I4B d   1      -0.118  -0.409   2.704  0.00  0.00     0.002 A 
ATOM      6  C6  I4B d   1      -1.474  -0.696   2.491  0.00  0.00     0.003 A 
ENDROOT
BRANCH   1   7
ATOM      7  C1' I4B d   1      -3.755   0.001   1.711  0.00  0.00     0.060 C 
BRANCH   7   8
ATOM      8  C2' I4B d   1      -4.475   0.595   2.905  0.00  0.00    -0.013 C 
ATOM      9  C4' I4B d   1      -5.950   0.297   2.856  0.00  0.00     0.013 C 
ATOM     10  C3' I4B d   1      -3.850   0.035   4.148  0.00  0.00     0.013 C 
ENDBRANCH   7   8
ENDBRANCH   1   7
TORSDOF 2
ENDMDL
