MODEL 1
REMARK minimizedAffinity 7.31804943
REMARK minimizedRMSD -1
REMARK  2 active torsions:
REMARK  status: ('A' for Active; 'I' for Inactive)
REMARK    1  A    between atoms: C2'_3  and  C1'_4 
REMARK    2  A    between atoms: C1'_4  and  C1_5 
ROOT
ATOM      1  C1  I4B d   1       1.221   0.230  -4.562  0.00  0.00    -0.075 A 
ATOM      2  C2  I4B d   1       2.360   0.574  -3.879  0.00  0.00     0.003 A 
ATOM      3  C3  I4B d   1       3.404  -0.368  -3.712  0.00  0.00     0.002 A 
ATOM      4  C4  I4B d   1       3.245  -1.650  -4.199  0.00  0.00    -0.004 A 
ATOM      5  C5  I4B d   1       2.099  -1.990  -4.911  0.00  0.00     0.002 A 
ATOM      6  C6  I4B d   1       1.085  -1.041  -5.105  0.00  0.00     0.003 A 
ENDROOT
BRANCH   1   7
ATOM      7  C1' I4B d   1       0.125   1.240  -4.691  0.00  0.00     0.060 C 
BRANCH   7   8
ATOM      8  C2' I4B d   1      -0.992   0.840  -3.748  0.00  0.00    -0.013 C 
ATOM      9  C4' I4B d   1      -1.322   1.955  -2.790  0.00  0.00     0.013 C 
ATOM     10  C3' I4B d   1      -2.185   0.466  -4.575  0.00  0.00     0.013 C 
ENDBRANCH   7   8
ENDBRANCH   1   7
TORSDOF 2
ENDMDL
