MODEL 1
REMARK minimizedAffinity 0.568406761
REMARK minimizedRMSD -1
REMARK  0 active torsions:
REMARK  status: ('A' for Active; 'I' for Inactive)
ROOT
ATOM      1  O1  BZF d   1       0.478   3.092  -0.436  0.00  0.00    -0.204 OA
ATOM      2  C2  BZF d   1       0.936   4.025   0.474  0.00  0.00     0.174 A 
ATOM      3  C3  BZF d   1       1.076   3.473   1.696  0.00  0.00    -0.012 A 
ATOM      4  C3A BZF d   1       0.769   2.086   1.520  0.00  0.00    -0.107 A 
ATOM      5  C4  BZF d   1       0.747   1.015   2.366  0.00  0.00     0.055 A 
ATOM      6  C5  BZF d   1       0.333  -0.191   1.895  0.00  0.00    -0.016 A 
ATOM      7  C6  BZF d   1      -0.070  -0.359   0.586  0.00  0.00     0.022 A 
ATOM      8  C7  BZF d   1      -0.060   0.674  -0.292  0.00  0.00     0.029 A 
ATOM      9  C7A BZF d   1       0.389   1.885   0.173  0.00  0.00     0.058 A 
ENDROOT
TORSDOF 0
ENDMDL
