MODEL 1
REMARK minimizedAffinity -5.12943888
REMARK minimizedRMSD -1
REMARK  0 active torsions:
REMARK  status: ('A' for Active; 'I' for Inactive)
ROOT
ATOM      1  O1  BZF d   1      -2.175   3.389   3.030  0.00  0.00    -0.204 OA
ATOM      2  C2  BZF d   1      -2.638   4.551   2.443  0.00  0.00     0.174 A 
ATOM      3  C3  BZF d   1      -2.118   4.703   1.208  0.00  0.00    -0.012 A 
ATOM      4  C3A BZF d   1      -1.350   3.519   0.975  0.00  0.00    -0.107 A 
ATOM      5  C4  BZF d   1      -0.607   3.075  -0.081  0.00  0.00     0.055 A 
ATOM      6  C5  BZF d   1       0.078   1.907   0.038  0.00  0.00    -0.016 A 
ATOM      7  C6  BZF d   1       0.047   1.162   1.198  0.00  0.00     0.022 A 
ATOM      8  C7  BZF d   1      -0.680   1.559   2.271  0.00  0.00     0.029 A 
ATOM      9  C7A BZF d   1      -1.400   2.722   2.142  0.00  0.00     0.058 A 
ENDROOT
TORSDOF 0
ENDMDL
