MODEL 1
REMARK minimizedAffinity 3.73456693
REMARK minimizedRMSD -1
REMARK  0 active torsions:
REMARK  status: ('A' for Active; 'I' for Inactive)
ROOT
ATOM      1  O1  BZF d   1       0.699   0.377  -1.115  0.00  0.00    -0.204 OA
ATOM      2  C2  BZF d   1       1.807  -0.399  -0.836  0.00  0.00     0.174 A 
ATOM      3  C3  BZF d   1       2.144  -0.301   0.466  0.00  0.00    -0.012 A 
ATOM      4  C3A BZF d   1       1.131   0.519   1.056  0.00  0.00    -0.107 A 
ATOM      5  C4  BZF d   1       0.906   0.965   2.327  0.00  0.00     0.055 A 
ATOM      6  C5  BZF d   1      -0.133   1.812   2.556  0.00  0.00    -0.016 A 
ATOM      7  C6  BZF d   1      -0.962   2.236   1.538  0.00  0.00     0.022 A 
ATOM      8  C7  BZF d   1      -0.781   1.816   0.262  0.00  0.00     0.029 A 
ATOM      9  C7A BZF d   1       0.247   0.935   0.033  0.00  0.00     0.058 A 
ENDROOT
TORSDOF 0
ENDMDL
