MODEL 1
REMARK minimizedAffinity 2.27264142
REMARK minimizedRMSD -1
REMARK  0 active torsions:
REMARK  status: ('A' for Active; 'I' for Inactive)
ROOT
ATOM      1  O1  BZF d   1       1.809  -0.339  -0.596  0.00  0.00    -0.204 OA
ATOM      2  C2  BZF d   1       1.055  -0.615  -1.720  0.00  0.00     0.174 A 
ATOM      3  C3  BZF d   1      -0.117   0.051  -1.685  0.00  0.00    -0.012 A 
ATOM      4  C3A BZF d   1      -0.055   0.862  -0.508  0.00  0.00    -0.107 A 
ATOM      5  C4  BZF d   1      -0.913   1.759   0.061  0.00  0.00     0.055 A 
ATOM      6  C5  BZF d   1      -0.582   2.325   1.251  0.00  0.00    -0.016 A 
ATOM      7  C6  BZF d   1       0.593   2.014   1.902  0.00  0.00     0.022 A 
ATOM      8  C7  BZF d   1       1.478   1.133   1.375  0.00  0.00     0.029 A 
ATOM      9  C7A BZF d   1       1.163   0.584   0.156  0.00  0.00     0.058 A 
ENDROOT
TORSDOF 0
ENDMDL
