MODEL 1
REMARK minimizedAffinity 1.8408922
REMARK minimizedRMSD -1
REMARK  0 active torsions:
REMARK  status: ('A' for Active; 'I' for Inactive)
ROOT
ATOM      1  O1  BZF d   1      -0.816   2.358   3.425  0.00  0.00    -0.204 OA
ATOM      2  C2  BZF d   1      -0.394   1.050   3.278  0.00  0.00     0.174 A 
ATOM      3  C3  BZF d   1      -0.297   0.723   1.974  0.00  0.00    -0.012 A 
ATOM      4  C3A BZF d   1      -0.593   1.927   1.260  0.00  0.00    -0.107 A 
ATOM      5  C4  BZF d   1      -0.643   2.244  -0.067  0.00  0.00     0.055 A 
ATOM      6  C5  BZF d   1      -1.036   3.492  -0.434  0.00  0.00    -0.016 A 
ATOM      7  C6  BZF d   1      -1.390   4.445   0.498  0.00  0.00     0.022 A 
ATOM      8  C7  BZF d   1      -1.351   4.179   1.827  0.00  0.00     0.029 A 
ATOM      9  C7A BZF d   1      -0.923   2.929   2.202  0.00  0.00     0.058 A 
ENDROOT
TORSDOF 0
ENDMDL
