MODEL 1
REMARK minimizedAffinity -0.99617064
REMARK minimizedRMSD -1
REMARK  0 active torsions:
REMARK  status: ('A' for Active; 'I' for Inactive)
ROOT
ATOM      1  O1  BZF d   1      -0.593   0.783  -1.374  0.00  0.00    -0.204 OA
ATOM      2  C2  BZF d   1      -0.907   1.531  -2.492  0.00  0.00     0.174 A 
ATOM      3  C3  BZF d   1      -1.290   2.776  -2.142  0.00  0.00    -0.012 A 
ATOM      4  C3A BZF d   1      -1.123   2.836  -0.722  0.00  0.00    -0.107 A 
ATOM      5  C4  BZF d   1      -1.323   3.818   0.206  0.00  0.00     0.055 A 
ATOM      6  C5  BZF d   1      -1.135   3.532   1.521  0.00  0.00    -0.016 A 
ATOM      7  C6  BZF d   1      -0.752   2.275   1.943  0.00  0.00     0.022 A 
ATOM      8  C7  BZF d   1      -0.537   1.271   1.059  0.00  0.00     0.029 A 
ATOM      9  C7A BZF d   1      -0.694   1.566  -0.273  0.00  0.00     0.058 A 
ENDROOT
TORSDOF 0
ENDMDL
