MODEL 1
REMARK minimizedAffinity 6.03986883
REMARK minimizedRMSD -1
REMARK  0 active torsions:
REMARK  status: ('A' for Active; 'I' for Inactive)
ROOT
ATOM      1  O1  BZF d   1       0.031   1.194  -1.198  0.00  0.00    -0.204 OA
ATOM      2  C2  BZF d   1      -0.317   1.864  -2.355  0.00  0.00     0.174 A 
ATOM      3  C3  BZF d   1      -0.940   3.024  -2.067  0.00  0.00    -0.012 A 
ATOM      4  C3A BZF d   1      -0.904   3.127  -0.641  0.00  0.00    -0.107 A 
ATOM      5  C4  BZF d   1      -1.349   4.067   0.245  0.00  0.00     0.055 A 
ATOM      6  C5  BZF d   1      -1.222   3.832   1.577  0.00  0.00    -0.016 A 
ATOM      7  C6  BZF d   1      -0.661   2.667   2.058  0.00  0.00     0.022 A 
ATOM      8  C7  BZF d   1      -0.200   1.708   1.219  0.00  0.00     0.029 A 
ATOM      9  C7A BZF d   1      -0.297   1.957  -0.128  0.00  0.00     0.058 A 
ENDROOT
TORSDOF 0
ENDMDL
