MODEL 1
REMARK minimizedAffinity 0.43961823
REMARK minimizedRMSD -1
REMARK  0 active torsions:
REMARK  status: ('A' for Active; 'I' for Inactive)
ROOT
ATOM      1  O1  BZF d   1       0.425   2.472   3.199  0.00  0.00    -0.204 OA
ATOM      2  C2  BZF d   1       1.628   3.113   2.980  0.00  0.00     0.174 A 
ATOM      3  C3  BZF d   1       1.534   3.966   1.940  0.00  0.00    -0.012 A 
ATOM      4  C3A BZF d   1       0.161   3.919   1.538  0.00  0.00    -0.107 A 
ATOM      5  C4  BZF d   1      -0.555   4.558   0.567  0.00  0.00     0.055 A 
ATOM      6  C5  BZF d   1      -1.862   4.233   0.389  0.00  0.00    -0.016 A 
ATOM      7  C6  BZF d   1      -2.483   3.271   1.159  0.00  0.00     0.022 A 
ATOM      8  C7  BZF d   1      -1.815   2.614   2.138  0.00  0.00     0.029 A 
ATOM      9  C7A BZF d   1      -0.502   2.964   2.342  0.00  0.00     0.058 A 
ENDROOT
TORSDOF 0
ENDMDL
