MODEL 1
REMARK minimizedAffinity 5.51632452
REMARK minimizedRMSD -1
REMARK  0 active torsions:
REMARK  status: ('A' for Active; 'I' for Inactive)
ROOT
ATOM      1  O1  BZF d   1       6.000  -5.278  -2.491  0.00  0.00    -0.204 OA
ATOM      2  C2  BZF d   1       5.696  -4.345  -3.464  0.00  0.00     0.174 A 
ATOM      3  C3  BZF d   1       4.519  -3.743  -3.198  0.00  0.00    -0.012 A 
ATOM      4  C3A BZF d   1       4.103  -4.271  -1.935  0.00  0.00    -0.107 A 
ATOM      5  C4  BZF d   1       3.019  -4.049  -1.135  0.00  0.00     0.055 A 
ATOM      6  C5  BZF d   1       2.874  -4.781   0.001  0.00  0.00    -0.016 A 
ATOM      7  C6  BZF d   1       3.790  -5.746   0.364  0.00  0.00     0.022 A 
ATOM      8  C7  BZF d   1       4.884  -6.000  -0.395  0.00  0.00     0.029 A 
ATOM      9  C7A BZF d   1       5.050  -5.238  -1.526  0.00  0.00     0.058 A 
ENDROOT
TORSDOF 0
ENDMDL
