MODEL 1
REMARK minimizedAffinity 6.83732271
REMARK minimizedRMSD -1
REMARK  0 active torsions:
REMARK  status: ('A' for Active; 'I' for Inactive)
ROOT
ATOM      1  O1  BZF d   1       1.628  -0.840   0.370  0.00  0.00    -0.204 OA
ATOM      2  C2  BZF d   1       2.394  -1.499   1.313  0.00  0.00     0.174 A 
ATOM      3  C3  BZF d   1       2.089  -1.076   2.556  0.00  0.00    -0.012 A 
ATOM      4  C3A BZF d   1       1.005  -0.158   2.387  0.00  0.00    -0.107 A 
ATOM      5  C4  BZF d   1       0.257   0.583   3.257  0.00  0.00     0.055 A 
ATOM      6  C5  BZF d   1      -0.679   1.436   2.763  0.00  0.00    -0.016 A 
ATOM      7  C6  BZF d   1      -0.888   1.578   1.407  0.00  0.00     0.022 A 
ATOM      8  C7  BZF d   1      -0.174   0.861   0.505  0.00  0.00     0.029 A 
ATOM      9  C7A BZF d   1       0.749  -0.027   1.002  0.00  0.00     0.058 A 
ENDROOT
TORSDOF 0
ENDMDL
