MODEL 1
REMARK minimizedAffinity 17.3343925
REMARK minimizedRMSD -1
REMARK  1 active torsions:
REMARK  status: ('A' for Active; 'I' for Inactive)
REMARK    1  A    between atoms: C1_2  and  C2_3 
ROOT
ATOM      1  C2  UNL d   1       3.206   0.727  -1.499  0.00  0.00    -0.076 A 
ATOM      2  C3  UNL d   1       3.330   0.202  -2.797  0.00  0.00     0.004 A 
ATOM      3  C4  UNL d   1       2.985  -1.121  -3.072  0.00  0.00    -0.003 A 
ATOM      4  C5  UNL d   1       2.510  -1.939  -2.053  0.00  0.00     0.000 A 
ATOM      5  C6  UNL d   1       2.364  -1.429  -0.763  0.00  0.00     0.000 A 
ATOM      6  C7  UNL d   1       2.692  -0.094  -0.473  0.00  0.00    -0.073 A 
ATOM      7  C8  UNL d   1       2.521   0.402   0.937  0.00  0.00     0.078 C 
ENDROOT
BRANCH   1   8
ATOM      8  C1  UNL d   1       3.622   2.160  -1.256  0.00  0.00     0.053 C 
ATOM      9  C   UNL d   1       5.035   2.448  -1.740  0.00  0.00     0.018 C 
ENDBRANCH   1   8
TORSDOF 1
ENDMDL
