MODEL 1
REMARK minimizedAffinity 5.20494223
REMARK minimizedRMSD -1
REMARK  1 active torsions:
REMARK  status: ('A' for Active; 'I' for Inactive)
REMARK    1  A    between atoms: C1_2  and  C2_3 
ROOT
ATOM      1  C2  UNL d   1       1.668   0.481   0.173  0.00  0.00    -0.076 A 
ATOM      2  C3  UNL d   1       2.393   0.715   1.355  0.00  0.00     0.004 A 
ATOM      3  C4  UNL d   1       3.215  -0.271   1.900  0.00  0.00    -0.003 A 
ATOM      4  C5  UNL d   1       3.325  -1.506   1.271  0.00  0.00     0.000 A 
ATOM      5  C6  UNL d   1       2.627  -1.750   0.089  0.00  0.00     0.000 A 
ATOM      6  C7  UNL d   1       1.807  -0.761  -0.482  0.00  0.00    -0.073 A 
ATOM      7  C8  UNL d   1       1.072  -1.080  -1.755  0.00  0.00     0.078 C 
ENDROOT
BRANCH   1   8
ATOM      8  C1  UNL d   1       0.772   1.578  -0.356  0.00  0.00     0.053 C 
ATOM      9  C   UNL d   1       1.272   2.966   0.011  0.00  0.00     0.018 C 
ENDBRANCH   1   8
TORSDOF 1
ENDMDL
