MODEL 1
REMARK minimizedAffinity 5.05384207
REMARK minimizedRMSD -1
REMARK  1 active torsions:
REMARK  status: ('A' for Active; 'I' for Inactive)
REMARK    1  A    between atoms: C1_2  and  C2_3 
ROOT
ATOM      1  C2  UNL d   1      -5.547   2.536  -2.608  0.00  0.00    -0.076 A 
ATOM      2  C3  UNL d   1      -5.816   3.002  -1.310  0.00  0.00     0.004 A 
ATOM      3  C4  UNL d   1      -5.443   2.259  -0.190  0.00  0.00    -0.003 A 
ATOM      4  C5  UNL d   1      -4.796   1.040  -0.351  0.00  0.00     0.000 A 
ATOM      5  C6  UNL d   1      -4.506   0.570  -1.632  0.00  0.00     0.000 A 
ATOM      6  C7  UNL d   1      -4.860   1.314  -2.771  0.00  0.00    -0.073 A 
ATOM      7  C8  UNL d   1      -4.528   0.757  -4.128  0.00  0.00     0.078 C 
ENDROOT
BRANCH   1   8
ATOM      8  C1  UNL d   1      -5.999   3.371  -3.785  0.00  0.00     0.053 C 
ATOM      9  C   UNL d   1      -5.627   4.838  -3.636  0.00  0.00     0.018 C 
ENDBRANCH   1   8
TORSDOF 1
ENDMDL
