MODEL 1
REMARK minimizedAffinity -4.25947714
REMARK minimizedRMSD -1
REMARK  0 active torsions:
REMARK  status: ('A' for Active; 'I' for Inactive)
ROOT
ATOM      1  C   UNL d   1       0.141   0.974  -0.456  0.00  0.00     0.020 A 
ATOM      2  C1  UNL d   1       1.367   0.396  -0.786  0.00  0.00     0.020 A 
ATOM      3  C2  UNL d   1       1.706  -0.859  -0.277  0.00  0.00     0.034 A 
ATOM      4  C3  UNL d   1       0.819  -1.541   0.564  0.00  0.00     0.017 A 
ATOM      5  C4  UNL d   1      -0.411  -0.960   0.894  0.00  0.00     0.017 A 
ATOM      6  C5  UNL d   1      -0.746   0.297   0.382  0.00  0.00     0.034 A 
ATOM      7 Cl   UNL d   1      -1.557  -1.741   1.926  0.00  0.00    -0.070 Cl
ATOM      8 Cl1  UNL d   1       1.304  -3.090   1.157  0.00  0.00    -0.070 Cl
ENDROOT
TORSDOF 0
ENDMDL
