MODEL 1
REMARK minimizedAffinity -2.7042625
REMARK minimizedRMSD -1
REMARK  0 active torsions:
REMARK  status: ('A' for Active; 'I' for Inactive)
ROOT
ATOM      1  C   UNL d   1       1.454  -2.521   1.456  0.00  0.00     0.020 A 
ATOM      2  C1  UNL d   1       1.810  -2.001   0.212  0.00  0.00     0.020 A 
ATOM      3  C2  UNL d   1       1.053  -0.974  -0.357  0.00  0.00     0.034 A 
ATOM      4  C3  UNL d   1      -0.062  -0.465   0.317  0.00  0.00     0.017 A 
ATOM      5  C4  UNL d   1      -0.418  -0.988   1.566  0.00  0.00     0.017 A 
ATOM      6  C5  UNL d   1       0.343  -2.016   2.131  0.00  0.00     0.034 A 
ATOM      7 Cl   UNL d   1      -1.781  -0.411   2.458  0.00  0.00    -0.070 Cl
ATOM      8 Cl1  UNL d   1      -0.952   0.805  -0.445  0.00  0.00    -0.070 Cl
ENDROOT
TORSDOF 0
ENDMDL
