MODEL 1
REMARK minimizedAffinity -3.89541364
REMARK minimizedRMSD -1
REMARK  0 active torsions:
REMARK  status: ('A' for Active; 'I' for Inactive)
ROOT
ATOM      1  C   UNL d   1       0.221   0.756  -0.786  0.00  0.00     0.020 A 
ATOM      2  C1  UNL d   1       1.422   0.067  -0.949  0.00  0.00     0.020 A 
ATOM      3  C2  UNL d   1       1.785  -0.928  -0.039  0.00  0.00     0.034 A 
ATOM      4  C3  UNL d   1       0.947  -1.237   1.038  0.00  0.00     0.017 A 
ATOM      5  C4  UNL d   1      -0.259  -0.545   1.200  0.00  0.00     0.017 A 
ATOM      6  C5  UNL d   1      -0.617   0.451   0.286  0.00  0.00     0.034 A 
ATOM      7 Cl   UNL d   1      -1.346  -0.870   2.504  0.00  0.00    -0.070 Cl
ATOM      8 Cl1  UNL d   1       1.458  -2.479   2.124  0.00  0.00    -0.070 Cl
ENDROOT
TORSDOF 0
ENDMDL
