MODEL 1
REMARK minimizedAffinity -4.44714594
REMARK minimizedRMSD -1
REMARK  0 active torsions:
REMARK  status: ('A' for Active; 'I' for Inactive)
ROOT
ATOM      1  C   UNL d   1       1.393  -2.868   1.709  0.00  0.00     0.020 A 
ATOM      2  C1  UNL d   1       0.330  -2.281   2.395  0.00  0.00     0.020 A 
ATOM      3  C2  UNL d   1      -0.275  -1.128   1.890  0.00  0.00     0.034 A 
ATOM      4  C3  UNL d   1       0.182  -0.558   0.697  0.00  0.00     0.017 A 
ATOM      5  C4  UNL d   1       1.249  -1.148   0.008  0.00  0.00     0.017 A 
ATOM      6  C5  UNL d   1       1.851  -2.302   0.518  0.00  0.00     0.034 A 
ATOM      7 Cl   UNL d   1       1.868  -0.502  -1.471  0.00  0.00    -0.070 Cl
ATOM      8 Cl1  UNL d   1      -0.613   0.868   0.131  0.00  0.00    -0.070 Cl
ENDROOT
TORSDOF 0
ENDMDL
