MODEL 1
REMARK minimizedAffinity -3.53670931
REMARK minimizedRMSD -1
REMARK  0 active torsions:
REMARK  status: ('A' for Active; 'I' for Inactive)
ROOT
ATOM      1  C   UNL d   1      -2.087   0.094  -3.646  0.00  0.00     0.020 A 
ATOM      2  C1  UNL d   1      -1.871  -0.833  -2.627  0.00  0.00     0.020 A 
ATOM      3  C2  UNL d   1      -1.388  -0.407  -1.387  0.00  0.00     0.034 A 
ATOM      4  C3  UNL d   1      -1.120   0.948  -1.163  0.00  0.00     0.017 A 
ATOM      5  C4  UNL d   1      -1.338   1.877  -2.187  0.00  0.00     0.017 A 
ATOM      6  C5  UNL d   1      -1.821   1.446  -3.426  0.00  0.00     0.034 A 
ATOM      7 Cl   UNL d   1      -1.030   3.566  -1.986  0.00  0.00    -0.070 Cl
ATOM      8 Cl1  UNL d   1      -0.526   1.403   0.394  0.00  0.00    -0.070 Cl
ENDROOT
TORSDOF 0
ENDMDL
