MODEL 1
REMARK minimizedAffinity -5.66843128
REMARK minimizedRMSD -1
REMARK  0 active torsions:
REMARK  status: ('A' for Active; 'I' for Inactive)
ROOT
ATOM      1  C   UNL d   1       1.390  -3.014   1.477  0.00  0.00     0.020 A 
ATOM      2  C1  UNL d   1       0.320  -2.486   2.197  0.00  0.00     0.020 A 
ATOM      3  C2  UNL d   1      -0.268  -1.285   1.794  0.00  0.00     0.034 A 
ATOM      4  C3  UNL d   1       0.214  -0.609   0.668  0.00  0.00     0.017 A 
ATOM      5  C4  UNL d   1       1.288  -1.140  -0.055  0.00  0.00     0.017 A 
ATOM      6  C5  UNL d   1       1.873  -2.342   0.353  0.00  0.00     0.034 A 
ATOM      7 Cl   UNL d   1       1.938  -0.363  -1.456  0.00  0.00    -0.070 Cl
ATOM      8 Cl1  UNL d   1      -0.562   0.871   0.226  0.00  0.00    -0.070 Cl
ENDROOT
TORSDOF 0
ENDMDL
