MODEL 1
REMARK minimizedAffinity -0.299710333
REMARK minimizedRMSD -1
REMARK  0 active torsions:
REMARK  status: ('A' for Active; 'I' for Inactive)
ROOT
ATOM      1  C   UNL d   1      -2.466   1.613  -3.809  0.00  0.00     0.020 A 
ATOM      2  C1  UNL d   1      -1.668   2.527  -3.122  0.00  0.00     0.020 A 
ATOM      3  C2  UNL d   1      -1.043   2.151  -1.931  0.00  0.00     0.034 A 
ATOM      4  C3  UNL d   1      -1.214   0.857  -1.425  0.00  0.00     0.017 A 
ATOM      5  C4  UNL d   1      -2.015  -0.059  -2.115  0.00  0.00     0.017 A 
ATOM      6  C5  UNL d   1      -2.639   0.323  -3.307  0.00  0.00     0.034 A 
ATOM      7 Cl   UNL d   1      -2.274  -1.673  -1.552  0.00  0.00    -0.070 Cl
ATOM      8 Cl1  UNL d   1      -0.410   0.460   0.053  0.00  0.00    -0.070 Cl
ENDROOT
TORSDOF 0
ENDMDL
