MODEL 1
REMARK minimizedAffinity -2.62322235
REMARK minimizedRMSD -1
REMARK  0 active torsions:
REMARK  status: ('A' for Active; 'I' for Inactive)
ROOT
ATOM      1  C   UNL d   1       2.471  -1.487  -0.380  0.00  0.00     0.020 A 
ATOM      2  C1  UNL d   1       2.286  -2.364   0.688  0.00  0.00     0.020 A 
ATOM      3  C2  UNL d   1       1.079  -2.363   1.392  0.00  0.00     0.034 A 
ATOM      4  C3  UNL d   1       0.054  -1.483   1.029  0.00  0.00     0.017 A 
ATOM      5  C4  UNL d   1       0.241  -0.603  -0.044  0.00  0.00     0.017 A 
ATOM      6  C5  UNL d   1       1.450  -0.608  -0.745  0.00  0.00     0.034 A 
ATOM      7 Cl   UNL d   1      -0.979   0.512  -0.551  0.00  0.00    -0.070 Cl
ATOM      8 Cl1  UNL d   1      -1.412  -1.535   1.943  0.00  0.00    -0.070 Cl
ENDROOT
TORSDOF 0
ENDMDL
