MODEL 1
REMARK minimizedAffinity -5.0266943
REMARK minimizedRMSD -1
REMARK  0 active torsions:
REMARK  status: ('A' for Active; 'I' for Inactive)
ROOT
ATOM      1  C   UNL d   1       0.182  -2.441   2.138  0.00  0.00     0.020 A 
ATOM      2  C1  UNL d   1       1.450  -2.687   1.612  0.00  0.00     0.020 A 
ATOM      3  C2  UNL d   1       2.031  -1.770   0.734  0.00  0.00     0.034 A 
ATOM      4  C3  UNL d   1       1.345  -0.603   0.379  0.00  0.00     0.017 A 
ATOM      5  C4  UNL d   1       0.073  -0.357   0.907  0.00  0.00     0.017 A 
ATOM      6  C5  UNL d   1      -0.505  -1.278   1.786  0.00  0.00     0.034 A 
ATOM      7 Cl   UNL d   1      -0.835   1.061   0.516  0.00  0.00    -0.070 Cl
ATOM      8 Cl1  UNL d   1       2.124   0.487  -0.712  0.00  0.00    -0.070 Cl
ENDROOT
TORSDOF 0
ENDMDL
