MODEL 1
REMARK minimizedAffinity 1.06617916
REMARK minimizedRMSD -1
REMARK  0 active torsions:
REMARK  status: ('A' for Active; 'I' for Inactive)
ROOT
ATOM      1  C   UNL d   1      -1.159  -0.183  -2.024  0.00  0.00     0.020 A 
ATOM      2  C1  UNL d   1      -2.481  -0.605  -2.168  0.00  0.00     0.020 A 
ATOM      3  C2  UNL d   1      -3.368   0.136  -2.951  0.00  0.00     0.034 A 
ATOM      4  C3  UNL d   1      -2.936   1.303  -3.592  0.00  0.00     0.017 A 
ATOM      5  C4  UNL d   1      -1.610   1.725  -3.447  0.00  0.00     0.017 A 
ATOM      6  C5  UNL d   1      -0.725   0.979  -2.662  0.00  0.00     0.034 A 
ATOM      7 Cl   UNL d   1      -1.003   3.154  -4.208  0.00  0.00    -0.070 Cl
ATOM      8 Cl1  UNL d   1      -4.088   2.170  -4.545  0.00  0.00    -0.070 Cl
ENDROOT
TORSDOF 0
ENDMDL
