MODEL 1
REMARK minimizedAffinity -2.8744936
REMARK minimizedRMSD -1
REMARK  0 active torsions:
REMARK  status: ('A' for Active; 'I' for Inactive)
ROOT
ATOM      1  C   UNL d   1       1.983  -2.753   1.426  0.00  0.00     0.020 A 
ATOM      2  C1  UNL d   1       0.643  -2.617   1.786  0.00  0.00     0.020 A 
ATOM      3  C2  UNL d   1      -0.061  -1.463   1.435  0.00  0.00     0.034 A 
ATOM      4  C3  UNL d   1       0.575  -0.440   0.721  0.00  0.00     0.017 A 
ATOM      5  C4  UNL d   1       1.920  -0.578   0.360  0.00  0.00     0.017 A 
ATOM      6  C5  UNL d   1       2.620  -1.735   0.714  0.00  0.00     0.034 A 
ATOM      7 Cl   UNL d   1       2.772   0.641  -0.521  0.00  0.00    -0.070 Cl
ATOM      8 Cl1  UNL d   1      -0.357   0.959   0.320  0.00  0.00    -0.070 Cl
ENDROOT
TORSDOF 0
ENDMDL
