MODEL 1
REMARK minimizedAffinity -3.75129628
REMARK minimizedRMSD -1
REMARK  0 active torsions:
REMARK  status: ('A' for Active; 'I' for Inactive)
ROOT
ATOM      1  C   UNL d   1      -1.467   0.043   2.067  0.00  0.00     0.020 A 
ATOM      2  C1  UNL d   1      -1.147   1.104   1.222  0.00  0.00     0.020 A 
ATOM      3  C2  UNL d   1      -0.120   0.967   0.286  0.00  0.00     0.034 A 
ATOM      4  C3  UNL d   1       0.591  -0.235   0.192  0.00  0.00     0.017 A 
ATOM      5  C4  UNL d   1       0.269  -1.300   1.041  0.00  0.00     0.017 A 
ATOM      6  C5  UNL d   1      -0.760  -1.157   1.977  0.00  0.00     0.034 A 
ATOM      7 Cl   UNL d   1       1.102  -2.814   0.985  0.00  0.00    -0.070 Cl
ATOM      8 Cl1  UNL d   1       1.848  -0.335  -0.989  0.00  0.00    -0.070 Cl
ENDROOT
TORSDOF 0
ENDMDL
