MODEL 1
REMARK minimizedAffinity -4.70327616
REMARK minimizedRMSD -1
REMARK  0 active torsions:
REMARK  status: ('A' for Active; 'I' for Inactive)
ROOT
ATOM      1  C   UNL d   1       1.556  -2.367   1.133  0.00  0.00     0.020 A 
ATOM      2  C1  UNL d   1       0.163  -2.329   1.169  0.00  0.00     0.020 A 
ATOM      3  C2  UNL d   1      -0.522  -1.273   0.564  0.00  0.00     0.034 A 
ATOM      4  C3  UNL d   1       0.185  -0.251  -0.079  0.00  0.00     0.017 A 
ATOM      5  C4  UNL d   1       1.584  -0.290  -0.113  0.00  0.00     0.017 A 
ATOM      6  C5  UNL d   1       2.265  -1.349   0.494  0.00  0.00     0.034 A 
ATOM      7 Cl   UNL d   1       2.526   0.935  -0.887  0.00  0.00    -0.070 Cl
ATOM      8 Cl1  UNL d   1      -0.727   1.024  -0.806  0.00  0.00    -0.070 Cl
ENDROOT
TORSDOF 0
ENDMDL
