MODEL 1
REMARK minimizedAffinity -5.27021837
REMARK minimizedRMSD -1
REMARK  0 active torsions:
REMARK  status: ('A' for Active; 'I' for Inactive)
ROOT
ATOM      1  C   UNL d   1      -0.121  -2.604   1.946  0.00  0.00     0.020 A 
ATOM      2  C1  UNL d   1       1.209  -2.836   1.597  0.00  0.00     0.020 A 
ATOM      3  C2  UNL d   1       1.866  -1.960   0.729  0.00  0.00     0.034 A 
ATOM      4  C3  UNL d   1       1.193  -0.849   0.208  0.00  0.00     0.017 A 
ATOM      5  C4  UNL d   1      -0.142  -0.617   0.559  0.00  0.00     0.017 A 
ATOM      6  C5  UNL d   1      -0.795  -1.497   1.428  0.00  0.00     0.034 A 
ATOM      7 Cl   UNL d   1      -1.038   0.732  -0.043  0.00  0.00    -0.070 Cl
ATOM      8 Cl1  UNL d   1       2.067   0.192  -0.858  0.00  0.00    -0.070 Cl
ENDROOT
TORSDOF 0
ENDMDL
