MODEL 1
REMARK minimizedAffinity -4.43757868
REMARK minimizedRMSD -1
REMARK  0 active torsions:
REMARK  status: ('A' for Active; 'I' for Inactive)
ROOT
ATOM      1  C   UNL d   1       1.221  -0.897  -0.181  0.00  0.00     0.020 A 
ATOM      2  C1  UNL d   1       0.977  -1.283  -1.498  0.00  0.00     0.020 A 
ATOM      3  C2  UNL d   1      -0.103  -0.739  -2.196  0.00  0.00     0.034 A 
ATOM      4  C3  UNL d   1      -0.943   0.194  -1.578  0.00  0.00     0.017 A 
ATOM      5  C4  UNL d   1      -0.697   0.581  -0.255  0.00  0.00     0.017 A 
ATOM      6  C5  UNL d   1       0.386   0.033   0.439  0.00  0.00     0.034 A 
ATOM      7 Cl   UNL d   1      -1.689   1.727   0.575  0.00  0.00    -0.070 Cl
ATOM      8 Cl1  UNL d   1      -2.260   0.826  -2.500  0.00  0.00    -0.070 Cl
ENDROOT
TORSDOF 0
ENDMDL
