MODEL 1
REMARK minimizedAffinity -0.811810732
REMARK minimizedRMSD -1
REMARK  0 active torsions:
REMARK  status: ('A' for Active; 'I' for Inactive)
ROOT
ATOM      1  C   UNL d   1      -2.114   1.031  -3.678  0.00  0.00     0.020 A 
ATOM      2  C1  UNL d   1      -2.913   1.927  -2.970  0.00  0.00     0.020 A 
ATOM      3  C2  UNL d   1      -2.627   2.210  -1.633  0.00  0.00     0.034 A 
ATOM      4  C3  UNL d   1      -1.539   1.597  -1.000  0.00  0.00     0.017 A 
ATOM      5  C4  UNL d   1      -0.738   0.698  -1.712  0.00  0.00     0.017 A 
ATOM      6  C5  UNL d   1      -1.028   0.418  -3.051  0.00  0.00     0.034 A 
ATOM      7 Cl   UNL d   1       0.621  -0.097  -1.000  0.00  0.00    -0.070 Cl
ATOM      8 Cl1  UNL d   1      -1.244   1.995   0.655  0.00  0.00    -0.070 Cl
ENDROOT
TORSDOF 0
ENDMDL
