MODEL 1
REMARK minimizedAffinity -2.05754042
REMARK minimizedRMSD -1
REMARK  0 active torsions:
REMARK  status: ('A' for Active; 'I' for Inactive)
ROOT
ATOM      1  C   UNL d   1      -2.453   0.781  -3.724  0.00  0.00     0.020 A 
ATOM      2  C1  UNL d   1      -2.204   2.115  -3.407  0.00  0.00     0.020 A 
ATOM      3  C2  UNL d   1      -1.542   2.439  -2.221  0.00  0.00     0.034 A 
ATOM      4  C3  UNL d   1      -1.128   1.427  -1.347  0.00  0.00     0.017 A 
ATOM      5  C4  UNL d   1      -1.379   0.087  -1.667  0.00  0.00     0.017 A 
ATOM      6  C5  UNL d   1      -2.042  -0.231  -2.856  0.00  0.00     0.034 A 
ATOM      7 Cl   UNL d   1      -0.899  -1.217  -0.639  0.00  0.00    -0.070 Cl
ATOM      8 Cl1  UNL d   1      -0.315   1.899   0.102  0.00  0.00    -0.070 Cl
ENDROOT
TORSDOF 0
ENDMDL
