MODEL 1
REMARK minimizedAffinity -0.294679433
REMARK minimizedRMSD -1
REMARK  0 active torsions:
REMARK  status: ('A' for Active; 'I' for Inactive)
ROOT
ATOM      1  C   UNL d   1      -2.742   1.372  -1.359  0.00  0.00     0.020 A 
ATOM      2  C1  UNL d   1      -1.746   2.182  -1.903  0.00  0.00     0.020 A 
ATOM      3  C2  UNL d   1      -0.402   1.908  -1.640  0.00  0.00     0.034 A 
ATOM      4  C3  UNL d   1      -0.051   0.821  -0.831  0.00  0.00     0.017 A 
ATOM      5  C4  UNL d   1      -1.052   0.009  -0.286  0.00  0.00     0.017 A 
ATOM      6  C5  UNL d   1      -2.396   0.288  -0.552  0.00  0.00     0.034 A 
ATOM      7 Cl   UNL d   1      -0.696  -1.350   0.722  0.00  0.00    -0.070 Cl
ATOM      8 Cl1  UNL d   1       1.630   0.540  -0.547  0.00  0.00    -0.070 Cl
ENDROOT
TORSDOF 0
ENDMDL
