MODEL 1
REMARK minimizedAffinity 12.0645342
REMARK minimizedRMSD -1
REMARK  1 active torsions:
REMARK  status: ('A' for Active; 'I' for Inactive)
REMARK    1  A    between atoms: C3_4  and  O_7 
ROOT
ATOM      1  C   UNL d   1      -1.952   4.784  -3.424  0.00  0.00    -0.033 A 
ATOM      2  C1  UNL d   1      -2.532   5.773  -2.629  0.00  0.00     0.039 A 
ATOM      3  C2  UNL d   1      -3.501   5.432  -1.683  0.00  0.00    -0.080 A 
ATOM      4  C3  UNL d   1      -3.879   4.100  -1.541  0.00  0.00     0.150 A 
ATOM      5  C4  UNL d   1      -3.302   3.108  -2.328  0.00  0.00    -0.007 A 
ATOM      6  C5  UNL d   1      -2.336   3.451  -3.272  0.00  0.00     0.039 A 
ENDROOT
BRANCH   4   7
ATOM      7  O   UNL d   1      -4.824   3.719  -0.635  0.00  0.00    -0.526 OA
ATOM      8  H5  UNL d   1      -5.155   4.514  -0.184  0.00  0.00     0.418 HD
ENDBRANCH   4   7
TORSDOF 1
ENDMDL
