MODEL 1
REMARK minimizedAffinity 7.5780797
REMARK minimizedRMSD -1
REMARK  1 active torsions:
REMARK  status: ('A' for Active; 'I' for Inactive)
REMARK    1  A    between atoms: C3_4  and  O_7 
ROOT
ATOM      1  C   UNL d   1      -0.689  -0.421   5.999  0.00  0.00    -0.033 A 
ATOM      2  C1  UNL d   1      -1.496  -0.849   4.943  0.00  0.00     0.039 A 
ATOM      3  C2  UNL d   1      -0.948  -1.028   3.671  0.00  0.00    -0.080 A 
ATOM      4  C3  UNL d   1       0.406  -0.777   3.469  0.00  0.00     0.150 A 
ATOM      5  C4  UNL d   1       1.217  -0.354   4.518  0.00  0.00    -0.007 A 
ATOM      6  C5  UNL d   1       0.667  -0.175   5.786  0.00  0.00     0.039 A 
ENDROOT
BRANCH   4   7
ATOM      7  O   UNL d   1       0.985  -0.933   2.245  0.00  0.00    -0.526 OA
ATOM      8  H5  UNL d   1       0.299  -1.201   1.612  0.00  0.00     0.418 HD
ENDBRANCH   4   7
TORSDOF 1
ENDMDL
