MODEL 1
REMARK minimizedAffinity 2.12401986
REMARK minimizedRMSD -1
REMARK  1 active torsions:
REMARK  status: ('A' for Active; 'I' for Inactive)
REMARK    1  A    between atoms: C3_4  and  O_7 
ROOT
ATOM      1  C   UNL d   1      -3.623   4.999  -2.118  0.00  0.00    -0.033 A 
ATOM      2  C1  UNL d   1      -2.498   4.813  -2.924  0.00  0.00     0.039 A 
ATOM      3  C2  UNL d   1      -1.796   3.607  -2.879  0.00  0.00    -0.080 A 
ATOM      4  C3  UNL d   1      -2.230   2.596  -2.027  0.00  0.00     0.150 A 
ATOM      5  C4  UNL d   1      -3.352   2.772  -1.224  0.00  0.00    -0.007 A 
ATOM      6  C5  UNL d   1      -4.051   3.978  -1.269  0.00  0.00     0.039 A 
ENDROOT
BRANCH   4   7
ATOM      7  O   UNL d   1      -1.574   1.403  -1.945  0.00  0.00    -0.526 OA
ATOM      8  H5  UNL d   1      -0.802   1.435  -2.535  0.00  0.00     0.418 HD
ENDBRANCH   4   7
TORSDOF 1
ENDMDL
