MODEL 1
REMARK minimizedAffinity 15.1544781
REMARK minimizedRMSD -1
REMARK  1 active torsions:
REMARK  status: ('A' for Active; 'I' for Inactive)
REMARK    1  A    between atoms: C3_4  and  O_7 
ROOT
ATOM      1  C   UNL d   1      -5.969  -0.973   3.979  0.00  0.00    -0.033 A 
ATOM      2  C1  UNL d   1      -5.990  -0.588   2.637  0.00  0.00     0.039 A 
ATOM      3  C2  UNL d   1      -5.997  -1.556   1.631  0.00  0.00    -0.080 A 
ATOM      4  C3  UNL d   1      -5.984  -2.904   1.980  0.00  0.00     0.150 A 
ATOM      5  C4  UNL d   1      -5.967  -3.294   3.315  0.00  0.00    -0.007 A 
ATOM      6  C5  UNL d   1      -5.959  -2.326   4.318  0.00  0.00     0.039 A 
ENDROOT
BRANCH   4   7
ATOM      7  O   UNL d   1      -5.985  -3.885   1.033  0.00  0.00    -0.526 OA
ATOM      8  H5  UNL d   1      -5.969  -3.466   0.157  0.00  0.00     0.418 HD
ENDBRANCH   4   7
TORSDOF 1
ENDMDL
