MODEL 1
REMARK minimizedAffinity 7.00251865
REMARK minimizedRMSD -1
REMARK  1 active torsions:
REMARK  status: ('A' for Active; 'I' for Inactive)
REMARK    1  A    between atoms: C3_4  and  O_7 
ROOT
ATOM      1  C   UNL d   1      -0.393  -0.008   4.991  0.00  0.00    -0.033 A 
ATOM      2  C1  UNL d   1      -0.665  -0.184   3.633  0.00  0.00     0.039 A 
ATOM      3  C2  UNL d   1       0.375  -0.164   2.702  0.00  0.00    -0.080 A 
ATOM      4  C3  UNL d   1       1.681   0.032   3.141  0.00  0.00     0.150 A 
ATOM      5  C4  UNL d   1       1.961   0.204   4.493  0.00  0.00    -0.007 A 
ATOM      6  C5  UNL d   1       0.921   0.185   5.421  0.00  0.00     0.039 A 
ENDROOT
BRANCH   4   7
ATOM      7  O   UNL d   1       2.728   0.064   2.269  0.00  0.00    -0.526 OA
ATOM      8  H5  UNL d   1       2.381  -0.040   1.367  0.00  0.00     0.418 HD
ENDBRANCH   4   7
TORSDOF 1
ENDMDL
