MODEL 1
REMARK minimizedAffinity 12.3769026
REMARK minimizedRMSD -1
REMARK  1 active torsions:
REMARK  status: ('A' for Active; 'I' for Inactive)
REMARK    1  A    between atoms: C3_4  and  O_7 
ROOT
ATOM      1  C   UNL d   1       0.367  -0.720   3.314  0.00  0.00    -0.033 A 
ATOM      2  C1  UNL d   1       1.048  -0.097   4.362  0.00  0.00     0.039 A 
ATOM      3  C2  UNL d   1       2.320   0.438   4.149  0.00  0.00    -0.080 A 
ATOM      4  C3  UNL d   1       2.898   0.345   2.886  0.00  0.00     0.150 A 
ATOM      5  C4  UNL d   1       2.223  -0.271   1.837  0.00  0.00    -0.007 A 
ATOM      6  C5  UNL d   1       0.954  -0.806   2.051  0.00  0.00     0.039 A 
ENDROOT
BRANCH   4   7
ATOM      7  O   UNL d   1       4.139   0.849   2.631  0.00  0.00    -0.526 OA
ATOM      8  H5  UNL d   1       4.496   1.219   3.455  0.00  0.00     0.418 HD
ENDBRANCH   4   7
TORSDOF 1
ENDMDL
