MODEL 1
REMARK minimizedAffinity 1.23312485
REMARK minimizedRMSD -1
REMARK  1 active torsions:
REMARK  status: ('A' for Active; 'I' for Inactive)
REMARK    1  A    between atoms: C3_4  and  O_7 
ROOT
ATOM      1  C   UNL d   1      -1.926  -2.717   6.000  0.00  0.00    -0.033 A 
ATOM      2  C1  UNL d   1      -2.062  -3.612   4.937  0.00  0.00     0.039 A 
ATOM      3  C2  UNL d   1      -1.165  -3.571   3.868  0.00  0.00    -0.080 A 
ATOM      4  C3  UNL d   1      -0.137  -2.632   3.874  0.00  0.00     0.150 A 
ATOM      5  C4  UNL d   1       0.007  -1.740   4.932  0.00  0.00    -0.007 A 
ATOM      6  C5  UNL d   1      -0.890  -1.782   5.998  0.00  0.00     0.039 A 
ENDROOT
BRANCH   4   7
ATOM      7  O   UNL d   1       0.760  -2.551   2.851  0.00  0.00    -0.526 OA
ATOM      8  H5  UNL d   1       0.519  -3.209   2.178  0.00  0.00     0.418 HD
ENDBRANCH   4   7
TORSDOF 1
ENDMDL
