MODEL 1
REMARK minimizedAffinity 2.77437687
REMARK minimizedRMSD -1
REMARK  1 active torsions:
REMARK  status: ('A' for Active; 'I' for Inactive)
REMARK    1  A    between atoms: C3_4  and  O_7 
ROOT
ATOM      1  C   UNL d   1       0.190   2.990  -1.710  0.00  0.00    -0.033 A 
ATOM      2  C1  UNL d   1       1.017   3.952  -2.292  0.00  0.00     0.039 A 
ATOM      3  C2  UNL d   1       1.563   4.972  -1.511  0.00  0.00    -0.080 A 
ATOM      4  C3  UNL d   1       1.275   5.018  -0.150  0.00  0.00     0.150 A 
ATOM      5  C4  UNL d   1       0.455   4.061   0.439  0.00  0.00    -0.007 A 
ATOM      6  C5  UNL d   1      -0.090   3.043  -0.344  0.00  0.00     0.039 A 
ENDROOT
BRANCH   4   7
ATOM      7  O   UNL d   1       1.781   5.997   0.653  0.00  0.00    -0.526 OA
ATOM      8  H5  UNL d   1       2.305   6.604   0.105  0.00  0.00     0.418 HD
ENDBRANCH   4   7
TORSDOF 1
ENDMDL
