MODEL 1
REMARK minimizedAffinity 13.527504
REMARK minimizedRMSD -1
REMARK  1 active torsions:
REMARK  status: ('A' for Active; 'I' for Inactive)
REMARK    1  A    between atoms: C3_4  and  O_7 
ROOT
ATOM      1  C   UNL d   1       1.462   5.999  -1.756  0.00  0.00    -0.033 A 
ATOM      2  C1  UNL d   1       1.154   5.988  -0.394  0.00  0.00     0.039 A 
ATOM      3  C2  UNL d   1       1.229   4.798   0.331  0.00  0.00    -0.080 A 
ATOM      4  C3  UNL d   1       1.613   3.627  -0.316  0.00  0.00     0.150 A 
ATOM      5  C4  UNL d   1       1.925   3.630  -1.672  0.00  0.00    -0.007 A 
ATOM      6  C5  UNL d   1       1.848   4.820  -2.395  0.00  0.00     0.039 A 
ENDROOT
BRANCH   4   7
ATOM      7  O   UNL d   1       1.696   2.439   0.349  0.00  0.00    -0.526 OA
ATOM      8  H5  UNL d   1       1.424   2.583   1.271  0.00  0.00     0.418 HD
ENDBRANCH   4   7
TORSDOF 1
ENDMDL
