MODEL 1
REMARK minimizedAffinity 2.62888479
REMARK minimizedRMSD -1
REMARK  1 active torsions:
REMARK  status: ('A' for Active; 'I' for Inactive)
REMARK    1  A    between atoms: C3_4  and  O_7 
ROOT
ATOM      1  C   UNL d   1      -2.933   3.918  -2.522  0.00  0.00    -0.033 A 
ATOM      2  C1  UNL d   1      -2.583   3.209  -3.673  0.00  0.00     0.039 A 
ATOM      3  C2  UNL d   1      -2.258   3.894  -4.845  0.00  0.00    -0.080 A 
ATOM      4  C3  UNL d   1      -2.284   5.286  -4.853  0.00  0.00     0.150 A 
ATOM      5  C4  UNL d   1      -2.628   5.999  -3.710  0.00  0.00    -0.007 A 
ATOM      6  C5  UNL d   1      -2.954   5.313  -2.540  0.00  0.00     0.039 A 
ENDROOT
BRANCH   4   7
ATOM      7  O   UNL d   1      -1.979   5.998  -5.975  0.00  0.00    -0.526 OA
ATOM      8  H5  UNL d   1      -1.789   5.373  -6.694  0.00  0.00     0.418 HD
ENDBRANCH   4   7
TORSDOF 1
ENDMDL
