MODEL 1
REMARK minimizedAffinity 2.77885079
REMARK minimizedRMSD -1
REMARK  1 active torsions:
REMARK  status: ('A' for Active; 'I' for Inactive)
REMARK    1  A    between atoms: C3_4  and  O_7 
ROOT
ATOM      1  C   UNL d   1       1.488   5.999  -0.731  0.00  0.00    -0.033 A 
ATOM      2  C1  UNL d   1       0.598   5.929   0.343  0.00  0.00     0.039 A 
ATOM      3  C2  UNL d   1      -0.012   4.716   0.668  0.00  0.00    -0.080 A 
ATOM      4  C3  UNL d   1       0.277   3.582  -0.085  0.00  0.00     0.150 A 
ATOM      5  C4  UNL d   1       1.166   3.644  -1.154  0.00  0.00    -0.007 A 
ATOM      6  C5  UNL d   1       1.773   4.856  -1.478  0.00  0.00     0.039 A 
ENDROOT
BRANCH   4   7
ATOM      7  O   UNL d   1      -0.297   2.377   0.191  0.00  0.00    -0.526 OA
ATOM      8  H5  UNL d   1      -0.910   2.492   0.937  0.00  0.00     0.418 HD
ENDBRANCH   4   7
TORSDOF 1
ENDMDL
