MODEL 1
REMARK minimizedAffinity 5.26003265
REMARK minimizedRMSD -1
REMARK  1 active torsions:
REMARK  status: ('A' for Active; 'I' for Inactive)
REMARK    1  A    between atoms: C3_4  and  O_7 
ROOT
ATOM      1  C   UNL d   1      -0.362  -2.718   0.902  0.00  0.00    -0.033 A 
ATOM      2  C1  UNL d   1      -0.700  -2.711  -0.453  0.00  0.00     0.039 A 
ATOM      3  C2  UNL d   1      -1.736  -3.522  -0.920  0.00  0.00    -0.080 A 
ATOM      4  C3  UNL d   1      -2.425  -4.334  -0.024  0.00  0.00     0.150 A 
ATOM      5  C4  UNL d   1      -2.096  -4.344   1.328  0.00  0.00    -0.007 A 
ATOM      6  C5  UNL d   1      -1.061  -3.534   1.793  0.00  0.00     0.039 A 
ENDROOT
BRANCH   4   7
ATOM      7  O   UNL d   1      -3.440  -5.147  -0.434  0.00  0.00    -0.526 OA
ATOM      8  H5  UNL d   1      -3.536  -5.057  -1.397  0.00  0.00     0.418 HD
ENDBRANCH   4   7
TORSDOF 1
ENDMDL
