MODEL 1
REMARK minimizedAffinity 5.27355623
REMARK minimizedRMSD -1
REMARK  1 active torsions:
REMARK  status: ('A' for Active; 'I' for Inactive)
REMARK    1  A    between atoms: C3_4  and  O_7 
ROOT
ATOM      1  C   UNL d   1      -2.551   2.878  -2.957  0.00  0.00    -0.033 A 
ATOM      2  C1  UNL d   1      -1.164   2.746  -2.872  0.00  0.00     0.039 A 
ATOM      3  C2  UNL d   1      -0.540   2.702  -1.624  0.00  0.00    -0.080 A 
ATOM      4  C3  UNL d   1      -1.314   2.789  -0.470  0.00  0.00     0.150 A 
ATOM      5  C4  UNL d   1      -2.697   2.916  -0.547  0.00  0.00    -0.007 A 
ATOM      6  C5  UNL d   1      -3.318   2.961  -1.795  0.00  0.00     0.039 A 
ENDROOT
BRANCH   4   7
ATOM      7  O   UNL d   1      -0.750   2.755   0.771  0.00  0.00    -0.526 OA
ATOM      8  H5  UNL d   1       0.214   2.693   0.669  0.00  0.00     0.418 HD
ENDBRANCH   4   7
TORSDOF 1
ENDMDL
