MODEL 1
REMARK minimizedAffinity 5.21368647
REMARK minimizedRMSD -1
REMARK  1 active torsions:
REMARK  status: ('A' for Active; 'I' for Inactive)
REMARK    1  A    between atoms: C3_4  and  O_7 
ROOT
ATOM      1  C   UNL d   1      -0.459  -2.886   1.843  0.00  0.00    -0.033 A 
ATOM      2  C1  UNL d   1       0.399  -1.799   2.022  0.00  0.00     0.039 A 
ATOM      3  C2  UNL d   1       0.213  -0.931   3.100  0.00  0.00    -0.080 A 
ATOM      4  C3  UNL d   1      -0.832  -1.162   3.991  0.00  0.00     0.150 A 
ATOM      5  C4  UNL d   1      -1.688  -2.245   3.820  0.00  0.00    -0.007 A 
ATOM      6  C5  UNL d   1      -1.501  -3.110   2.742  0.00  0.00     0.039 A 
ENDROOT
BRANCH   4   7
ATOM      7  O   UNL d   1      -1.056  -0.340   5.055  0.00  0.00    -0.526 OA
ATOM      8  H5  UNL d   1      -0.405   0.381   5.029  0.00  0.00     0.418 HD
ENDBRANCH   4   7
TORSDOF 1
ENDMDL
