MODEL 1
REMARK minimizedAffinity 2.83679128
REMARK minimizedRMSD -1
REMARK  1 active torsions:
REMARK  status: ('A' for Active; 'I' for Inactive)
REMARK    1  A    between atoms: C3_4  and  O_7 
ROOT
ATOM      1  C   UNL d   1       1.105   5.994  -0.956  0.00  0.00    -0.033 A 
ATOM      2  C1  UNL d   1       1.320   4.989  -1.901  0.00  0.00     0.039 A 
ATOM      3  C2  UNL d   1       0.984   3.667  -1.606  0.00  0.00    -0.080 A 
ATOM      4  C3  UNL d   1       0.433   3.363  -0.364  0.00  0.00     0.150 A 
ATOM      5  C4  UNL d   1       0.213   4.359   0.581  0.00  0.00    -0.007 A 
ATOM      6  C5  UNL d   1       0.550   5.679   0.285  0.00  0.00     0.039 A 
ENDROOT
BRANCH   4   7
ATOM      7  O   UNL d   1       0.094   2.086  -0.028  0.00  0.00    -0.526 OA
ATOM      8  H5  UNL d   1       0.329   1.500  -0.767  0.00  0.00     0.418 HD
ENDBRANCH   4   7
TORSDOF 1
ENDMDL
