MODEL 1
REMARK minimizedAffinity 8.78172302
REMARK minimizedRMSD -1
REMARK  1 active torsions:
REMARK  status: ('A' for Active; 'I' for Inactive)
REMARK    1  A    between atoms: C3_4  and  O_7 
ROOT
ATOM      1  C   UNL d   1       2.231  -0.784   1.506  0.00  0.00    -0.033 A 
ATOM      2  C1  UNL d   1       1.034  -1.269   2.037  0.00  0.00     0.039 A 
ATOM      3  C2  UNL d   1       0.648  -0.913   3.330  0.00  0.00    -0.080 A 
ATOM      4  C3  UNL d   1       1.465  -0.073   4.081  0.00  0.00     0.150 A 
ATOM      5  C4  UNL d   1       2.657   0.417   3.557  0.00  0.00    -0.007 A 
ATOM      6  C5  UNL d   1       3.042   0.060   2.265  0.00  0.00     0.039 A 
ENDROOT
BRANCH   4   7
ATOM      7  O   UNL d   1       1.132   0.298   5.350  0.00  0.00    -0.526 OA
ATOM      8  H5  UNL d   1       0.298  -0.139   5.590  0.00  0.00     0.418 HD
ENDBRANCH   4   7
TORSDOF 1
ENDMDL
