MODEL 1
REMARK minimizedAffinity -0.430375338
REMARK minimizedRMSD -1
REMARK  0 active torsions:
REMARK  status: ('A' for Active; 'I' for Inactive)
ROOT
ATOM      1  C   UNL d   1      -1.751  -0.157  -1.222  0.00  0.00     0.020 A 
ATOM      2  C1  UNL d   1      -0.450  -0.654  -1.155  0.00  0.00     0.020 A 
ATOM      3  C2  UNL d   1       0.163  -0.840   0.086  0.00  0.00     0.034 A 
ATOM      4  C3  UNL d   1      -0.525  -0.527   1.264  0.00  0.00     0.017 A 
ATOM      5  C4  UNL d   1      -1.831  -0.028   1.196  0.00  0.00     0.017 A 
ATOM      6  C5  UNL d   1      -2.440   0.155  -0.049  0.00  0.00     0.034 A 
ATOM      7 Cl   UNL d   1      -2.742   0.380   2.606  0.00  0.00    -0.070 Cl
ATOM      8 Cl1  UNL d   1       0.295  -0.781   2.764  0.00  0.00    -0.070 Cl
ENDROOT
TORSDOF 0
ENDMDL
