MODEL 1
REMARK minimizedAffinity -0.753333807
REMARK minimizedRMSD -1
REMARK  0 active torsions:
REMARK  status: ('A' for Active; 'I' for Inactive)
ROOT
ATOM      1  C   UNL d   1      -3.050  -0.365   2.249  0.00  0.00     0.020 A 
ATOM      2  C1  UNL d   1      -2.673  -0.054   0.943  0.00  0.00     0.020 A 
ATOM      3  C2  UNL d   1      -1.326  -0.102   0.575  0.00  0.00     0.034 A 
ATOM      4  C3  UNL d   1      -0.352  -0.460   1.514  0.00  0.00     0.017 A 
ATOM      5  C4  UNL d   1      -0.732  -0.772   2.825  0.00  0.00     0.017 A 
ATOM      6  C5  UNL d   1      -2.082  -0.723   3.187  0.00  0.00     0.034 A 
ATOM      7 Cl   UNL d   1       0.412  -1.224   4.039  0.00  0.00    -0.070 Cl
ATOM      8 Cl1  UNL d   1       1.294  -0.499   0.990  0.00  0.00    -0.070 Cl
ENDROOT
TORSDOF 0
ENDMDL
