MODEL 1
REMARK minimizedAffinity 3.15628457
REMARK minimizedRMSD -1
REMARK  0 active torsions:
REMARK  status: ('A' for Active; 'I' for Inactive)
ROOT
ATOM      1  C   UNL d   1      -3.262  -1.003  -0.215  0.00  0.00     0.020 A 
ATOM      2  C1  UNL d   1      -2.231  -1.340  -1.091  0.00  0.00     0.020 A 
ATOM      3  C2  UNL d   1      -0.901  -1.176  -0.700  0.00  0.00     0.034 A 
ATOM      4  C3  UNL d   1      -0.597  -0.674   0.571  0.00  0.00     0.017 A 
ATOM      5  C4  UNL d   1      -1.633  -0.336   1.450  0.00  0.00     0.017 A 
ATOM      6  C5  UNL d   1      -2.963  -0.503   1.053  0.00  0.00     0.034 A 
ATOM      7 Cl   UNL d   1      -1.337   0.289   3.034  0.00  0.00    -0.070 Cl
ATOM      8 Cl1  UNL d   1       1.070  -0.498   0.988  0.00  0.00    -0.070 Cl
ENDROOT
TORSDOF 0
ENDMDL
