MODEL 1
REMARK minimizedAffinity 0.455051214
REMARK minimizedRMSD -1
REMARK  0 active torsions:
REMARK  status: ('A' for Active; 'I' for Inactive)
ROOT
ATOM      1  C   UNL d   1      -2.574   0.035   1.103  0.00  0.00     0.020 A 
ATOM      2  C1  UNL d   1      -2.053  -0.123  -0.181  0.00  0.00     0.020 A 
ATOM      3  C2  UNL d   1      -0.722  -0.512  -0.351  0.00  0.00     0.034 A 
ATOM      4  C3  UNL d   1       0.091  -0.744   0.764  0.00  0.00     0.017 A 
ATOM      5  C4  UNL d   1      -0.433  -0.585   2.052  0.00  0.00     0.017 A 
ATOM      6  C5  UNL d   1      -1.766  -0.195   2.217  0.00  0.00     0.034 A 
ATOM      7 Cl   UNL d   1       0.509  -0.853   3.476  0.00  0.00    -0.070 Cl
ATOM      8 Cl1  UNL d   1       1.727  -1.223   0.480  0.00  0.00    -0.070 Cl
ENDROOT
TORSDOF 0
ENDMDL
