MODEL 1
REMARK minimizedAffinity 2.05474758
REMARK minimizedRMSD -1
REMARK  0 active torsions:
REMARK  status: ('A' for Active; 'I' for Inactive)
ROOT
ATOM      1  C   UNL d   1      -3.227   0.216  -0.103  0.00  0.00     0.020 A 
ATOM      2  C1  UNL d   1      -2.225  -0.004  -1.047  0.00  0.00     0.020 A 
ATOM      3  C2  UNL d   1      -0.902  -0.177  -0.634  0.00  0.00     0.034 A 
ATOM      4  C3  UNL d   1      -0.578  -0.130   0.726  0.00  0.00     0.017 A 
ATOM      5  C4  UNL d   1      -1.584   0.091   1.673  0.00  0.00     0.017 A 
ATOM      6  C5  UNL d   1      -2.907   0.263   1.254  0.00  0.00     0.034 A 
ATOM      7 Cl   UNL d   1      -1.262   0.162   3.370  0.00  0.00    -0.070 Cl
ATOM      8 Cl1  UNL d   1       1.078  -0.353   1.166  0.00  0.00    -0.070 Cl
ENDROOT
TORSDOF 0
ENDMDL
