MODEL 1
REMARK minimizedAffinity 5.37963009
REMARK minimizedRMSD -1
REMARK  0 active torsions:
REMARK  status: ('A' for Active; 'I' for Inactive)
ROOT
ATOM      1  C   UNL d   1      -1.974   0.051   0.638  0.00  0.00     0.020 A 
ATOM      2  C1  UNL d   1      -2.347   0.065   1.981  0.00  0.00     0.020 A 
ATOM      3  C2  UNL d   1      -1.435  -0.326   2.963  0.00  0.00     0.034 A 
ATOM      4  C3  UNL d   1      -0.145  -0.733   2.604  0.00  0.00     0.017 A 
ATOM      5  C4  UNL d   1       0.229  -0.746   1.255  0.00  0.00     0.017 A 
ATOM      6  C5  UNL d   1      -0.688  -0.354   0.276  0.00  0.00     0.034 A 
ATOM      7 Cl   UNL d   1       1.803  -1.235   0.735  0.00  0.00    -0.070 Cl
ATOM      8 Cl1  UNL d   1       0.932  -1.203   3.871  0.00  0.00    -0.070 Cl
ENDROOT
TORSDOF 0
ENDMDL
