MODEL 1
REMARK minimizedAffinity 1.08567739
REMARK minimizedRMSD -1
REMARK  0 active torsions:
REMARK  status: ('A' for Active; 'I' for Inactive)
ROOT
ATOM      1  C   UNL d   1      -0.346  -2.301   4.821  0.00  0.00     0.020 A 
ATOM      2  C1  UNL d   1       0.411  -1.451   4.016  0.00  0.00     0.020 A 
ATOM      3  C2  UNL d   1      -0.225  -0.592   3.116  0.00  0.00     0.034 A 
ATOM      4  C3  UNL d   1      -1.621  -0.583   3.020  0.00  0.00     0.017 A 
ATOM      5  C4  UNL d   1      -2.380  -1.436   3.828  0.00  0.00     0.017 A 
ATOM      6  C5  UNL d   1      -1.738  -2.294   4.728  0.00  0.00     0.034 A 
ATOM      7 Cl   UNL d   1      -4.107  -1.481   3.766  0.00  0.00    -0.070 Cl
ATOM      8 Cl1  UNL d   1      -2.341   0.505   1.886  0.00  0.00    -0.070 Cl
ENDROOT
TORSDOF 0
ENDMDL
