MODEL 1
REMARK minimizedAffinity 0.84843719
REMARK minimizedRMSD -1
REMARK  0 active torsions:
REMARK  status: ('A' for Active; 'I' for Inactive)
ROOT
ATOM      1  C   UNL d   1      -2.314   0.108  -0.123  0.00  0.00     0.020 A 
ATOM      2  C1  UNL d   1      -3.035   0.106   1.070  0.00  0.00     0.020 A 
ATOM      3  C2  UNL d   1      -2.385  -0.148   2.279  0.00  0.00     0.034 A 
ATOM      4  C3  UNL d   1      -1.008  -0.400   2.298  0.00  0.00     0.017 A 
ATOM      5  C4  UNL d   1      -0.285  -0.398   1.100  0.00  0.00     0.017 A 
ATOM      6  C5  UNL d   1      -0.941  -0.143  -0.108  0.00  0.00     0.034 A 
ATOM      7 Cl   UNL d   1       1.416  -0.701   1.044  0.00  0.00    -0.070 Cl
ATOM      8 Cl1  UNL d   1      -0.268  -0.706   3.830  0.00  0.00    -0.070 Cl
ENDROOT
TORSDOF 0
ENDMDL
