MODEL 1
REMARK minimizedAffinity 2.07659221
REMARK minimizedRMSD -1
REMARK  0 active torsions:
REMARK  status: ('A' for Active; 'I' for Inactive)
ROOT
ATOM      1  C   UNL d   1      -2.266  -0.047   0.303  0.00  0.00     0.020 A 
ATOM      2  C1  UNL d   1      -2.647  -0.107   1.643  0.00  0.00     0.020 A 
ATOM      3  C2  UNL d   1      -1.716  -0.466   2.619  0.00  0.00     0.034 A 
ATOM      4  C3  UNL d   1      -0.397  -0.766   2.257  0.00  0.00     0.017 A 
ATOM      5  C4  UNL d   1      -0.015  -0.706   0.912  0.00  0.00     0.017 A 
ATOM      6  C5  UNL d   1      -0.952  -0.346  -0.061  0.00  0.00     0.034 A 
ATOM      7 Cl   UNL d   1       1.593  -1.063   0.389  0.00  0.00    -0.070 Cl
ATOM      8 Cl1  UNL d   1       0.702  -1.202   3.517  0.00  0.00    -0.070 Cl
ENDROOT
TORSDOF 0
ENDMDL
