MODEL 1
REMARK minimizedAffinity -1.72437704
REMARK minimizedRMSD -1
REMARK  0 active torsions:
REMARK  status: ('A' for Active; 'I' for Inactive)
ROOT
ATOM      1  C   UNL d   1       0.327  -0.481   2.898  0.00  0.00     0.020 A 
ATOM      2  C1  UNL d   1       1.142  -1.333   3.642  0.00  0.00     0.020 A 
ATOM      3  C2  UNL d   1       0.570  -2.272   4.503  0.00  0.00     0.034 A 
ATOM      4  C3  UNL d   1      -0.822  -2.362   4.621  0.00  0.00     0.017 A 
ATOM      5  C4  UNL d   1      -1.640  -1.507   3.873  0.00  0.00     0.017 A 
ATOM      6  C5  UNL d   1      -1.061  -0.568   3.013  0.00  0.00     0.034 A 
ATOM      7 Cl   UNL d   1      -3.365  -1.559   3.965  0.00  0.00    -0.070 Cl
ATOM      8 Cl1  UNL d   1      -1.461  -3.547   5.704  0.00  0.00    -0.070 Cl
ENDROOT
TORSDOF 0
ENDMDL
