MODEL 1
REMARK minimizedAffinity 0.946308434
REMARK minimizedRMSD -1
REMARK  1 active torsions:
REMARK  status: ('A' for Active; 'I' for Inactive)
REMARK    1  A    between atoms: C1_2  and  C2_3 
ROOT
ATOM      1  C2  UNL d   1      -1.103   0.245   0.669  0.00  0.00    -0.077 A 
ATOM      2  C3  UNL d   1      -1.740  -0.121   1.863  0.00  0.00     0.002 A 
ATOM      3  C4  UNL d   1      -1.413   0.516   3.062  0.00  0.00     0.002 A 
ATOM      4  C5  UNL d   1      -0.452   1.525   3.077  0.00  0.00    -0.004 A 
ATOM      5  C6  UNL d   1       0.189   1.894   1.896  0.00  0.00     0.002 A 
ATOM      6  C7  UNL d   1      -0.136   1.257   0.697  0.00  0.00     0.002 A 
ENDROOT
BRANCH   1   7
ATOM      7  C1  UNL d   1      -1.489  -0.407  -0.633  0.00  0.00     0.055 C 
ATOM      8  C   UNL d   1      -2.915  -0.937  -0.585  0.00  0.00     0.019 C 
ENDBRANCH   1   7
TORSDOF 1
ENDMDL
