MODEL 1
REMARK minimizedAffinity -2.66905832
REMARK minimizedRMSD -1
REMARK  1 active torsions:
REMARK  status: ('A' for Active; 'I' for Inactive)
REMARK    1  A    between atoms: C1_2  and  C2_3 
ROOT
ATOM      1  C2  UNL d   1       0.721   0.389   0.546  0.00  0.00    -0.077 A 
ATOM      2  C3  UNL d   1      -0.208   1.025   1.382  0.00  0.00     0.002 A 
ATOM      3  C4  UNL d   1      -1.573   0.763   1.249  0.00  0.00     0.002 A 
ATOM      4  C5  UNL d   1      -2.021  -0.138   0.286  0.00  0.00    -0.004 A 
ATOM      5  C6  UNL d   1      -1.105  -0.774  -0.551  0.00  0.00     0.002 A 
ATOM      6  C7  UNL d   1       0.259  -0.513  -0.421  0.00  0.00     0.002 A 
ENDROOT
BRANCH   1   7
ATOM      7  C1  UNL d   1       2.197   0.633   0.720  0.00  0.00     0.055 C 
ATOM      8  C   UNL d   1       2.963  -0.675   0.844  0.00  0.00     0.019 C 
ENDBRANCH   1   7
TORSDOF 1
ENDMDL
