MODEL 1
REMARK minimizedAffinity 0.237206578
REMARK minimizedRMSD -1
REMARK  1 active torsions:
REMARK  status: ('A' for Active; 'I' for Inactive)
REMARK    1  A    between atoms: C1_2  and  C2_3 
ROOT
ATOM      1  C2  UNL d   1      -0.122  -0.041   1.458  0.00  0.00    -0.077 A 
ATOM      2  C3  UNL d   1       0.749   0.333   2.491  0.00  0.00     0.002 A 
ATOM      3  C4  UNL d   1       0.261   0.555   3.780  0.00  0.00     0.002 A 
ATOM      4  C5  UNL d   1      -1.098   0.402   4.049  0.00  0.00    -0.004 A 
ATOM      5  C6  UNL d   1      -1.972   0.031   3.028  0.00  0.00     0.002 A 
ATOM      6  C7  UNL d   1      -1.486  -0.190   1.738  0.00  0.00     0.002 A 
ENDROOT
BRANCH   1   7
ATOM      7  C1  UNL d   1       0.409  -0.329   0.078  0.00  0.00     0.055 C 
ATOM      8  C   UNL d   1       1.926  -0.450   0.083  0.00  0.00     0.019 C 
ENDBRANCH   1   7
TORSDOF 1
ENDMDL
