MODEL 1
REMARK minimizedAffinity -5.09098148
REMARK minimizedRMSD -1
REMARK  1 active torsions:
REMARK  status: ('A' for Active; 'I' for Inactive)
REMARK    1  A    between atoms: C1_2  and  C2_3 
ROOT
ATOM      1  C2  UNL d   1      -0.145   0.273  -0.188  0.00  0.00    -0.077 A 
ATOM      2  C3  UNL d   1       0.786  -0.000   0.824  0.00  0.00     0.002 A 
ATOM      3  C4  UNL d   1       0.404   0.044   2.166  0.00  0.00     0.002 A 
ATOM      4  C5  UNL d   1      -0.910   0.358   2.508  0.00  0.00    -0.004 A 
ATOM      5  C6  UNL d   1      -1.843   0.634   1.509  0.00  0.00     0.002 A 
ATOM      6  C7  UNL d   1      -1.462   0.591   0.167  0.00  0.00     0.002 A 
ENDROOT
BRANCH   1   7
ATOM      7  C1  UNL d   1       0.253   0.177  -1.638  0.00  0.00     0.055 C 
ATOM      8  C   UNL d   1       1.763   0.264  -1.804  0.00  0.00     0.019 C 
ENDBRANCH   1   7
TORSDOF 1
ENDMDL
