MODEL 1
REMARK minimizedAffinity -4.72317839
REMARK minimizedRMSD -1
REMARK  1 active torsions:
REMARK  status: ('A' for Active; 'I' for Inactive)
REMARK    1  A    between atoms: C1_2  and  C2_3 
ROOT
ATOM      1  C2  UNL d   1       0.427  -0.853  -0.532  0.00  0.00    -0.081 A 
ATOM      2  C3  UNL d   1       0.711  -0.665   0.826  0.00  0.00     0.006 A 
ATOM      3  C4  UNL d   1       0.202   0.443   1.508  0.00  0.00     0.002 A 
ATOM      4  C5  UNL d   1      -0.604   1.375   0.847  0.00  0.00    -0.080 A 
ATOM      5  C6  UNL d   1      -1.182   2.552   1.575  0.00  0.00     0.076 C 
ATOM      6  C7  UNL d   1      -0.873   1.196  -0.514  0.00  0.00     0.002 A 
ATOM      7  C8  UNL d   1      -0.364   0.089  -1.197  0.00  0.00     0.006 A 
ENDROOT
BRANCH   1   8
ATOM      8  C1  UNL d   1       0.921  -2.081  -1.255  0.00  0.00     0.054 C 
ATOM      9  C   UNL d   1      -0.236  -2.969  -1.691  0.00  0.00     0.018 C 
ENDBRANCH   1   8
TORSDOF 1
ENDMDL
