MODEL 1
REMARK minimizedAffinity 5.48672295
REMARK minimizedRMSD -1
REMARK  1 active torsions:
REMARK  status: ('A' for Active; 'I' for Inactive)
REMARK    1  A    between atoms: C1_2  and  C2_3 
ROOT
ATOM      1  C2  UNL d   1       0.597  -1.577   0.249  0.00  0.00    -0.081 A 
ATOM      2  C3  UNL d   1       1.345  -0.395   0.300  0.00  0.00     0.006 A 
ATOM      3  C4  UNL d   1       0.977   0.640   1.162  0.00  0.00     0.002 A 
ATOM      4  C5  UNL d   1      -0.141   0.508   1.993  0.00  0.00    -0.080 A 
ATOM      5  C6  UNL d   1      -0.530   1.600   2.945  0.00  0.00     0.076 C 
ATOM      6  C7  UNL d   1      -0.899  -0.666   1.930  0.00  0.00     0.002 A 
ATOM      7  C8  UNL d   1      -0.531  -1.701   1.067  0.00  0.00     0.006 A 
ENDROOT
BRANCH   1   8
ATOM      8  C1  UNL d   1       1.029  -2.721  -0.632  0.00  0.00     0.054 C 
ATOM      9  C   UNL d   1       0.113  -3.925  -0.466  0.00  0.00     0.018 C 
ENDBRANCH   1   8
TORSDOF 1
ENDMDL
