MODEL 1
REMARK minimizedAffinity -1.5236516
REMARK minimizedRMSD -1
REMARK  1 active torsions:
REMARK  status: ('A' for Active; 'I' for Inactive)
REMARK    1  A    between atoms: C1_2  and  C2_3 
ROOT
ATOM      1  C2  UNL d   1       0.512  -0.390  -0.399  0.00  0.00    -0.081 A 
ATOM      2  C3  UNL d   1       0.512   0.384   0.768  0.00  0.00     0.006 A 
ATOM      3  C4  UNL d   1       0.414   1.775   0.695  0.00  0.00     0.002 A 
ATOM      4  C5  UNL d   1       0.306   2.416  -0.544  0.00  0.00    -0.080 A 
ATOM      5  C6  UNL d   1       0.169   3.906  -0.635  0.00  0.00     0.076 C 
ATOM      6  C7  UNL d   1       0.323   1.644  -1.711  0.00  0.00     0.002 A 
ATOM      7  C8  UNL d   1       0.422   0.253  -1.639  0.00  0.00     0.006 A 
ENDROOT
BRANCH   1   8
ATOM      8  C1  UNL d   1       0.552  -1.895  -0.321  0.00  0.00     0.054 C 
ATOM      9  C   UNL d   1      -0.633  -2.518  -1.044  0.00  0.00     0.018 C 
ENDBRANCH   1   8
TORSDOF 1
ENDMDL
