MODEL 1
REMARK minimizedAffinity -1.72192776
REMARK minimizedRMSD -1
REMARK  1 active torsions:
REMARK  status: ('A' for Active; 'I' for Inactive)
REMARK    1  A    between atoms: C1_2  and  C2_3 
ROOT
ATOM      1  C2  UNL d   1      -0.508   1.963  -0.646  0.00  0.00    -0.081 A 
ATOM      2  C3  UNL d   1      -0.116   1.266   0.503  0.00  0.00     0.006 A 
ATOM      3  C4  UNL d   1       0.439  -0.012   0.401  0.00  0.00     0.002 A 
ATOM      4  C5  UNL d   1       0.618  -0.610  -0.850  0.00  0.00    -0.080 A 
ATOM      5  C6  UNL d   1       1.240  -1.969  -0.976  0.00  0.00     0.076 C 
ATOM      6  C7  UNL d   1       0.209   0.079  -1.997  0.00  0.00     0.002 A 
ATOM      7  C8  UNL d   1      -0.346   1.356  -1.896  0.00  0.00     0.006 A 
ENDROOT
BRANCH   1   8
ATOM      8  C1  UNL d   1      -1.047   3.367  -0.544  0.00  0.00     0.054 C 
ATOM      9  C   UNL d   1      -0.941   3.899   0.878  0.00  0.00     0.018 C 
ENDBRANCH   1   8
TORSDOF 1
ENDMDL
