MODEL 1
REMARK minimizedAffinity -1.8773371
REMARK minimizedRMSD -1
REMARK  1 active torsions:
REMARK  status: ('A' for Active; 'I' for Inactive)
REMARK    1  A    between atoms: C1_2  and  C2_3 
ROOT
ATOM      1  C2  UNL d   1       0.568  -1.395  -0.389  0.00  0.00    -0.081 A 
ATOM      2  C3  UNL d   1       0.190  -0.261  -1.119  0.00  0.00     0.006 A 
ATOM      3  C4  UNL d   1       0.024   0.969  -0.479  0.00  0.00     0.002 A 
ATOM      4  C5  UNL d   1       0.239   1.088   0.898  0.00  0.00    -0.080 A 
ATOM      5  C6  UNL d   1       0.093   2.410   1.592  0.00  0.00     0.076 C 
ATOM      6  C7  UNL d   1       0.599  -0.048   1.630  0.00  0.00     0.002 A 
ATOM      7  C8  UNL d   1       0.765  -1.279   0.991  0.00  0.00     0.006 A 
ENDROOT
BRANCH   1   8
ATOM      8  C1  UNL d   1       0.811  -2.709  -1.086  0.00  0.00     0.054 C 
ATOM      9  C   UNL d   1      -0.428  -3.592  -1.051  0.00  0.00     0.018 C 
ENDBRANCH   1   8
TORSDOF 1
ENDMDL
