MODEL 1
REMARK minimizedAffinity -4.43120623
REMARK minimizedRMSD -1
REMARK  1 active torsions:
REMARK  status: ('A' for Active; 'I' for Inactive)
REMARK    1  A    between atoms: C1_2  and  C2_3 
ROOT
ATOM      1  C2  UNL d   1       0.159   0.287  -0.716  0.00  0.00    -0.081 A 
ATOM      2  C3  UNL d   1      -0.562   0.032   0.458  0.00  0.00     0.006 A 
ATOM      3  C4  UNL d   1      -1.158   1.079   1.164  0.00  0.00     0.002 A 
ATOM      4  C5  UNL d   1      -1.051   2.396   0.706  0.00  0.00    -0.080 A 
ATOM      5  C6  UNL d   1      -1.712   3.525   1.439  0.00  0.00     0.076 C 
ATOM      6  C7  UNL d   1      -0.317   2.653  -0.457  0.00  0.00     0.002 A 
ATOM      7  C8  UNL d   1       0.280   1.607  -1.163  0.00  0.00     0.006 A 
ENDROOT
BRANCH   1   8
ATOM      8  C1  UNL d   1       0.748  -0.847  -1.515  0.00  0.00     0.054 C 
ATOM      9  C   UNL d   1      -0.074  -2.118  -1.361  0.00  0.00     0.018 C 
ENDBRANCH   1   8
TORSDOF 1
ENDMDL
