MODEL 1
REMARK minimizedAffinity -5.15694284
REMARK minimizedRMSD -1
REMARK  1 active torsions:
REMARK  status: ('A' for Active; 'I' for Inactive)
REMARK    1  A    between atoms: C1_2  and  C2_3 
ROOT
ATOM      1  C2  UNL d   1       0.171   0.283  -0.089  0.00  0.00    -0.081 A 
ATOM      2  C3  UNL d   1      -0.042   0.540   1.271  0.00  0.00     0.006 A 
ATOM      3  C4  UNL d   1      -0.686   1.711   1.678  0.00  0.00     0.002 A 
ATOM      4  C5  UNL d   1      -1.134   2.640   0.733  0.00  0.00    -0.080 A 
ATOM      5  C6  UNL d   1      -1.854   3.887   1.155  0.00  0.00     0.076 C 
ATOM      6  C7  UNL d   1      -0.906   2.392  -0.625  0.00  0.00     0.002 A 
ATOM      7  C8  UNL d   1      -0.262   1.222  -1.032  0.00  0.00     0.006 A 
ENDROOT
BRANCH   1   8
ATOM      8  C1  UNL d   1       0.807  -1.009  -0.534  0.00  0.00     0.054 C 
ATOM      9  C   UNL d   1      -0.200  -1.908  -1.237  0.00  0.00     0.018 C 
ENDBRANCH   1   8
TORSDOF 1
ENDMDL
