MODEL 1
REMARK minimizedAffinity -2.97371149
REMARK minimizedRMSD -1
REMARK  1 active torsions:
REMARK  status: ('A' for Active; 'I' for Inactive)
REMARK    1  A    between atoms: C1_2  and  C2_3 
ROOT
ATOM      1  C2  UNL d   1      -0.414   1.515   1.135  0.00  0.00    -0.081 A 
ATOM      2  C3  UNL d   1      -0.231   1.604  -0.250  0.00  0.00     0.006 A 
ATOM      3  C4  UNL d   1      -0.251   0.454  -1.043  0.00  0.00     0.002 A 
ATOM      4  C5  UNL d   1      -0.464  -0.802  -0.466  0.00  0.00    -0.080 A 
ATOM      5  C6  UNL d   1      -0.519  -2.041  -1.309  0.00  0.00     0.076 C 
ATOM      6  C7  UNL d   1      -0.630  -0.894   0.920  0.00  0.00     0.002 A 
ATOM      7  C8  UNL d   1      -0.608   0.256   1.714  0.00  0.00     0.006 A 
ENDROOT
BRANCH   1   8
ATOM      8  C1  UNL d   1      -0.457   2.759   1.985  0.00  0.00     0.054 C 
ATOM      9  C   UNL d   1      -1.042   3.935   1.215  0.00  0.00     0.018 C 
ENDBRANCH   1   8
TORSDOF 1
ENDMDL
