MODEL 1
REMARK minimizedAffinity 8.22440624
REMARK minimizedRMSD -1
REMARK  3 active torsions:
REMARK  status: ('A' for Active; 'I' for Inactive)
REMARK    1  A    between atoms: C3'_2  and  C2'_3 
REMARK    2  A    between atoms: C2'_3  and  C1'_4 
REMARK    3  A    between atoms: C1'_4  and  C1_5 
ROOT
ATOM      1  C1  N4B d   1      -1.461  -1.298  -5.539  0.00  0.00    -0.075 A 
ATOM      2  C2  N4B d   1      -1.797  -2.620  -5.906  0.00  0.00     0.002 A 
ATOM      3  C3  N4B d   1      -3.115  -2.992  -6.000  0.00  0.00     0.002 A 
ATOM      4  C4  N4B d   1      -4.110  -2.070  -5.714  0.00  0.00    -0.004 A 
ATOM      5  C5  N4B d   1      -3.778  -0.788  -5.384  0.00  0.00     0.002 A 
ATOM      6  C6  N4B d   1      -2.457  -0.399  -5.290  0.00  0.00     0.002 A 
ENDROOT
BRANCH   1   7
ATOM      7  C1' N4B d   1      -0.033  -0.868  -5.340  0.00  0.00     0.057 C 
BRANCH   7   8
ATOM      8  C2' N4B d   1       0.204  -0.587  -3.859  0.00  0.00     0.009 C 
BRANCH   8   9
ATOM      9  C3' N4B d   1       1.627  -0.132  -3.587  0.00  0.00     0.004 C 
ATOM     10  C4' N4B d   1       2.461  -0.060  -4.832  0.00  0.00     0.003 C 
ENDBRANCH   8   9
ENDBRANCH   7   8
ENDBRANCH   1   7
TORSDOF 3
ENDMDL
