MODEL 1
REMARK minimizedAffinity 11.9672832
REMARK minimizedRMSD -1
REMARK  3 active torsions:
REMARK  status: ('A' for Active; 'I' for Inactive)
REMARK    1  A    between atoms: C3'_2  and  C2'_3 
REMARK    2  A    between atoms: C2'_3  and  C1'_4 
REMARK    3  A    between atoms: C1'_4  and  C1_5 
ROOT
ATOM      1  C1  N4B d   1      -1.061  -1.426  -5.785  0.00  0.00    -0.075 A 
ATOM      2  C2  N4B d   1      -1.518  -2.755  -5.928  0.00  0.00     0.002 A 
ATOM      3  C3  N4B d   1      -2.865  -3.013  -6.000  0.00  0.00     0.002 A 
ATOM      4  C4  N4B d   1      -3.770  -1.966  -5.911  0.00  0.00    -0.004 A 
ATOM      5  C5  N4B d   1      -3.320  -0.684  -5.798  0.00  0.00     0.002 A 
ATOM      6  C6  N4B d   1      -1.969  -0.409  -5.729  0.00  0.00     0.002 A 
ENDROOT
BRANCH   1   7
ATOM      7  C1' N4B d   1       0.398  -1.103  -5.616  0.00  0.00     0.057 C 
BRANCH   7   8
ATOM      8  C2' N4B d   1       0.659  -0.707  -4.166  0.00  0.00     0.009 C 
BRANCH   8   9
ATOM      9  C3' N4B d   1       2.144  -0.653  -3.850  0.00  0.00     0.004 C 
ATOM     10  C4' N4B d   1       2.984  -0.362  -5.057  0.00  0.00     0.003 C 
ENDBRANCH   8   9
ENDBRANCH   7   8
ENDBRANCH   1   7
TORSDOF 3
ENDMDL
