MODEL 1
REMARK minimizedAffinity 0.159300849
REMARK minimizedRMSD -1
REMARK  3 active torsions:
REMARK  status: ('A' for Active; 'I' for Inactive)
REMARK    1  A    between atoms: C3'_2  and  C2'_3 
REMARK    2  A    between atoms: C2'_3  and  C1'_4 
REMARK    3  A    between atoms: C1'_4  and  C1_5 
ROOT
ATOM      1  C1  N4B d   1      -4.878   1.557   3.290  0.00  0.00    -0.075 A 
ATOM      2  C2  N4B d   1      -4.474   2.585   2.410  0.00  0.00     0.002 A 
ATOM      3  C3  N4B d   1      -3.696   2.288   1.318  0.00  0.00     0.002 A 
ATOM      4  C4  N4B d   1      -3.295   0.979   1.098  0.00  0.00    -0.004 A 
ATOM      5  C5  N4B d   1      -3.710  -0.012   1.938  0.00  0.00     0.002 A 
ATOM      6  C6  N4B d   1      -4.496   0.271   3.037  0.00  0.00     0.002 A 
ENDROOT
BRANCH   1   7
ATOM      7  C1' N4B d   1      -5.658   1.845   4.543  0.00  0.00     0.057 C 
BRANCH   7   8
ATOM      8  C2' N4B d   1      -6.000   3.332   4.590  0.00  0.00     0.009 C 
BRANCH   8   9
ATOM      9  C3' N4B d   1      -5.874   3.900   5.993  0.00  0.00     0.004 C 
ATOM     10  C4' N4B d   1      -5.602   5.375   6.000  0.00  0.00     0.003 C 
ENDBRANCH   8   9
ENDBRANCH   7   8
ENDBRANCH   1   7
TORSDOF 3
ENDMDL
