MODEL 1
REMARK minimizedAffinity 3.8274498
REMARK minimizedRMSD -1
REMARK  3 active torsions:
REMARK  status: ('A' for Active; 'I' for Inactive)
REMARK    1  A    between atoms: C3'_2  and  C2'_3 
REMARK    2  A    between atoms: C2'_3  and  C1'_4 
REMARK    3  A    between atoms: C1'_4  and  C1_5 
ROOT
ATOM      1  C1  N4B d   1      -2.957  -2.126  -5.995  0.00  0.00    -0.075 A 
ATOM      2  C2  N4B d   1      -3.782  -3.272  -6.000  0.00  0.00     0.002 A 
ATOM      3  C3  N4B d   1      -5.149  -3.134  -5.997  0.00  0.00     0.002 A 
ATOM      4  C4  N4B d   1      -5.710  -1.866  -5.972  0.00  0.00    -0.004 A 
ATOM      5  C5  N4B d   1      -4.906  -0.764  -5.993  0.00  0.00     0.002 A 
ATOM      6  C6  N4B d   1      -3.531  -0.887  -6.000  0.00  0.00     0.002 A 
ENDROOT
BRANCH   1   7
ATOM      7  C1' N4B d   1      -1.459  -2.226  -5.911  0.00  0.00     0.057 C 
BRANCH   7   8
ATOM      8  C2' N4B d   1      -0.902  -0.932  -5.325  0.00  0.00     0.009 C 
BRANCH   8   9
ATOM      9  C3' N4B d   1      -0.097  -1.180  -4.061  0.00  0.00     0.004 C 
ATOM     10  C4' N4B d   1       1.247  -0.515  -4.089  0.00  0.00     0.003 C 
ENDBRANCH   8   9
ENDBRANCH   7   8
ENDBRANCH   1   7
TORSDOF 3
ENDMDL
