MODEL 1
REMARK minimizedAffinity 4.83445215
REMARK minimizedRMSD -1
REMARK  3 active torsions:
REMARK  status: ('A' for Active; 'I' for Inactive)
REMARK    1  A    between atoms: C3'_2  and  C2'_3 
REMARK    2  A    between atoms: C2'_3  and  C1'_4 
REMARK    3  A    between atoms: C1'_4  and  C1_5 
ROOT
ATOM      1  C1  N4B d   1      -4.848   2.447   3.721  0.00  0.00    -0.075 A 
ATOM      2  C2  N4B d   1      -3.941   2.619   2.652  0.00  0.00     0.002 A 
ATOM      3  C3  N4B d   1      -3.146   1.573   2.252  0.00  0.00     0.002 A 
ATOM      4  C4  N4B d   1      -3.225   0.358   2.915  0.00  0.00    -0.004 A 
ATOM      5  C5  N4B d   1      -4.121   0.193   3.930  0.00  0.00     0.002 A 
ATOM      6  C6  N4B d   1      -4.930   1.234   4.340  0.00  0.00     0.002 A 
ENDROOT
BRANCH   1   7
ATOM      7  C1' N4B d   1      -5.677   3.585   4.249  0.00  0.00     0.057 C 
BRANCH   7   8
ATOM      8  C2' N4B d   1      -5.263   3.881   5.688  0.00  0.00     0.009 C 
BRANCH   8   9
ATOM      9  C3' N4B d   1      -5.289   5.369   5.993  0.00  0.00     0.004 C 
ATOM     10  C4' N4B d   1      -3.921   5.983   6.000  0.00  0.00     0.003 C 
ENDBRANCH   8   9
ENDBRANCH   7   8
ENDBRANCH   1   7
TORSDOF 3
ENDMDL
