MODEL 1
REMARK minimizedAffinity 4.32543278
REMARK minimizedRMSD -1
REMARK  3 active torsions:
REMARK  status: ('A' for Active; 'I' for Inactive)
REMARK    1  A    between atoms: C3'_2  and  C2'_3 
REMARK    2  A    between atoms: C2'_3  and  C1'_4 
REMARK    3  A    between atoms: C1'_4  and  C1_5 
ROOT
ATOM      1  C1  N4B d   1       5.671  -2.740   3.630  0.00  0.00    -0.075 A 
ATOM      2  C2  N4B d   1       5.780  -4.148   3.623  0.00  0.00     0.002 A 
ATOM      3  C3  N4B d   1       5.933  -4.830   4.805  0.00  0.00     0.002 A 
ATOM      4  C4  N4B d   1       6.000  -4.128   5.999  0.00  0.00    -0.004 A 
ATOM      5  C5  N4B d   1       5.868  -2.770   5.999  0.00  0.00     0.002 A 
ATOM      6  C6  N4B d   1       5.710  -2.071   4.819  0.00  0.00     0.002 A 
ENDROOT
BRANCH   1   7
ATOM      7  C1' N4B d   1       5.588  -1.944   2.356  0.00  0.00     0.057 C 
BRANCH   7   8
ATOM      8  C2' N4B d   1       4.451  -0.933   2.470  0.00  0.00     0.009 C 
BRANCH   8   9
ATOM      9  C3' N4B d   1       4.443   0.047   1.310  0.00  0.00     0.004 C 
ATOM     10  C4' N4B d   1       5.597  -0.152   0.374  0.00  0.00     0.003 C 
ENDBRANCH   8   9
ENDBRANCH   7   8
ENDBRANCH   1   7
TORSDOF 3
ENDMDL
