MODEL 1
REMARK minimizedAffinity 20.3908253
REMARK minimizedRMSD -1
REMARK  0 active torsions:
REMARK  status: ('A' for Active; 'I' for Inactive)
ROOT
ATOM      1  O1  BZF d   1      -3.000   3.674  -5.806  0.00  0.00    -0.204 OA
ATOM      2  C2  BZF d   1      -2.837   2.303  -5.741  0.00  0.00     0.174 A 
ATOM      3  C3  BZF d   1      -1.530   1.974  -5.785  0.00  0.00    -0.012 A 
ATOM      4  C3A BZF d   1      -0.828   3.221  -5.791  0.00  0.00    -0.107 A 
ATOM      5  C4  BZF d   1       0.496   3.553  -5.812  0.00  0.00     0.055 A 
ATOM      6  C5  BZF d   1       0.848   4.863  -5.886  0.00  0.00    -0.016 A 
ATOM      7  C6  BZF d   1      -0.097   5.866  -5.945  0.00  0.00     0.022 A 
ATOM      8  C7  BZF d   1      -1.423   5.587  -5.922  0.00  0.00     0.029 A 
ATOM      9  C7A BZF d   1      -1.782   4.265  -5.814  0.00  0.00     0.058 A 
ENDROOT
TORSDOF 0
ENDMDL
