MODEL 1
REMARK minimizedAffinity 7.37784433
REMARK minimizedRMSD -1
REMARK  0 active torsions:
REMARK  status: ('A' for Active; 'I' for Inactive)
ROOT
ATOM      1  O1  BZF d   1       5.702   3.913   0.114  0.00  0.00    -0.204 OA
ATOM      2  C2  BZF d   1       5.370   5.029  -0.629  0.00  0.00     0.174 A 
ATOM      3  C3  BZF d   1       4.870   6.000   0.162  0.00  0.00    -0.012 A 
ATOM      4  C3A BZF d   1       4.976   5.491   1.495  0.00  0.00    -0.107 A 
ATOM      5  C4  BZF d   1       4.657   5.999   2.722  0.00  0.00     0.055 A 
ATOM      6  C5  BZF d   1       4.818   5.217   3.822  0.00  0.00    -0.016 A 
ATOM      7  C6  BZF d   1       5.288   3.923   3.731  0.00  0.00     0.022 A 
ATOM      8  C7  BZF d   1       5.622   3.378   2.537  0.00  0.00     0.029 A 
ATOM      9  C7A BZF d   1       5.493   4.176   1.427  0.00  0.00     0.058 A 
ENDROOT
TORSDOF 0
ENDMDL
