MODEL 1
REMARK minimizedAffinity -0.546341777
REMARK minimizedRMSD -1
REMARK  0 active torsions:
REMARK  status: ('A' for Active; 'I' for Inactive)
ROOT
ATOM      1  O1  BZF d   1      -3.425   2.880  -5.960  0.00  0.00    -0.204 OA
ATOM      2  C2  BZF d   1      -4.524   3.717  -5.946  0.00  0.00     0.174 A 
ATOM      3  C3  BZF d   1      -4.140   5.009  -5.896  0.00  0.00    -0.012 A 
ATOM      4  C3A BZF d   1      -2.711   4.980  -5.971  0.00  0.00    -0.107 A 
ATOM      5  C4  BZF d   1      -1.752   5.952  -5.982  0.00  0.00     0.055 A 
ATOM      6  C5  BZF d   1      -0.443   5.587  -5.990  0.00  0.00    -0.016 A 
ATOM      7  C6  BZF d   1      -0.058   4.263  -5.980  0.00  0.00     0.022 A 
ATOM      8  C7  BZF d   1      -0.973   3.263  -5.974  0.00  0.00     0.029 A 
ATOM      9  C7A BZF d   1      -2.297   3.628  -6.000  0.00  0.00     0.058 A 
ENDROOT
TORSDOF 0
ENDMDL
