MODEL 1
REMARK minimizedAffinity 13.7644081
REMARK minimizedRMSD -1
REMARK  0 active torsions:
REMARK  status: ('A' for Active; 'I' for Inactive)
ROOT
ATOM      1  O1  BZF d   1       3.926   3.403  -5.962  0.00  0.00    -0.204 OA
ATOM      2  C2  BZF d   1       3.631   2.053  -5.967  0.00  0.00     0.174 A 
ATOM      3  C3  BZF d   1       2.298   1.854  -5.914  0.00  0.00    -0.012 A 
ATOM      4  C3A BZF d   1       1.720   3.162  -5.967  0.00  0.00    -0.107 A 
ATOM      5  C4  BZF d   1       0.434   3.621  -5.967  0.00  0.00     0.055 A 
ATOM      6  C5  BZF d   1       0.211   4.962  -5.953  0.00  0.00    -0.016 A 
ATOM      7  C6  BZF d   1       1.249   5.870  -5.934  0.00  0.00     0.022 A 
ATOM      8  C7  BZF d   1       2.542   5.463  -5.939  0.00  0.00     0.029 A 
ATOM      9  C7A BZF d   1       2.770   4.109  -5.987  0.00  0.00     0.058 A 
ENDROOT
TORSDOF 0
ENDMDL
