MODEL 1
REMARK minimizedAffinity 7.8518405
REMARK minimizedRMSD -1
REMARK  0 active torsions:
REMARK  status: ('A' for Active; 'I' for Inactive)
ROOT
ATOM      1  O1  BZF d   1       0.149   2.174  -0.688  0.00  0.00    -0.204 OA
ATOM      2  C2  BZF d   1       0.667   1.425   0.350  0.00  0.00     0.174 A 
ATOM      3  C3  BZF d   1       1.655   0.618  -0.088  0.00  0.00    -0.012 A 
ATOM      4  C3A BZF d   1       1.823   0.946  -1.471  0.00  0.00    -0.107 A 
ATOM      5  C4  BZF d   1       2.664   0.495  -2.448  0.00  0.00     0.055 A 
ATOM      6  C5  BZF d   1       2.521   0.969  -3.713  0.00  0.00    -0.016 A 
ATOM      7  C6  BZF d   1       1.546   1.890  -4.038  0.00  0.00     0.022 A 
ATOM      8  C7  BZF d   1       0.692   2.370  -3.102  0.00  0.00     0.029 A 
ATOM      9  C7A BZF d   1       0.855   1.918  -1.816  0.00  0.00     0.058 A 
ENDROOT
TORSDOF 0
ENDMDL
