MODEL 1
REMARK minimizedAffinity 9.1232996
REMARK minimizedRMSD -1
REMARK  0 active torsions:
REMARK  status: ('A' for Active; 'I' for Inactive)
ROOT
ATOM      1  O1  BZF d   1      -5.760   5.053  -3.805  0.00  0.00    -0.204 OA
ATOM      2  C2  BZF d   1      -5.981   5.830  -4.925  0.00  0.00     0.174 A 
ATOM      3  C3  BZF d   1      -5.167   5.457  -5.934  0.00  0.00    -0.012 A 
ATOM      4  C3A BZF d   1      -4.455   4.318  -5.441  0.00  0.00    -0.107 A 
ATOM      5  C4  BZF d   1      -3.512   3.493  -5.985  0.00  0.00     0.055 A 
ATOM      6  C5  BZF d   1      -2.964   2.518  -5.213  0.00  0.00    -0.016 A 
ATOM      7  C6  BZF d   1      -3.330   2.344  -3.894  0.00  0.00     0.022 A 
ATOM      8  C7  BZF d   1      -4.264   3.135  -3.312  0.00  0.00     0.029 A 
ATOM      9  C7A BZF d   1      -4.844   4.100  -4.099  0.00  0.00     0.058 A 
ENDROOT
TORSDOF 0
ENDMDL
