MODEL 1
REMARK minimizedAffinity 0.67250526
REMARK minimizedRMSD -1
REMARK  0 active torsions:
REMARK  status: ('A' for Active; 'I' for Inactive)
ROOT
ATOM      1  O1  BZF d   1      -2.845   4.151  -5.919  0.00  0.00    -0.204 OA
ATOM      2  C2  BZF d   1      -2.832   5.531  -5.992  0.00  0.00     0.174 A 
ATOM      3  C3  BZF d   1      -1.567   5.999  -5.981  0.00  0.00    -0.012 A 
ATOM      4  C3A BZF d   1      -0.735   4.834  -5.989  0.00  0.00    -0.107 A 
ATOM      5  C4  BZF d   1       0.618   4.647  -5.999  0.00  0.00     0.055 A 
ATOM      6  C5  BZF d   1       1.110   3.382  -5.931  0.00  0.00    -0.016 A 
ATOM      7  C6  BZF d   1       0.280   2.284  -5.846  0.00  0.00     0.022 A 
ATOM      8  C7  BZF d   1      -1.069   2.419  -5.837  0.00  0.00     0.029 A 
ATOM      9  C7A BZF d   1      -1.570   3.694  -5.940  0.00  0.00     0.058 A 
ENDROOT
TORSDOF 0
ENDMDL
