MODEL 1
REMARK minimizedAffinity 15.2879667
REMARK minimizedRMSD -1
REMARK  0 active torsions:
REMARK  status: ('A' for Active; 'I' for Inactive)
ROOT
ATOM      1  O1  BZF d   1      -0.261   3.644  -5.682  0.00  0.00    -0.204 OA
ATOM      2  C2  BZF d   1       0.508   4.787  -5.781  0.00  0.00     0.174 A 
ATOM      3  C3  BZF d   1      -0.269   5.873  -5.968  0.00  0.00    -0.012 A 
ATOM      4  C3A BZF d   1      -1.614   5.390  -5.895  0.00  0.00    -0.107 A 
ATOM      5  C4  BZF d   1      -2.835   5.994  -5.990  0.00  0.00     0.055 A 
ATOM      6  C5  BZF d   1      -3.956   5.227  -5.949  0.00  0.00    -0.016 A 
ATOM      7  C6  BZF d   1      -3.893   3.855  -5.820  0.00  0.00     0.022 A 
ATOM      8  C7  BZF d   1      -2.705   3.211  -5.718  0.00  0.00     0.029 A 
ATOM      9  C7A BZF d   1      -1.571   3.987  -5.726  0.00  0.00     0.058 A 
ENDROOT
TORSDOF 0
ENDMDL
