MODEL 1
REMARK minimizedAffinity 4.41283607
REMARK minimizedRMSD -1
REMARK  0 active torsions:
REMARK  status: ('A' for Active; 'I' for Inactive)
ROOT
ATOM      1  O1  BZF d   1      -1.736   3.748  -5.892  0.00  0.00    -0.204 OA
ATOM      2  C2  BZF d   1      -1.045   4.941  -5.809  0.00  0.00     0.174 A 
ATOM      3  C3  BZF d   1      -1.896   5.988  -5.824  0.00  0.00    -0.012 A 
ATOM      4  C3A BZF d   1      -3.204   5.410  -5.829  0.00  0.00    -0.107 A 
ATOM      5  C4  BZF d   1      -4.464   5.938  -5.828  0.00  0.00     0.055 A 
ATOM      6  C5  BZF d   1      -5.531   5.101  -5.908  0.00  0.00    -0.016 A 
ATOM      7  C6  BZF d   1      -5.375   3.733  -5.997  0.00  0.00     0.022 A 
ATOM      8  C7  BZF d   1      -4.146   3.162  -5.996  0.00  0.00     0.029 A 
ATOM      9  C7A BZF d   1      -3.067   4.004  -5.882  0.00  0.00     0.058 A 
ENDROOT
TORSDOF 0
ENDMDL
