MODEL 1
REMARK minimizedAffinity 11.5938835
REMARK minimizedRMSD -1
REMARK  0 active torsions:
REMARK  status: ('A' for Active; 'I' for Inactive)
ROOT
ATOM      1  O1  BZF d   1      -2.235  -3.756  -1.211  0.00  0.00    -0.204 OA
ATOM      2  C2  BZF d   1      -1.594  -4.939  -1.527  0.00  0.00     0.174 A 
ATOM      3  C3  BZF d   1      -2.316  -6.000  -1.112  0.00  0.00    -0.012 A 
ATOM      4  C3A BZF d   1      -3.525  -5.448  -0.581  0.00  0.00    -0.107 A 
ATOM      5  C4  BZF d   1      -4.646  -6.000  -0.031  0.00  0.00     0.055 A 
ATOM      6  C5  BZF d   1      -5.614  -5.180   0.457  0.00  0.00    -0.016 A 
ATOM      7  C6  BZF d   1      -5.492  -3.807   0.414  0.00  0.00     0.022 A 
ATOM      8  C7  BZF d   1      -4.401  -3.213  -0.127  0.00  0.00     0.029 A 
ATOM      9  C7A BZF d   1      -3.435  -4.039  -0.650  0.00  0.00     0.058 A 
ENDROOT
TORSDOF 0
ENDMDL
