MODEL 1
REMARK minimizedAffinity 6.900249
REMARK minimizedRMSD -1
REMARK  0 active torsions:
REMARK  status: ('A' for Active; 'I' for Inactive)
ROOT
ATOM      1  O1  BZF d   1       2.121   2.625  -5.016  0.00  0.00    -0.204 OA
ATOM      2  C2  BZF d   1       2.262   1.556  -4.152  0.00  0.00     0.174 A 
ATOM      3  C3  BZF d   1       1.057   1.104  -3.750  0.00  0.00    -0.012 A 
ATOM      4  C3A BZF d   1       0.101   1.883  -4.476  0.00  0.00    -0.107 A 
ATOM      5  C4  BZF d   1      -1.264   1.892  -4.519  0.00  0.00     0.055 A 
ATOM      6  C5  BZF d   1      -1.894   2.827  -5.277  0.00  0.00    -0.016 A 
ATOM      7  C6  BZF d   1      -1.192   3.771  -5.999  0.00  0.00     0.022 A 
ATOM      8  C7  BZF d   1       0.163   3.798  -5.991  0.00  0.00     0.029 A 
ATOM      9  C7A BZF d   1       0.804   2.833  -5.252  0.00  0.00     0.058 A 
ENDROOT
TORSDOF 0
ENDMDL
