MODEL 1
REMARK minimizedAffinity 8.25521183
REMARK minimizedRMSD -1
REMARK  0 active torsions:
REMARK  status: ('A' for Active; 'I' for Inactive)
ROOT
ATOM      1  O1  BZF d   1      -0.603   2.128  -5.373  0.00  0.00    -0.204 OA
ATOM      2  C2  BZF d   1      -1.970   2.224  -5.197  0.00  0.00     0.174 A 
ATOM      3  C3  BZF d   1      -2.369   3.511  -5.249  0.00  0.00    -0.012 A 
ATOM      4  C3A BZF d   1      -1.190   4.259  -5.563  0.00  0.00    -0.107 A 
ATOM      5  C4  BZF d   1      -0.947   5.588  -5.763  0.00  0.00     0.055 A 
ATOM      6  C5  BZF d   1       0.330   5.999  -5.981  0.00  0.00    -0.016 A 
ATOM      7  C6  BZF d   1       1.386   5.112  -6.000  0.00  0.00     0.022 A 
ATOM      8  C7  BZF d   1       1.193   3.784  -5.811  0.00  0.00     0.029 A 
ATOM      9  C7A BZF d   1      -0.100   3.360  -5.623  0.00  0.00     0.058 A 
ENDROOT
TORSDOF 0
ENDMDL
