MODEL 1
REMARK minimizedAffinity -0.172435626
REMARK minimizedRMSD -1
REMARK  0 active torsions:
REMARK  status: ('A' for Active; 'I' for Inactive)
ROOT
ATOM      1  O1  BZF d   1      -3.765   3.762  -5.819  0.00  0.00    -0.204 OA
ATOM      2  C2  BZF d   1      -4.474   4.939  -5.965  0.00  0.00     0.174 A 
ATOM      3  C3  BZF d   1      -3.642   5.999  -5.991  0.00  0.00    -0.012 A 
ATOM      4  C3A BZF d   1      -2.324   5.444  -5.946  0.00  0.00    -0.107 A 
ATOM      5  C4  BZF d   1      -1.073   5.993  -5.960  0.00  0.00     0.055 A 
ATOM      6  C5  BZF d   1       0.007   5.178  -5.829  0.00  0.00    -0.016 A 
ATOM      7  C6  BZF d   1      -0.127   3.813  -5.678  0.00  0.00     0.022 A 
ATOM      8  C7  BZF d   1      -1.347   3.223  -5.663  0.00  0.00     0.029 A 
ATOM      9  C7A BZF d   1      -2.439   4.040  -5.828  0.00  0.00     0.058 A 
ENDROOT
TORSDOF 0
ENDMDL
