MODEL 1
REMARK minimizedAffinity 15.9968557
REMARK minimizedRMSD -1
REMARK  0 active torsions:
REMARK  status: ('A' for Active; 'I' for Inactive)
ROOT
ATOM      1  O1  BZF d   1      -3.533   2.775  -0.867  0.00  0.00    -0.204 OA
ATOM      2  C2  BZF d   1      -4.269   2.050   0.050  0.00  0.00     0.174 A 
ATOM      3  C3  BZF d   1      -3.458   1.423   0.926  0.00  0.00    -0.012 A 
ATOM      4  C3A BZF d   1      -2.136   1.852   0.589  0.00  0.00    -0.107 A 
ATOM      5  C4  BZF d   1      -0.901   1.586   1.108  0.00  0.00     0.055 A 
ATOM      6  C5  BZF d   1       0.197   2.107   0.500  0.00  0.00    -0.016 A 
ATOM      7  C6  BZF d   1       0.098   2.894  -0.629  0.00  0.00     0.022 A 
ATOM      8  C7  BZF d   1      -1.106   3.190  -1.177  0.00  0.00     0.029 A 
ATOM      9  C7A BZF d   1      -2.219   2.691  -0.546  0.00  0.00     0.058 A 
ENDROOT
TORSDOF 0
ENDMDL
