MODEL 1
REMARK minimizedAffinity 8.88319111
REMARK minimizedRMSD -1
REMARK  0 active torsions:
REMARK  status: ('A' for Active; 'I' for Inactive)
ROOT
ATOM      1  O1  BZF d   1       0.353   3.758  -5.868  0.00  0.00    -0.204 OA
ATOM      2  C2  BZF d   1       1.067   4.940  -5.871  0.00  0.00     0.174 A 
ATOM      3  C3  BZF d   1       0.237   6.000  -5.965  0.00  0.00    -0.012 A 
ATOM      4  C3A BZF d   1      -1.083   5.448  -5.932  0.00  0.00    -0.107 A 
ATOM      5  C4  BZF d   1      -2.332   5.999  -5.973  0.00  0.00     0.055 A 
ATOM      6  C5  BZF d   1      -3.415   5.179  -5.996  0.00  0.00    -0.016 A 
ATOM      7  C6  BZF d   1      -3.286   3.806  -5.983  0.00  0.00     0.022 A 
ATOM      8  C7  BZF d   1      -2.068   3.213  -5.937  0.00  0.00     0.029 A 
ATOM      9  C7A BZF d   1      -0.972   4.040  -5.881  0.00  0.00     0.058 A 
ENDROOT
TORSDOF 0
ENDMDL
