MODEL 1
REMARK minimizedAffinity 9.31103516
REMARK minimizedRMSD -1
REMARK  0 active torsions:
REMARK  status: ('A' for Active; 'I' for Inactive)
ROOT
ATOM      1  O1  BZF d   1      -2.940   4.765  -5.975  0.00  0.00    -0.204 OA
ATOM      2  C2  BZF d   1      -3.353   3.453  -5.848  0.00  0.00     0.174 A 
ATOM      3  C3  BZF d   1      -2.294   2.625  -5.750  0.00  0.00    -0.012 A 
ATOM      4  C3A BZF d   1      -1.148   3.481  -5.729  0.00  0.00    -0.107 A 
ATOM      5  C4  BZF d   1       0.195   3.251  -5.630  0.00  0.00     0.055 A 
ATOM      6  C5  BZF d   1       1.053   4.301  -5.713  0.00  0.00    -0.016 A 
ATOM      7  C6  BZF d   1       0.605   5.592  -5.900  0.00  0.00     0.022 A 
ATOM      8  C7  BZF d   1      -0.718   5.871  -5.999  0.00  0.00     0.029 A 
ATOM      9  C7A BZF d   1      -1.590   4.816  -5.882  0.00  0.00     0.058 A 
ENDROOT
TORSDOF 0
ENDMDL
