MODEL 1
REMARK minimizedAffinity -4.61479521
REMARK minimizedRMSD -1
REMARK  0 active torsions:
REMARK  status: ('A' for Active; 'I' for Inactive)
ROOT
ATOM      1  C1  BNZ d   1      -1.908  -0.284   1.264  0.00  0.00     0.000 A 
ATOM      2  C2  BNZ d   1      -0.631  -0.764   1.138  0.00  0.00     0.000 A 
ATOM      3  C3  BNZ d   1       0.126  -0.458   0.041  0.00  0.00     0.000 A 
ATOM      4  C4  BNZ d   1      -0.407   0.292  -0.945  0.00  0.00     0.000 A 
ATOM      5  C5  BNZ d   1      -1.696   0.775  -0.836  0.00  0.00     0.000 A 
ATOM      6  C6  BNZ d   1      -2.442   0.498   0.287  0.00  0.00     0.000 A 
ENDROOT
TORSDOF 0
ENDMDL
