MODEL 1
REMARK minimizedAffinity -3.88037348
REMARK minimizedRMSD -1
REMARK  0 active torsions:
REMARK  status: ('A' for Active; 'I' for Inactive)
ROOT
ATOM      1  C1  BNZ d   1      -1.993   0.613  -0.512  0.00  0.00     0.000 A 
ATOM      2  C2  BNZ d   1      -0.891   1.408  -0.677  0.00  0.00     0.000 A 
ATOM      3  C3  BNZ d   1       0.273   1.139  -0.014  0.00  0.00     0.000 A 
ATOM      4  C4  BNZ d   1       0.322   0.099   0.844  0.00  0.00     0.000 A 
ATOM      5  C5  BNZ d   1      -0.784  -0.707   1.029  0.00  0.00     0.000 A 
ATOM      6  C6  BNZ d   1      -1.942  -0.456   0.330  0.00  0.00     0.000 A 
ENDROOT
TORSDOF 0
ENDMDL
