MODEL 1
REMARK minimizedAffinity 0.588448882
REMARK minimizedRMSD -1
REMARK  0 active torsions:
REMARK  status: ('A' for Active; 'I' for Inactive)
ROOT
ATOM      1  C1  BNZ d   1       0.768   0.713   1.899  0.00  0.00     0.000 A 
ATOM      2  C2  BNZ d   1       1.040   0.455   0.582  0.00  0.00     0.000 A 
ATOM      3  C3  BNZ d   1       0.052   0.514  -0.361  0.00  0.00     0.000 A 
ATOM      4  C4  BNZ d   1      -1.212   0.792   0.019  0.00  0.00     0.000 A 
ATOM      5  C5  BNZ d   1      -1.504   1.046   1.345  0.00  0.00     0.000 A 
ATOM      6  C6  BNZ d   1      -0.500   1.023   2.286  0.00  0.00     0.000 A 
ENDROOT
TORSDOF 0
ENDMDL
