MODEL 1
REMARK minimizedAffinity -5.3417697
REMARK minimizedRMSD -1
REMARK  0 active torsions:
REMARK  status: ('A' for Active; 'I' for Inactive)
ROOT
ATOM      1  C1  BNZ d   1      -0.697  -0.493   2.589  0.00  0.00     0.000 A 
ATOM      2  C2  BNZ d   1      -1.898   0.024   2.998  0.00  0.00     0.000 A 
ATOM      3  C3  BNZ d   1      -2.816   0.467   2.087  0.00  0.00     0.000 A 
ATOM      4  C4  BNZ d   1      -2.516   0.430   0.773  0.00  0.00     0.000 A 
ATOM      5  C5  BNZ d   1      -1.306  -0.079   0.345  0.00  0.00     0.000 A 
ATOM      6  C6  BNZ d   1      -0.401  -0.560   1.263  0.00  0.00     0.000 A 
ENDROOT
TORSDOF 0
ENDMDL
