MODEL 1
REMARK minimizedAffinity -4.99878263
REMARK minimizedRMSD -1
REMARK  0 active torsions:
REMARK  status: ('A' for Active; 'I' for Inactive)
ROOT
ATOM      1  C1  BNZ d   1      -2.634  -0.018   1.808  0.00  0.00     0.000 A 
ATOM      2  C2  BNZ d   1      -1.851  -0.545   2.800  0.00  0.00     0.000 A 
ATOM      3  C3  BNZ d   1      -0.489  -0.569   2.678  0.00  0.00     0.000 A 
ATOM      4  C4  BNZ d   1       0.083  -0.104   1.549  0.00  0.00     0.000 A 
ATOM      5  C5  BNZ d   1      -0.694   0.422   0.536  0.00  0.00     0.000 A 
ATOM      6  C6  BNZ d   1      -2.061   0.481   0.679  0.00  0.00     0.000 A 
ENDROOT
TORSDOF 0
ENDMDL
