MODEL 1
REMARK minimizedAffinity -2.428092
REMARK minimizedRMSD -1
REMARK  0 active torsions:
REMARK  status: ('A' for Active; 'I' for Inactive)
ROOT
ATOM      1  C1  BNZ d   1      -0.663   0.356   0.844  0.00  0.00     0.000 A 
ATOM      2  C2  BNZ d   1      -1.965   0.600   1.192  0.00  0.00     0.000 A 
ATOM      3  C3  BNZ d   1      -2.328   0.720   2.505  0.00  0.00     0.000 A 
ATOM      4  C4  BNZ d   1      -1.397   0.557   3.467  0.00  0.00     0.000 A 
ATOM      5  C5  BNZ d   1      -0.082   0.302   3.132  0.00  0.00     0.000 A 
ATOM      6  C6  BNZ d   1       0.286   0.220   1.809  0.00  0.00     0.000 A 
ENDROOT
TORSDOF 0
ENDMDL
