MODEL 1
REMARK minimizedAffinity -3.43375111
REMARK minimizedRMSD -1
REMARK  0 active torsions:
REMARK  status: ('A' for Active; 'I' for Inactive)
ROOT
ATOM      1  C1  BNZ d   1      -1.009  -0.456   0.357  0.00  0.00     0.000 A 
ATOM      2  C2  BNZ d   1      -1.204  -0.918   1.631  0.00  0.00     0.000 A 
ATOM      3  C3  BNZ d   1      -0.456  -0.440   2.671  0.00  0.00     0.000 A 
ATOM      4  C4  BNZ d   1       0.511   0.468   2.430  0.00  0.00     0.000 A 
ATOM      5  C5  BNZ d   1       0.726   0.937   1.149  0.00  0.00     0.000 A 
ATOM      6  C6  BNZ d   1      -0.054   0.482   0.111  0.00  0.00     0.000 A 
ENDROOT
TORSDOF 0
ENDMDL
