MODEL 1
REMARK minimizedAffinity -2.5103929
REMARK minimizedRMSD -1
REMARK  0 active torsions:
REMARK  status: ('A' for Active; 'I' for Inactive)
ROOT
ATOM      1  C1  BNZ d   1       0.311   0.482   2.359  0.00  0.00     0.000 A 
ATOM      2  C2  BNZ d   1       0.904   0.394   1.128  0.00  0.00     0.000 A 
ATOM      3  C3  BNZ d   1       0.167   0.529  -0.015  0.00  0.00     0.000 A 
ATOM      4  C4  BNZ d   1      -1.166   0.712   0.073  0.00  0.00     0.000 A 
ATOM      5  C5  BNZ d   1      -1.780   0.794   1.306  0.00  0.00     0.000 A 
ATOM      6  C6  BNZ d   1      -1.030   0.696   2.455  0.00  0.00     0.000 A 
ENDROOT
TORSDOF 0
ENDMDL
