MODEL 1
REMARK minimizedAffinity -4.26805925
REMARK minimizedRMSD -1
REMARK  0 active torsions:
REMARK  status: ('A' for Active; 'I' for Inactive)
ROOT
ATOM      1  C1  BNZ d   1      -1.294   0.429  -0.155  0.00  0.00     0.000 A 
ATOM      2  C2  BNZ d   1       0.036   0.213   0.087  0.00  0.00     0.000 A 
ATOM      3  C3  BNZ d   1       0.541   0.306   1.354  0.00  0.00     0.000 A 
ATOM      4  C4  BNZ d   1      -0.276   0.652   2.370  0.00  0.00     0.000 A 
ATOM      5  C5  BNZ d   1      -1.618   0.882   2.140  0.00  0.00     0.000 A 
ATOM      6  C6  BNZ d   1      -2.130   0.750   0.870  0.00  0.00     0.000 A 
ENDROOT
TORSDOF 0
ENDMDL
