MODEL 1
REMARK minimizedAffinity -4.87450361
REMARK minimizedRMSD -1
REMARK  0 active torsions:
REMARK  status: ('A' for Active; 'I' for Inactive)
ROOT
ATOM      1  C1  BNZ d   1       0.750   0.244   1.785  0.00  0.00     0.000 A 
ATOM      2  C2  BNZ d   1       0.218   0.238   3.047  0.00  0.00     0.000 A 
ATOM      3  C3  BNZ d   1      -1.094  -0.084   3.252  0.00  0.00     0.000 A 
ATOM      4  C4  BNZ d   1      -1.882  -0.361   2.194  0.00  0.00     0.000 A 
ATOM      5  C5  BNZ d   1      -1.364  -0.350   0.914  0.00  0.00     0.000 A 
ATOM      6  C6  BNZ d   1      -0.033  -0.063   0.715  0.00  0.00     0.000 A 
ENDROOT
TORSDOF 0
ENDMDL
