MODEL 1
REMARK minimizedAffinity -4.26392651
REMARK minimizedRMSD -1
REMARK  0 active torsions:
REMARK  status: ('A' for Active; 'I' for Inactive)
ROOT
ATOM      1  C1  BNZ d   1      -1.910  -0.270   1.827  0.00  0.00     0.000 A 
ATOM      2  C2  BNZ d   1      -1.230  -0.223   0.639  0.00  0.00     0.000 A 
ATOM      3  C3  BNZ d   1       0.064   0.215   0.591  0.00  0.00     0.000 A 
ATOM      4  C4  BNZ d   1       0.662   0.643   1.722  0.00  0.00     0.000 A 
ATOM      5  C5  BNZ d   1      -0.014   0.610   2.925  0.00  0.00     0.000 A 
ATOM      6  C6  BNZ d   1      -1.303   0.132   2.976  0.00  0.00     0.000 A 
ENDROOT
TORSDOF 0
ENDMDL
