MODEL 1
REMARK minimizedAffinity -3.12128448
REMARK minimizedRMSD -1
REMARK  0 active torsions:
REMARK  status: ('A' for Active; 'I' for Inactive)
ROOT
ATOM      1  C1  BNZ d   1       0.953   0.440   1.371  0.00  0.00     0.000 A 
ATOM      2  C2  BNZ d   1       0.517   0.027   2.602  0.00  0.00     0.000 A 
ATOM      3  C3  BNZ d   1      -0.701  -0.576   2.747  0.00  0.00     0.000 A 
ATOM      4  C4  BNZ d   1      -1.498  -0.729   1.670  0.00  0.00     0.000 A 
ATOM      5  C5  BNZ d   1      -1.077  -0.310   0.424  0.00  0.00     0.000 A 
ATOM      6  C6  BNZ d   1       0.166   0.261   0.275  0.00  0.00     0.000 A 
ENDROOT
TORSDOF 0
ENDMDL
