MODEL 1
REMARK minimizedAffinity -5.00967836
REMARK minimizedRMSD -1
REMARK  0 active torsions:
REMARK  status: ('A' for Active; 'I' for Inactive)
ROOT
ATOM      1  C1  BNZ d   1      -1.523  -1.200   2.044  0.00  0.00     0.000 A 
ATOM      2  C2  BNZ d   1      -0.861  -0.464   2.991  0.00  0.00     0.000 A 
ATOM      3  C3  BNZ d   1       0.194   0.334   2.646  0.00  0.00     0.000 A 
ATOM      4  C4  BNZ d   1       0.611   0.364   1.364  0.00  0.00     0.000 A 
ATOM      5  C5  BNZ d   1      -0.039  -0.379   0.400  0.00  0.00     0.000 A 
ATOM      6  C6  BNZ d   1      -1.125  -1.151   0.743  0.00  0.00     0.000 A 
ENDROOT
TORSDOF 0
ENDMDL
