MODEL 1
REMARK minimizedAffinity -1.99493957
REMARK minimizedRMSD -1
REMARK  0 active torsions:
REMARK  status: ('A' for Active; 'I' for Inactive)
ROOT
ATOM      1  C1  BNZ d   1       1.032   0.675   1.971  0.00  0.00     0.000 A 
ATOM      2  C2  BNZ d   1       0.962   0.322   0.649  0.00  0.00     0.000 A 
ATOM      3  C3  BNZ d   1      -0.130  -0.334   0.157  0.00  0.00     0.000 A 
ATOM      4  C4  BNZ d   1      -1.133  -0.674   0.993  0.00  0.00     0.000 A 
ATOM      5  C5  BNZ d   1      -1.073  -0.334   2.330  0.00  0.00     0.000 A 
ATOM      6  C6  BNZ d   1       0.011   0.362   2.815  0.00  0.00     0.000 A 
ENDROOT
TORSDOF 0
ENDMDL
