MODEL 1
REMARK minimizedAffinity -2.72071481
REMARK minimizedRMSD -1
REMARK  0 active torsions:
REMARK  status: ('A' for Active; 'I' for Inactive)
ROOT
ATOM      1  C1  BNZ d   1       1.106  -0.412  -2.373  0.00  0.00     0.000 A 
ATOM      2  C2  BNZ d   1       2.233   0.358  -2.258  0.00  0.00     0.000 A 
ATOM      3  C3  BNZ d   1       3.346   0.086  -3.005  0.00  0.00     0.000 A 
ATOM      4  C4  BNZ d   1       3.344  -0.978  -3.834  0.00  0.00     0.000 A 
ATOM      5  C5  BNZ d   1       2.219  -1.769  -3.954  0.00  0.00     0.000 A 
ATOM      6  C6  BNZ d   1       1.088  -1.469  -3.230  0.00  0.00     0.000 A 
ENDROOT
TORSDOF 0
ENDMDL
