MODEL 1
REMARK minimizedAffinity -3.10307431
REMARK minimizedRMSD -1
REMARK  0 active torsions:
REMARK  status: ('A' for Active; 'I' for Inactive)
ROOT
ATOM      1  C1  BNZ d   1       0.605   0.396  -0.284  0.00  0.00     0.000 A 
ATOM      2  C2  BNZ d   1       1.250   0.281   0.919  0.00  0.00     0.000 A 
ATOM      3  C3  BNZ d   1       0.555   0.003   2.062  0.00  0.00     0.000 A 
ATOM      4  C4  BNZ d   1      -0.787  -0.121   2.009  0.00  0.00     0.000 A 
ATOM      5  C5  BNZ d   1      -1.453   0.001   0.806  0.00  0.00     0.000 A 
ATOM      6  C6  BNZ d   1      -0.746   0.243  -0.350  0.00  0.00     0.000 A 
ENDROOT
TORSDOF 0
ENDMDL
