MODEL 1
REMARK minimizedAffinity 10.7040968
REMARK minimizedRMSD -1
REMARK  0 active torsions:
REMARK  status: ('A' for Active; 'I' for Inactive)
ROOT
ATOM      1  C   UNL d   1       2.874  -0.543  -0.962  0.00  0.00     0.077 C 
ATOM      2  C1  UNL d   1       3.320   0.613  -0.117  0.00  0.00    -0.074 A 
ATOM      3  C2  UNL d   1       4.519   1.281  -0.387  0.00  0.00    -0.005 A 
ATOM      4  C3  UNL d   1       4.916   2.360   0.402  0.00  0.00     0.006 A 
ATOM      5  C4  UNL d   1       4.119   2.783   1.466  0.00  0.00    -0.005 A 
ATOM      6  C5  UNL d   1       2.916   2.129   1.751  0.00  0.00    -0.074 A 
ATOM      7  C6  UNL d   1       2.043   2.577   2.885  0.00  0.00     0.077 C 
ATOM      8  C7  UNL d   1       2.521   1.049   0.950  0.00  0.00    -0.001 A 
ENDROOT
TORSDOF 0
ENDMDL
