MODEL 1
REMARK minimizedAffinity 2.63073778
REMARK minimizedRMSD -1
REMARK  0 active torsions:
REMARK  status: ('A' for Active; 'I' for Inactive)
ROOT
ATOM      1  C   UNL d   1      -4.507  -6.000  -1.075  0.00  0.00     0.077 C 
ATOM      2  C1  UNL d   1      -4.893  -5.241  -2.310  0.00  0.00    -0.074 A 
ATOM      3  C2  UNL d   1      -5.031  -3.850  -2.285  0.00  0.00    -0.005 A 
ATOM      4  C3  UNL d   1      -5.381  -3.157  -3.443  0.00  0.00     0.006 A 
ATOM      5  C4  UNL d   1      -5.596  -3.847  -4.637  0.00  0.00    -0.005 A 
ATOM      6  C5  UNL d   1      -5.461  -5.239  -4.681  0.00  0.00    -0.074 A 
ATOM      7  C6  UNL d   1      -5.679  -5.995  -5.958  0.00  0.00     0.077 C 
ATOM      8  C7  UNL d   1      -5.103  -5.927  -3.514  0.00  0.00    -0.001 A 
ENDROOT
TORSDOF 0
ENDMDL
