MODEL 1
REMARK minimizedAffinity 1.17124355
REMARK minimizedRMSD -1
REMARK  0 active torsions:
REMARK  status: ('A' for Active; 'I' for Inactive)
ROOT
ATOM      1  C   UNL d   1      -3.360  -1.713  -4.831  0.00  0.00     0.077 C 
ATOM      2  C1  UNL d   1      -4.175  -2.972  -4.853  0.00  0.00    -0.074 A 
ATOM      3  C2  UNL d   1      -4.997  -3.278  -5.942  0.00  0.00    -0.005 A 
ATOM      4  C3  UNL d   1      -5.742  -4.457  -5.953  0.00  0.00     0.006 A 
ATOM      5  C4  UNL d   1      -5.673  -5.341  -4.875  0.00  0.00    -0.005 A 
ATOM      6  C5  UNL d   1      -4.856  -5.053  -3.777  0.00  0.00    -0.074 A 
ATOM      7  C6  UNL d   1      -4.763  -5.997  -2.615  0.00  0.00     0.077 C 
ATOM      8  C7  UNL d   1      -4.105  -3.869  -3.778  0.00  0.00    -0.001 A 
ENDROOT
TORSDOF 0
ENDMDL
