MODEL 1
REMARK minimizedAffinity 1.1252687
REMARK minimizedRMSD -1
REMARK  0 active torsions:
REMARK  status: ('A' for Active; 'I' for Inactive)
ROOT
ATOM      1  C   UNL d   1      -4.538  -5.938  -6.000  0.00  0.00     0.077 C 
ATOM      2  C1  UNL d   1      -5.006  -5.245  -4.755  0.00  0.00    -0.074 A 
ATOM      3  C2  UNL d   1      -5.554  -3.960  -4.811  0.00  0.00    -0.005 A 
ATOM      4  C3  UNL d   1      -5.994  -3.332  -3.646  0.00  0.00     0.006 A 
ATOM      5  C4  UNL d   1      -5.891  -3.982  -2.415  0.00  0.00    -0.005 A 
ATOM      6  C5  UNL d   1      -5.347  -5.268  -2.340  0.00  0.00    -0.074 A 
ATOM      7  C6  UNL d   1      -5.238  -5.984  -1.027  0.00  0.00     0.077 C 
ATOM      8  C7  UNL d   1      -4.913  -5.895  -3.516  0.00  0.00    -0.001 A 
ENDROOT
TORSDOF 0
ENDMDL
