MODEL 1
REMARK minimizedAffinity 7.17036963
REMARK minimizedRMSD -1
REMARK  0 active torsions:
REMARK  status: ('A' for Active; 'I' for Inactive)
ROOT
ATOM      1  C   UNL d   1      -5.993  -2.665   2.099  0.00  0.00     0.077 C 
ATOM      2  C1  UNL d   1      -5.207  -1.452   2.499  0.00  0.00    -0.074 A 
ATOM      3  C2  UNL d   1      -5.595  -0.673   3.594  0.00  0.00    -0.005 A 
ATOM      4  C3  UNL d   1      -4.849   0.447   3.960  0.00  0.00     0.006 A 
ATOM      5  C4  UNL d   1      -3.709   0.799   3.237  0.00  0.00    -0.005 A 
ATOM      6  C5  UNL d   1      -3.305   0.031   2.140  0.00  0.00    -0.074 A 
ATOM      7  C6  UNL d   1      -2.076   0.390   1.357  0.00  0.00     0.077 C 
ATOM      8  C7  UNL d   1      -4.056  -1.097   1.782  0.00  0.00    -0.001 A 
ENDROOT
TORSDOF 0
ENDMDL
