MODEL 1
REMARK minimizedAffinity 9.86798286
REMARK minimizedRMSD -1
REMARK  0 active torsions:
REMARK  status: ('A' for Active; 'I' for Inactive)
ROOT
ATOM      1  C   UNL d   1      -1.721   0.755   1.514  0.00  0.00     0.077 C 
ATOM      2  C1  UNL d   1      -2.819   0.074   2.275  0.00  0.00    -0.074 A 
ATOM      3  C2  UNL d   1      -2.832   0.076   3.674  0.00  0.00    -0.005 A 
ATOM      4  C3  UNL d   1      -3.865  -0.554   4.368  0.00  0.00     0.006 A 
ATOM      5  C4  UNL d   1      -4.893  -1.190   3.672  0.00  0.00    -0.005 A 
ATOM      6  C5  UNL d   1      -4.897  -1.202   2.274  0.00  0.00    -0.074 A 
ATOM      7  C6  UNL d   1      -6.000  -1.873   1.510  0.00  0.00     0.077 C 
ATOM      8  C7  UNL d   1      -3.859  -0.561   1.583  0.00  0.00    -0.001 A 
ENDROOT
TORSDOF 0
ENDMDL
