MODEL 1
REMARK minimizedAffinity 2.94132113
REMARK minimizedRMSD -1
REMARK  0 active torsions:
REMARK  status: ('A' for Active; 'I' for Inactive)
ROOT
ATOM      1  C   UNL d   1      -5.998  -2.735   1.434  0.00  0.00     0.077 C 
ATOM      2  C1  UNL d   1      -5.323  -1.677   2.256  0.00  0.00    -0.074 A 
ATOM      3  C2  UNL d   1      -5.947  -1.137   3.384  0.00  0.00    -0.005 A 
ATOM      4  C3  UNL d   1      -5.303  -0.160   4.144  0.00  0.00     0.006 A 
ATOM      5  C4  UNL d   1      -4.031   0.285   3.783  0.00  0.00    -0.005 A 
ATOM      6  C5  UNL d   1      -3.391  -0.245   2.658  0.00  0.00    -0.074 A 
ATOM      7  C6  UNL d   1      -2.019   0.215   2.262  0.00  0.00     0.077 C 
ATOM      8  C7  UNL d   1      -4.042  -1.231   1.904  0.00  0.00    -0.001 A 
ENDROOT
TORSDOF 0
ENDMDL
