MODEL 1
REMARK minimizedAffinity 6.56772947
REMARK minimizedRMSD -1
REMARK  0 active torsions:
REMARK  status: ('A' for Active; 'I' for Inactive)
ROOT
ATOM      1  C   UNL d   1       1.874   0.082  -3.633  0.00  0.00     0.077 C 
ATOM      2  C1  UNL d   1       1.926  -1.192  -2.844  0.00  0.00    -0.074 A 
ATOM      3  C2  UNL d   1       2.649  -1.269  -1.649  0.00  0.00    -0.005 A 
ATOM      4  C3  UNL d   1       2.680  -2.458  -0.921  0.00  0.00     0.006 A 
ATOM      5  C4  UNL d   1       1.991  -3.581  -1.380  0.00  0.00    -0.005 A 
ATOM      6  C5  UNL d   1       1.263  -3.524  -2.573  0.00  0.00    -0.074 A 
ATOM      7  C6  UNL d   1       0.509  -4.719  -3.075  0.00  0.00     0.077 C 
ATOM      8  C7  UNL d   1       1.230  -2.323  -3.295  0.00  0.00    -0.001 A 
ENDROOT
TORSDOF 0
ENDMDL
