MODEL 1
REMARK minimizedAffinity 1.41943133
REMARK minimizedRMSD -1
REMARK  0 active torsions:
REMARK  status: ('A' for Active; 'I' for Inactive)
ROOT
ATOM      1  C   UNL d   1      -4.372  -5.303  -1.910  0.00  0.00     0.077 C 
ATOM      2  C1  UNL d   1      -4.934  -4.979  -3.262  0.00  0.00    -0.074 A 
ATOM      3  C2  UNL d   1      -5.330  -5.995  -4.138  0.00  0.00    -0.005 A 
ATOM      4  C3  UNL d   1      -5.859  -5.679  -5.389  0.00  0.00     0.006 A 
ATOM      5  C4  UNL d   1      -5.998  -4.345  -5.776  0.00  0.00    -0.005 A 
ATOM      6  C5  UNL d   1      -5.609  -3.316  -4.913  0.00  0.00    -0.074 A 
ATOM      7  C6  UNL d   1      -5.761  -1.877  -5.309  0.00  0.00     0.077 C 
ATOM      8  C7  UNL d   1      -5.084  -3.642  -3.655  0.00  0.00    -0.001 A 
ENDROOT
TORSDOF 0
ENDMDL
