MODEL 1
REMARK minimizedAffinity 9.9038744
REMARK minimizedRMSD -1
REMARK  0 active torsions:
REMARK  status: ('A' for Active; 'I' for Inactive)
ROOT
ATOM      1  C   UNL d   1      -5.879  -2.193  -5.795  0.00  0.00     0.077 C 
ATOM      2  C1  UNL d   1      -5.542  -3.518  -5.179  0.00  0.00    -0.074 A 
ATOM      3  C2  UNL d   1      -5.998  -4.712  -5.747  0.00  0.00    -0.005 A 
ATOM      4  C3  UNL d   1      -5.668  -5.937  -5.168  0.00  0.00     0.006 A 
ATOM      5  C4  UNL d   1      -4.880  -5.981  -4.018  0.00  0.00    -0.005 A 
ATOM      6  C5  UNL d   1      -4.413  -4.798  -3.436  0.00  0.00    -0.074 A 
ATOM      7  C6  UNL d   1      -3.557  -4.828  -2.206  0.00  0.00     0.077 C 
ATOM      8  C7  UNL d   1      -4.743  -3.571  -4.028  0.00  0.00    -0.001 A 
ENDROOT
TORSDOF 0
ENDMDL
