MODEL 1
REMARK minimizedAffinity -0.550606608
REMARK minimizedRMSD -1
REMARK  0 active torsions:
REMARK  status: ('A' for Active; 'I' for Inactive)
ROOT
ATOM      1  C   UNL d   1      -5.746  -2.157  -5.994  0.00  0.00     0.077 C 
ATOM      2  C1  UNL d   1      -5.573  -3.500  -5.350  0.00  0.00    -0.074 A 
ATOM      3  C2  UNL d   1      -5.999  -4.666  -5.995  0.00  0.00    -0.005 A 
ATOM      4  C3  UNL d   1      -5.823  -5.910  -5.388  0.00  0.00     0.006 A 
ATOM      5  C4  UNL d   1      -5.220  -6.000  -4.133  0.00  0.00    -0.005 A 
ATOM      6  C5  UNL d   1      -4.787  -4.845  -3.473  0.00  0.00    -0.074 A 
ATOM      7  C6  UNL d   1      -4.128  -4.925  -2.128  0.00  0.00     0.077 C 
ATOM      8  C7  UNL d   1      -4.961  -3.600  -4.093  0.00  0.00    -0.001 A 
ENDROOT
TORSDOF 0
ENDMDL
