MODEL 1
REMARK minimizedAffinity 3.10981584
REMARK minimizedRMSD -1
REMARK  0 active torsions:
REMARK  status: ('A' for Active; 'I' for Inactive)
ROOT
ATOM      1  C   UNL d   1      -6.000  -3.378  -4.161  0.00  0.00     0.077 C 
ATOM      2  C1  UNL d   1      -4.849  -4.138  -3.573  0.00  0.00    -0.074 A 
ATOM      3  C2  UNL d   1      -5.063  -5.298  -2.820  0.00  0.00    -0.005 A 
ATOM      4  C3  UNL d   1      -3.982  -6.000  -2.287  0.00  0.00     0.006 A 
ATOM      5  C4  UNL d   1      -2.679  -5.551  -2.501  0.00  0.00    -0.005 A 
ATOM      6  C5  UNL d   1      -2.445  -4.394  -3.251  0.00  0.00    -0.074 A 
ATOM      7  C6  UNL d   1      -1.049  -3.904  -3.499  0.00  0.00     0.077 C 
ATOM      8  C7  UNL d   1      -3.536  -3.698  -3.790  0.00  0.00    -0.001 A 
ENDROOT
TORSDOF 0
ENDMDL
