MODEL 1
REMARK minimizedAffinity 6.96660185
REMARK minimizedRMSD -1
REMARK  0 active torsions:
REMARK  status: ('A' for Active; 'I' for Inactive)
ROOT
ATOM      1  C   UNL d   1      -4.035  -4.915  -2.088  0.00  0.00     0.077 C 
ATOM      2  C1  UNL d   1      -4.680  -4.839  -3.440  0.00  0.00    -0.074 A 
ATOM      3  C2  UNL d   1      -4.994  -6.000  -4.154  0.00  0.00    -0.005 A 
ATOM      4  C3  UNL d   1      -5.602  -5.913  -5.406  0.00  0.00     0.006 A 
ATOM      5  C4  UNL d   1      -5.902  -4.667  -5.956  0.00  0.00    -0.005 A 
ATOM      6  C5  UNL d   1      -5.596  -3.495  -5.258  0.00  0.00    -0.074 A 
ATOM      7  C6  UNL d   1      -5.920  -2.147  -5.831  0.00  0.00     0.077 C 
ATOM      8  C7  UNL d   1      -4.991  -3.590  -3.997  0.00  0.00    -0.001 A 
ENDROOT
TORSDOF 0
ENDMDL
