MODEL 1
REMARK minimizedAffinity 10.1797447
REMARK minimizedRMSD -1
REMARK  0 active torsions:
REMARK  status: ('A' for Active; 'I' for Inactive)
ROOT
ATOM      1  C   UNL d   1      -2.090   0.377   2.163  0.00  0.00     0.077 C 
ATOM      2  C1  UNL d   1      -3.449   0.148   2.755  0.00  0.00    -0.074 A 
ATOM      3  C2  UNL d   1      -4.114   1.169   3.443  0.00  0.00    -0.005 A 
ATOM      4  C3  UNL d   1      -5.381   0.944   3.980  0.00  0.00     0.006 A 
ATOM      5  C4  UNL d   1      -5.996  -0.300   3.835  0.00  0.00    -0.005 A 
ATOM      6  C5  UNL d   1      -5.347  -1.332   3.150  0.00  0.00    -0.074 A 
ATOM      7  C6  UNL d   1      -5.998  -2.672   2.976  0.00  0.00     0.077 C 
ATOM      8  C7  UNL d   1      -4.076  -1.097   2.607  0.00  0.00    -0.001 A 
ENDROOT
TORSDOF 0
ENDMDL
