MODEL 1
REMARK minimizedAffinity -0.0336000547
REMARK minimizedRMSD -1
REMARK  0 active torsions:
REMARK  status: ('A' for Active; 'I' for Inactive)
ROOT
ATOM      1  C   UNL d   1      -4.469  -5.736  -2.307  0.00  0.00     0.077 C 
ATOM      2  C1  UNL d   1      -4.997  -5.170  -3.592  0.00  0.00    -0.074 A 
ATOM      3  C2  UNL d   1      -5.264  -6.000  -4.686  0.00  0.00    -0.005 A 
ATOM      4  C3  UNL d   1      -5.763  -5.461  -5.871  0.00  0.00     0.006 A 
ATOM      5  C4  UNL d   1      -6.000  -4.089  -5.975  0.00  0.00    -0.005 A 
ATOM      6  C5  UNL d   1      -5.739  -3.245  -4.891  0.00  0.00    -0.074 A 
ATOM      7  C6  UNL d   1      -5.997  -1.770  -4.983  0.00  0.00     0.077 C 
ATOM      8  C7  UNL d   1      -5.244  -3.795  -3.701  0.00  0.00    -0.001 A 
ENDROOT
TORSDOF 0
ENDMDL
