MODEL 1
REMARK minimizedAffinity 6.35655928
REMARK minimizedRMSD -1
REMARK  0 active torsions:
REMARK  status: ('A' for Active; 'I' for Inactive)
ROOT
ATOM      1  C   UNL d   1      -1.335   0.771   2.429  0.00  0.00     0.077 C 
ATOM      2  C1  UNL d   1      -2.358   1.664   3.066  0.00  0.00    -0.074 A 
ATOM      3  C2  UNL d   1      -3.721   1.502   2.796  0.00  0.00    -0.005 A 
ATOM      4  C3  UNL d   1      -4.662   2.334   3.403  0.00  0.00     0.006 A 
ATOM      5  C4  UNL d   1      -4.250   3.334   4.285  0.00  0.00    -0.005 A 
ATOM      6  C5  UNL d   1      -2.892   3.510   4.568  0.00  0.00    -0.074 A 
ATOM      7  C6  UNL d   1      -2.434   4.573   5.521  0.00  0.00     0.077 C 
ATOM      8  C7  UNL d   1      -1.953   2.666   3.959  0.00  0.00    -0.001 A 
ENDROOT
TORSDOF 0
ENDMDL
