MODEL 1
REMARK minimizedAffinity 7.57273817
REMARK minimizedRMSD -1
REMARK  0 active torsions:
REMARK  status: ('A' for Active; 'I' for Inactive)
ROOT
ATOM      1  C   UNL d   1      -1.730  -0.750   3.348  0.00  0.00     0.077 C 
ATOM      2  C1  UNL d   1      -3.219  -0.696   3.180  0.00  0.00    -0.074 A 
ATOM      3  C2  UNL d   1      -3.943   0.443   3.549  0.00  0.00    -0.005 A 
ATOM      4  C3  UNL d   1      -5.327   0.483   3.378  0.00  0.00     0.006 A 
ATOM      5  C4  UNL d   1      -6.000  -0.614   2.839  0.00  0.00    -0.005 A 
ATOM      6  C5  UNL d   1      -5.293  -1.761   2.463  0.00  0.00    -0.074 A 
ATOM      7  C6  UNL d   1      -6.000  -2.944   1.873  0.00  0.00     0.077 C 
ATOM      8  C7  UNL d   1      -3.902  -1.790   2.631  0.00  0.00    -0.001 A 
ENDROOT
TORSDOF 0
ENDMDL
