MODEL 1
REMARK minimizedAffinity -4.51863098
REMARK minimizedRMSD -1
REMARK  0 active torsions:
REMARK  status: ('A' for Active; 'I' for Inactive)
ROOT
ATOM      1  C1  BNZ d   1      -1.215  -0.760   0.649  0.00  0.00     0.000 A 
ATOM      2  C2  BNZ d   1      -1.303   0.588   0.424  0.00  0.00     0.000 A 
ATOM      3  C3  BNZ d   1      -0.203   1.310   0.056  0.00  0.00     0.000 A 
ATOM      4  C4  BNZ d   1       0.991   0.692  -0.048  0.00  0.00     0.000 A 
ATOM      5  C5  BNZ d   1       1.099  -0.665   0.184  0.00  0.00     0.000 A 
ATOM      6  C6  BNZ d   1      -0.019  -1.396   0.517  0.00  0.00     0.000 A 
ENDROOT
TORSDOF 0
ENDMDL
