MODEL 1
REMARK minimizedAffinity -2.52678442
REMARK minimizedRMSD -1
REMARK  0 active torsions:
REMARK  status: ('A' for Active; 'I' for Inactive)
ROOT
ATOM      1  C1  BNZ d   1      -1.356   1.861   0.889  0.00  0.00     0.000 A 
ATOM      2  C2  BNZ d   1      -0.124   2.017   0.312  0.00  0.00     0.000 A 
ATOM      3  C3  BNZ d   1       0.564   0.939  -0.172  0.00  0.00     0.000 A 
ATOM      4  C4  BNZ d   1       0.037  -0.296  -0.043  0.00  0.00     0.000 A 
ATOM      5  C5  BNZ d   1      -1.201  -0.470   0.545  0.00  0.00     0.000 A 
ATOM      6  C6  BNZ d   1      -1.907   0.622   0.996  0.00  0.00     0.000 A 
ENDROOT
TORSDOF 0
ENDMDL
