MODEL 1
REMARK minimizedAffinity -1.28096581
REMARK minimizedRMSD -1
REMARK  0 active torsions:
REMARK  status: ('A' for Active; 'I' for Inactive)
ROOT
ATOM      1  C1  BNZ d   1       0.452   1.521  -0.185  0.00  0.00     0.000 A 
ATOM      2  C2  BNZ d   1       0.934   0.239  -0.170  0.00  0.00     0.000 A 
ATOM      3  C3  BNZ d   1       0.148  -0.799   0.245  0.00  0.00     0.000 A 
ATOM      4  C4  BNZ d   1      -1.104  -0.550   0.681  0.00  0.00     0.000 A 
ATOM      5  C5  BNZ d   1      -1.601   0.738   0.680  0.00  0.00     0.000 A 
ATOM      6  C6  BNZ d   1      -0.820   1.776   0.226  0.00  0.00     0.000 A 
ENDROOT
TORSDOF 0
ENDMDL
