MODEL 1
REMARK minimizedAffinity -5.41118145
REMARK minimizedRMSD -1
REMARK  0 active torsions:
REMARK  status: ('A' for Active; 'I' for Inactive)
ROOT
ATOM      1  C1  BNZ d   1      -1.251  -0.147   0.412  0.00  0.00     0.000 A 
ATOM      2  C2  BNZ d   1      -1.962  -1.033   1.176  0.00  0.00     0.000 A 
ATOM      3  C3  BNZ d   1      -1.442  -2.255   1.497  0.00  0.00     0.000 A 
ATOM      4  C4  BNZ d   1      -0.230  -2.606   1.022  0.00  0.00     0.000 A 
ATOM      5  C5  BNZ d   1       0.496  -1.727   0.243  0.00  0.00     0.000 A 
ATOM      6  C6  BNZ d   1      -0.014  -0.482  -0.046  0.00  0.00     0.000 A 
ENDROOT
TORSDOF 0
ENDMDL
