MODEL 1
REMARK minimizedAffinity -3.91195965
REMARK minimizedRMSD -1
REMARK  0 active torsions:
REMARK  status: ('A' for Active; 'I' for Inactive)
ROOT
ATOM      1  C1  BNZ d   1       0.799  -1.613   0.282  0.00  0.00     0.000 A 
ATOM      2  C2  BNZ d   1       0.039  -2.627   0.800  0.00  0.00     0.000 A 
ATOM      3  C3  BNZ d   1      -1.298  -2.454   1.025  0.00  0.00     0.000 A 
ATOM      4  C4  BNZ d   1      -1.864  -1.257   0.771  0.00  0.00     0.000 A 
ATOM      5  C5  BNZ d   1      -1.109  -0.221   0.258  0.00  0.00     0.000 A 
ATOM      6  C6  BNZ d   1       0.229  -0.411  -0.004  0.00  0.00     0.000 A 
ENDROOT
TORSDOF 0
ENDMDL
