MODEL 1
REMARK minimizedAffinity -2.14233088
REMARK minimizedRMSD -1
REMARK  0 active torsions:
REMARK  status: ('A' for Active; 'I' for Inactive)
ROOT
ATOM      1  C1  BNZ d   1       0.394  -1.631   0.805  0.00  0.00     0.000 A 
ATOM      2  C2  BNZ d   1       0.036  -0.524   0.082  0.00  0.00     0.000 A 
ATOM      3  C3  BNZ d   1      -1.264  -0.320  -0.289  0.00  0.00     0.000 A 
ATOM      4  C4  BNZ d   1      -2.196  -1.242   0.027  0.00  0.00     0.000 A 
ATOM      5  C5  BNZ d   1      -1.849  -2.368   0.747  0.00  0.00     0.000 A 
ATOM      6  C6  BNZ d   1      -0.547  -2.551   1.153  0.00  0.00     0.000 A 
ENDROOT
TORSDOF 0
ENDMDL
