MODEL 1
REMARK minimizedAffinity -5.01753521
REMARK minimizedRMSD -1
REMARK  0 active torsions:
REMARK  status: ('A' for Active; 'I' for Inactive)
ROOT
ATOM      1  C1  BNZ d   1      -0.814  -2.921   0.175  0.00  0.00     0.000 A 
ATOM      2  C2  BNZ d   1      -0.107  -2.214  -0.761  0.00  0.00     0.000 A 
ATOM      3  C3  BNZ d   1      -0.122  -0.847  -0.763  0.00  0.00     0.000 A 
ATOM      4  C4  BNZ d   1      -0.873  -0.190   0.144  0.00  0.00     0.000 A 
ATOM      5  C5  BNZ d   1      -1.599  -0.889   1.088  0.00  0.00     0.000 A 
ATOM      6  C6  BNZ d   1      -1.551  -2.264   1.112  0.00  0.00     0.000 A 
ENDROOT
TORSDOF 0
ENDMDL
