MODEL 1
REMARK minimizedAffinity -4.21794605
REMARK minimizedRMSD -1
REMARK  0 active torsions:
REMARK  status: ('A' for Active; 'I' for Inactive)
ROOT
ATOM      1  C1  BNZ d   1       0.518  -0.060  -0.192  0.00  0.00     0.000 A 
ATOM      2  C2  BNZ d   1       0.689  -1.371   0.167  0.00  0.00     0.000 A 
ATOM      3  C3  BNZ d   1      -0.307  -2.059   0.802  0.00  0.00     0.000 A 
ATOM      4  C4  BNZ d   1      -1.456  -1.425   1.113  0.00  0.00     0.000 A 
ATOM      5  C5  BNZ d   1      -1.640  -0.102   0.766  0.00  0.00     0.000 A 
ATOM      6  C6  BNZ d   1      -0.651   0.577   0.092  0.00  0.00     0.000 A 
ENDROOT
TORSDOF 0
ENDMDL
