MODEL 1
REMARK minimizedAffinity -4.04156542
REMARK minimizedRMSD -1
REMARK  0 active torsions:
REMARK  status: ('A' for Active; 'I' for Inactive)
ROOT
ATOM      1  C1  BNZ d   1       1.158  -1.654   0.777  0.00  0.00     0.000 A 
ATOM      2  C2  BNZ d   1       0.339  -2.571   1.379  0.00  0.00     0.000 A 
ATOM      3  C3  BNZ d   1      -1.018  -2.404   1.379  0.00  0.00     0.000 A 
ATOM      4  C4  BNZ d   1      -1.550  -1.301   0.813  0.00  0.00     0.000 A 
ATOM      5  C5  BNZ d   1      -0.736  -0.363   0.211  0.00  0.00     0.000 A 
ATOM      6  C6  BNZ d   1       0.626  -0.554   0.179  0.00  0.00     0.000 A 
ENDROOT
TORSDOF 0
ENDMDL
