MODEL 1
REMARK minimizedAffinity -4.11369801
REMARK minimizedRMSD -1
REMARK  0 active torsions:
REMARK  status: ('A' for Active; 'I' for Inactive)
ROOT
ATOM      1  C1  BNZ d   1       0.321  -1.083   0.315  0.00  0.00     0.000 A 
ATOM      2  C2  BNZ d   1      -0.983  -1.465   0.488  0.00  0.00     0.000 A 
ATOM      3  C3  BNZ d   1      -1.951  -0.541   0.766  0.00  0.00     0.000 A 
ATOM      4  C4  BNZ d   1      -1.608   0.756   0.911  0.00  0.00     0.000 A 
ATOM      5  C5  BNZ d   1      -0.296   1.154   0.749  0.00  0.00     0.000 A 
ATOM      6  C6  BNZ d   1       0.669   0.227   0.430  0.00  0.00     0.000 A 
ENDROOT
TORSDOF 0
ENDMDL
