MODEL 1
REMARK minimizedAffinity -5.30614853
REMARK minimizedRMSD -1
REMARK  0 active torsions:
REMARK  status: ('A' for Active; 'I' for Inactive)
ROOT
ATOM      1  C1  BNZ d   1      -0.512   0.072   0.054  0.00  0.00     0.000 A 
ATOM      2  C2  BNZ d   1      -1.542  -0.702   0.518  0.00  0.00     0.000 A 
ATOM      3  C3  BNZ d   1      -1.333  -2.004   0.877  0.00  0.00     0.000 A 
ATOM      4  C4  BNZ d   1      -0.105  -2.542   0.736  0.00  0.00     0.000 A 
ATOM      5  C5  BNZ d   1       0.943  -1.778   0.261  0.00  0.00     0.000 A 
ATOM      6  C6  BNZ d   1       0.737  -0.456  -0.063  0.00  0.00     0.000 A 
ENDROOT
TORSDOF 0
ENDMDL
