MODEL 1
REMARK minimizedAffinity -4.7783432
REMARK minimizedRMSD -1
REMARK  0 active torsions:
REMARK  status: ('A' for Active; 'I' for Inactive)
ROOT
ATOM      1  C1  BNZ d   1       1.081  -1.353   0.373  0.00  0.00     0.000 A 
ATOM      2  C2  BNZ d   1       0.918  -0.008   0.174  0.00  0.00     0.000 A 
ATOM      3  C3  BNZ d   1      -0.286   0.594   0.413  0.00  0.00     0.000 A 
ATOM      4  C4  BNZ d   1      -1.334  -0.156   0.811  0.00  0.00     0.000 A 
ATOM      5  C5  BNZ d   1      -1.188  -1.514   1.007  0.00  0.00     0.000 A 
ATOM      6  C6  BNZ d   1       0.035  -2.110   0.803  0.00  0.00     0.000 A 
ENDROOT
TORSDOF 0
ENDMDL
