MODEL 1
REMARK minimizedAffinity -4.27248621
REMARK minimizedRMSD -1
REMARK  0 active torsions:
REMARK  status: ('A' for Active; 'I' for Inactive)
ROOT
ATOM      1  C1  BNZ d   1      -1.658  -1.281   1.060  0.00  0.00     0.000 A 
ATOM      2  C2  BNZ d   1      -1.814   0.059   0.824  0.00  0.00     0.000 A 
ATOM      3  C3  BNZ d   1      -0.769   0.817   0.376  0.00  0.00     0.000 A 
ATOM      4  C4  BNZ d   1       0.440   0.244   0.203  0.00  0.00     0.000 A 
ATOM      5  C5  BNZ d   1       0.615  -1.104   0.446  0.00  0.00     0.000 A 
ATOM      6  C6  BNZ d   1      -0.449  -1.872   0.860  0.00  0.00     0.000 A 
ENDROOT
TORSDOF 0
ENDMDL
