MODEL 1
REMARK minimizedAffinity -1.47840118
REMARK minimizedRMSD -1
REMARK  0 active torsions:
REMARK  status: ('A' for Active; 'I' for Inactive)
ROOT
ATOM      1  C1  BNZ d   1      -0.821  -1.883   1.306  0.00  0.00     0.000 A 
ATOM      2  C2  BNZ d   1      -0.691  -0.543   1.057  0.00  0.00     0.000 A 
ATOM      3  C3  BNZ d   1       0.411  -0.055   0.412  0.00  0.00     0.000 A 
ATOM      4  C4  BNZ d   1       1.399  -0.901   0.054  0.00  0.00     0.000 A 
ATOM      5  C5  BNZ d   1       1.287  -2.253   0.306  0.00  0.00     0.000 A 
ATOM      6  C6  BNZ d   1       0.158  -2.746   0.920  0.00  0.00     0.000 A 
ENDROOT
TORSDOF 0
ENDMDL
