MODEL 1
REMARK minimizedAffinity -4.70363998
REMARK minimizedRMSD -1
REMARK  0 active torsions:
REMARK  status: ('A' for Active; 'I' for Inactive)
ROOT
ATOM      1  C4' PXY d   1      -1.016   0.938  -1.125  0.00  0.00     0.077 C 
ATOM      2  C1' PXY d   1       1.908  -1.423   3.267  0.00  0.00     0.077 C 
ATOM      3  C1  PXY d   1       1.131  -0.810   2.119  0.00  0.00    -0.082 A 
ATOM      4  C2  PXY d   1       1.765  -0.461   1.011  0.00  0.00     0.003 A 
ATOM      5  C3  PXY d   1       1.082   0.125  -0.024  0.00  0.00     0.003 A 
ATOM      6  C4  PXY d   1      -0.272   0.306   0.055  0.00  0.00    -0.082 A 
ATOM      7  C5  PXY d   1      -0.929  -0.057   1.177  0.00  0.00     0.003 A 
ATOM      8  C6  PXY d   1      -0.211  -0.612   2.233  0.00  0.00     0.003 A 
ENDROOT
TORSDOF 0
ENDMDL
