MODEL 1
REMARK minimizedAffinity -3.54947901
REMARK minimizedRMSD -1
REMARK  0 active torsions:
REMARK  status: ('A' for Active; 'I' for Inactive)
ROOT
ATOM      1  C4' PXY d   1       1.528  -1.114   2.987  0.00  0.00     0.077 C 
ATOM      2  C1' PXY d   1      -0.662   0.941  -1.952  0.00  0.00     0.077 C 
ATOM      3  C1  PXY d   1      -0.078   0.396  -0.664  0.00  0.00    -0.082 A 
ATOM      4  C2  PXY d   1      -0.853   0.266   0.401  0.00  0.00     0.003 A 
ATOM      5  C3  PXY d   1      -0.334  -0.196   1.584  0.00  0.00     0.003 A 
ATOM      6  C4  PXY d   1       0.979  -0.577   1.662  0.00  0.00    -0.082 A 
ATOM      7  C5  PXY d   1       1.773  -0.457   0.577  0.00  0.00     0.003 A 
ATOM      8  C6  PXY d   1       1.237   0.053  -0.602  0.00  0.00     0.003 A 
ENDROOT
TORSDOF 0
ENDMDL
