MODEL 1
REMARK minimizedAffinity -4.3086071
REMARK minimizedRMSD -1
REMARK  0 active torsions:
REMARK  status: ('A' for Active; 'I' for Inactive)
ROOT
ATOM      1  C4' PXY d   1       0.339  -1.264   3.016  0.00  0.00     0.077 C 
ATOM      2  C1' PXY d   1      -0.356   1.786  -1.846  0.00  0.00     0.077 C 
ATOM      3  C1  PXY d   1      -0.179   0.996  -0.564  0.00  0.00    -0.082 A 
ATOM      4  C2  PXY d   1       0.749   0.055  -0.498  0.00  0.00     0.003 A 
ATOM      5  C3  PXY d   1       0.902  -0.691   0.642  0.00  0.00     0.003 A 
ATOM      6  C4  PXY d   1       0.131  -0.435   1.745  0.00  0.00    -0.082 A 
ATOM      7  C5  PXY d   1      -0.810   0.531   1.690  0.00  0.00     0.003 A 
ATOM      8  C6  PXY d   1      -0.977   1.248   0.509  0.00  0.00     0.003 A 
ENDROOT
TORSDOF 0
ENDMDL
