MODEL 1
REMARK minimizedAffinity -0.740335047
REMARK minimizedRMSD -1
REMARK  0 active torsions:
REMARK  status: ('A' for Active; 'I' for Inactive)
ROOT
ATOM      1  C4' PXY d   1       1.511  -0.662  -0.626  0.00  0.00     0.077 C 
ATOM      2  C1' PXY d   1      -1.514   3.413  -3.393  0.00  0.00     0.077 C 
ATOM      3  C1  PXY d   1      -0.731   2.342  -2.659  0.00  0.00    -0.082 A 
ATOM      4  C2  PXY d   1       0.592   2.377  -2.669  0.00  0.00     0.003 A 
ATOM      5  C3  PXY d   1       1.316   1.398  -2.038  0.00  0.00     0.003 A 
ATOM      6  C4  PXY d   1       0.679   0.403  -1.345  0.00  0.00    -0.082 A 
ATOM      7  C5  PXY d   1      -0.670   0.367  -1.321  0.00  0.00     0.003 A 
ATOM      8  C6  PXY d   1      -1.386   1.347  -2.003  0.00  0.00     0.003 A 
ENDROOT
TORSDOF 0
ENDMDL
