MODEL 1
REMARK minimizedAffinity -2.78620744
REMARK minimizedRMSD -1
REMARK  0 active torsions:
REMARK  status: ('A' for Active; 'I' for Inactive)
ROOT
ATOM      1  C4' PXY d   1      -0.668   0.592  -1.833  0.00  0.00     0.077 C 
ATOM      2  C1' PXY d   1       1.386  -0.896   3.361  0.00  0.00     0.077 C 
ATOM      3  C1  PXY d   1       0.859  -0.502   1.995  0.00  0.00    -0.082 A 
ATOM      4  C2  PXY d   1      -0.417  -0.185   1.853  0.00  0.00     0.003 A 
ATOM      5  C3  PXY d   1      -0.917   0.142   0.619  0.00  0.00     0.003 A 
ATOM      6  C4  PXY d   1      -0.091   0.197  -0.471  0.00  0.00    -0.082 A 
ATOM      7  C5  PXY d   1       1.215  -0.115  -0.332  0.00  0.00     0.003 A 
ATOM      8  C6  PXY d   1       1.695  -0.484   0.921  0.00  0.00     0.003 A 
ENDROOT
TORSDOF 0
ENDMDL
