MODEL 1
REMARK minimizedAffinity -3.05603981
REMARK minimizedRMSD -1
REMARK  0 active torsions:
REMARK  status: ('A' for Active; 'I' for Inactive)
ROOT
ATOM      1  C4' PXY d   1      -2.285   0.786   1.678  0.00  0.00     0.077 C 
ATOM      2  C1' PXY d   1       2.742  -1.240  -0.332  0.00  0.00     0.077 C 
ATOM      3  C1  PXY d   1       1.422  -0.702   0.184  0.00  0.00    -0.082 A 
ATOM      4  C2  PXY d   1       1.211  -0.627   1.488  0.00  0.00     0.003 A 
ATOM      5  C3  PXY d   1       0.011  -0.173   1.971  0.00  0.00     0.003 A 
ATOM      6  C4  PXY d   1      -0.964   0.258   1.112  0.00  0.00    -0.082 A 
ATOM      7  C5  PXY d   1      -0.752   0.195  -0.220  0.00  0.00     0.003 A 
ATOM      8  C6  PXY d   1       0.457  -0.308  -0.691  0.00  0.00     0.003 A 
ENDROOT
TORSDOF 0
ENDMDL
