MODEL 1
REMARK minimizedAffinity -2.89043999
REMARK minimizedRMSD -1
REMARK  0 active torsions:
REMARK  status: ('A' for Active; 'I' for Inactive)
ROOT
ATOM      1  C4' PXY d   1       2.965  -0.728  -0.682  0.00  0.00     0.077 C 
ATOM      2  C1' PXY d   1      -2.233   0.335   1.613  0.00  0.00     0.077 C 
ATOM      3  C1  PXY d   1      -0.864   0.064   1.020  0.00  0.00    -0.082 A 
ATOM      4  C2  PXY d   1      -0.761  -0.301  -0.247  0.00  0.00     0.003 A 
ATOM      5  C3  PXY d   1       0.466  -0.581  -0.791  0.00  0.00     0.003 A 
ATOM      6  C4  PXY d   1       1.605  -0.435  -0.044  0.00  0.00    -0.082 A 
ATOM      7  C5  PXY d   1       1.508  -0.052   1.247  0.00  0.00     0.003 A 
ATOM      8  C6  PXY d   1       0.250   0.188   1.792  0.00  0.00     0.003 A 
ENDROOT
TORSDOF 0
ENDMDL
