MODEL 1
REMARK minimizedAffinity -4.8509841
REMARK minimizedRMSD -1
REMARK  0 active torsions:
REMARK  status: ('A' for Active; 'I' for Inactive)
ROOT
ATOM      1  C4' PXY d   1      -0.578   1.223  -1.376  0.00  0.00     0.077 C 
ATOM      2  C1' PXY d   1       1.256  -0.987   3.641  0.00  0.00     0.077 C 
ATOM      3  C1  PXY d   1       0.763  -0.411   2.328  0.00  0.00    -0.082 A 
ATOM      4  C2  PXY d   1       1.611  -0.248   1.325  0.00  0.00     0.003 A 
ATOM      5  C3  PXY d   1       1.189   0.301   0.142  0.00  0.00     0.003 A 
ATOM      6  C4  PXY d   1      -0.126   0.637  -0.035  0.00  0.00    -0.082 A 
ATOM      7  C5  PXY d   1      -1.000   0.464   0.979  0.00  0.00     0.003 A 
ATOM      8  C6  PXY d   1      -0.543  -0.057   2.186  0.00  0.00     0.003 A 
ENDROOT
TORSDOF 0
ENDMDL
