MODEL 1
REMARK minimizedAffinity -4.87201691
REMARK minimizedRMSD -1
REMARK  0 active torsions:
REMARK  status: ('A' for Active; 'I' for Inactive)
ROOT
ATOM      1  C4' PXY d   1      -0.322   1.116  -1.698  0.00  0.00     0.077 C 
ATOM      2  C1' PXY d   1       0.516  -1.770   3.240  0.00  0.00     0.077 C 
ATOM      3  C1  PXY d   1       0.309  -1.013   1.943  0.00  0.00    -0.082 A 
ATOM      4  C2  PXY d   1      -0.774  -0.270   1.785  0.00  0.00     0.003 A 
ATOM      5  C3  PXY d   1      -0.993   0.395   0.606  0.00  0.00     0.003 A 
ATOM      6  C4  PXY d   1      -0.067   0.342  -0.402  0.00  0.00    -0.082 A 
ATOM      7  C5  PXY d   1       1.046  -0.405  -0.244  0.00  0.00     0.003 A 
ATOM      8  C6  PXY d   1       1.229  -1.106   0.945  0.00  0.00     0.003 A 
ENDROOT
TORSDOF 0
ENDMDL
