MODEL 1
REMARK minimizedAffinity -4.9916749
REMARK minimizedRMSD -1
REMARK  0 active torsions:
REMARK  status: ('A' for Active; 'I' for Inactive)
ROOT
ATOM      1  C4' PXY d   1      -0.695   0.322  -1.786  0.00  0.00     0.077 C 
ATOM      2  C1' PXY d   1       1.608  -0.929   3.366  0.00  0.00     0.077 C 
ATOM      3  C1  PXY d   1       0.992  -0.604   2.019  0.00  0.00    -0.082 A 
ATOM      4  C2  PXY d   1       1.741  -0.651   0.929  0.00  0.00     0.003 A 
ATOM      5  C3  PXY d   1       1.208  -0.329  -0.293  0.00  0.00     0.003 A 
ATOM      6  C4  PXY d   1      -0.118  -0.007  -0.407  0.00  0.00    -0.082 A 
ATOM      7  C5  PXY d   1      -0.891   0.033   0.699  0.00  0.00     0.003 A 
ATOM      8  C6  PXY d   1      -0.321  -0.258   1.935  0.00  0.00     0.003 A 
ENDROOT
TORSDOF 0
ENDMDL
