MODEL 1
REMARK minimizedAffinity -2.52291656
REMARK minimizedRMSD -1
REMARK  1 active torsions:
REMARK  status: ('A' for Active; 'I' for Inactive)
REMARK    1  A    between atoms: C1_2  and  C2_3 
ROOT
ATOM      1  C2  UNL d   1       0.624  -1.033  -0.601  0.00  0.00    -0.077 A 
ATOM      2  C3  UNL d   1       1.852  -0.685  -1.181  0.00  0.00     0.002 A 
ATOM      3  C4  UNL d   1       2.629   0.336  -0.632  0.00  0.00     0.002 A 
ATOM      4  C5  UNL d   1       2.190   1.015   0.503  0.00  0.00    -0.004 A 
ATOM      5  C6  UNL d   1       0.969   0.678   1.087  0.00  0.00     0.002 A 
ATOM      6  C7  UNL d   1       0.190  -0.342   0.538  0.00  0.00     0.002 A 
ENDROOT
BRANCH   1   7
ATOM      7  C1  UNL d   1      -0.193  -2.167  -1.163  0.00  0.00     0.055 C 
ATOM      8  C   UNL d   1      -1.647  -2.072  -0.725  0.00  0.00     0.019 C 
ENDBRANCH   1   7
TORSDOF 1
ENDMDL
