MODEL 1
REMARK minimizedAffinity -2.93971038
REMARK minimizedRMSD -1
REMARK  1 active torsions:
REMARK  status: ('A' for Active; 'I' for Inactive)
REMARK    1  A    between atoms: C1_2  and  C2_3 
ROOT
ATOM      1  C2  UNL d   1       0.083  -0.127  -0.257  0.00  0.00    -0.077 A 
ATOM      2  C3  UNL d   1      -0.227   1.096  -0.870  0.00  0.00     0.002 A 
ATOM      3  C4  UNL d   1       0.784   2.007  -1.181  0.00  0.00     0.002 A 
ATOM      4  C5  UNL d   1       2.112   1.703  -0.887  0.00  0.00    -0.004 A 
ATOM      5  C6  UNL d   1       2.430   0.491  -0.275  0.00  0.00     0.002 A 
ATOM      6  C7  UNL d   1       1.421  -0.420   0.037  0.00  0.00     0.002 A 
ENDROOT
BRANCH   1   7
ATOM      7  C1  UNL d   1      -1.001  -1.131   0.035  0.00  0.00     0.055 C 
ATOM      8  C   UNL d   1      -0.572  -2.538  -0.357  0.00  0.00     0.019 C 
ENDBRANCH   1   7
TORSDOF 1
ENDMDL
