MODEL 1
REMARK minimizedAffinity -3.61824632
REMARK minimizedRMSD -1
REMARK  1 active torsions:
REMARK  status: ('A' for Active; 'I' for Inactive)
REMARK    1  A    between atoms: C1_2  and  C2_3 
ROOT
ATOM      1  C2  UNL d   1       0.372  -0.272  -0.166  0.00  0.00    -0.077 A 
ATOM      2  C3  UNL d   1       1.457   0.583   0.073  0.00  0.00     0.002 A 
ATOM      3  C4  UNL d   1       2.717   0.289  -0.452  0.00  0.00     0.002 A 
ATOM      4  C5  UNL d   1       2.903  -0.857  -1.223  0.00  0.00    -0.004 A 
ATOM      5  C6  UNL d   1       1.830  -1.714  -1.465  0.00  0.00     0.002 A 
ATOM      6  C7  UNL d   1       0.570  -1.423  -0.940  0.00  0.00     0.002 A 
ENDROOT
BRANCH   1   7
ATOM      7  C1  UNL d   1      -0.999   0.068   0.358  0.00  0.00     0.055 C 
ATOM      8  C   UNL d   1      -1.004   0.157   1.877  0.00  0.00     0.019 C 
ENDBRANCH   1   7
TORSDOF 1
ENDMDL
