MODEL 1
REMARK minimizedAffinity -3.9488318
REMARK minimizedRMSD -1
REMARK  1 active torsions:
REMARK  status: ('A' for Active; 'I' for Inactive)
REMARK    1  A    between atoms: C1_2  and  C2_3 
ROOT
ATOM      1  C2  UNL d   1      -2.992   4.083   4.220  0.00  0.00    -0.077 A 
ATOM      2  C3  UNL d   1      -3.870   4.647   3.284  0.00  0.00     0.002 A 
ATOM      3  C4  UNL d   1      -5.050   5.264   3.704  0.00  0.00     0.002 A 
ATOM      4  C5  UNL d   1      -5.361   5.327   5.061  0.00  0.00    -0.004 A 
ATOM      5  C6  UNL d   1      -4.495   4.768   6.000  0.00  0.00     0.002 A 
ATOM      6  C7  UNL d   1      -3.316   4.150   5.582  0.00  0.00     0.002 A 
ENDROOT
BRANCH   1   7
ATOM      7  C1  UNL d   1      -1.696   3.461   3.773  0.00  0.00     0.055 C 
ATOM      8  C   UNL d   1      -1.881   1.995   3.410  0.00  0.00     0.019 C 
ENDBRANCH   1   7
TORSDOF 1
ENDMDL
