MODEL 1
REMARK minimizedAffinity -4.04466581
REMARK minimizedRMSD -1
REMARK  1 active torsions:
REMARK  status: ('A' for Active; 'I' for Inactive)
REMARK    1  A    between atoms: C1_2  and  C2_3 
ROOT
ATOM      1  C2  UNL d   1       0.149  -0.193  -0.245  0.00  0.00    -0.077 A 
ATOM      2  C3  UNL d   1       1.233   0.613   0.130  0.00  0.00     0.002 A 
ATOM      3  C4  UNL d   1       2.533   0.268  -0.245  0.00  0.00     0.002 A 
ATOM      4  C5  UNL d   1       2.760  -0.882  -0.999  0.00  0.00    -0.004 A 
ATOM      5  C6  UNL d   1       1.689  -1.691  -1.374  0.00  0.00     0.002 A 
ATOM      6  C7  UNL d   1       0.389  -1.348  -1.000  0.00  0.00     0.002 A 
ENDROOT
BRANCH   1   7
ATOM      7  C1  UNL d   1      -1.259   0.204   0.116  0.00  0.00     0.055 C 
ATOM      8  C   UNL d   1      -1.361   0.612   1.579  0.00  0.00     0.019 C 
ENDBRANCH   1   7
TORSDOF 1
ENDMDL
