MODEL 1
REMARK minimizedAffinity -4.35812616
REMARK minimizedRMSD -1
REMARK  1 active torsions:
REMARK  status: ('A' for Active; 'I' for Inactive)
REMARK    1  A    between atoms: C1_2  and  C2_3 
ROOT
ATOM      1  C2  UNL d   1       0.045  -0.035   0.085  0.00  0.00    -0.077 A 
ATOM      2  C3  UNL d   1       0.811   0.955  -0.546  0.00  0.00     0.002 A 
ATOM      3  C4  UNL d   1       2.058   0.643  -1.091  0.00  0.00     0.002 A 
ATOM      4  C5  UNL d   1       2.549  -0.658  -1.013  0.00  0.00    -0.004 A 
ATOM      5  C6  UNL d   1       1.796  -1.650  -0.385  0.00  0.00     0.002 A 
ATOM      6  C7  UNL d   1       0.549  -1.340   0.161  0.00  0.00     0.002 A 
ENDROOT
BRANCH   1   7
ATOM      7  C1  UNL d   1      -1.321   0.288   0.630  0.00  0.00     0.055 C 
ATOM      8  C   UNL d   1      -1.228   1.086   1.922  0.00  0.00     0.019 C 
ENDBRANCH   1   7
TORSDOF 1
ENDMDL
