MODEL 1
REMARK minimizedAffinity -4.01719809
REMARK minimizedRMSD -1
REMARK  1 active torsions:
REMARK  status: ('A' for Active; 'I' for Inactive)
REMARK    1  A    between atoms: C1_2  and  C2_3 
ROOT
ATOM      1  C2  UNL d   1       0.815  -0.545  -0.797  0.00  0.00    -0.077 A 
ATOM      2  C3  UNL d   1      -0.217  -1.133  -0.052  0.00  0.00     0.002 A 
ATOM      3  C4  UNL d   1      -1.385  -0.418   0.223  0.00  0.00     0.002 A 
ATOM      4  C5  UNL d   1      -1.533   0.885  -0.247  0.00  0.00    -0.004 A 
ATOM      5  C6  UNL d   1      -0.512   1.479  -0.987  0.00  0.00     0.002 A 
ATOM      6  C7  UNL d   1       0.656   0.767  -1.262  0.00  0.00     0.002 A 
ENDROOT
BRANCH   1   7
ATOM      7  C1  UNL d   1       2.054  -1.331  -1.137  0.00  0.00     0.055 C 
ATOM      8  C   UNL d   1       3.129  -0.437  -1.738  0.00  0.00     0.019 C 
ENDBRANCH   1   7
TORSDOF 1
ENDMDL
