MODEL 1
REMARK minimizedAffinity -5.24687767
REMARK minimizedRMSD -1
REMARK  1 active torsions:
REMARK  status: ('A' for Active; 'I' for Inactive)
REMARK    1  A    between atoms: C1_2  and  C2_3 
ROOT
ATOM      1  C2  UNL d   1       0.109   0.379   0.366  0.00  0.00    -0.077 A 
ATOM      2  C3  UNL d   1       1.193   1.097  -0.158  0.00  0.00     0.002 A 
ATOM      3  C4  UNL d   1       2.110   0.472  -1.005  0.00  0.00     0.002 A 
ATOM      4  C5  UNL d   1       1.950  -0.871  -1.339  0.00  0.00    -0.004 A 
ATOM      5  C6  UNL d   1       0.876  -1.594  -0.821  0.00  0.00     0.002 A 
ATOM      6  C7  UNL d   1      -0.041  -0.971   0.027  0.00  0.00     0.002 A 
ENDROOT
BRANCH   1   7
ATOM      7  C1  UNL d   1      -0.908   1.064   1.241  0.00  0.00     0.055 C 
ATOM      8  C   UNL d   1      -1.856   0.059   1.880  0.00  0.00     0.019 C 
ENDBRANCH   1   7
TORSDOF 1
ENDMDL
