MODEL 1
REMARK minimizedAffinity -4.01808119
REMARK minimizedRMSD -1
REMARK  1 active torsions:
REMARK  status: ('A' for Active; 'I' for Inactive)
REMARK    1  A    between atoms: C1_2  and  C2_3 
ROOT
ATOM      1  C2  UNL d   1       0.783   0.342  -0.816  0.00  0.00    -0.077 A 
ATOM      2  C3  UNL d   1      -0.251  -0.429  -0.266  0.00  0.00     0.002 A 
ATOM      3  C4  UNL d   1      -1.580  -0.019  -0.387  0.00  0.00     0.002 A 
ATOM      4  C5  UNL d   1      -1.887   1.161  -1.061  0.00  0.00    -0.004 A 
ATOM      5  C6  UNL d   1      -0.867   1.936  -1.610  0.00  0.00     0.002 A 
ATOM      6  C7  UNL d   1       0.462   1.528  -1.489  0.00  0.00     0.002 A 
ENDROOT
BRANCH   1   7
ATOM      7  C1  UNL d   1       2.213  -0.125  -0.729  0.00  0.00     0.055 C 
ATOM      8  C   UNL d   1       2.543  -1.107  -1.843  0.00  0.00     0.019 C 
ENDBRANCH   1   7
TORSDOF 1
ENDMDL
