MODEL 1
REMARK minimizedAffinity -4.6884346
REMARK minimizedRMSD -1
REMARK  1 active torsions:
REMARK  status: ('A' for Active; 'I' for Inactive)
REMARK    1  A    between atoms: C1_2  and  C2_3 
ROOT
ATOM      1  C2  UNL d   1       0.129   0.151  -0.205  0.00  0.00    -0.077 A 
ATOM      2  C3  UNL d   1       0.179  -1.219  -0.496  0.00  0.00     0.002 A 
ATOM      3  C4  UNL d   1       1.360  -1.799  -0.964  0.00  0.00     0.002 A 
ATOM      4  C5  UNL d   1       2.499  -1.017  -1.141  0.00  0.00    -0.004 A 
ATOM      5  C6  UNL d   1       2.459   0.347  -0.856  0.00  0.00     0.002 A 
ATOM      6  C7  UNL d   1       1.279   0.929  -0.390  0.00  0.00     0.002 A 
ENDROOT
BRANCH   1   7
ATOM      7  C1  UNL d   1      -1.130   0.769   0.346  0.00  0.00     0.055 C 
ATOM      8  C   UNL d   1      -1.492   0.174   1.698  0.00  0.00     0.019 C 
ENDBRANCH   1   7
TORSDOF 1
ENDMDL
