MODEL 1
REMARK minimizedAffinity -2.64273262
REMARK minimizedRMSD -1
REMARK  1 active torsions:
REMARK  status: ('A' for Active; 'I' for Inactive)
REMARK    1  A    between atoms: C1_2  and  C2_3 
ROOT
ATOM      1  C2  UNL d   1      -1.576   0.509   1.485  0.00  0.00    -0.077 A 
ATOM      2  C3  UNL d   1      -1.267   1.767   2.020  0.00  0.00     0.002 A 
ATOM      3  C4  UNL d   1      -1.480   2.030   3.375  0.00  0.00     0.002 A 
ATOM      4  C5  UNL d   1      -2.000   1.039   4.205  0.00  0.00    -0.004 A 
ATOM      5  C6  UNL d   1      -2.313  -0.215   3.682  0.00  0.00     0.002 A 
ATOM      6  C7  UNL d   1      -2.101  -0.479   2.328  0.00  0.00     0.002 A 
ENDROOT
BRANCH   1   7
ATOM      7  C1  UNL d   1      -1.301   0.207   0.035  0.00  0.00     0.055 C 
ATOM      8  C   UNL d   1       0.167  -0.123  -0.193  0.00  0.00     0.019 C 
ENDBRANCH   1   7
TORSDOF 1
ENDMDL
