MODEL 1
REMARK minimizedAffinity -3.35657096
REMARK minimizedRMSD -1
REMARK  1 active torsions:
REMARK  status: ('A' for Active; 'I' for Inactive)
REMARK    1  A    between atoms: C1_2  and  C2_3 
ROOT
ATOM      1  C2  UNL d   1      -1.517   0.416   0.705  0.00  0.00    -0.077 A 
ATOM      2  C3  UNL d   1      -0.619  -0.660   0.688  0.00  0.00     0.002 A 
ATOM      3  C4  UNL d   1       0.490  -0.641  -0.160  0.00  0.00     0.002 A 
ATOM      4  C5  UNL d   1       0.712   0.453  -0.994  0.00  0.00    -0.004 A 
ATOM      5  C6  UNL d   1      -0.177   1.526  -0.986  0.00  0.00     0.002 A 
ATOM      6  C7  UNL d   1      -1.286   1.509  -0.140  0.00  0.00     0.002 A 
ENDROOT
BRANCH   1   7
ATOM      7  C1  UNL d   1      -2.686   0.419   1.655  0.00  0.00     0.055 C 
ATOM      8  C   UNL d   1      -2.353   1.163   2.940  0.00  0.00     0.019 C 
ENDBRANCH   1   7
TORSDOF 1
ENDMDL
