MODEL 1
REMARK minimizedAffinity -4.77135086
REMARK minimizedRMSD -1
REMARK  1 active torsions:
REMARK  status: ('A' for Active; 'I' for Inactive)
REMARK    1  A    between atoms: C1_2  and  C2_3 
ROOT
ATOM      1  C2  UNL d   1      -0.547  -0.013   0.241  0.00  0.00    -0.077 A 
ATOM      2  C3  UNL d   1       0.815  -0.205  -0.029  0.00  0.00     0.002 A 
ATOM      3  C4  UNL d   1       1.488   0.648  -0.907  0.00  0.00     0.002 A 
ATOM      4  C5  UNL d   1       0.808   1.699  -1.518  0.00  0.00    -0.004 A 
ATOM      5  C6  UNL d   1      -0.548   1.897  -1.257  0.00  0.00     0.002 A 
ATOM      6  C7  UNL d   1      -1.222   1.045  -0.380  0.00  0.00     0.002 A 
ENDROOT
BRANCH   1   7
ATOM      7  C1  UNL d   1      -1.262  -0.902   1.225  0.00  0.00     0.055 C 
ATOM      8  C   UNL d   1      -2.157  -0.092   2.153  0.00  0.00     0.019 C 
ENDBRANCH   1   7
TORSDOF 1
ENDMDL
