MODEL 1
REMARK minimizedAffinity -5.10586643
REMARK minimizedRMSD -1
REMARK  1 active torsions:
REMARK  status: ('A' for Active; 'I' for Inactive)
REMARK    1  A    between atoms: C1_2  and  C2_3 
ROOT
ATOM      1  C2  UNL d   1      -0.071   0.104  -0.313  0.00  0.00    -0.077 A 
ATOM      2  C3  UNL d   1       0.982   0.874  -0.828  0.00  0.00     0.002 A 
ATOM      3  C4  UNL d   1       2.203   0.277  -1.147  0.00  0.00     0.002 A 
ATOM      4  C5  UNL d   1       2.382  -1.092  -0.960  0.00  0.00    -0.004 A 
ATOM      5  C6  UNL d   1       1.342  -1.866  -0.447  0.00  0.00     0.002 A 
ATOM      6  C7  UNL d   1       0.121  -1.271  -0.125  0.00  0.00     0.002 A 
ENDROOT
BRANCH   1   7
ATOM      7  C1  UNL d   1      -1.405   0.736  -0.014  0.00  0.00     0.055 C 
ATOM      8  C   UNL d   1      -1.610   0.914   1.483  0.00  0.00     0.019 C 
ENDBRANCH   1   7
TORSDOF 1
ENDMDL
