MODEL 1
REMARK minimizedAffinity -3.9866991
REMARK minimizedRMSD -1
REMARK  3 active torsions:
REMARK  status: ('A' for Active; 'I' for Inactive)
REMARK    1  A    between atoms: C3'_2  and  C2'_3 
REMARK    2  A    between atoms: C2'_3  and  C1'_4 
REMARK    3  A    between atoms: C1'_4  and  C1_5 
ROOT
ATOM      1  C1  N4B d   1      -0.101   0.160   0.278  0.00  0.00    -0.075 A 
ATOM      2  C2  N4B d   1       0.462   1.336  -0.267  0.00  0.00     0.002 A 
ATOM      3  C3  N4B d   1       1.741   1.705   0.071  0.00  0.00     0.002 A 
ATOM      4  C4  N4B d   1       2.466   0.928   0.961  0.00  0.00    -0.004 A 
ATOM      5  C5  N4B d   1       1.925  -0.219   1.463  0.00  0.00     0.002 A 
ATOM      6  C6  N4B d   1       0.642  -0.605   1.130  0.00  0.00     0.002 A 
ENDROOT
BRANCH   1   7
ATOM      7  C1' N4B d   1      -1.526  -0.238   0.005  0.00  0.00     0.057 C 
BRANCH   7   8
ATOM      8  C2' N4B d   1      -2.047   0.554  -1.190  0.00  0.00     0.009 C 
BRANCH   8   9
ATOM      9  C3' N4B d   1      -2.524  -0.355  -2.310  0.00  0.00     0.004 C 
ATOM     10  C4' N4B d   1      -2.582   0.340  -3.637  0.00  0.00     0.003 C 
ENDBRANCH   8   9
ENDBRANCH   7   8
ENDBRANCH   1   7
TORSDOF 3
ENDMDL
