MODEL 1
REMARK minimizedAffinity -1.61025715
REMARK minimizedRMSD -1
REMARK  3 active torsions:
REMARK  status: ('A' for Active; 'I' for Inactive)
REMARK    1  A    between atoms: C3'_2  and  C2'_3 
REMARK    2  A    between atoms: C2'_3  and  C1'_4 
REMARK    3  A    between atoms: C1'_4  and  C1_5 
ROOT
ATOM      1  C1  N4B d   1      -0.555   0.498   0.162  0.00  0.00    -0.075 A 
ATOM      2  C2  N4B d   1      -0.104  -0.746   0.654  0.00  0.00     0.002 A 
ATOM      3  C3  N4B d   1       1.148  -0.852   1.209  0.00  0.00     0.002 A 
ATOM      4  C4  N4B d   1       1.969   0.264   1.266  0.00  0.00    -0.004 A 
ATOM      5  C5  N4B d   1       1.516   1.468   0.812  0.00  0.00     0.002 A 
ATOM      6  C6  N4B d   1       0.259   1.590   0.255  0.00  0.00     0.002 A 
ENDROOT
BRANCH   1   7
ATOM      7  C1' N4B d   1      -1.882   0.644  -0.531  0.00  0.00     0.057 C 
BRANCH   7   8
ATOM      8  C2' N4B d   1      -1.831  -0.087  -1.869  0.00  0.00     0.009 C 
BRANCH   8   9
ATOM      9  C3' N4B d   1      -2.664   0.610  -2.930  0.00  0.00     0.004 C 
ATOM     10  C4' N4B d   1      -2.594  -0.070  -4.265  0.00  0.00     0.003 C 
ENDBRANCH   8   9
ENDBRANCH   7   8
ENDBRANCH   1   7
TORSDOF 3
ENDMDL
