MODEL 1
REMARK minimizedAffinity -2.84320569
REMARK minimizedRMSD -1
REMARK  0 active torsions:
REMARK  status: ('A' for Active; 'I' for Inactive)
ROOT
ATOM      1  C   UNL d   1      -5.911   5.999  -6.000  0.00  0.00     0.078 C 
ATOM      2  C1  UNL d   1      -5.327   5.110  -4.944  0.00  0.00    -0.077 A 
ATOM      3  C2  UNL d   1      -4.120   4.434  -5.157  0.00  0.00    -0.001 A 
ATOM      4  C3  UNL d   1      -3.593   3.601  -4.168  0.00  0.00     0.003 A 
ATOM      5  C4  UNL d   1      -4.267   3.435  -2.960  0.00  0.00    -0.005 A 
ATOM      6  C5  UNL d   1      -5.471   4.102  -2.740  0.00  0.00     0.003 A 
ATOM      7  C6  UNL d   1      -5.999   4.935  -3.727  0.00  0.00    -0.001 A 
ENDROOT
TORSDOF 0
ENDMDL
