MODEL 1
REMARK minimizedAffinity 13.1155939
REMARK minimizedRMSD -1
REMARK  0 active torsions:
REMARK  status: ('A' for Active; 'I' for Inactive)
ROOT
ATOM      1  C   UNL d   1      -0.534   2.753  -0.876  0.00  0.00     0.078 C 
ATOM      2  C1  UNL d   1      -0.309   2.265   0.524  0.00  0.00    -0.077 A 
ATOM      3  C2  UNL d   1      -1.386   2.044   1.392  0.00  0.00    -0.001 A 
ATOM      4  C3  UNL d   1      -1.162   1.599   2.696  0.00  0.00     0.003 A 
ATOM      5  C4  UNL d   1       0.138   1.373   3.144  0.00  0.00    -0.005 A 
ATOM      6  C5  UNL d   1       1.216   1.592   2.289  0.00  0.00     0.003 A 
ATOM      7  C6  UNL d   1       0.994   2.037   0.985  0.00  0.00    -0.001 A 
ENDROOT
TORSDOF 0
ENDMDL
