MODEL 1
REMARK minimizedAffinity 0.311889648
REMARK minimizedRMSD -1
REMARK  0 active torsions:
REMARK  status: ('A' for Active; 'I' for Inactive)
ROOT
ATOM      1  C   UNL d   1       0.370  -1.913  -0.409  0.00  0.00     0.078 C 
ATOM      2  C1  UNL d   1       0.123  -0.737  -1.307  0.00  0.00    -0.077 A 
ATOM      3  C2  UNL d   1      -0.725   0.305  -0.914  0.00  0.00    -0.001 A 
ATOM      4  C3  UNL d   1      -0.953   1.388  -1.764  0.00  0.00     0.003 A 
ATOM      5  C4  UNL d   1      -0.338   1.439  -3.013  0.00  0.00    -0.005 A 
ATOM      6  C5  UNL d   1       0.506   0.406  -3.414  0.00  0.00     0.003 A 
ATOM      7  C6  UNL d   1       0.736  -0.678  -2.565  0.00  0.00    -0.001 A 
ENDROOT
TORSDOF 0
ENDMDL
