MODEL 1
REMARK minimizedAffinity 7.45230865
REMARK minimizedRMSD -1
REMARK  0 active torsions:
REMARK  status: ('A' for Active; 'I' for Inactive)
ROOT
ATOM      1  C   UNL d   1      -4.211   1.985  -5.999  0.00  0.00     0.078 C 
ATOM      2  C1  UNL d   1      -4.268   3.257  -5.208  0.00  0.00    -0.077 A 
ATOM      3  C2  UNL d   1      -4.243   3.238  -3.808  0.00  0.00    -0.001 A 
ATOM      4  C3  UNL d   1      -4.307   4.430  -3.085  0.00  0.00     0.003 A 
ATOM      5  C4  UNL d   1      -4.397   5.650  -3.752  0.00  0.00    -0.005 A 
ATOM      6  C5  UNL d   1      -4.425   5.679  -5.145  0.00  0.00     0.003 A 
ATOM      7  C6  UNL d   1      -4.361   4.488  -5.870  0.00  0.00    -0.001 A 
ENDROOT
TORSDOF 0
ENDMDL
