MODEL 1
REMARK minimizedAffinity 5.85691547
REMARK minimizedRMSD -1
REMARK  0 active torsions:
REMARK  status: ('A' for Active; 'I' for Inactive)
ROOT
ATOM      1  C   UNL d   1      -2.250  -5.338  -5.624  0.00  0.00     0.078 C 
ATOM      2  C1  UNL d   1      -1.490  -4.113  -5.212  0.00  0.00    -0.077 A 
ATOM      3  C2  UNL d   1      -1.509  -2.954  -5.997  0.00  0.00    -0.001 A 
ATOM      4  C3  UNL d   1      -0.789  -1.824  -5.605  0.00  0.00     0.003 A 
ATOM      5  C4  UNL d   1      -0.044  -1.842  -4.428  0.00  0.00    -0.005 A 
ATOM      6  C5  UNL d   1      -0.017  -2.992  -3.641  0.00  0.00     0.003 A 
ATOM      7  C6  UNL d   1      -0.736  -4.123  -4.031  0.00  0.00    -0.001 A 
ENDROOT
TORSDOF 0
ENDMDL
