MODEL 1
REMARK minimizedAffinity 3.95076656
REMARK minimizedRMSD -1
REMARK  0 active torsions:
REMARK  status: ('A' for Active; 'I' for Inactive)
ROOT
ATOM      1  C   UNL d   1       3.116  -1.453  -2.158  0.00  0.00     0.078 C 
ATOM      2  C1  UNL d   1       3.860  -2.288  -3.156  0.00  0.00    -0.077 A 
ATOM      3  C2  UNL d   1       5.253  -2.414  -3.096  0.00  0.00    -0.001 A 
ATOM      4  C3  UNL d   1       5.933  -3.188  -4.038  0.00  0.00     0.003 A 
ATOM      5  C4  UNL d   1       5.229  -3.840  -5.047  0.00  0.00    -0.005 A 
ATOM      6  C5  UNL d   1       3.842  -3.719  -5.117  0.00  0.00     0.003 A 
ATOM      7  C6  UNL d   1       3.160  -2.946  -4.176  0.00  0.00    -0.001 A 
ENDROOT
TORSDOF 0
ENDMDL
