MODEL 1
REMARK minimizedAffinity 3.88904142
REMARK minimizedRMSD -1
REMARK  0 active torsions:
REMARK  status: ('A' for Active; 'I' for Inactive)
ROOT
ATOM      1  C   UNL d   1       2.254  -2.405  -1.303  0.00  0.00     0.078 C 
ATOM      2  C1  UNL d   1       1.535  -3.647  -0.867  0.00  0.00    -0.077 A 
ATOM      3  C2  UNL d   1       0.728  -3.649   0.277  0.00  0.00    -0.001 A 
ATOM      4  C3  UNL d   1       0.073  -4.815   0.677  0.00  0.00     0.003 A 
ATOM      5  C4  UNL d   1       0.220  -5.988  -0.061  0.00  0.00    -0.005 A 
ATOM      6  C5  UNL d   1       1.023  -5.996  -1.199  0.00  0.00     0.003 A 
ATOM      7  C6  UNL d   1       1.679  -4.831  -1.601  0.00  0.00    -0.001 A 
ENDROOT
TORSDOF 0
ENDMDL
