MODEL 1
REMARK minimizedAffinity -5.66564846
REMARK minimizedRMSD -1
REMARK  0 active torsions:
REMARK  status: ('A' for Active; 'I' for Inactive)
ROOT
ATOM      1  C2' OXE d   1       0.508  -0.400  -0.380  0.00  0.00     0.078 C 
ATOM      2  C1' OXE d   1      -0.012   1.932  -1.854  0.00  0.00     0.078 C 
ATOM      3  C1  OXE d   1      -0.289   1.960  -0.372  0.00  0.00    -0.078 A 
ATOM      4  C2  OXE d   1      -0.076   0.800   0.333  0.00  0.00    -0.078 A 
ATOM      5  C3  OXE d   1      -0.264   0.787   1.712  0.00  0.00     0.003 A 
ATOM      6  C4  OXE d   1      -0.814   1.898   2.363  0.00  0.00    -0.002 A 
ATOM      7  C5  OXE d   1      -1.076   3.077   1.656  0.00  0.00    -0.002 A 
ATOM      8  C6  OXE d   1      -0.780   3.138   0.299  0.00  0.00     0.003 A 
ENDROOT
TORSDOF 0
ENDMDL
