MODEL 1
REMARK minimizedAffinity -2.40832496
REMARK minimizedRMSD -1
REMARK  0 active torsions:
REMARK  status: ('A' for Active; 'I' for Inactive)
ROOT
ATOM      1  C2' OXE d   1       0.062  -1.664  -1.095  0.00  0.00     0.078 C 
ATOM      2  C1' OXE d   1       0.546   0.355  -2.984  0.00  0.00     0.078 C 
ATOM      3  C1  OXE d   1      -0.343   0.687  -1.811  0.00  0.00    -0.078 A 
ATOM      4  C2  OXE d   1      -0.612  -0.321  -0.917  0.00  0.00    -0.078 A 
ATOM      5  C3  OXE d   1      -1.381  -0.053   0.212  0.00  0.00     0.003 A 
ATOM      6  C4  OXE d   1      -2.008   1.190   0.364  0.00  0.00    -0.002 A 
ATOM      7  C5  OXE d   1      -1.780   2.218  -0.557  0.00  0.00    -0.002 A 
ATOM      8  C6  OXE d   1      -0.917   1.996  -1.625  0.00  0.00     0.003 A 
ENDROOT
TORSDOF 0
ENDMDL
