MODEL 1
REMARK minimizedAffinity -1.18242788
REMARK minimizedRMSD -1
REMARK  0 active torsions:
REMARK  status: ('A' for Active; 'I' for Inactive)
ROOT
ATOM      1  C2' OXE d   1       1.120  -1.610  -0.044  0.00  0.00     0.078 C 
ATOM      2  C1' OXE d   1      -0.331   0.384   1.297  0.00  0.00     0.078 C 
ATOM      3  C1  OXE d   1      -0.048   0.587  -0.171  0.00  0.00    -0.078 A 
ATOM      4  C2  OXE d   1       0.703  -0.372  -0.808  0.00  0.00    -0.078 A 
ATOM      5  C3  OXE d   1       0.947  -0.262  -2.174  0.00  0.00     0.003 A 
ATOM      6  C4  OXE d   1       0.566   0.891  -2.871  0.00  0.00    -0.002 A 
ATOM      7  C5  OXE d   1      -0.165   1.898  -2.232  0.00  0.00    -0.002 A 
ATOM      8  C6  OXE d   1      -0.516   1.742  -0.895  0.00  0.00     0.003 A 
ENDROOT
TORSDOF 0
ENDMDL
