MODEL 1
REMARK minimizedAffinity -2.06866956
REMARK minimizedRMSD -1
REMARK  0 active torsions:
REMARK  status: ('A' for Active; 'I' for Inactive)
ROOT
ATOM      1  C2' OXE d   1       0.026   1.405  -2.211  0.00  0.00     0.078 C 
ATOM      2  C1' OXE d   1       0.349  -1.051  -0.891  0.00  0.00     0.078 C 
ATOM      3  C1  OXE d   1       0.293   0.199  -0.048  0.00  0.00    -0.078 A 
ATOM      4  C2  OXE d   1       0.182   1.400  -0.705  0.00  0.00    -0.078 A 
ATOM      5  C3  OXE d   1       0.071   2.579   0.027  0.00  0.00     0.003 A 
ATOM      6  C4  OXE d   1       0.226   2.567   1.418  0.00  0.00    -0.002 A 
ATOM      7  C5  OXE d   1       0.380   1.357   2.104  0.00  0.00    -0.002 A 
ATOM      8  C6  OXE d   1       0.373   0.163   1.392  0.00  0.00     0.003 A 
ENDROOT
TORSDOF 0
ENDMDL
