MODEL 1
REMARK minimizedAffinity -0.982256591
REMARK minimizedRMSD -1
REMARK  0 active torsions:
REMARK  status: ('A' for Active; 'I' for Inactive)
ROOT
ATOM      1  C2' OXE d   1      -0.429   2.286   1.560  0.00  0.00     0.078 C 
ATOM      2  C1' OXE d   1       0.854  -0.095   2.309  0.00  0.00     0.078 C 
ATOM      3  C1  OXE d   1       0.550   0.110   0.846  0.00  0.00    -0.078 A 
ATOM      4  C2  OXE d   1      -0.120   1.257   0.494  0.00  0.00    -0.078 A 
ATOM      5  C3  OXE d   1      -0.376   1.521  -0.848  0.00  0.00     0.003 A 
ATOM      6  C4  OXE d   1      -0.095   0.559  -1.826  0.00  0.00    -0.002 A 
ATOM      7  C5  OXE d   1       0.551  -0.634  -1.484  0.00  0.00    -0.002 A 
ATOM      8  C6  OXE d   1       0.918  -0.855  -0.161  0.00  0.00     0.003 A 
ENDROOT
TORSDOF 0
ENDMDL
