MODEL 1
REMARK minimizedAffinity -2.3286593
REMARK minimizedRMSD -1
REMARK  0 active torsions:
REMARK  status: ('A' for Active; 'I' for Inactive)
ROOT
ATOM      1  C2' OXE d   1      -1.926   2.273   1.653  0.00  0.00     0.078 C 
ATOM      2  C1' OXE d   1       0.684   1.782   2.562  0.00  0.00     0.078 C 
ATOM      3  C1  OXE d   1       0.243   1.104   1.289  0.00  0.00    -0.078 A 
ATOM      4  C2  OXE d   1      -1.051   1.313   0.876  0.00  0.00    -0.078 A 
ATOM      5  C3  OXE d   1      -1.492   0.755  -0.320  0.00  0.00     0.003 A 
ATOM      6  C4  OXE d   1      -0.679  -0.140  -1.027  0.00  0.00    -0.002 A 
ATOM      7  C5  OXE d   1       0.629  -0.398  -0.603  0.00  0.00    -0.002 A 
ATOM      8  C6  OXE d   1       1.118   0.247   0.527  0.00  0.00     0.003 A 
ENDROOT
TORSDOF 0
ENDMDL
