MODEL 1
REMARK minimizedAffinity -1.91140532
REMARK minimizedRMSD -1
REMARK  0 active torsions:
REMARK  status: ('A' for Active; 'I' for Inactive)
ROOT
ATOM      1  C2' OXE d   1       0.517  -1.214  -1.086  0.00  0.00     0.078 C 
ATOM      2  C1' OXE d   1       0.564   1.365  -2.194  0.00  0.00     0.078 C 
ATOM      3  C1  OXE d   1       0.256   1.237  -0.723  0.00  0.00    -0.078 A 
ATOM      4  C2  OXE d   1       0.189  -0.032  -0.199  0.00  0.00    -0.078 A 
ATOM      5  C3  OXE d   1      -0.037  -0.205   1.163  0.00  0.00     0.003 A 
ATOM      6  C4  OXE d   1      -0.349   0.893   1.975  0.00  0.00    -0.002 A 
ATOM      7  C5  OXE d   1      -0.326   2.190   1.453  0.00  0.00    -0.002 A 
ATOM      8  C6  OXE d   1       0.016   2.383   0.119  0.00  0.00     0.003 A 
ENDROOT
TORSDOF 0
ENDMDL
