MODEL 1
REMARK minimizedAffinity 1.87892437
REMARK minimizedRMSD -1
REMARK  0 active torsions:
REMARK  status: ('A' for Active; 'I' for Inactive)
ROOT
ATOM      1  C2' OXE d   1       0.005   1.504  -2.008  0.00  0.00     0.078 C 
ATOM      2  C1' OXE d   1      -0.221  -0.820  -0.450  0.00  0.00     0.078 C 
ATOM      3  C1  OXE d   1       0.068   0.479   0.261  0.00  0.00    -0.078 A 
ATOM      4  C2  OXE d   1       0.223   1.603  -0.514  0.00  0.00    -0.078 A 
ATOM      5  C3  OXE d   1       0.436   2.836   0.095  0.00  0.00     0.003 A 
ATOM      6  C4  OXE d   1       0.647   2.917   1.477  0.00  0.00    -0.002 A 
ATOM      7  C5  OXE d   1       0.533   1.778   2.280  0.00  0.00    -0.002 A 
ATOM      8  C6  OXE d   1       0.203   0.561   1.694  0.00  0.00     0.003 A 
ENDROOT
TORSDOF 0
ENDMDL
