MODEL 1
REMARK minimizedAffinity -3.07289338
REMARK minimizedRMSD -1
REMARK  0 active torsions:
REMARK  status: ('A' for Active; 'I' for Inactive)
ROOT
ATOM      1  C2' OXE d   1      -1.236   2.135  -1.714  0.00  0.00     0.078 C 
ATOM      2  C1' OXE d   1       0.272  -0.202  -1.333  0.00  0.00     0.078 C 
ATOM      3  C1  OXE d   1      -0.044   0.637  -0.120  0.00  0.00    -0.078 A 
ATOM      4  C2  OXE d   1      -0.742   1.803  -0.322  0.00  0.00    -0.078 A 
ATOM      5  C3  OXE d   1      -1.108   2.586   0.769  0.00  0.00     0.003 A 
ATOM      6  C4  OXE d   1      -0.639   2.277   2.052  0.00  0.00    -0.002 A 
ATOM      7  C5  OXE d   1       0.108   1.115   2.274  0.00  0.00    -0.002 A 
ATOM      8  C6  OXE d   1       0.377   0.264   1.208  0.00  0.00     0.003 A 
ENDROOT
TORSDOF 0
ENDMDL
