MODEL 1
REMARK minimizedAffinity -0.153111786
REMARK minimizedRMSD -1
REMARK  1 active torsions:
REMARK  status: ('A' for Active; 'I' for Inactive)
REMARK    1  A    between atoms: C3_4  and  O_7 
ROOT
ATOM      1  C   UNL d   1       1.036   0.539  -0.970  0.00  0.00    -0.033 A 
ATOM      2  C1  UNL d   1       1.496  -0.233   0.099  0.00  0.00     0.039 A 
ATOM      3  C2  UNL d   1       1.362   0.233   1.408  0.00  0.00    -0.080 A 
ATOM      4  C3  UNL d   1       0.765   1.470   1.635  0.00  0.00     0.150 A 
ATOM      5  C4  UNL d   1       0.301   2.243   0.575  0.00  0.00    -0.007 A 
ATOM      6  C5  UNL d   1       0.437   1.776  -0.731  0.00  0.00     0.039 A 
ENDROOT
BRANCH   4   7
ATOM      7  O   UNL d   1       0.617   1.969   2.895  0.00  0.00    -0.526 OA
ATOM      8  H5  UNL d   1       1.009   1.340   3.523  0.00  0.00     0.418 HD
ENDBRANCH   4   7
TORSDOF 1
ENDMDL
