MODEL 1
REMARK minimizedAffinity -2.31927657
REMARK minimizedRMSD -1
REMARK  1 active torsions:
REMARK  status: ('A' for Active; 'I' for Inactive)
REMARK    1  A    between atoms: C3_4  and  O_7 
ROOT
ATOM      1  C   UNL d   1      -1.339  -0.028  -2.108  0.00  0.00    -0.033 A 
ATOM      2  C1  UNL d   1      -0.314   0.901  -1.923  0.00  0.00     0.039 A 
ATOM      3  C2  UNL d   1       0.524   0.806  -0.810  0.00  0.00    -0.080 A 
ATOM      4  C3  UNL d   1       0.327  -0.222   0.108  0.00  0.00     0.150 A 
ATOM      5  C4  UNL d   1      -0.690  -1.153  -0.072  0.00  0.00    -0.007 A 
ATOM      6  C5  UNL d   1      -1.526  -1.057  -1.184  0.00  0.00     0.039 A 
ENDROOT
BRANCH   4   7
ATOM      7  O   UNL d   1       1.116  -0.352   1.212  0.00  0.00    -0.526 OA
ATOM      8  H5  UNL d   1       1.757   0.379   1.220  0.00  0.00     0.418 HD
ENDBRANCH   4   7
TORSDOF 1
ENDMDL
