MODEL 1
REMARK minimizedAffinity -4.65227175
REMARK minimizedRMSD -1
REMARK  1 active torsions:
REMARK  status: ('A' for Active; 'I' for Inactive)
REMARK    1  A    between atoms: C3_4  and  O_7 
ROOT
ATOM      1  C   UNL d   1       1.588  -0.419   2.131  0.00  0.00    -0.033 A 
ATOM      2  C1  UNL d   1       2.637  -0.669   3.017  0.00  0.00     0.039 A 
ATOM      3  C2  UNL d   1       3.085   0.340   3.873  0.00  0.00    -0.080 A 
ATOM      4  C3  UNL d   1       2.476   1.590   3.833  0.00  0.00     0.150 A 
ATOM      5  C4  UNL d   1       1.427   1.845   2.955  0.00  0.00    -0.007 A 
ATOM      6  C5  UNL d   1       0.982   0.837   2.101  0.00  0.00     0.039 A 
ENDROOT
BRANCH   4   7
ATOM      7  O   UNL d   1       2.881   2.607   4.646  0.00  0.00    -0.526 OA
ATOM      8  H5  UNL d   1       3.632   2.295   5.177  0.00  0.00     0.418 HD
ENDBRANCH   4   7
TORSDOF 1
ENDMDL
