MODEL 1
REMARK minimizedAffinity 1.00945187
REMARK minimizedRMSD -1
REMARK  1 active torsions:
REMARK  status: ('A' for Active; 'I' for Inactive)
REMARK    1  A    between atoms: C3_4  and  O_7 
ROOT
ATOM      1  C   UNL d   1       1.013   5.309  -0.274  0.00  0.00    -0.033 A 
ATOM      2  C1  UNL d   1       0.662   4.869  -1.551  0.00  0.00     0.039 A 
ATOM      3  C2  UNL d   1       0.292   3.538  -1.756  0.00  0.00    -0.080 A 
ATOM      4  C3  UNL d   1       0.277   2.659  -0.677  0.00  0.00     0.150 A 
ATOM      5  C4  UNL d   1       0.622   3.092   0.600  0.00  0.00    -0.007 A 
ATOM      6  C5  UNL d   1       0.992   4.421   0.802  0.00  0.00     0.039 A 
ENDROOT
BRANCH   4   7
ATOM      7  O   UNL d   1      -0.072   1.350  -0.828  0.00  0.00    -0.526 OA
ATOM      8  H5  UNL d   1      -0.257   1.188  -1.768  0.00  0.00     0.418 HD
ENDBRANCH   4   7
TORSDOF 1
ENDMDL
