MODEL 1
REMARK minimizedAffinity 1.38800192
REMARK minimizedRMSD -1
REMARK  1 active torsions:
REMARK  status: ('A' for Active; 'I' for Inactive)
REMARK    1  A    between atoms: C3_4  and  O_7 
ROOT
ATOM      1  C   UNL d   1       0.364   0.426   1.895  0.00  0.00    -0.033 A 
ATOM      2  C1  UNL d   1       0.177   1.751   2.296  0.00  0.00     0.039 A 
ATOM      3  C2  UNL d   1       0.177   2.776   1.347  0.00  0.00    -0.080 A 
ATOM      4  C3  UNL d   1       0.362   2.463   0.004  0.00  0.00     0.150 A 
ATOM      5  C4  UNL d   1       0.545   1.146  -0.403  0.00  0.00    -0.007 A 
ATOM      6  C5  UNL d   1       0.546   0.124   0.545  0.00  0.00     0.039 A 
ENDROOT
BRANCH   4   7
ATOM      7  O   UNL d   1       0.374   3.430  -0.958  0.00  0.00    -0.526 OA
ATOM      8  H5  UNL d   1       0.265   4.294  -0.526  0.00  0.00     0.418 HD
ENDBRANCH   4   7
TORSDOF 1
ENDMDL
