MODEL 1
REMARK minimizedAffinity -4.97206736
REMARK minimizedRMSD -1
REMARK  1 active torsions:
REMARK  status: ('A' for Active; 'I' for Inactive)
REMARK    1  A    between atoms: C3_4  and  O_7 
ROOT
ATOM      1  C   UNL d   1      -0.730   2.302   0.124  0.00  0.00    -0.033 A 
ATOM      2  C1  UNL d   1      -0.230   3.567   0.441  0.00  0.00     0.039 A 
ATOM      3  C2  UNL d   1       0.179   4.432  -0.575  0.00  0.00    -0.080 A 
ATOM      4  C3  UNL d   1       0.082   4.022  -1.902  0.00  0.00     0.150 A 
ATOM      5  C4  UNL d   1      -0.418   2.765  -2.225  0.00  0.00    -0.007 A 
ATOM      6  C5  UNL d   1      -0.825   1.902  -1.209  0.00  0.00     0.039 A 
ENDROOT
BRANCH   4   7
ATOM      7  O   UNL d   1       0.474   4.830  -2.928  0.00  0.00    -0.526 OA
ATOM      8  H5  UNL d   1       0.825   5.655  -2.554  0.00  0.00     0.418 HD
ENDBRANCH   4   7
TORSDOF 1
ENDMDL
