MODEL 1
REMARK minimizedAffinity 2.03867745
REMARK minimizedRMSD -1
REMARK  1 active torsions:
REMARK  status: ('A' for Active; 'I' for Inactive)
REMARK    1  A    between atoms: C3_4  and  O_7 
ROOT
ATOM      1  C   UNL d   1      -5.969  -1.179   5.998  0.00  0.00    -0.033 A 
ATOM      2  C1  UNL d   1      -5.964  -0.251   4.954  0.00  0.00     0.039 A 
ATOM      3  C2  UNL d   1      -5.961  -0.689   3.628  0.00  0.00    -0.080 A 
ATOM      4  C3  UNL d   1      -5.964  -2.055   3.360  0.00  0.00     0.150 A 
ATOM      5  C4  UNL d   1      -5.973  -2.985   4.395  0.00  0.00    -0.007 A 
ATOM      6  C5  UNL d   1      -5.975  -2.546   5.718  0.00  0.00     0.039 A 
ENDROOT
BRANCH   4   7
ATOM      7  O   UNL d   1      -5.957  -2.531   2.083  0.00  0.00    -0.526 OA
ATOM      8  H5  UNL d   1      -5.922  -1.775   1.473  0.00  0.00     0.418 HD
ENDBRANCH   4   7
TORSDOF 1
ENDMDL
