MODEL 1
REMARK minimizedAffinity -3.21859193
REMARK minimizedRMSD -1
REMARK  0 active torsions:
REMARK  status: ('A' for Active; 'I' for Inactive)
ROOT
ATOM      1  C   UNL d   1      -1.533   1.587   1.956  0.00  0.00     0.023 A 
ATOM      2  C1  UNL d   1      -1.234   1.964   0.647  0.00  0.00     0.003 A 
ATOM      3  C2  UNL d   1      -0.532   1.092  -0.189  0.00  0.00     0.048 A 
ATOM      4  C3  UNL d   1      -0.133  -0.154   0.292  0.00  0.00     0.023 A 
ATOM      5  C4  UNL d   1      -0.430  -0.536   1.601  0.00  0.00     0.048 A 
ATOM      6  C5  UNL d   1      -1.131   0.339   2.433  0.00  0.00     0.003 A 
ATOM      7  I   UNL d   1       0.912  -1.453  -0.950  0.00  0.00    -0.146 I 
ENDROOT
TORSDOF 0
ENDMDL
