MODEL 1
REMARK minimizedAffinity -3.21648145
REMARK minimizedRMSD -1
REMARK  0 active torsions:
REMARK  status: ('A' for Active; 'I' for Inactive)
ROOT
ATOM      1  C   UNL d   1      -1.505   1.560   1.877  0.00  0.00     0.023 A 
ATOM      2  C1  UNL d   1      -1.773   1.534   0.508  0.00  0.00     0.003 A 
ATOM      3  C2  UNL d   1      -1.106   0.627  -0.319  0.00  0.00     0.048 A 
ATOM      4  C3  UNL d   1      -0.173  -0.251   0.230  0.00  0.00     0.023 A 
ATOM      5  C4  UNL d   1       0.099  -0.230   1.599  0.00  0.00     0.048 A 
ATOM      6  C5  UNL d   1      -0.570   0.679   2.422  0.00  0.00     0.003 A 
ATOM      7  I   UNL d   1       0.821  -1.601  -0.998  0.00  0.00    -0.146 I 
ENDROOT
TORSDOF 0
ENDMDL
