MODEL 1
REMARK minimizedAffinity -2.37543011
REMARK minimizedRMSD -1
REMARK  0 active torsions:
REMARK  status: ('A' for Active; 'I' for Inactive)
ROOT
ATOM      1  C   UNL d   1      -1.008   2.262  -0.231  0.00  0.00     0.023 A 
ATOM      2  C1  UNL d   1      -1.532   1.122   0.379  0.00  0.00     0.003 A 
ATOM      3  C2  UNL d   1      -0.990  -0.134   0.095  0.00  0.00     0.048 A 
ATOM      4  C3  UNL d   1       0.075  -0.242  -0.797  0.00  0.00     0.023 A 
ATOM      5  C4  UNL d   1       0.603   0.896  -1.409  0.00  0.00     0.048 A 
ATOM      6  C5  UNL d   1       0.058   2.150  -1.123  0.00  0.00     0.003 A 
ATOM      7  I   UNL d   1       0.883  -2.110  -1.221  0.00  0.00    -0.146 I 
ENDROOT
TORSDOF 0
ENDMDL
