MODEL 1
REMARK minimizedAffinity -2.95234203
REMARK minimizedRMSD -1
REMARK  0 active torsions:
REMARK  status: ('A' for Active; 'I' for Inactive)
ROOT
ATOM      1  C   UNL d   1       1.110  -0.761   0.157  0.00  0.00     0.023 A 
ATOM      2  C1  UNL d   1       0.664   0.233  -0.714  0.00  0.00     0.003 A 
ATOM      3  C2  UNL d   1      -0.298   1.153  -0.292  0.00  0.00     0.048 A 
ATOM      4  C3  UNL d   1      -0.809   1.073   1.003  0.00  0.00     0.023 A 
ATOM      5  C4  UNL d   1      -0.366   0.081   1.878  0.00  0.00     0.048 A 
ATOM      6  C5  UNL d   1       0.596  -0.837   1.452  0.00  0.00     0.003 A 
ATOM      7  I   UNL d   1      -2.241   2.441   1.634  0.00  0.00    -0.146 I 
ENDROOT
TORSDOF 0
ENDMDL
