MODEL 1
REMARK minimizedAffinity -4.25147533
REMARK minimizedRMSD -1
REMARK  0 active torsions:
REMARK  status: ('A' for Active; 'I' for Inactive)
ROOT
ATOM      1  C   UNL d   1      -0.973   1.962   0.727  0.00  0.00     0.023 A 
ATOM      2  C1  UNL d   1      -1.264   0.696   1.236  0.00  0.00     0.003 A 
ATOM      3  C2  UNL d   1      -0.618  -0.430   0.721  0.00  0.00     0.048 A 
ATOM      4  C3  UNL d   1       0.318  -0.283  -0.302  0.00  0.00     0.023 A 
ATOM      5  C4  UNL d   1       0.612   0.982  -0.813  0.00  0.00     0.048 A 
ATOM      6  C5  UNL d   1      -0.036   2.105  -0.296  0.00  0.00     0.003 A 
ATOM      7  I   UNL d   1       1.280  -1.958  -1.070  0.00  0.00    -0.146 I 
ENDROOT
TORSDOF 0
ENDMDL
