MODEL 1
REMARK minimizedAffinity -1.49027228
REMARK minimizedRMSD -1
REMARK  0 active torsions:
REMARK  status: ('A' for Active; 'I' for Inactive)
ROOT
ATOM      1  C   UNL d   1      -0.110  -1.118  -1.487  0.00  0.00     0.023 A 
ATOM      2  C1  UNL d   1       0.650  -1.106  -0.317  0.00  0.00     0.003 A 
ATOM      3  C2  UNL d   1       1.264  -2.278   0.130  0.00  0.00     0.048 A 
ATOM      4  C3  UNL d   1       1.116  -3.458  -0.598  0.00  0.00     0.023 A 
ATOM      5  C4  UNL d   1       0.357  -3.474  -1.770  0.00  0.00     0.048 A 
ATOM      6  C5  UNL d   1      -0.256  -2.301  -2.213  0.00  0.00     0.003 A 
ATOM      7  I   UNL d   1       2.029  -5.203   0.065  0.00  0.00    -0.146 I 
ENDROOT
TORSDOF 0
ENDMDL
