MODEL 1
REMARK minimizedAffinity -3.62499332
REMARK minimizedRMSD -1
REMARK  0 active torsions:
REMARK  status: ('A' for Active; 'I' for Inactive)
ROOT
ATOM      1  C   UNL d   1      -1.136   1.678   2.267  0.00  0.00     0.023 A 
ATOM      2  C1  UNL d   1      -0.412   0.522   2.559  0.00  0.00     0.003 A 
ATOM      3  C2  UNL d   1       0.139  -0.238   1.525  0.00  0.00     0.048 A 
ATOM      4  C3  UNL d   1      -0.037   0.165   0.201  0.00  0.00     0.023 A 
ATOM      5  C4  UNL d   1      -0.760   1.321  -0.095  0.00  0.00     0.048 A 
ATOM      6  C5  UNL d   1      -1.310   2.077   0.942  0.00  0.00     0.003 A 
ATOM      7  I   UNL d   1       0.782  -0.964  -1.340  0.00  0.00    -0.146 I 
ENDROOT
TORSDOF 0
ENDMDL
