MODEL 1
REMARK minimizedAffinity -3.42607927
REMARK minimizedRMSD -1
REMARK  0 active torsions:
REMARK  status: ('A' for Active; 'I' for Inactive)
ROOT
ATOM      1  C   UNL d   1      -2.260   1.834   1.577  0.00  0.00     0.023 A 
ATOM      2  C1  UNL d   1      -1.475   0.934   2.299  0.00  0.00     0.003 A 
ATOM      3  C2  UNL d   1      -0.524   0.151   1.640  0.00  0.00     0.048 A 
ATOM      4  C3  UNL d   1      -0.362   0.274   0.261  0.00  0.00     0.023 A 
ATOM      5  C4  UNL d   1      -1.145   1.174  -0.465  0.00  0.00     0.048 A 
ATOM      6  C5  UNL d   1      -2.095   1.953   0.197  0.00  0.00     0.003 A 
ATOM      7  I   UNL d   1       1.052  -0.890  -0.721  0.00  0.00    -0.146 I 
ENDROOT
TORSDOF 0
ENDMDL
