MODEL 1
REMARK minimizedAffinity -2.51423717
REMARK minimizedRMSD -1
REMARK  0 active torsions:
REMARK  status: ('A' for Active; 'I' for Inactive)
ROOT
ATOM      1  C   UNL d   1      -1.195   0.708   1.928  0.00  0.00     0.023 A 
ATOM      2  C1  UNL d   1      -0.590  -0.502   2.267  0.00  0.00     0.003 A 
ATOM      3  C2  UNL d   1       0.094  -1.238   1.298  0.00  0.00     0.048 A 
ATOM      4  C3  UNL d   1       0.169  -0.758  -0.009  0.00  0.00     0.023 A 
ATOM      5  C4  UNL d   1      -0.434   0.453  -0.353  0.00  0.00     0.048 A 
ATOM      6  C5  UNL d   1      -1.117   1.185   0.620  0.00  0.00     0.003 A 
ATOM      7  I   UNL d   1       1.187  -1.851  -1.455  0.00  0.00    -0.146 I 
ENDROOT
TORSDOF 0
ENDMDL
