MODEL 1
REMARK minimizedAffinity -2.62277937
REMARK minimizedRMSD -1
REMARK  0 active torsions:
REMARK  status: ('A' for Active; 'I' for Inactive)
ROOT
ATOM      1  C   UNL d   1      -2.001   0.737   2.612  0.00  0.00     0.023 A 
ATOM      2  C1  UNL d   1      -0.801   0.033   2.516  0.00  0.00     0.003 A 
ATOM      3  C2  UNL d   1      -0.059   0.072   1.334  0.00  0.00     0.048 A 
ATOM      4  C3  UNL d   1      -0.523   0.819   0.251  0.00  0.00     0.023 A 
ATOM      5  C4  UNL d   1      -1.723   1.526   0.343  0.00  0.00     0.048 A 
ATOM      6  C5  UNL d   1      -2.462   1.483   1.527  0.00  0.00     0.003 A 
ATOM      7  I   UNL d   1       0.579   0.879  -1.510  0.00  0.00    -0.146 I 
ENDROOT
TORSDOF 0
ENDMDL
