MODEL 1
REMARK minimizedAffinity -2.96756768
REMARK minimizedRMSD -1
REMARK  0 active torsions:
REMARK  status: ('A' for Active; 'I' for Inactive)
ROOT
ATOM      1  C   UNL d   1       0.415   1.052  -0.324  0.00  0.00     0.023 A 
ATOM      2  C1  UNL d   1      -0.227   0.302   0.662  0.00  0.00     0.003 A 
ATOM      3  C2  UNL d   1      -0.123  -1.090   0.661  0.00  0.00     0.048 A 
ATOM      4  C3  UNL d   1       0.626  -1.727  -0.328  0.00  0.00     0.023 A 
ATOM      5  C4  UNL d   1       1.271  -0.981  -1.316  0.00  0.00     0.048 A 
ATOM      6  C5  UNL d   1       1.163   0.411  -1.311  0.00  0.00     0.003 A 
ATOM      7  I   UNL d   1       0.783  -3.799  -0.331  0.00  0.00    -0.146 I 
ENDROOT
TORSDOF 0
ENDMDL
