MODEL 1
REMARK minimizedAffinity -2.884758
REMARK minimizedRMSD -1
REMARK  0 active torsions:
REMARK  status: ('A' for Active; 'I' for Inactive)
ROOT
ATOM      1  C   UNL d   1      -1.782   1.505   2.096  0.00  0.00     0.023 A 
ATOM      2  C1  UNL d   1      -1.812   1.765   0.726  0.00  0.00     0.003 A 
ATOM      3  C2  UNL d   1      -1.064   0.977  -0.152  0.00  0.00     0.048 A 
ATOM      4  C3  UNL d   1      -0.290  -0.070   0.347  0.00  0.00     0.023 A 
ATOM      5  C4  UNL d   1      -0.258  -0.334   1.717  0.00  0.00     0.048 A 
ATOM      6  C5  UNL d   1      -1.006   0.457   2.591  0.00  0.00     0.003 A 
ATOM      7  I   UNL d   1       0.823  -1.244  -0.957  0.00  0.00    -0.146 I 
ENDROOT
TORSDOF 0
ENDMDL
