MODEL 1
REMARK minimizedAffinity 14.8270359
REMARK minimizedRMSD -1
REMARK  1 active torsions:
REMARK  status: ('A' for Active; 'I' for Inactive)
REMARK    1  A    between atoms: N_2  and  C1_3 
ROOT
ATOM      1  C1  UNL d   1       5.360  -2.663  -1.195  0.00  0.00     0.143 A 
ATOM      2  C2  UNL d   1       5.652  -3.953  -0.739  0.00  0.00    -0.057 A 
ATOM      3  C3  UNL d   1       5.814  -5.019  -1.631  0.00  0.00     0.033 A 
ATOM      4  C4  UNL d   1       5.656  -4.820  -2.999  0.00  0.00    -0.042 A 
ATOM      5  C5  UNL d   1       5.340  -3.551  -3.473  0.00  0.00     0.033 A 
ATOM      6  C6  UNL d   1       5.187  -2.489  -2.577  0.00  0.00    -0.057 A 
ENDROOT
BRANCH   1   7
ATOM      7  N   UNL d   1       5.090  -1.582  -0.352  0.00  0.00    -0.732 N 
ATOM      8  C   UNL d   1       3.730  -1.262   0.025  0.00  0.00     0.284 C 
ATOM      9  H3  UNL d   1       5.761  -1.507   0.410  0.00  0.00     0.395 HD
ENDBRANCH   1   7
TORSDOF 1
ENDMDL
