MODEL 1
REMARK minimizedAffinity 16.3434811
REMARK minimizedRMSD -1
REMARK  1 active torsions:
REMARK  status: ('A' for Active; 'I' for Inactive)
REMARK    1  A    between atoms: N_2  and  C1_3 
ROOT
ATOM      1  C1  UNL d   1      -0.454   3.425   1.076  0.00  0.00     0.143 A 
ATOM      2  C2  UNL d   1      -1.403   4.346   0.619  0.00  0.00    -0.057 A 
ATOM      3  C3  UNL d   1      -1.102   5.249  -0.408  0.00  0.00     0.033 A 
ATOM      4  C4  UNL d   1       0.166   5.266  -0.978  0.00  0.00    -0.042 A 
ATOM      5  C5  UNL d   1       1.133   4.376  -0.523  0.00  0.00     0.033 A 
ATOM      6  C6  UNL d   1       0.824   3.472   0.498  0.00  0.00    -0.057 A 
ENDROOT
BRANCH   1   7
ATOM      7  N   UNL d   1      -0.661   2.569   2.160  0.00  0.00    -0.732 N 
ATOM      8  C   UNL d   1      -1.897   2.616   2.911  0.00  0.00     0.284 C 
ATOM      9  H3  UNL d   1      -0.318   1.628   1.983  0.00  0.00     0.395 HD
ENDBRANCH   1   7
TORSDOF 1
ENDMDL
