MODEL 1
REMARK minimizedAffinity 13.3217154
REMARK minimizedRMSD -1
REMARK  1 active torsions:
REMARK  status: ('A' for Active; 'I' for Inactive)
REMARK    1  A    between atoms: N_2  and  C1_3 
ROOT
ATOM      1  C1  UNL d   1       4.829  -4.407  -2.326  0.00  0.00     0.143 A 
ATOM      2  C2  UNL d   1       5.161  -3.783  -3.533  0.00  0.00    -0.057 A 
ATOM      3  C3  UNL d   1       5.750  -2.513  -3.555  0.00  0.00     0.033 A 
ATOM      4  C4  UNL d   1       5.991  -1.830  -2.367  0.00  0.00    -0.042 A 
ATOM      5  C5  UNL d   1       5.646  -2.421  -1.157  0.00  0.00     0.033 A 
ATOM      6  C6  UNL d   1       5.065  -3.693  -1.141  0.00  0.00    -0.057 A 
ENDROOT
BRANCH   1   7
ATOM      7  N   UNL d   1       4.152  -5.626  -2.241  0.00  0.00    -0.732 N 
ATOM      8  C   UNL d   1       2.801  -5.756  -2.746  0.00  0.00     0.284 C 
ATOM      9  H3  UNL d   1       4.752  -6.420  -2.453  0.00  0.00     0.395 HD
ENDBRANCH   1   7
TORSDOF 1
ENDMDL
