MODEL 1
REMARK minimizedAffinity 10.998498
REMARK minimizedRMSD -1
REMARK  1 active torsions:
REMARK  status: ('A' for Active; 'I' for Inactive)
REMARK    1  A    between atoms: N_2  and  C1_3 
ROOT
ATOM      1  C1  UNL d   1       5.052  -3.189  -1.921  0.00  0.00     0.143 A 
ATOM      2  C2  UNL d   1       4.046  -3.195  -0.949  0.00  0.00    -0.057 A 
ATOM      3  C3  UNL d   1       3.959  -2.180   0.012  0.00  0.00     0.033 A 
ATOM      4  C4  UNL d   1       4.898  -1.154   0.035  0.00  0.00    -0.042 A 
ATOM      5  C5  UNL d   1       5.921  -1.141  -0.906  0.00  0.00     0.033 A 
ATOM      6  C6  UNL d   1       5.998  -2.154  -1.867  0.00  0.00    -0.057 A 
ENDROOT
BRANCH   1   7
ATOM      7  N   UNL d   1       5.249  -4.221  -2.842  0.00  0.00    -0.732 N 
ATOM      8  C   UNL d   1       4.248  -5.250  -3.022  0.00  0.00     0.284 C 
ATOM      9  H3  UNL d   1       5.670  -3.893  -3.709  0.00  0.00     0.395 HD
ENDBRANCH   1   7
TORSDOF 1
ENDMDL
