MODEL 1
REMARK minimizedAffinity 4.78913736
REMARK minimizedRMSD -1
REMARK  1 active torsions:
REMARK  status: ('A' for Active; 'I' for Inactive)
REMARK    1  A    between atoms: N_2  and  C1_3 
ROOT
ATOM      1  C1  UNL d   1       5.289  -3.497  -2.078  0.00  0.00     0.143 A 
ATOM      2  C2  UNL d   1       5.338  -3.676  -3.465  0.00  0.00    -0.057 A 
ATOM      3  C3  UNL d   1       5.010  -4.904  -4.051  0.00  0.00     0.033 A 
ATOM      4  C4  UNL d   1       4.652  -5.988  -3.256  0.00  0.00    -0.042 A 
ATOM      5  C5  UNL d   1       4.620  -5.841  -1.874  0.00  0.00     0.033 A 
ATOM      6  C6  UNL d   1       4.943  -4.610  -1.294  0.00  0.00    -0.057 A 
ENDROOT
BRANCH   1   7
ATOM      7  N   UNL d   1       5.698  -2.330  -1.429  0.00  0.00    -0.732 N 
ATOM      8  C   UNL d   1       4.750  -1.529  -0.684  0.00  0.00     0.284 C 
ATOM      9  H3  UNL d   1       6.602  -2.436  -0.972  0.00  0.00     0.395 HD
ENDBRANCH   1   7
TORSDOF 1
ENDMDL
