MODEL 1
REMARK minimizedAffinity 16.0498714
REMARK minimizedRMSD -1
REMARK  1 active torsions:
REMARK  status: ('A' for Active; 'I' for Inactive)
REMARK    1  A    between atoms: N_2  and  C1_3 
ROOT
ATOM      1  C1  UNL d   1       5.710  -3.039  -3.195  0.00  0.00     0.143 A 
ATOM      2  C2  UNL d   1       5.460  -4.199  -2.453  0.00  0.00    -0.057 A 
ATOM      3  C3  UNL d   1       5.451  -4.177  -1.053  0.00  0.00     0.033 A 
ATOM      4  C4  UNL d   1       5.722  -2.997  -0.368  0.00  0.00    -0.042 A 
ATOM      5  C5  UNL d   1       5.998  -1.838  -1.085  0.00  0.00     0.033 A 
ATOM      6  C6  UNL d   1       5.999  -1.865  -2.483  0.00  0.00    -0.057 A 
ENDROOT
BRANCH   1   7
ATOM      7  N   UNL d   1       5.830  -3.018  -4.587  0.00  0.00    -0.732 N 
ATOM      8  C   UNL d   1       5.893  -1.761  -5.301  0.00  0.00     0.284 C 
ATOM      9  H3  UNL d   1       6.475  -3.725  -4.932  0.00  0.00     0.395 HD
ENDBRANCH   1   7
TORSDOF 1
ENDMDL
