MODEL 1
REMARK minimizedAffinity 6.66812325
REMARK minimizedRMSD -1
REMARK  1 active torsions:
REMARK  status: ('A' for Active; 'I' for Inactive)
REMARK    1  A    between atoms: N_2  and  C1_3 
ROOT
ATOM      1  C1  UNL d   1       1.259  -3.939  -1.844  0.00  0.00     0.143 A 
ATOM      2  C2  UNL d   1       1.714  -2.680  -1.438  0.00  0.00    -0.057 A 
ATOM      3  C3  UNL d   1       0.840  -1.592  -1.331  0.00  0.00     0.033 A 
ATOM      4  C4  UNL d   1      -0.505  -1.737  -1.657  0.00  0.00    -0.042 A 
ATOM      5  C5  UNL d   1      -0.974  -2.973  -2.087  0.00  0.00     0.033 A 
ATOM      6  C6  UNL d   1      -0.097  -4.058  -2.185  0.00  0.00    -0.057 A 
ENDROOT
BRANCH   1   7
ATOM      7  N   UNL d   1       2.097  -5.035  -2.065  0.00  0.00    -0.732 N 
ATOM      8  C   UNL d   1       3.143  -4.974  -3.064  0.00  0.00     0.284 C 
ATOM      9  H3  UNL d   1       2.374  -5.492  -1.200  0.00  0.00     0.395 HD
ENDBRANCH   1   7
TORSDOF 1
ENDMDL
