MODEL 1
REMARK minimizedAffinity -5.85859442
REMARK minimizedRMSD -1
REMARK  1 active torsions:
REMARK  status: ('A' for Active; 'I' for Inactive)
REMARK    1  A    between atoms: C1_2  and  C2_3 
ROOT
ATOM      1  C2  UNL d   1      -1.113  -0.526   2.622  0.00  0.00    -0.073 A 
ATOM      2  C3  UNL d   1      -2.056  -0.667   1.597  0.00  0.00    -0.002 A 
ATOM      3  C4  UNL d   1      -1.667  -0.554   0.262  0.00  0.00     0.004 A 
ATOM      4  C5  UNL d   1      -0.333  -0.306  -0.062  0.00  0.00    -0.004 A 
ATOM      5  C6  UNL d   1       0.626  -0.174   0.948  0.00  0.00    -0.075 A 
ATOM      6  C7  UNL d   1       2.064   0.094   0.616  0.00  0.00     0.076 C 
ATOM      7  C8  UNL d   1       0.227  -0.286   2.286  0.00  0.00     0.001 A 
ENDROOT
BRANCH   1   8
ATOM      8  C1  UNL d   1      -1.528  -0.653   4.065  0.00  0.00     0.053 C 
ATOM      9  C   UNL d   1      -0.933   0.449   4.928  0.00  0.00     0.018 C 
ENDBRANCH   1   8
TORSDOF 1
ENDMDL
