MODEL 1
REMARK minimizedAffinity -4.56162405
REMARK minimizedRMSD -1
REMARK  1 active torsions:
REMARK  status: ('A' for Active; 'I' for Inactive)
REMARK    1  A    between atoms: C1_2  and  C2_3 
ROOT
ATOM      1  C2  UNL d   1      -1.499  -0.094   2.328  0.00  0.00    -0.073 A 
ATOM      2  C3  UNL d   1      -2.777   0.107   1.795  0.00  0.00    -0.002 A 
ATOM      3  C4  UNL d   1      -2.958   0.204   0.415  0.00  0.00     0.004 A 
ATOM      4  C5  UNL d   1      -1.866   0.093  -0.446  0.00  0.00    -0.004 A 
ATOM      5  C6  UNL d   1      -0.582  -0.120   0.067  0.00  0.00    -0.075 A 
ATOM      6  C7  UNL d   1       0.603  -0.239  -0.846  0.00  0.00     0.076 C 
ATOM      7  C8  UNL d   1      -0.408  -0.213   1.454  0.00  0.00     0.001 A 
ENDROOT
BRANCH   1   8
ATOM      8  C1  UNL d   1      -1.299  -0.205   3.817  0.00  0.00     0.053 C 
ATOM      9  C   UNL d   1      -1.175   1.158   4.479  0.00  0.00     0.018 C 
ENDBRANCH   1   8
TORSDOF 1
ENDMDL
