MODEL 1
REMARK minimizedAffinity -2.45345306
REMARK minimizedRMSD -1
REMARK  1 active torsions:
REMARK  status: ('A' for Active; 'I' for Inactive)
REMARK    1  A    between atoms: C1_2  and  C2_3 
ROOT
ATOM      1  C2  UNL d   1       0.507  -0.033  -1.654  0.00  0.00    -0.073 A 
ATOM      2  C3  UNL d   1      -0.838   0.314  -1.822  0.00  0.00    -0.002 A 
ATOM      3  C4  UNL d   1      -1.646   0.561  -0.711  0.00  0.00     0.004 A 
ATOM      4  C5  UNL d   1      -1.117   0.470   0.576  0.00  0.00    -0.004 A 
ATOM      5  C6  UNL d   1       0.228   0.136   0.764  0.00  0.00    -0.075 A 
ATOM      6  C7  UNL d   1       0.812   0.032   2.142  0.00  0.00     0.076 C 
ATOM      7  C8  UNL d   1       1.033  -0.112  -0.356  0.00  0.00     0.001 A 
ENDROOT
BRANCH   1   8
ATOM      8  C1  UNL d   1       1.385  -0.294  -2.851  0.00  0.00     0.053 C 
ATOM      9  C   UNL d   1       1.021  -1.592  -3.553  0.00  0.00     0.018 C 
ENDBRANCH   1   8
TORSDOF 1
ENDMDL
