MODEL 1
REMARK minimizedAffinity -5.57535791
REMARK minimizedRMSD -1
REMARK  1 active torsions:
REMARK  status: ('A' for Active; 'I' for Inactive)
REMARK    1  A    between atoms: C1_2  and  C2_3 
ROOT
ATOM      1  C2  UNL d   1      -0.546  -0.176   1.773  0.00  0.00    -0.073 A 
ATOM      2  C3  UNL d   1      -0.511  -0.912   2.963  0.00  0.00    -0.002 A 
ATOM      3  C4  UNL d   1      -1.662  -1.054   3.738  0.00  0.00     0.004 A 
ATOM      4  C5  UNL d   1      -2.861  -0.470   3.329  0.00  0.00    -0.004 A 
ATOM      5  C6  UNL d   1      -2.919   0.259   2.137  0.00  0.00    -0.075 A 
ATOM      6  C7  UNL d   1      -4.200   0.896   1.684  0.00  0.00     0.076 C 
ATOM      7  C8  UNL d   1      -1.758   0.401   1.366  0.00  0.00     0.001 A 
ENDROOT
BRANCH   1   8
ATOM      8  C1  UNL d   1       0.693  -0.024   0.929  0.00  0.00     0.053 C 
ATOM      9  C   UNL d   1       0.360   0.226  -0.533  0.00  0.00     0.018 C 
ENDBRANCH   1   8
TORSDOF 1
ENDMDL
