MODEL 1
REMARK minimizedAffinity -2.5583508
REMARK minimizedRMSD -1
REMARK  1 active torsions:
REMARK  status: ('A' for Active; 'I' for Inactive)
REMARK    1  A    between atoms: C1_2  and  C2_3 
ROOT
ATOM      1  C2  UNL d   1       1.102  -0.665  -1.383  0.00  0.00    -0.073 A 
ATOM      2  C3  UNL d   1       0.004   0.061  -1.857  0.00  0.00    -0.002 A 
ATOM      3  C4  UNL d   1      -0.823   0.749  -0.969  0.00  0.00     0.004 A 
ATOM      4  C5  UNL d   1      -0.557   0.725   0.400  0.00  0.00    -0.004 A 
ATOM      5  C6  UNL d   1       0.542   0.014   0.893  0.00  0.00    -0.075 A 
ATOM      6  C7  UNL d   1       0.841  -0.024   2.363  0.00  0.00     0.076 C 
ATOM      7  C8  UNL d   1       1.367  -0.676  -0.006  0.00  0.00     0.001 A 
ENDROOT
BRANCH   1   8
ATOM      8  C1  UNL d   1       2.002  -1.404  -2.339  0.00  0.00     0.053 C 
ATOM      9  C   UNL d   1       1.885  -0.872  -3.759  0.00  0.00     0.018 C 
ENDBRANCH   1   8
TORSDOF 1
ENDMDL
