MODEL 1
REMARK minimizedAffinity -4.34550667
REMARK minimizedRMSD -1
REMARK  1 active torsions:
REMARK  status: ('A' for Active; 'I' for Inactive)
REMARK    1  A    between atoms: C1_2  and  C2_3 
ROOT
ATOM      1  C2  UNL d   1      -1.861   0.794   1.713  0.00  0.00    -0.073 A 
ATOM      2  C3  UNL d   1      -2.075   0.920   0.335  0.00  0.00    -0.002 A 
ATOM      3  C4  UNL d   1      -1.013   0.774  -0.559  0.00  0.00     0.004 A 
ATOM      4  C5  UNL d   1       0.269   0.493  -0.087  0.00  0.00    -0.004 A 
ATOM      5  C6  UNL d   1       0.500   0.351   1.285  0.00  0.00    -0.075 A 
ATOM      6  C7  UNL d   1       1.873   0.051   1.810  0.00  0.00     0.076 C 
ATOM      7  C8  UNL d   1      -0.571   0.502   2.177  0.00  0.00     0.001 A 
ENDROOT
BRANCH   1   8
ATOM      8  C1  UNL d   1      -3.006   0.944   2.681  0.00  0.00     0.053 C 
ATOM      9  C   UNL d   1      -3.692   2.295   2.548  0.00  0.00     0.018 C 
ENDBRANCH   1   8
TORSDOF 1
ENDMDL
