MODEL 1
REMARK minimizedAffinity -3.09039927
REMARK minimizedRMSD -1
REMARK  1 active torsions:
REMARK  status: ('A' for Active; 'I' for Inactive)
REMARK    1  A    between atoms: C1_2  and  C2_3 
ROOT
ATOM      1  C2  UNL d   1       0.544   0.269  -1.562  0.00  0.00    -0.073 A 
ATOM      2  C3  UNL d   1      -0.725   0.857  -1.508  0.00  0.00    -0.002 A 
ATOM      3  C4  UNL d   1      -1.347   1.080  -0.278  0.00  0.00     0.004 A 
ATOM      4  C5  UNL d   1      -0.705   0.724   0.908  0.00  0.00    -0.004 A 
ATOM      5  C6  UNL d   1       0.569   0.146   0.875  0.00  0.00    -0.075 A 
ATOM      6  C7  UNL d   1       1.272  -0.244   2.141  0.00  0.00     0.076 C 
ATOM      7  C8  UNL d   1       1.185  -0.076  -0.364  0.00  0.00     0.001 A 
ENDROOT
BRANCH   1   8
ATOM      8  C1  UNL d   1       1.222   0.033  -2.887  0.00  0.00     0.053 C 
ATOM      9  C   UNL d   1       1.173  -1.430  -3.299  0.00  0.00     0.018 C 
ENDBRANCH   1   8
TORSDOF 1
ENDMDL
