MODEL 1
REMARK minimizedAffinity 3.28775406
REMARK minimizedRMSD -1
REMARK  1 active torsions:
REMARK  status: ('A' for Active; 'I' for Inactive)
REMARK    1  A    between atoms: C1_2  and  C2_3 
ROOT
ATOM      1  C2  UNL d   1       0.502   0.427   0.705  0.00  0.00    -0.073 A 
ATOM      2  C3  UNL d   1       0.136   0.143  -0.615  0.00  0.00    -0.002 A 
ATOM      3  C4  UNL d   1      -1.200   0.228  -1.010  0.00  0.00     0.004 A 
ATOM      4  C5  UNL d   1      -2.181   0.604  -0.092  0.00  0.00    -0.004 A 
ATOM      5  C6  UNL d   1      -1.833   0.904   1.229  0.00  0.00    -0.075 A 
ATOM      6  C7  UNL d   1      -2.876   1.308   2.230  0.00  0.00     0.076 C 
ATOM      7  C8  UNL d   1      -0.489   0.814   1.618  0.00  0.00     0.001 A 
ENDROOT
BRANCH   1   8
ATOM      8  C1  UNL d   1       1.944   0.343   1.134  0.00  0.00     0.053 C 
ATOM      9  C   UNL d   1       2.713   1.612   0.801  0.00  0.00     0.018 C 
ENDBRANCH   1   8
TORSDOF 1
ENDMDL
