MODEL 1
REMARK minimizedAffinity -0.939156294
REMARK minimizedRMSD -1
REMARK  1 active torsions:
REMARK  status: ('A' for Active; 'I' for Inactive)
REMARK    1  A    between atoms: C1_2  and  C2_3 
ROOT
ATOM      1  C2  UNL d   1       0.500  -0.066  -1.737  0.00  0.00    -0.073 A 
ATOM      2  C3  UNL d   1      -0.863   0.245  -1.677  0.00  0.00    -0.002 A 
ATOM      3  C4  UNL d   1      -1.491   0.427  -0.445  0.00  0.00     0.004 A 
ATOM      4  C5  UNL d   1      -0.763   0.307   0.739  0.00  0.00    -0.004 A 
ATOM      5  C6  UNL d   1       0.603   0.009   0.699  0.00  0.00    -0.075 A 
ATOM      6  C7  UNL d   1       1.401  -0.125   1.963  0.00  0.00     0.076 C 
ATOM      7  C8  UNL d   1       1.226  -0.175  -0.542  0.00  0.00     0.001 A 
ENDROOT
BRANCH   1   8
ATOM      8  C1  UNL d   1       1.184  -0.257  -3.066  0.00  0.00     0.053 C 
ATOM      9  C   UNL d   1       0.846  -1.601  -3.693  0.00  0.00     0.018 C 
ENDBRANCH   1   8
TORSDOF 1
ENDMDL
