MODEL 1
REMARK minimizedAffinity -0.885348201
REMARK minimizedRMSD -1
REMARK  1 active torsions:
REMARK  status: ('A' for Active; 'I' for Inactive)
REMARK    1  A    between atoms: C1_2  and  C2_3 
ROOT
ATOM      1  C2  UNL d   1       0.613   0.193   0.646  0.00  0.00    -0.073 A 
ATOM      2  C3  UNL d   1      -0.785   0.211   0.576  0.00  0.00    -0.002 A 
ATOM      3  C4  UNL d   1      -1.430   0.179  -0.661  0.00  0.00     0.004 A 
ATOM      4  C5  UNL d   1      -0.685   0.122  -1.839  0.00  0.00    -0.004 A 
ATOM      5  C6  UNL d   1       0.712   0.091  -1.790  0.00  0.00    -0.075 A 
ATOM      6  C7  UNL d   1       1.527   0.032  -3.049  0.00  0.00     0.076 C 
ATOM      7  C8  UNL d   1       1.352   0.126  -0.544  0.00  0.00     0.001 A 
ENDROOT
BRANCH   1   8
ATOM      8  C1  UNL d   1       1.314   0.220   1.979  0.00  0.00     0.053 C 
ATOM      9  C   UNL d   1       0.374   0.609   3.109  0.00  0.00     0.018 C 
ENDBRANCH   1   8
TORSDOF 1
ENDMDL
