MODEL 1
REMARK minimizedAffinity -4.02588415
REMARK minimizedRMSD -1
REMARK  1 active torsions:
REMARK  status: ('A' for Active; 'I' for Inactive)
REMARK    1  A    between atoms: C1_2  and  C2_3 
ROOT
ATOM      1  C2  UNL d   1       0.151   0.060  -0.992  0.00  0.00    -0.073 A 
ATOM      2  C3  UNL d   1      -1.094  -0.550  -0.801  0.00  0.00    -0.002 A 
ATOM      3  C4  UNL d   1      -1.502  -1.594  -1.631  0.00  0.00     0.004 A 
ATOM      4  C5  UNL d   1      -0.669  -2.044  -2.656  0.00  0.00    -0.004 A 
ATOM      5  C6  UNL d   1       0.584  -1.455  -2.855  0.00  0.00    -0.075 A 
ATOM      6  C7  UNL d   1       1.492  -1.925  -3.953  0.00  0.00     0.076 C 
ATOM      7  C8  UNL d   1       0.986  -0.405  -2.018  0.00  0.00     0.001 A 
ENDROOT
BRANCH   1   8
ATOM      8  C1  UNL d   1       0.600   1.183  -0.093  0.00  0.00     0.053 C 
ATOM      9  C   UNL d   1       1.783   0.783   0.774  0.00  0.00     0.018 C 
ENDBRANCH   1   8
TORSDOF 1
ENDMDL
