MODEL 1
REMARK minimizedAffinity -4.8812089
REMARK minimizedRMSD -1
REMARK  1 active torsions:
REMARK  status: ('A' for Active; 'I' for Inactive)
REMARK    1  A    between atoms: C1_2  and  C2_3 
ROOT
ATOM      1  C2  UNL d   1      -0.411   0.174  -0.542  0.00  0.00    -0.073 A 
ATOM      2  C3  UNL d   1      -1.743   0.552  -0.750  0.00  0.00    -0.002 A 
ATOM      3  C4  UNL d   1      -2.687   0.397   0.266  0.00  0.00     0.004 A 
ATOM      4  C5  UNL d   1      -2.309  -0.131   1.500  0.00  0.00    -0.004 A 
ATOM      5  C6  UNL d   1      -0.981  -0.503   1.732  0.00  0.00    -0.075 A 
ATOM      6  C7  UNL d   1      -0.559  -1.074   3.054  0.00  0.00     0.076 C 
ATOM      7  C8  UNL d   1      -0.039  -0.347   0.706  0.00  0.00     0.001 A 
ENDROOT
BRANCH   1   8
ATOM      8  C1  UNL d   1       0.613   0.345  -1.634  0.00  0.00     0.053 C 
ATOM      9  C   UNL d   1       0.716  -0.887  -2.517  0.00  0.00     0.018 C 
ENDBRANCH   1   8
TORSDOF 1
ENDMDL
