MODEL 1
REMARK minimizedAffinity -0.59343642
REMARK minimizedRMSD -1
REMARK  1 active torsions:
REMARK  status: ('A' for Active; 'I' for Inactive)
REMARK    1  A    between atoms: C1_2  and  C2_3 
ROOT
ATOM      1  C2  UNL d   1       0.374  -0.366  -1.675  0.00  0.00    -0.073 A 
ATOM      2  C3  UNL d   1      -0.468  -1.323  -2.254  0.00  0.00    -0.002 A 
ATOM      3  C4  UNL d   1      -0.048  -2.047  -3.370  0.00  0.00     0.004 A 
ATOM      4  C5  UNL d   1       1.217  -1.828  -3.915  0.00  0.00    -0.004 A 
ATOM      5  C6  UNL d   1       2.077  -0.884  -3.343  0.00  0.00    -0.075 A 
ATOM      6  C7  UNL d   1       3.440  -0.634  -3.918  0.00  0.00     0.076 C 
ATOM      7  C8  UNL d   1       1.647  -0.159  -2.224  0.00  0.00     0.001 A 
ENDROOT
BRANCH   1   8
ATOM      8  C1  UNL d   1      -0.073   0.414  -0.465  0.00  0.00     0.053 C 
ATOM      9  C   UNL d   1       1.080   0.702   0.484  0.00  0.00     0.018 C 
ENDBRANCH   1   8
TORSDOF 1
ENDMDL
