MODEL 1
REMARK minimizedAffinity -5.61309862
REMARK minimizedRMSD -1
REMARK  1 active torsions:
REMARK  status: ('A' for Active; 'I' for Inactive)
REMARK    1  A    between atoms: C1_2  and  C2_3 
ROOT
ATOM      1  C2  UNL d   1      -2.165   0.487   1.832  0.00  0.00    -0.073 A 
ATOM      2  C3  UNL d   1      -1.208   0.329   2.841  0.00  0.00    -0.002 A 
ATOM      3  C4  UNL d   1       0.145   0.221   2.518  0.00  0.00     0.004 A 
ATOM      4  C5  UNL d   1       0.556   0.276   1.186  0.00  0.00    -0.004 A 
ATOM      5  C6  UNL d   1      -0.384   0.445   0.165  0.00  0.00    -0.075 A 
ATOM      6  C7  UNL d   1       0.042   0.504  -1.273  0.00  0.00     0.076 C 
ATOM      7  C8  UNL d   1      -1.741   0.550   0.496  0.00  0.00     0.001 A 
ENDROOT
BRANCH   1   8
ATOM      8  C1  UNL d   1      -3.627   0.610   2.175  0.00  0.00     0.053 C 
ATOM      9  C   UNL d   1      -3.997   2.026   2.588  0.00  0.00     0.018 C 
ENDBRANCH   1   8
TORSDOF 1
ENDMDL
