MODEL 1
REMARK minimizedAffinity -6.53683186
REMARK minimizedRMSD -1
REMARK  0 active torsions:
REMARK  status: ('A' for Active; 'I' for Inactive)
ROOT
ATOM      1  C2' OXE d   1       1.602   0.432  -1.493  0.00  0.00     0.078 C 
ATOM      2  C1' OXE d   1       0.291   2.910  -1.653  0.00  0.00     0.078 C 
ATOM      3  C1  OXE d   1      -0.216   1.910  -0.644  0.00  0.00    -0.078 A 
ATOM      4  C2  OXE d   1       0.402   0.683  -0.605  0.00  0.00    -0.078 A 
ATOM      5  C3  OXE d   1       0.009  -0.257   0.344  0.00  0.00     0.003 A 
ATOM      6  C4  OXE d   1      -1.108  -0.021   1.155  0.00  0.00    -0.002 A 
ATOM      7  C5  OXE d   1      -1.776   1.207   1.103  0.00  0.00    -0.002 A 
ATOM      8  C6  OXE d   1      -1.317   2.197   0.242  0.00  0.00     0.003 A 
ENDROOT
TORSDOF 0
ENDMDL
