MODEL 1
REMARK minimizedAffinity -2.24743509
REMARK minimizedRMSD -1
REMARK  0 active torsions:
REMARK  status: ('A' for Active; 'I' for Inactive)
ROOT
ATOM      1  C2' OXE d   1       0.013   0.903  -1.101  0.00  0.00     0.078 C 
ATOM      2  C1' OXE d   1       1.012  -0.805   0.891  0.00  0.00     0.078 C 
ATOM      3  C1  OXE d   1       0.787  -1.383  -0.484  0.00  0.00    -0.078 A 
ATOM      4  C2  OXE d   1       0.254  -0.552  -1.440  0.00  0.00    -0.078 A 
ATOM      5  C3  OXE d   1       0.079  -1.020  -2.739  0.00  0.00     0.003 A 
ATOM      6  C4  OXE d   1       0.295  -2.369  -3.042  0.00  0.00    -0.002 A 
ATOM      7  C5  OXE d   1       0.801  -3.242  -2.073  0.00  0.00    -0.002 A 
ATOM      8  C6  OXE d   1       1.092  -2.756  -0.803  0.00  0.00     0.003 A 
ENDROOT
TORSDOF 0
ENDMDL
