MODEL 1
REMARK minimizedAffinity -5.78464937
REMARK minimizedRMSD -1
REMARK  0 active torsions:
REMARK  status: ('A' for Active; 'I' for Inactive)
ROOT
ATOM      1  C2' OXE d   1       1.471  -0.408  -0.331  0.00  0.00     0.078 C 
ATOM      2  C1' OXE d   1       0.434   2.101  -1.046  0.00  0.00     0.078 C 
ATOM      3  C1  OXE d   1      -0.196   1.387   0.124  0.00  0.00    -0.078 A 
ATOM      4  C2  OXE d   1       0.287   0.139   0.437  0.00  0.00    -0.078 A 
ATOM      5  C3  OXE d   1      -0.221  -0.539   1.541  0.00  0.00     0.003 A 
ATOM      6  C4  OXE d   1      -1.322  -0.031   2.240  0.00  0.00    -0.002 A 
ATOM      7  C5  OXE d   1      -1.855   1.221   1.912  0.00  0.00    -0.002 A 
ATOM      8  C6  OXE d   1      -1.277   1.960   0.886  0.00  0.00     0.003 A 
ENDROOT
TORSDOF 0
ENDMDL
