MODEL 1
REMARK minimizedAffinity -4.49876022
REMARK minimizedRMSD -1
REMARK  0 active torsions:
REMARK  status: ('A' for Active; 'I' for Inactive)
ROOT
ATOM      1  C2' OXE d   1       0.348   1.814  -1.733  0.00  0.00     0.078 C 
ATOM      2  C1' OXE d   1       0.814  -0.760  -0.713  0.00  0.00     0.078 C 
ATOM      3  C1  OXE d   1      -0.163   0.123   0.023  0.00  0.00    -0.078 A 
ATOM      4  C2  OXE d   1      -0.349   1.397  -0.456  0.00  0.00    -0.078 A 
ATOM      5  C3  OXE d   1      -1.280   2.233   0.154  0.00  0.00     0.003 A 
ATOM      6  C4  OXE d   1      -1.914   1.843   1.340  0.00  0.00    -0.002 A 
ATOM      7  C5  OXE d   1      -1.707   0.564   1.868  0.00  0.00    -0.002 A 
ATOM      8  C6  OXE d   1      -0.869  -0.322   1.199  0.00  0.00     0.003 A 
ENDROOT
TORSDOF 0
ENDMDL
