MODEL 1
REMARK minimizedAffinity -1.52710259
REMARK minimizedRMSD -1
REMARK  0 active torsions:
REMARK  status: ('A' for Active; 'I' for Inactive)
ROOT
ATOM      1  C2' OXE d   1      -0.161   2.624  -1.308  0.00  0.00     0.078 C 
ATOM      2  C1' OXE d   1      -1.403   1.926   1.111  0.00  0.00     0.078 C 
ATOM      3  C1  OXE d   1      -0.569   0.876   0.419  0.00  0.00    -0.078 A 
ATOM      4  C2  OXE d   1      -0.003   1.212  -0.787  0.00  0.00    -0.078 A 
ATOM      5  C3  OXE d   1       0.821   0.300  -1.440  0.00  0.00     0.003 A 
ATOM      6  C4  OXE d   1       0.954  -1.008  -0.956  0.00  0.00    -0.002 A 
ATOM      7  C5  OXE d   1       0.353  -1.383   0.251  0.00  0.00    -0.002 A 
ATOM      8  C6  OXE d   1      -0.374  -0.442   0.971  0.00  0.00     0.003 A 
ENDROOT
TORSDOF 0
ENDMDL
