MODEL 1
REMARK minimizedAffinity -4.98125696
REMARK minimizedRMSD -1
REMARK  0 active torsions:
REMARK  status: ('A' for Active; 'I' for Inactive)
ROOT
ATOM      1  C2' OXE d   1      -0.833  -0.791   1.874  0.00  0.00     0.078 C 
ATOM      2  C1' OXE d   1      -1.935   1.765   1.506  0.00  0.00     0.078 C 
ATOM      3  C1  OXE d   1      -0.827   1.336   0.577  0.00  0.00    -0.078 A 
ATOM      4  C2  OXE d   1      -0.262   0.102   0.794  0.00  0.00    -0.078 A 
ATOM      5  C3  OXE d   1       0.726  -0.365  -0.068  0.00  0.00     0.003 A 
ATOM      6  C4  OXE d   1       1.256   0.471  -1.058  0.00  0.00    -0.002 A 
ATOM      7  C5  OXE d   1       0.722   1.746  -1.271  0.00  0.00    -0.002 A 
ATOM      8  C6  OXE d   1      -0.346   2.176  -0.491  0.00  0.00     0.003 A 
ENDROOT
TORSDOF 0
ENDMDL
