MODEL 1
REMARK minimizedAffinity -5.65441799
REMARK minimizedRMSD -1
REMARK  0 active torsions:
REMARK  status: ('A' for Active; 'I' for Inactive)
ROOT
ATOM      1  C2' OXE d   1      -0.347   2.588  -1.480  0.00  0.00     0.078 C 
ATOM      2  C1' OXE d   1       1.259   0.434  -0.667  0.00  0.00     0.078 C 
ATOM      3  C1  OXE d   1      -0.005   0.701   0.110  0.00  0.00    -0.078 A 
ATOM      4  C2  OXE d   1      -0.761   1.785  -0.266  0.00  0.00    -0.078 A 
ATOM      5  C3  OXE d   1      -1.966   2.044   0.383  0.00  0.00     0.003 A 
ATOM      6  C4  OXE d   1      -2.337   1.303   1.511  0.00  0.00    -0.002 A 
ATOM      7  C5  OXE d   1      -1.561   0.219   1.935  0.00  0.00    -0.002 A 
ATOM      8  C6  OXE d   1      -0.417  -0.121   1.221  0.00  0.00     0.003 A 
ENDROOT
TORSDOF 0
ENDMDL
