MODEL 1
REMARK minimizedAffinity -5.90462494
REMARK minimizedRMSD -1
REMARK  0 active torsions:
REMARK  status: ('A' for Active; 'I' for Inactive)
ROOT
ATOM      1  C2' OXE d   1       0.761  -0.939  -0.386  0.00  0.00     0.078 C 
ATOM      2  C1' OXE d   1      -0.095  -1.284   2.265  0.00  0.00     0.078 C 
ATOM      3  C1  OXE d   1      -0.532  -0.035   1.542  0.00  0.00    -0.078 A 
ATOM      4  C2  OXE d   1      -0.070   0.148   0.260  0.00  0.00    -0.078 A 
ATOM      5  C3  OXE d   1      -0.488   1.256  -0.471  0.00  0.00     0.003 A 
ATOM      6  C4  OXE d   1      -1.248   2.262   0.137  0.00  0.00    -0.002 A 
ATOM      7  C5  OXE d   1      -1.696   2.114   1.454  0.00  0.00    -0.002 A 
ATOM      8  C6  OXE d   1      -1.383   0.954   2.155  0.00  0.00     0.003 A 
ENDROOT
TORSDOF 0
ENDMDL
