MODEL 1
REMARK minimizedAffinity -2.52530932
REMARK minimizedRMSD -1
REMARK  0 active torsions:
REMARK  status: ('A' for Active; 'I' for Inactive)
ROOT
ATOM      1  C2' OXE d   1      -0.447  -0.782  -0.975  0.00  0.00     0.078 C 
ATOM      2  C1' OXE d   1       1.390  -0.397   1.113  0.00  0.00     0.078 C 
ATOM      3  C1  OXE d   1       0.148   0.459   1.102  0.00  0.00    -0.078 A 
ATOM      4  C2  OXE d   1      -0.723   0.296   0.051  0.00  0.00    -0.078 A 
ATOM      5  C3  OXE d   1      -1.910   1.021   0.021  0.00  0.00     0.003 A 
ATOM      6  C4  OXE d   1      -2.153   2.023   0.969  0.00  0.00    -0.002 A 
ATOM      7  C5  OXE d   1      -1.260   2.233   2.025  0.00  0.00    -0.002 A 
ATOM      8  C6  OXE d   1      -0.128   1.432   2.130  0.00  0.00     0.003 A 
ENDROOT
TORSDOF 0
ENDMDL
