MODEL 1
REMARK minimizedAffinity -3.90219712
REMARK minimizedRMSD -1
REMARK  0 active torsions:
REMARK  status: ('A' for Active; 'I' for Inactive)
ROOT
ATOM      1  C2' OXE d   1      -1.852  -0.160  -0.336  0.00  0.00     0.078 C 
ATOM      2  C1' OXE d   1       0.759  -1.186  -0.432  0.00  0.00     0.078 C 
ATOM      3  C1  OXE d   1       0.558   0.263  -0.801  0.00  0.00    -0.078 A 
ATOM      4  C2  OXE d   1      -0.729   0.744  -0.796  0.00  0.00    -0.078 A 
ATOM      5  C3  OXE d   1      -0.963   2.087  -1.076  0.00  0.00     0.003 A 
ATOM      6  C4  OXE d   1       0.080   2.914  -1.510  0.00  0.00    -0.002 A 
ATOM      7  C5  OXE d   1       1.393   2.433  -1.561  0.00  0.00    -0.002 A 
ATOM      8  C6  OXE d   1       1.655   1.125  -1.169  0.00  0.00     0.003 A 
ENDROOT
TORSDOF 0
ENDMDL
