MODEL 1
REMARK minimizedAffinity -2.19273472
REMARK minimizedRMSD -1
REMARK  0 active torsions:
REMARK  status: ('A' for Active; 'I' for Inactive)
ROOT
ATOM      1  C2' OXE d   1       0.679  -0.361  -0.633  0.00  0.00     0.078 C 
ATOM      2  C1' OXE d   1      -0.512  -0.945   1.841  0.00  0.00     0.078 C 
ATOM      3  C1  OXE d   1      -0.682   0.449   1.290  0.00  0.00    -0.078 A 
ATOM      4  C2  OXE d   1      -0.057   0.739   0.101  0.00  0.00    -0.078 A 
ATOM      5  C3  OXE d   1      -0.227   1.993  -0.479  0.00  0.00     0.003 A 
ATOM      6  C4  OXE d   1      -0.901   3.008   0.212  0.00  0.00    -0.002 A 
ATOM      7  C5  OXE d   1      -1.511   2.744   1.443  0.00  0.00    -0.002 A 
ATOM      8  C6  OXE d   1      -1.448   1.461   1.974  0.00  0.00     0.003 A 
ENDROOT
TORSDOF 0
ENDMDL
