MODEL 1
REMARK minimizedAffinity -3.48539472
REMARK minimizedRMSD -1
REMARK  0 active torsions:
REMARK  status: ('A' for Active; 'I' for Inactive)
ROOT
ATOM      1  C2' OXE d   1       0.920   0.023  -0.144  0.00  0.00     0.078 C 
ATOM      2  C1' OXE d   1      -0.185   2.576  -0.520  0.00  0.00     0.078 C 
ATOM      3  C1  OXE d   1      -0.834   1.671   0.497  0.00  0.00    -0.078 A 
ATOM      4  C2  OXE d   1      -0.315   0.407   0.641  0.00  0.00    -0.078 A 
ATOM      5  C3  OXE d   1      -0.842  -0.449   1.605  0.00  0.00     0.003 A 
ATOM      6  C4  OXE d   1      -1.991  -0.089   2.320  0.00  0.00    -0.002 A 
ATOM      7  C5  OXE d   1      -2.559   1.179   2.159  0.00  0.00    -0.002 A 
ATOM      8  C6  OXE d   1      -1.969   2.085   1.285  0.00  0.00     0.003 A 
ENDROOT
TORSDOF 0
ENDMDL
