MODEL 1
REMARK minimizedAffinity -1.77282882
REMARK minimizedRMSD -1
REMARK  0 active torsions:
REMARK  status: ('A' for Active; 'I' for Inactive)
ROOT
ATOM      1  C2' OXE d   1      -0.320   2.656  -1.290  0.00  0.00     0.078 C 
ATOM      2  C1' OXE d   1      -1.819   1.653   0.862  0.00  0.00     0.078 C 
ATOM      3  C1  OXE d   1      -0.718   0.784   0.306  0.00  0.00    -0.078 A 
ATOM      4  C2  OXE d   1      -0.020   1.264  -0.777  0.00  0.00    -0.078 A 
ATOM      5  C3  OXE d   1       1.041   0.527  -1.294  0.00  0.00     0.003 A 
ATOM      6  C4  OXE d   1       1.306  -0.764  -0.821  0.00  0.00    -0.002 A 
ATOM      7  C5  OXE d   1       0.581  -1.287   0.256  0.00  0.00    -0.002 A 
ATOM      8  C6  OXE d   1      -0.403  -0.511   0.856  0.00  0.00     0.003 A 
ENDROOT
TORSDOF 0
ENDMDL
