MODEL 1
REMARK minimizedAffinity -4.39610243
REMARK minimizedRMSD -1
REMARK  0 active torsions:
REMARK  status: ('A' for Active; 'I' for Inactive)
ROOT
ATOM      1  C2' OXE d   1       0.248  -1.052  -0.619  0.00  0.00     0.078 C 
ATOM      2  C1' OXE d   1       0.940  -0.861   2.094  0.00  0.00     0.078 C 
ATOM      3  C1  OXE d   1       0.003   0.178   1.533  0.00  0.00    -0.078 A 
ATOM      4  C2  OXE d   1      -0.294   0.104   0.193  0.00  0.00    -0.078 A 
ATOM      5  C3  OXE d   1      -1.196   1.006  -0.364  0.00  0.00     0.003 A 
ATOM      6  C4  OXE d   1      -1.685   2.078   0.391  0.00  0.00    -0.002 A 
ATOM      7  C5  OXE d   1      -1.364   2.195   1.748  0.00  0.00    -0.002 A 
ATOM      8  C6  OXE d   1      -0.558   1.231   2.343  0.00  0.00     0.003 A 
ENDROOT
TORSDOF 0
ENDMDL
