MODEL 1
REMARK minimizedAffinity -4.2998395
REMARK minimizedRMSD -1
REMARK  0 active torsions:
REMARK  status: ('A' for Active; 'I' for Inactive)
ROOT
ATOM      1  C2' OXE d   1       0.382  -1.225   2.341  0.00  0.00     0.078 C 
ATOM      2  C1' OXE d   1       0.926  -1.130  -0.411  0.00  0.00     0.078 C 
ATOM      3  C1  OXE d   1      -0.036  -0.113   0.151  0.00  0.00    -0.078 A 
ATOM      4  C2  OXE d   1      -0.332  -0.197   1.490  0.00  0.00    -0.078 A 
ATOM      5  C3  OXE d   1      -1.171   0.750   2.071  0.00  0.00     0.003 A 
ATOM      6  C4  OXE d   1      -1.835   1.692   1.275  0.00  0.00    -0.002 A 
ATOM      7  C5  OXE d   1      -1.578   1.768  -0.098  0.00  0.00    -0.002 A 
ATOM      8  C6  OXE d   1      -0.651   0.903  -0.667  0.00  0.00     0.003 A 
ENDROOT
TORSDOF 0
ENDMDL
