MODEL 1
REMARK minimizedAffinity -2.61122704
REMARK minimizedRMSD -1
REMARK  0 active torsions:
REMARK  status: ('A' for Active; 'I' for Inactive)
ROOT
ATOM      1  C2' OXE d   1       0.510  -1.042   0.498  0.00  0.00     0.078 C 
ATOM      2  C1' OXE d   1       1.386   0.296  -1.809  0.00  0.00     0.078 C 
ATOM      3  C1  OXE d   1       0.952  -1.142  -1.952  0.00  0.00    -0.078 A 
ATOM      4  C2  OXE d   1       0.569  -1.803  -0.810  0.00  0.00    -0.078 A 
ATOM      5  C3  OXE d   1       0.107  -3.113  -0.893  0.00  0.00     0.003 A 
ATOM      6  C4  OXE d   1       0.175  -3.812  -2.105  0.00  0.00    -0.002 A 
ATOM      7  C5  OXE d   1       0.599  -3.170  -3.272  0.00  0.00    -0.002 A 
ATOM      8  C6  OXE d   1       0.950  -1.825  -3.222  0.00  0.00     0.003 A 
ENDROOT
TORSDOF 0
ENDMDL
