MODEL 1
REMARK minimizedAffinity -5.12346888
REMARK minimizedRMSD -1
REMARK  0 active torsions:
REMARK  status: ('A' for Active; 'I' for Inactive)
ROOT
ATOM      1  C2' OXE d   1       1.013   1.287  -1.938  0.00  0.00     0.078 C 
ATOM      2  C1' OXE d   1       1.599  -0.775  -0.125  0.00  0.00     0.078 C 
ATOM      3  C1  OXE d   1       0.468   0.162   0.217  0.00  0.00    -0.078 A 
ATOM      4  C2  OXE d   1       0.219   1.196  -0.653  0.00  0.00    -0.078 A 
ATOM      5  C3  OXE d   1      -0.848   2.058  -0.413  0.00  0.00     0.003 A 
ATOM      6  C4  OXE d   1      -1.572   1.973   0.783  0.00  0.00    -0.002 A 
ATOM      7  C5  OXE d   1      -1.309   0.952   1.702  0.00  0.00    -0.002 A 
ATOM      8  C6  OXE d   1      -0.322   0.015   1.414  0.00  0.00     0.003 A 
ENDROOT
TORSDOF 0
ENDMDL
