MODEL 1
REMARK minimizedAffinity -3.02341175
REMARK minimizedRMSD -1
REMARK  0 active torsions:
REMARK  status: ('A' for Active; 'I' for Inactive)
ROOT
ATOM      1  C2' OXE d   1       0.274  -1.152  -0.610  0.00  0.00     0.078 C 
ATOM      2  C1' OXE d   1       0.587   1.624  -0.886  0.00  0.00     0.078 C 
ATOM      3  C1  OXE d   1      -0.188   1.118   0.305  0.00  0.00    -0.078 A 
ATOM      4  C2  OXE d   1      -0.376  -0.239   0.407  0.00  0.00    -0.078 A 
ATOM      5  C3  OXE d   1      -1.037  -0.762   1.514  0.00  0.00     0.003 A 
ATOM      6  C4  OXE d   1      -1.645   0.090   2.445  0.00  0.00    -0.002 A 
ATOM      7  C5  OXE d   1      -1.499   1.477   2.338  0.00  0.00    -0.002 A 
ATOM      8  C6  OXE d   1      -0.740   2.005   1.300  0.00  0.00     0.003 A 
ENDROOT
TORSDOF 0
ENDMDL
