MODEL 1
REMARK minimizedAffinity -2.88537741
REMARK minimizedRMSD -1
REMARK  0 active torsions:
REMARK  status: ('A' for Active; 'I' for Inactive)
ROOT
ATOM      1  C4' PXY d   1      -0.650   2.697   1.863  0.00  0.00     0.077 C 
ATOM      2  C1' PXY d   1      -2.071  -1.926   5.028  0.00  0.00     0.077 C 
ATOM      3  C1  PXY d   1      -1.705  -0.719   4.188  0.00  0.00    -0.082 A 
ATOM      4  C2  PXY d   1      -0.633  -0.007   4.497  0.00  0.00     0.003 A 
ATOM      5  C3  PXY d   1      -0.305   1.106   3.767  0.00  0.00     0.003 A 
ATOM      6  C4  PXY d   1      -1.052   1.465   2.677  0.00  0.00    -0.082 A 
ATOM      7  C5  PXY d   1      -2.141   0.737   2.349  0.00  0.00     0.003 A 
ATOM      8  C6  PXY d   1      -2.480  -0.365   3.127  0.00  0.00     0.003 A 
ENDROOT
TORSDOF 0
ENDMDL
