MODEL 1
REMARK minimizedAffinity 2.66848207
REMARK minimizedRMSD -1
REMARK  0 active torsions:
REMARK  status: ('A' for Active; 'I' for Inactive)
ROOT
ATOM      1  C4' PXY d   1      -2.099  -5.732  -1.833  0.00  0.00     0.077 C 
ATOM      2  C1' PXY d   1       0.453  -2.644  -6.000  0.00  0.00     0.077 C 
ATOM      3  C1  PXY d   1      -0.207  -3.450  -4.899  0.00  0.00    -0.082 A 
ATOM      4  C2  PXY d   1      -0.991  -4.468  -5.214  0.00  0.00     0.003 A 
ATOM      5  C3  PXY d   1      -1.621  -5.188  -4.232  0.00  0.00     0.003 A 
ATOM      6  C4  PXY d   1      -1.404  -4.896  -2.911  0.00  0.00    -0.082 A 
ATOM      7  C5  PXY d   1      -0.597  -3.866  -2.582  0.00  0.00     0.003 A 
ATOM      8  C6  PXY d   1       0.000  -3.121  -3.595  0.00  0.00     0.003 A 
ENDROOT
TORSDOF 0
ENDMDL
