MODEL 1
REMARK minimizedAffinity 0.737497866
REMARK minimizedRMSD -1
REMARK  0 active torsions:
REMARK  status: ('A' for Active; 'I' for Inactive)
ROOT
ATOM      1  C4' PXY d   1      -1.475   1.228   5.035  0.00  0.00     0.077 C 
ATOM      2  C1' PXY d   1      -2.451   0.220  -0.572  0.00  0.00     0.077 C 
ATOM      3  C1  PXY d   1      -2.190   0.472   0.900  0.00  0.00    -0.082 A 
ATOM      4  C2  PXY d   1      -2.901   1.384   1.543  0.00  0.00     0.003 A 
ATOM      5  C3  PXY d   1      -2.656   1.648   2.866  0.00  0.00     0.003 A 
ATOM      6  C4  PXY d   1      -1.710   0.933   3.552  0.00  0.00    -0.082 A 
ATOM      7  C5  PXY d   1      -0.988  -0.007   2.905  0.00  0.00     0.003 A 
ATOM      8  C6  PXY d   1      -1.224  -0.230   1.551  0.00  0.00     0.003 A 
ENDROOT
TORSDOF 0
ENDMDL
