MODEL 1
REMARK minimizedAffinity 2.5393095
REMARK minimizedRMSD -1
REMARK  0 active torsions:
REMARK  status: ('A' for Active; 'I' for Inactive)
ROOT
ATOM      1  C4' PXY d   1       1.549  -0.447   2.552  0.00  0.00     0.077 C 
ATOM      2  C1' PXY d   1      -3.461   0.159  -0.266  0.00  0.00     0.077 C 
ATOM      3  C1  PXY d   1      -2.149   0.012   0.478  0.00  0.00    -0.082 A 
ATOM      4  C2  PXY d   1      -1.211  -0.790  -0.001  0.00  0.00     0.003 A 
ATOM      5  C3  PXY d   1      -0.031  -0.959   0.677  0.00  0.00     0.003 A 
ATOM      6  C4  PXY d   1       0.213  -0.261   1.829  0.00  0.00    -0.082 A 
ATOM      7  C5  PXY d   1      -0.734   0.567   2.318  0.00  0.00     0.003 A 
ATOM      8  C6  PXY d   1      -1.942   0.694   1.637  0.00  0.00     0.003 A 
ENDROOT
TORSDOF 0
ENDMDL
