MODEL 1
REMARK minimizedAffinity -0.588048935
REMARK minimizedRMSD -1
REMARK  0 active torsions:
REMARK  status: ('A' for Active; 'I' for Inactive)
ROOT
ATOM      1  C4' PXY d   1       2.049  -1.209  -2.164  0.00  0.00     0.077 C 
ATOM      2  C1' PXY d   1      -1.334  -5.506  -4.038  0.00  0.00     0.077 C 
ATOM      3  C1  PXY d   1      -0.442  -4.377  -3.559  0.00  0.00    -0.082 A 
ATOM      4  C2  PXY d   1      -0.029  -4.358  -2.302  0.00  0.00     0.003 A 
ATOM      5  C3  PXY d   1       0.751  -3.328  -1.844  0.00  0.00     0.003 A 
ATOM      6  C4  PXY d   1       1.156  -2.335  -2.694  0.00  0.00    -0.082 A 
ATOM      7  C5  PXY d   1       0.748  -2.352  -3.981  0.00  0.00     0.003 A 
ATOM      8  C6  PXY d   1      -0.078  -3.385  -4.416  0.00  0.00     0.003 A 
ENDROOT
TORSDOF 0
ENDMDL
