MODEL 1
REMARK minimizedAffinity 9.46620178
REMARK minimizedRMSD -1
REMARK  0 active torsions:
REMARK  status: ('A' for Active; 'I' for Inactive)
ROOT
ATOM      1  C4' PXY d   1      -5.260   0.807  -1.125  0.00  0.00     0.077 C 
ATOM      2  C1' PXY d   1      -0.875   0.896   2.640  0.00  0.00     0.077 C 
ATOM      3  C1  PXY d   1      -2.020   0.863   1.647  0.00  0.00    -0.082 A 
ATOM      4  C2  PXY d   1      -2.713   1.965   1.410  0.00  0.00     0.003 A 
ATOM      5  C3  PXY d   1      -3.771   1.944   0.539  0.00  0.00     0.003 A 
ATOM      6  C4  PXY d   1      -4.090   0.797  -0.137  0.00  0.00    -0.082 A 
ATOM      7  C5  PXY d   1      -3.381  -0.329   0.091  0.00  0.00     0.003 A 
ATOM      8  C6  PXY d   1      -2.336  -0.297   1.010  0.00  0.00     0.003 A 
ENDROOT
TORSDOF 0
ENDMDL
