MODEL 1
REMARK minimizedAffinity 6.46410513
REMARK minimizedRMSD -1
REMARK  0 active torsions:
REMARK  status: ('A' for Active; 'I' for Inactive)
ROOT
ATOM      1  C4' PXY d   1       0.445   0.032   3.814  0.00  0.00     0.077 C 
ATOM      2  C1' PXY d   1      -3.927   1.582   0.365  0.00  0.00     0.077 C 
ATOM      3  C1  PXY d   1      -2.787   1.165   1.273  0.00  0.00    -0.082 A 
ATOM      4  C2  PXY d   1      -1.918   2.072   1.691  0.00  0.00     0.003 A 
ATOM      5  C3  PXY d   1      -0.863   1.706   2.487  0.00  0.00     0.003 A 
ATOM      6  C4  PXY d   1      -0.727   0.409   2.904  0.00  0.00    -0.082 A 
ATOM      7  C5  PXY d   1      -1.615  -0.519   2.491  0.00  0.00     0.003 A 
ATOM      8  C6  PXY d   1      -2.655  -0.136   1.649  0.00  0.00     0.003 A 
ENDROOT
TORSDOF 0
ENDMDL
