MODEL 1
REMARK minimizedAffinity 1.80100715
REMARK minimizedRMSD -1
REMARK  0 active torsions:
REMARK  status: ('A' for Active; 'I' for Inactive)
ROOT
ATOM      1  C4' PXY d   1      -3.754  -0.698  -1.405  0.00  0.00     0.077 C 
ATOM      2  C1' PXY d   1      -0.798   1.317   3.136  0.00  0.00     0.077 C 
ATOM      3  C1  PXY d   1      -1.566   0.779   1.944  0.00  0.00    -0.082 A 
ATOM      4  C2  PXY d   1      -2.256   1.610   1.181  0.00  0.00     0.003 A 
ATOM      5  C3  PXY d   1      -2.982   1.135   0.118  0.00  0.00     0.003 A 
ATOM      6  C4  PXY d   1      -2.957  -0.197  -0.197  0.00  0.00    -0.082 A 
ATOM      7  C5  PXY d   1      -2.246  -1.050   0.570  0.00  0.00     0.003 A 
ATOM      8  C6  PXY d   1      -1.550  -0.554   1.669  0.00  0.00     0.003 A 
ENDROOT
TORSDOF 0
ENDMDL
