MODEL 1
REMARK minimizedAffinity 2.61583161
REMARK minimizedRMSD -1
REMARK  0 active torsions:
REMARK  status: ('A' for Active; 'I' for Inactive)
ROOT
ATOM      1  C4' PXY d   1       0.001  -0.007  -3.801  0.00  0.00     0.077 C 
ATOM      2  C1' PXY d   1      -0.447  -5.474  -5.626  0.00  0.00     0.077 C 
ATOM      3  C1  PXY d   1      -0.333  -4.044  -5.136  0.00  0.00    -0.082 A 
ATOM      4  C2  PXY d   1      -0.429  -3.046  -6.000  0.00  0.00     0.003 A 
ATOM      5  C3  PXY d   1      -0.297  -1.748  -5.578  0.00  0.00     0.003 A 
ATOM      6  C4  PXY d   1      -0.117  -1.466  -4.250  0.00  0.00    -0.082 A 
ATOM      7  C5  PXY d   1      -0.029  -2.478  -3.361  0.00  0.00     0.003 A 
ATOM      8  C6  PXY d   1      -0.125  -3.790  -3.815  0.00  0.00     0.003 A 
ENDROOT
TORSDOF 0
ENDMDL
