MODEL 1
REMARK minimizedAffinity 2.06451249
REMARK minimizedRMSD -1
REMARK  0 active torsions:
REMARK  status: ('A' for Active; 'I' for Inactive)
ROOT
ATOM      1  C4' PXY d   1      -2.259  -2.476  -1.839  0.00  0.00     0.077 C 
ATOM      2  C1' PXY d   1       0.108  -5.717  -6.000  0.00  0.00     0.077 C 
ATOM      3  C1  PXY d   1      -0.524  -4.866  -4.915  0.00  0.00    -0.082 A 
ATOM      4  C2  PXY d   1       0.245  -4.127  -4.133  0.00  0.00     0.003 A 
ATOM      5  C3  PXY d   1      -0.308  -3.377  -3.126  0.00  0.00     0.003 A 
ATOM      6  C4  PXY d   1      -1.665  -3.342  -2.953  0.00  0.00    -0.082 A 
ATOM      7  C5  PXY d   1      -2.457  -4.086  -3.755  0.00  0.00     0.003 A 
ATOM      8  C6  PXY d   1      -1.874  -4.872  -4.744  0.00  0.00     0.003 A 
ENDROOT
TORSDOF 0
ENDMDL
