MODEL 1
REMARK minimizedAffinity -3.97308803
REMARK minimizedRMSD -1
REMARK  0 active torsions:
REMARK  status: ('A' for Active; 'I' for Inactive)
ROOT
ATOM      1  C4' PXY d   1       0.174  -0.038   2.917  0.00  0.00     0.077 C 
ATOM      2  C1' PXY d   1      -4.142   0.646  -0.867  0.00  0.00     0.077 C 
ATOM      3  C1  PXY d   1      -3.009   0.454   0.123  0.00  0.00    -0.082 A 
ATOM      4  C2  PXY d   1      -2.863   1.307   1.123  0.00  0.00     0.003 A 
ATOM      5  C3  PXY d   1      -1.826   1.167   2.009  0.00  0.00     0.003 A 
ATOM      6  C4  PXY d   1      -0.960   0.111   1.900  0.00  0.00    -0.082 A 
ATOM      7  C5  PXY d   1      -1.109  -0.769   0.888  0.00  0.00     0.003 A 
ATOM      8  C6  PXY d   1      -2.144  -0.586  -0.024  0.00  0.00     0.003 A 
ENDROOT
TORSDOF 0
ENDMDL
