MODEL 1
REMARK minimizedAffinity -2.19979382
REMARK minimizedRMSD -1
REMARK  0 active torsions:
REMARK  status: ('A' for Active; 'I' for Inactive)
ROOT
ATOM      1  C   UNL d   1       0.915   1.595   0.827  0.00  0.00     0.124 A 
ATOM      2  C1  UNL d   1       0.308   1.167  -0.345  0.00  0.00     0.062 A 
ATOM      3  C2  UNL d   1      -0.615   0.126  -0.316  0.00  0.00     0.162 A 
ATOM      4  C3  UNL d   1      -0.938  -0.495   0.891  0.00  0.00    -0.034 A 
ATOM      5  C4  UNL d   1      -0.323  -0.059   2.066  0.00  0.00     0.162 A 
ATOM      6  C5  UNL d   1       0.598   0.982   2.032  0.00  0.00     0.062 A 
ATOM      7  F   UNL d   1       1.183   1.395   3.166  0.00  0.00    -0.097 F 
ATOM      8  F1  UNL d   1      -0.611  -0.633   3.244  0.00  0.00    -0.096 F 
ATOM      9  I   UNL d   1      -2.318  -2.052   0.939  0.00  0.00    -0.060 I 
ATOM     10  F2  UNL d   1      -1.186  -0.268  -1.464  0.00  0.00    -0.096 F 
ATOM     11  F3  UNL d   1       0.612   1.757  -1.510  0.00  0.00    -0.097 F 
ATOM     12  F4  UNL d   1       1.803   2.597   0.796  0.00  0.00    -0.092 F 
ENDROOT
TORSDOF 0
ENDMDL
