MODEL 1
REMARK minimizedAffinity -2.87318277
REMARK minimizedRMSD -1
REMARK  0 active torsions:
REMARK  status: ('A' for Active; 'I' for Inactive)
ROOT
ATOM      1  C   UNL d   1      -2.063  -0.084   2.539  0.00  0.00     0.124 A 
ATOM      2  C1  UNL d   1      -2.707   0.590   1.511  0.00  0.00     0.062 A 
ATOM      3  C2  UNL d   1      -2.143   0.629   0.239  0.00  0.00     0.162 A 
ATOM      4  C3  UNL d   1      -0.928  -0.010  -0.012  0.00  0.00    -0.034 A 
ATOM      5  C4  UNL d   1      -0.286  -0.684   1.028  0.00  0.00     0.162 A 
ATOM      6  C5  UNL d   1      -0.854  -0.720   2.297  0.00  0.00     0.062 A 
ATOM      7  F   UNL d   1      -0.231  -1.371   3.290  0.00  0.00    -0.097 F 
ATOM      8  F1  UNL d   1       0.883  -1.309   0.821  0.00  0.00    -0.096 F 
ATOM      9  I   UNL d   1      -0.082   0.046  -1.913  0.00  0.00    -0.060 I 
ATOM     10  F2  UNL d   1      -2.787   1.287  -0.737  0.00  0.00    -0.096 F 
ATOM     11  F3  UNL d   1      -3.875   1.206   1.742  0.00  0.00    -0.097 F 
ATOM     12  F4  UNL d   1      -2.608  -0.118   3.763  0.00  0.00    -0.092 F 
ENDROOT
TORSDOF 0
ENDMDL
