MODEL 1
REMARK minimizedAffinity -4.68458176
REMARK minimizedRMSD -1
REMARK  0 active torsions:
REMARK  status: ('A' for Active; 'I' for Inactive)
ROOT
ATOM      1  C   UNL d   1      -1.412   0.755   1.536  0.00  0.00     0.124 A 
ATOM      2  C1  UNL d   1      -2.031   0.794   0.295  0.00  0.00     0.062 A 
ATOM      3  C2  UNL d   1      -1.350   0.366  -0.841  0.00  0.00     0.162 A 
ATOM      4  C3  UNL d   1      -0.042  -0.107  -0.741  0.00  0.00    -0.034 A 
ATOM      5  C4  UNL d   1       0.575  -0.143   0.511  0.00  0.00     0.162 A 
ATOM      6  C5  UNL d   1      -0.110   0.287   1.643  0.00  0.00     0.062 A 
ATOM      7  F   UNL d   1       0.490   0.249   2.842  0.00  0.00    -0.097 F 
ATOM      8  F1  UNL d   1       1.832  -0.591   0.643  0.00  0.00    -0.096 F 
ATOM      9  I   UNL d   1       0.979  -0.749  -2.437  0.00  0.00    -0.060 I 
ATOM     10  F2  UNL d   1      -1.974   0.414  -2.028  0.00  0.00    -0.096 F 
ATOM     11  F3  UNL d   1      -3.289   1.247   0.189  0.00  0.00    -0.097 F 
ATOM     12  F4  UNL d   1      -2.069   1.169   2.627  0.00  0.00    -0.092 F 
ENDROOT
TORSDOF 0
ENDMDL
