MODEL 1
REMARK minimizedAffinity -0.937302053
REMARK minimizedRMSD -1
REMARK  0 active torsions:
REMARK  status: ('A' for Active; 'I' for Inactive)
ROOT
ATOM      1  C   UNL d   1      -1.409   0.696   2.174  0.00  0.00     0.124 A 
ATOM      2  C1  UNL d   1      -0.043   0.463   2.100  0.00  0.00     0.062 A 
ATOM      3  C2  UNL d   1       0.596   0.428   0.863  0.00  0.00     0.162 A 
ATOM      4  C3  UNL d   1      -0.132   0.628  -0.310  0.00  0.00    -0.034 A 
ATOM      5  C4  UNL d   1      -1.506   0.860  -0.228  0.00  0.00     0.162 A 
ATOM      6  C5  UNL d   1      -2.139   0.894   1.010  0.00  0.00     0.062 A 
ATOM      7  F   UNL d   1      -3.459   1.120   1.080  0.00  0.00    -0.097 F 
ATOM      8  F1  UNL d   1      -2.235   1.056  -1.336  0.00  0.00    -0.096 F 
ATOM      9  I   UNL d   1       0.819   0.576  -2.161  0.00  0.00    -0.060 I 
ATOM     10  F2  UNL d   1       1.917   0.201   0.822  0.00  0.00    -0.096 F 
ATOM     11  F3  UNL d   1       0.665   0.270   3.222  0.00  0.00    -0.097 F 
ATOM     12  F4  UNL d   1      -2.021   0.728   3.365  0.00  0.00    -0.092 F 
ENDROOT
TORSDOF 0
ENDMDL
