MODEL 1
REMARK minimizedAffinity 5.58021641
REMARK minimizedRMSD -1
REMARK  0 active torsions:
REMARK  status: ('A' for Active; 'I' for Inactive)
ROOT
ATOM      1  C   UNL d   1       0.267   0.527  -0.162  0.00  0.00     0.124 A 
ATOM      2  C1  UNL d   1      -1.027   0.610  -0.657  0.00  0.00     0.062 A 
ATOM      3  C2  UNL d   1      -2.081   0.940   0.190  0.00  0.00     0.162 A 
ATOM      4  C3  UNL d   1      -1.846   1.190   1.542  0.00  0.00    -0.034 A 
ATOM      5  C4  UNL d   1      -0.542   1.103   2.033  0.00  0.00     0.162 A 
ATOM      6  C5  UNL d   1       0.508   0.774   1.182  0.00  0.00     0.062 A 
ATOM      7  F   UNL d   1       1.758   0.694   1.663  0.00  0.00    -0.097 F 
ATOM      8  F1  UNL d   1      -0.280   1.338   3.327  0.00  0.00    -0.096 F 
ATOM      9  I   UNL d   1      -3.419   1.683   2.812  0.00  0.00    -0.060 I 
ATOM     10  F2  UNL d   1      -3.321   1.013  -0.316  0.00  0.00    -0.096 F 
ATOM     11  F3  UNL d   1      -1.263   0.371  -1.955  0.00  0.00    -0.097 F 
ATOM     12  F4  UNL d   1       1.279   0.208  -0.979  0.00  0.00    -0.092 F 
ENDROOT
TORSDOF 0
ENDMDL
