MODEL 1
REMARK minimizedAffinity -0.987764835
REMARK minimizedRMSD -1
REMARK  0 active torsions:
REMARK  status: ('A' for Active; 'I' for Inactive)
ROOT
ATOM      1  C   UNL d   1      -1.580   0.659   2.935  0.00  0.00     0.124 A 
ATOM      2  C1  UNL d   1      -2.440   0.705   1.848  0.00  0.00     0.062 A 
ATOM      3  C2  UNL d   1      -1.944   0.564   0.555  0.00  0.00     0.162 A 
ATOM      4  C3  UNL d   1      -0.578   0.374   0.343  0.00  0.00    -0.034 A 
ATOM      5  C4  UNL d   1       0.282   0.329   1.442  0.00  0.00     0.162 A 
ATOM      6  C5  UNL d   1      -0.220   0.471   2.732  0.00  0.00     0.062 A 
ATOM      7  F   UNL d   1       0.614   0.426   3.781  0.00  0.00    -0.097 F 
ATOM      8  F1  UNL d   1       1.600   0.149   1.274  0.00  0.00    -0.096 F 
ATOM      9  I   UNL d   1       0.169   0.163  -1.588  0.00  0.00    -0.060 I 
ATOM     10  F2  UNL d   1      -2.799   0.612  -0.477  0.00  0.00    -0.096 F 
ATOM     11  F3  UNL d   1      -3.755   0.887   2.042  0.00  0.00    -0.097 F 
ATOM     12  F4  UNL d   1      -2.060   0.796   4.178  0.00  0.00    -0.092 F 
ENDROOT
TORSDOF 0
ENDMDL
