MODEL 1
REMARK minimizedAffinity 2.77790499
REMARK minimizedRMSD -1
REMARK  0 active torsions:
REMARK  status: ('A' for Active; 'I' for Inactive)
ROOT
ATOM      1  C   UNL d   1      -0.411   1.514  -0.510  0.00  0.00     0.124 A 
ATOM      2  C1  UNL d   1       0.615   1.336   0.408  0.00  0.00     0.062 A 
ATOM      3  C2  UNL d   1       0.451   0.464   1.480  0.00  0.00     0.162 A 
ATOM      4  C3  UNL d   1      -0.743  -0.239   1.640  0.00  0.00    -0.034 A 
ATOM      5  C4  UNL d   1      -1.770  -0.054   0.713  0.00  0.00     0.162 A 
ATOM      6  C5  UNL d   1      -1.602   0.818  -0.357  0.00  0.00     0.062 A 
ATOM      7  F   UNL d   1      -2.594   0.989  -1.243  0.00  0.00    -0.097 F 
ATOM      8  F1  UNL d   1      -2.932  -0.714   0.837  0.00  0.00    -0.096 F 
ATOM      9  I   UNL d   1      -0.991  -1.544   3.242  0.00  0.00    -0.060 I 
ATOM     10  F2  UNL d   1       1.459   0.312   2.352  0.00  0.00    -0.096 F 
ATOM     11  F3  UNL d   1       1.766   2.007   0.263  0.00  0.00    -0.097 F 
ATOM     12  F4  UNL d   1      -0.251   2.354  -1.540  0.00  0.00    -0.092 F 
ENDROOT
TORSDOF 0
ENDMDL
