MODEL 1
REMARK minimizedAffinity 3.335706
REMARK minimizedRMSD -1
REMARK  0 active torsions:
REMARK  status: ('A' for Active; 'I' for Inactive)
ROOT
ATOM      1  C   UNL d   1      -0.995  -0.390   2.638  0.00  0.00     0.124 A 
ATOM      2  C1  UNL d   1       0.313  -0.037   2.337  0.00  0.00     0.062 A 
ATOM      3  C2  UNL d   1       0.671   0.274   1.028  0.00  0.00     0.162 A 
ATOM      4  C3  UNL d   1      -0.282   0.236   0.010  0.00  0.00    -0.034 A 
ATOM      5  C4  UNL d   1      -1.596  -0.121   0.321  0.00  0.00     0.162 A 
ATOM      6  C5  UNL d   1      -1.948  -0.431   1.631  0.00  0.00     0.062 A 
ATOM      7  F   UNL d   1      -3.212  -0.772   1.920  0.00  0.00    -0.097 F 
ATOM      8  F1  UNL d   1      -2.537  -0.167  -0.633  0.00  0.00    -0.096 F 
ATOM      9  I   UNL d   1       0.248   0.701  -1.948  0.00  0.00    -0.060 I 
ATOM     10  F2  UNL d   1       1.942   0.612   0.766  0.00  0.00    -0.096 F 
ATOM     11  F3  UNL d   1       1.237   0.002   3.308  0.00  0.00    -0.097 F 
ATOM     12  F4  UNL d   1      -1.335  -0.690   3.898  0.00  0.00    -0.092 F 
ENDROOT
TORSDOF 0
ENDMDL
