MODEL 1
REMARK minimizedAffinity -0.52110672
REMARK minimizedRMSD -1
REMARK  0 active torsions:
REMARK  status: ('A' for Active; 'I' for Inactive)
ROOT
ATOM      1  C   UNL d   1      -0.442   1.029  -0.278  0.00  0.00     0.124 A 
ATOM      2  C1  UNL d   1       0.409   0.915   0.813  0.00  0.00     0.062 A 
ATOM      3  C2  UNL d   1      -0.066   0.416   2.022  0.00  0.00     0.162 A 
ATOM      4  C3  UNL d   1      -1.400   0.026   2.147  0.00  0.00    -0.034 A 
ATOM      5  C4  UNL d   1      -2.249   0.144   1.046  0.00  0.00     0.162 A 
ATOM      6  C5  UNL d   1      -1.770   0.644  -0.161  0.00  0.00     0.062 A 
ATOM      7  F   UNL d   1      -2.593   0.753  -1.213  0.00  0.00    -0.097 F 
ATOM      8  F1  UNL d   1      -3.537  -0.222   1.131  0.00  0.00    -0.096 F 
ATOM      9  I   UNL d   1      -2.114  -0.721   3.953  0.00  0.00    -0.060 I 
ATOM     10  F2  UNL d   1       0.778   0.317   3.060  0.00  0.00    -0.096 F 
ATOM     11  F3  UNL d   1       1.692   1.288   0.702  0.00  0.00    -0.097 F 
ATOM     12  F4  UNL d   1       0.018   1.511  -1.440  0.00  0.00    -0.092 F 
ENDROOT
TORSDOF 0
ENDMDL
