MODEL 1
REMARK minimizedAffinity -2.57029915
REMARK minimizedRMSD -1
REMARK  0 active torsions:
REMARK  status: ('A' for Active; 'I' for Inactive)
ROOT
ATOM      1  C   UNL d   1      -1.854  -0.321   2.448  0.00  0.00     0.124 A 
ATOM      2  C1  UNL d   1      -2.377   0.107   1.235  0.00  0.00     0.062 A 
ATOM      3  C2  UNL d   1      -1.530   0.380   0.165  0.00  0.00     0.162 A 
ATOM      4  C3  UNL d   1      -0.150   0.225   0.302  0.00  0.00    -0.034 A 
ATOM      5  C4  UNL d   1       0.368  -0.205   1.525  0.00  0.00     0.162 A 
ATOM      6  C5  UNL d   1      -0.483  -0.477   2.592  0.00  0.00     0.062 A 
ATOM      7  F   UNL d   1       0.024  -0.891   3.762  0.00  0.00    -0.097 F 
ATOM      8  F1  UNL d   1       1.689  -0.365   1.691  0.00  0.00    -0.096 F 
ATOM      9  I   UNL d   1       1.120   0.632  -1.295  0.00  0.00    -0.060 I 
ATOM     10  F2  UNL d   1      -2.062   0.792  -0.995  0.00  0.00    -0.096 F 
ATOM     11  F3  UNL d   1      -3.702   0.259   1.094  0.00  0.00    -0.097 F 
ATOM     12  F4  UNL d   1      -2.672  -0.583   3.476  0.00  0.00    -0.092 F 
ENDROOT
TORSDOF 0
ENDMDL
