MODEL 1
REMARK minimizedAffinity -1.93571949
REMARK minimizedRMSD -1
REMARK  0 active torsions:
REMARK  status: ('A' for Active; 'I' for Inactive)
ROOT
ATOM      1  C   UNL d   1      -1.942  -0.555   2.478  0.00  0.00     0.124 A 
ATOM      2  C1  UNL d   1      -0.568  -0.754   2.464  0.00  0.00     0.062 A 
ATOM      3  C2  UNL d   1       0.162  -0.513   1.304  0.00  0.00     0.162 A 
ATOM      4  C3  UNL d   1      -0.480  -0.070   0.148  0.00  0.00    -0.034 A 
ATOM      5  C4  UNL d   1      -1.862   0.127   0.169  0.00  0.00     0.162 A 
ATOM      6  C5  UNL d   1      -2.587  -0.115   1.331  0.00  0.00     0.062 A 
ATOM      7  F   UNL d   1      -3.914   0.077   1.343  0.00  0.00    -0.097 F 
ATOM      8  F1  UNL d   1      -2.510   0.552  -0.925  0.00  0.00    -0.096 F 
ATOM      9  I   UNL d   1       0.609   0.291  -1.589  0.00  0.00    -0.060 I 
ATOM     10  F2  UNL d   1       1.488  -0.713   1.320  0.00  0.00    -0.096 F 
ATOM     11  F3  UNL d   1       0.057  -1.180   3.571  0.00  0.00    -0.097 F 
ATOM     12  F4  UNL d   1      -2.642  -0.789   3.596  0.00  0.00    -0.092 F 
ENDROOT
TORSDOF 0
ENDMDL
