MODEL 1
REMARK minimizedAffinity -0.225687221
REMARK minimizedRMSD -1
REMARK  0 active torsions:
REMARK  status: ('A' for Active; 'I' for Inactive)
ROOT
ATOM      1  C   UNL d   1      -0.548   0.193   2.829  0.00  0.00     0.124 A 
ATOM      2  C1  UNL d   1       0.599   0.940   2.595  0.00  0.00     0.062 A 
ATOM      3  C2  UNL d   1       1.191   0.937   1.336  0.00  0.00     0.162 A 
ATOM      4  C3  UNL d   1       0.637   0.186   0.299  0.00  0.00    -0.034 A 
ATOM      5  C4  UNL d   1      -0.516  -0.563   0.542  0.00  0.00     0.162 A 
ATOM      6  C5  UNL d   1      -1.104  -0.557   1.802  0.00  0.00     0.062 A 
ATOM      7  F   UNL d   1      -2.212  -1.279   2.026  0.00  0.00    -0.097 F 
ATOM      8  F1  UNL d   1      -1.075  -1.297  -0.432  0.00  0.00    -0.096 F 
ATOM      9  I   UNL d   1       1.520   0.179  -1.586  0.00  0.00    -0.060 I 
ATOM     10  F2  UNL d   1       2.299   1.667   1.138  0.00  0.00    -0.096 F 
ATOM     11  F3  UNL d   1       1.138   1.665   3.585  0.00  0.00    -0.097 F 
ATOM     12  F4  UNL d   1      -1.115   0.197   4.042  0.00  0.00    -0.092 F 
ENDROOT
TORSDOF 0
ENDMDL
