MODEL 1
REMARK minimizedAffinity -2.00974917
REMARK minimizedRMSD -1
REMARK  0 active torsions:
REMARK  status: ('A' for Active; 'I' for Inactive)
ROOT
ATOM      1  C   UNL d   1      -1.556  -0.332   2.058  0.00  0.00     0.124 A 
ATOM      2  C1  UNL d   1      -2.096   0.353   0.979  0.00  0.00     0.062 A 
ATOM      3  C2  UNL d   1      -1.402   0.421  -0.226  0.00  0.00     0.162 A 
ATOM      4  C3  UNL d   1      -0.159  -0.198  -0.358  0.00  0.00    -0.034 A 
ATOM      5  C4  UNL d   1       0.378  -0.885   0.732  0.00  0.00     0.162 A 
ATOM      6  C5  UNL d   1      -0.320  -0.950   1.934  0.00  0.00     0.062 A 
ATOM      7  F   UNL d   1       0.204  -1.612   2.976  0.00  0.00    -0.097 F 
ATOM      8  F1  UNL d   1       1.570  -1.492   0.640  0.00  0.00    -0.096 F 
ATOM      9  I   UNL d   1       0.882  -0.099  -2.157  0.00  0.00    -0.060 I 
ATOM     10  F2  UNL d   1      -1.948   1.090  -1.252  0.00  0.00    -0.096 F 
ATOM     11  F3  UNL d   1      -3.290   0.952   1.096  0.00  0.00    -0.097 F 
ATOM     12  F4  UNL d   1      -2.225  -0.395   3.216  0.00  0.00    -0.092 F 
ENDROOT
TORSDOF 0
ENDMDL
