MODEL 1
REMARK minimizedAffinity 1.09661448
REMARK minimizedRMSD -1
REMARK  0 active torsions:
REMARK  status: ('A' for Active; 'I' for Inactive)
ROOT
ATOM      1  C   UNL d   1      -1.280  -0.129   2.326  0.00  0.00     0.124 A 
ATOM      2  C1  UNL d   1      -2.067   0.108   1.207  0.00  0.00     0.062 A 
ATOM      3  C2  UNL d   1      -1.477   0.252  -0.046  0.00  0.00     0.162 A 
ATOM      4  C3  UNL d   1      -0.092   0.158  -0.187  0.00  0.00    -0.034 A 
ATOM      5  C4  UNL d   1       0.692  -0.080   0.943  0.00  0.00     0.162 A 
ATOM      6  C5  UNL d   1       0.098  -0.223   2.193  0.00  0.00     0.062 A 
ATOM      7  F   UNL d   1       0.860  -0.451   3.273  0.00  0.00    -0.097 F 
ATOM      8  F1  UNL d   1       2.027  -0.175   0.843  0.00  0.00    -0.096 F 
ATOM      9  I   UNL d   1       0.793   0.372  -2.058  0.00  0.00    -0.060 I 
ATOM     10  F2  UNL d   1      -2.262   0.480  -1.109  0.00  0.00    -0.096 F 
ATOM     11  F3  UNL d   1      -3.398   0.199   1.333  0.00  0.00    -0.097 F 
ATOM     12  F4  UNL d   1      -1.850  -0.266   3.530  0.00  0.00    -0.092 F 
ENDROOT
TORSDOF 0
ENDMDL
