MODEL 1
REMARK minimizedAffinity 5.47916651
REMARK minimizedRMSD -1
REMARK  1 active torsions:
REMARK  status: ('A' for Active; 'I' for Inactive)
REMARK    1  A    between atoms: C3_4  and  O_7 
ROOT
ATOM      1  C   UNL d   1       4.153   1.555   0.271  0.00  0.00    -0.033 A 
ATOM      2  C1  UNL d   1       2.943   1.056  -0.214  0.00  0.00     0.039 A 
ATOM      3  C2  UNL d   1       2.497  -0.207   0.182  0.00  0.00    -0.080 A 
ATOM      4  C3  UNL d   1       3.269  -0.959   1.063  0.00  0.00     0.150 A 
ATOM      5  C4  UNL d   1       4.474  -0.466   1.554  0.00  0.00    -0.007 A 
ATOM      6  C5  UNL d   1       4.917   0.795   1.157  0.00  0.00     0.039 A 
ENDROOT
BRANCH   4   7
ATOM      7  O   UNL d   1       2.878  -2.198   1.475  0.00  0.00    -0.526 OA
ATOM      8  H5  UNL d   1       2.042  -2.419   1.032  0.00  0.00     0.418 HD
ENDBRANCH   4   7
TORSDOF 1
ENDMDL
