MODEL 1
REMARK minimizedAffinity 3.15704012
REMARK minimizedRMSD -1
REMARK  1 active torsions:
REMARK  status: ('A' for Active; 'I' for Inactive)
REMARK    1  A    between atoms: C3_4  and  O_7 
ROOT
ATOM      1  C   UNL d   1      -5.712   5.903   4.045  0.00  0.00    -0.033 A 
ATOM      2  C1  UNL d   1      -5.620   5.741   5.429  0.00  0.00     0.039 A 
ATOM      3  C2  UNL d   1      -5.711   4.466   5.992  0.00  0.00    -0.080 A 
ATOM      4  C3  UNL d   1      -5.892   3.364   5.161  0.00  0.00     0.150 A 
ATOM      5  C4  UNL d   1      -5.980   3.518   3.781  0.00  0.00    -0.007 A 
ATOM      6  C5  UNL d   1      -5.890   4.792   3.221  0.00  0.00     0.039 A 
ENDROOT
BRANCH   4   7
ATOM      7  O   UNL d   1      -5.990   2.101   5.664  0.00  0.00    -0.526 OA
ATOM      8  H5  UNL d   1      -5.941   2.151   6.633  0.00  0.00     0.418 HD
ENDBRANCH   4   7
TORSDOF 1
ENDMDL
