MODEL 1
REMARK minimizedAffinity 12.1927366
REMARK minimizedRMSD -1
REMARK  1 active torsions:
REMARK  status: ('A' for Active; 'I' for Inactive)
REMARK    1  A    between atoms: C3_4  and  O_7 
ROOT
ATOM      1  C   UNL d   1       2.003   0.080   0.870  0.00  0.00    -0.033 A 
ATOM      2  C1  UNL d   1       3.343   0.083   1.263  0.00  0.00     0.039 A 
ATOM      3  C2  UNL d   1       4.220   1.041   0.752  0.00  0.00    -0.080 A 
ATOM      4  C3  UNL d   1       3.746   1.991  -0.148  0.00  0.00     0.150 A 
ATOM      5  C4  UNL d   1       2.411   1.997  -0.541  0.00  0.00    -0.007 A 
ATOM      6  C5  UNL d   1       1.537   1.038  -0.031  0.00  0.00     0.039 A 
ENDROOT
BRANCH   4   7
ATOM      7  O   UNL d   1       4.565   2.944  -0.677  0.00  0.00    -0.526 OA
ATOM      8  H5  UNL d   1       5.464   2.799  -0.338  0.00  0.00     0.418 HD
ENDBRANCH   4   7
TORSDOF 1
ENDMDL
