MODEL 1
REMARK minimizedAffinity 7.89458704
REMARK minimizedRMSD -1
REMARK  1 active torsions:
REMARK  status: ('A' for Active; 'I' for Inactive)
REMARK    1  A    between atoms: C3_4  and  O_7 
ROOT
ATOM      1  C   UNL d   1       4.056   2.651  -1.504  0.00  0.00    -0.033 A 
ATOM      2  C1  UNL d   1       3.390   1.608  -0.856  0.00  0.00     0.039 A 
ATOM      3  C2  UNL d   1       4.030   0.893   0.158  0.00  0.00    -0.080 A 
ATOM      4  C3  UNL d   1       5.332   1.230   0.515  0.00  0.00     0.150 A 
ATOM      5  C4  UNL d   1       6.000   2.270  -0.124  0.00  0.00    -0.007 A 
ATOM      6  C5  UNL d   1       5.360   2.982  -1.137  0.00  0.00     0.039 A 
ENDROOT
BRANCH   4   7
ATOM      7  O   UNL d   1       5.999   0.557   1.495  0.00  0.00    -0.526 OA
ATOM      8  H5  UNL d   1       5.424  -0.153   1.827  0.00  0.00     0.418 HD
ENDBRANCH   4   7
TORSDOF 1
ENDMDL
