MODEL 1
REMARK minimizedAffinity 6.49412012
REMARK minimizedRMSD -1
REMARK  1 active torsions:
REMARK  status: ('A' for Active; 'I' for Inactive)
REMARK    1  A    between atoms: C3_4  and  O_7 
ROOT
ATOM      1  C   UNL d   1       2.672   2.018   3.175  0.00  0.00    -0.033 A 
ATOM      2  C1  UNL d   1       2.119   2.373   4.407  0.00  0.00     0.039 A 
ATOM      3  C2  UNL d   1       2.756   3.320   5.212  0.00  0.00    -0.080 A 
ATOM      4  C3  UNL d   1       3.941   3.904   4.774  0.00  0.00     0.150 A 
ATOM      5  C4  UNL d   1       4.495   3.557   3.545  0.00  0.00    -0.007 A 
ATOM      6  C5  UNL d   1       3.858   2.611   2.743  0.00  0.00     0.039 A 
ENDROOT
BRANCH   4   7
ATOM      7  O   UNL d   1       4.601   4.829   5.527  0.00  0.00    -0.526 OA
ATOM      8  H5  UNL d   1       4.118   4.948   6.361  0.00  0.00     0.418 HD
ENDBRANCH   4   7
TORSDOF 1
ENDMDL
