MODEL 1
REMARK minimizedAffinity 9.12624359
REMARK minimizedRMSD -1
REMARK  1 active torsions:
REMARK  status: ('A' for Active; 'I' for Inactive)
REMARK    1  A    between atoms: C3_4  and  O_7 
ROOT
ATOM      1  C   UNL d   1       2.586   0.735  -0.233  0.00  0.00    -0.033 A 
ATOM      2  C1  UNL d   1       3.624   1.600   0.121  0.00  0.00     0.039 A 
ATOM      3  C2  UNL d   1       4.782   1.097   0.717  0.00  0.00    -0.080 A 
ATOM      4  C3  UNL d   1       4.891  -0.271   0.951  0.00  0.00     0.150 A 
ATOM      5  C4  UNL d   1       3.863  -1.139   0.597  0.00  0.00    -0.007 A 
ATOM      6  C5  UNL d   1       2.707  -0.635   0.003  0.00  0.00     0.039 A 
ENDROOT
BRANCH   4   7
ATOM      7  O   UNL d   1       6.000  -0.808   1.534  0.00  0.00    -0.526 OA
ATOM      8  H5  UNL d   1       6.614  -0.087   1.751  0.00  0.00     0.418 HD
ENDBRANCH   4   7
TORSDOF 1
ENDMDL
