MODEL 1
REMARK minimizedAffinity -0.114054963
REMARK minimizedRMSD -1
REMARK  1 active torsions:
REMARK  status: ('A' for Active; 'I' for Inactive)
REMARK    1  A    between atoms: C3_4  and  O_7 
ROOT
ATOM      1  C   UNL d   1       4.105   1.729  -1.449  0.00  0.00    -0.033 A 
ATOM      2  C1  UNL d   1       3.490   1.376  -0.247  0.00  0.00     0.039 A 
ATOM      3  C2  UNL d   1       4.041   1.787   0.968  0.00  0.00    -0.080 A 
ATOM      4  C3  UNL d   1       5.206   2.550   0.967  0.00  0.00     0.150 A 
ATOM      5  C4  UNL d   1       5.822   2.908  -0.228  0.00  0.00    -0.007 A 
ATOM      6  C5  UNL d   1       5.270   2.496  -1.440  0.00  0.00     0.039 A 
ENDROOT
BRANCH   4   7
ATOM      7  O   UNL d   1       5.784   2.970   2.128  0.00  0.00    -0.526 OA
ATOM      8  H5  UNL d   1       5.265   2.624   2.873  0.00  0.00     0.418 HD
ENDBRANCH   4   7
TORSDOF 1
ENDMDL
