MODEL 1
REMARK minimizedAffinity 4.29189968
REMARK minimizedRMSD -1
REMARK  1 active torsions:
REMARK  status: ('A' for Active; 'I' for Inactive)
REMARK    1  A    between atoms: C3_4  and  O_7 
ROOT
ATOM      1  C   UNL d   1       2.336   0.230  -0.996  0.00  0.00    -0.033 A 
ATOM      2  C1  UNL d   1       3.241   1.174  -1.484  0.00  0.00     0.039 A 
ATOM      3  C2  UNL d   1       4.028   1.913  -0.599  0.00  0.00    -0.080 A 
ATOM      4  C3  UNL d   1       3.901   1.698   0.770  0.00  0.00     0.150 A 
ATOM      5  C4  UNL d   1       3.004   0.756   1.264  0.00  0.00    -0.007 A 
ATOM      6  C5  UNL d   1       2.218   0.020   0.379  0.00  0.00     0.039 A 
ENDROOT
BRANCH   4   7
ATOM      7  O   UNL d   1       4.645   2.398   1.674  0.00  0.00    -0.526 OA
ATOM      8  H5  UNL d   1       5.199   3.033   1.190  0.00  0.00     0.418 HD
ENDBRANCH   4   7
TORSDOF 1
ENDMDL
