MODEL 1
REMARK minimizedAffinity 9.02270412
REMARK minimizedRMSD -1
REMARK  1 active torsions:
REMARK  status: ('A' for Active; 'I' for Inactive)
REMARK    1  A    between atoms: C3_4  and  O_7 
ROOT
ATOM      1  C   UNL d   1       6.000   2.691  -0.276  0.00  0.00    -0.033 A 
ATOM      2  C1  UNL d   1       5.408   2.425  -1.512  0.00  0.00     0.039 A 
ATOM      3  C2  UNL d   1       4.122   1.883  -1.571  0.00  0.00    -0.080 A 
ATOM      4  C3  UNL d   1       3.441   1.613  -0.387  0.00  0.00     0.150 A 
ATOM      5  C4  UNL d   1       4.023   1.879   0.848  0.00  0.00    -0.007 A 
ATOM      6  C5  UNL d   1       5.307   2.419   0.904  0.00  0.00     0.039 A 
ENDROOT
BRANCH   4   7
ATOM      7  O   UNL d   1       2.186   1.079  -0.394  0.00  0.00    -0.526 OA
ATOM      8  H5  UNL d   1       1.923   0.922  -1.316  0.00  0.00     0.418 HD
ENDBRANCH   4   7
TORSDOF 1
ENDMDL
