MODEL 1
REMARK minimizedAffinity -4.13551331
REMARK minimizedRMSD -1
REMARK  1 active torsions:
REMARK  status: ('A' for Active; 'I' for Inactive)
REMARK    1  A    between atoms: C3_4  and  O_7 
ROOT
ATOM      1  C   UNL d   1       0.649  -1.171  -0.167  0.00  0.00    -0.033 A 
ATOM      2  C1  UNL d   1       1.834  -1.840  -0.478  0.00  0.00     0.039 A 
ATOM      3  C2  UNL d   1       2.998  -1.116  -0.743  0.00  0.00    -0.080 A 
ATOM      4  C3  UNL d   1       2.963   0.275  -0.693  0.00  0.00     0.150 A 
ATOM      5  C4  UNL d   1       1.787   0.948  -0.380  0.00  0.00    -0.007 A 
ATOM      6  C5  UNL d   1       0.626   0.223  -0.117  0.00  0.00     0.039 A 
ENDROOT
BRANCH   4   7
ATOM      7  O   UNL d   1       4.073   1.025  -0.949  0.00  0.00    -0.526 OA
ATOM      8  H5  UNL d   1       4.803   0.426  -1.178  0.00  0.00     0.418 HD
ENDBRANCH   4   7
TORSDOF 1
ENDMDL
