MODEL 1
REMARK minimizedAffinity -0.553394198
REMARK minimizedRMSD -1
REMARK  0 active torsions:
REMARK  status: ('A' for Active; 'I' for Inactive)
ROOT
ATOM      1  C   UNL d   1       1.086  -2.546   4.325  0.00  0.00     0.078 C 
ATOM      2  C1  UNL d   1       0.515  -1.641   3.274  0.00  0.00    -0.077 A 
ATOM      3  C2  UNL d   1       1.328  -0.735   2.582  0.00  0.00    -0.001 A 
ATOM      4  C3  UNL d   1       0.781   0.107   1.613  0.00  0.00     0.003 A 
ATOM      5  C4  UNL d   1      -0.582   0.053   1.328  0.00  0.00    -0.005 A 
ATOM      6  C5  UNL d   1      -1.400  -0.843   2.013  0.00  0.00     0.003 A 
ATOM      7  C6  UNL d   1      -0.854  -1.687   2.982  0.00  0.00    -0.001 A 
ENDROOT
TORSDOF 0
ENDMDL
