MODEL 1
REMARK minimizedAffinity -0.918302894
REMARK minimizedRMSD -1
REMARK  0 active torsions:
REMARK  status: ('A' for Active; 'I' for Inactive)
ROOT
ATOM      1  C   UNL d   1       2.787  -1.050   2.286  0.00  0.00     0.078 C 
ATOM      2  C1  UNL d   1       1.312  -0.804   2.394  0.00  0.00    -0.077 A 
ATOM      3  C2  UNL d   1       0.567  -1.337   3.453  0.00  0.00    -0.001 A 
ATOM      4  C3  UNL d   1      -0.807  -1.108   3.536  0.00  0.00     0.003 A 
ATOM      5  C4  UNL d   1      -1.449  -0.346   2.562  0.00  0.00    -0.005 A 
ATOM      6  C5  UNL d   1      -0.717   0.187   1.503  0.00  0.00     0.003 A 
ATOM      7  C6  UNL d   1       0.657  -0.041   1.419  0.00  0.00    -0.001 A 
ENDROOT
TORSDOF 0
ENDMDL
