MODEL 1
REMARK minimizedAffinity 2.10685325
REMARK minimizedRMSD -1
REMARK  0 active torsions:
REMARK  status: ('A' for Active; 'I' for Inactive)
ROOT
ATOM      1  C   UNL d   1       1.200  -1.990   3.687  0.00  0.00     0.078 C 
ATOM      2  C1  UNL d   1      -0.028  -1.414   3.049  0.00  0.00    -0.077 A 
ATOM      3  C2  UNL d   1      -0.051  -0.089   2.595  0.00  0.00    -0.001 A 
ATOM      4  C3  UNL d   1      -1.205   0.437   2.011  0.00  0.00     0.003 A 
ATOM      5  C4  UNL d   1      -2.344  -0.354   1.876  0.00  0.00    -0.005 A 
ATOM      6  C5  UNL d   1      -2.331  -1.673   2.327  0.00  0.00     0.003 A 
ATOM      7  C6  UNL d   1      -1.179  -2.200   2.911  0.00  0.00    -0.001 A 
ENDROOT
TORSDOF 0
ENDMDL
