MODEL 1
REMARK minimizedAffinity -1.67125237
REMARK minimizedRMSD -1
REMARK  0 active torsions:
REMARK  status: ('A' for Active; 'I' for Inactive)
ROOT
ATOM      1  C   UNL d   1       1.386  -1.810   4.777  0.00  0.00     0.078 C 
ATOM      2  C1  UNL d   1       0.075  -1.529   4.107  0.00  0.00    -0.077 A 
ATOM      3  C2  UNL d   1      -1.053  -2.317   4.370  0.00  0.00    -0.001 A 
ATOM      4  C3  UNL d   1      -2.265  -2.050   3.731  0.00  0.00     0.003 A 
ATOM      5  C4  UNL d   1      -2.361  -0.995   2.825  0.00  0.00    -0.005 A 
ATOM      6  C5  UNL d   1      -1.244  -0.208   2.555  0.00  0.00     0.003 A 
ATOM      7  C6  UNL d   1      -0.031  -0.473   3.193  0.00  0.00    -0.001 A 
ENDROOT
TORSDOF 0
ENDMDL
