MODEL 1
REMARK minimizedAffinity 3.10621643
REMARK minimizedRMSD -1
REMARK  0 active torsions:
REMARK  status: ('A' for Active; 'I' for Inactive)
ROOT
ATOM      1  C   UNL d   1      -0.456  -0.723   2.058  0.00  0.00     0.078 C 
ATOM      2  C1  UNL d   1       0.618  -1.042   3.055  0.00  0.00    -0.077 A 
ATOM      3  C2  UNL d   1       0.439  -2.053   4.008  0.00  0.00    -0.001 A 
ATOM      4  C3  UNL d   1       1.443  -2.332   4.937  0.00  0.00     0.003 A 
ATOM      5  C4  UNL d   1       2.632  -1.605   4.922  0.00  0.00    -0.005 A 
ATOM      6  C5  UNL d   1       2.817  -0.596   3.980  0.00  0.00     0.003 A 
ATOM      7  C6  UNL d   1       1.815  -0.315   3.050  0.00  0.00    -0.001 A 
ENDROOT
TORSDOF 0
ENDMDL
