MODEL 1
REMARK minimizedAffinity -2.19694161
REMARK minimizedRMSD -1
REMARK  0 active torsions:
REMARK  status: ('A' for Active; 'I' for Inactive)
ROOT
ATOM      1  C   UNL d   1       1.242  -1.881   3.851  0.00  0.00     0.078 C 
ATOM      2  C1  UNL d   1       0.037  -1.458   3.065  0.00  0.00    -0.077 A 
ATOM      3  C2  UNL d   1      -1.149  -2.201   3.107  0.00  0.00    -0.001 A 
ATOM      4  C3  UNL d   1      -2.259  -1.800   2.363  0.00  0.00     0.003 A 
ATOM      5  C4  UNL d   1      -2.195  -0.655   1.571  0.00  0.00    -0.005 A 
ATOM      6  C5  UNL d   1      -1.018   0.089   1.521  0.00  0.00     0.003 A 
ATOM      7  C6  UNL d   1       0.093  -0.310   2.265  0.00  0.00    -0.001 A 
ENDROOT
TORSDOF 0
ENDMDL
