MODEL 1
REMARK minimizedAffinity 1.15896332
REMARK minimizedRMSD -1
REMARK  0 active torsions:
REMARK  status: ('A' for Active; 'I' for Inactive)
ROOT
ATOM      1  C   UNL d   1       0.591  -4.036  -1.838  0.00  0.00     0.078 C 
ATOM      2  C1  UNL d   1       0.561  -4.711  -3.177  0.00  0.00    -0.077 A 
ATOM      3  C2  UNL d   1      -0.603  -4.716  -3.956  0.00  0.00    -0.001 A 
ATOM      4  C3  UNL d   1      -0.620  -5.356  -5.196  0.00  0.00     0.003 A 
ATOM      5  C4  UNL d   1       0.524  -5.997  -5.668  0.00  0.00    -0.005 A 
ATOM      6  C5  UNL d   1       1.686  -5.999  -4.899  0.00  0.00     0.003 A 
ATOM      7  C6  UNL d   1       1.704  -5.360  -3.659  0.00  0.00    -0.001 A 
ENDROOT
TORSDOF 0
ENDMDL
