MODEL 1
REMARK minimizedAffinity 0.0787555799
REMARK minimizedRMSD -1
REMARK  0 active torsions:
REMARK  status: ('A' for Active; 'I' for Inactive)
ROOT
ATOM      1  C   UNL d   1       1.645  -1.102   2.634  0.00  0.00     0.078 C 
ATOM      2  C1  UNL d   1       2.606   0.008   2.941  0.00  0.00    -0.077 A 
ATOM      3  C2  UNL d   1       3.296   0.048   4.159  0.00  0.00    -0.001 A 
ATOM      4  C3  UNL d   1       4.180   1.092   4.435  0.00  0.00     0.003 A 
ATOM      5  C4  UNL d   1       4.381   2.105   3.498  0.00  0.00    -0.005 A 
ATOM      6  C5  UNL d   1       3.697   2.074   2.285  0.00  0.00     0.003 A 
ATOM      7  C6  UNL d   1       2.813   1.030   2.007  0.00  0.00    -0.001 A 
ENDROOT
TORSDOF 0
ENDMDL
