MODEL 1
REMARK minimizedAffinity 3.18460274
REMARK minimizedRMSD -1
REMARK  0 active torsions:
REMARK  status: ('A' for Active; 'I' for Inactive)
ROOT
ATOM      1  C   UNL d   1      -1.415   0.669   1.346  0.00  0.00     0.078 C 
ATOM      2  C1  UNL d   1      -0.367  -0.019   2.169  0.00  0.00    -0.077 A 
ATOM      3  C2  UNL d   1      -0.510  -0.151   3.556  0.00  0.00    -0.001 A 
ATOM      4  C3  UNL d   1       0.478  -0.785   4.310  0.00  0.00     0.003 A 
ATOM      5  C4  UNL d   1       1.617  -1.292   3.687  0.00  0.00    -0.005 A 
ATOM      6  C5  UNL d   1       1.769  -1.164   2.308  0.00  0.00     0.003 A 
ATOM      7  C6  UNL d   1       0.782  -0.530   1.552  0.00  0.00    -0.001 A 
ENDROOT
TORSDOF 0
ENDMDL
