MODEL 1
REMARK minimizedAffinity -5.6979022
REMARK minimizedRMSD -1
REMARK  0 active torsions:
REMARK  status: ('A' for Active; 'I' for Inactive)
ROOT
ATOM      1  C1  DEN d   1       1.094  -0.328   0.317  0.00  0.00     0.130 A 
ATOM      2  C2  DEN d   1       0.874   1.065  -0.065  0.00  0.00    -0.031 A 
ATOM      3  C3  DEN d   1      -0.533   1.402   0.229  0.00  0.00     0.027 A 
ATOM      4  C4  DEN d   1      -2.382  -0.087   1.236  0.00  0.00     0.027 A 
ATOM      5  C5  DEN d   1      -2.676  -1.347   1.710  0.00  0.00    -0.003 A 
ATOM      6  C6  DEN d   1      -1.750  -2.357   1.720  0.00  0.00     0.001 A 
ATOM      7  C7  DEN d   1      -0.473  -2.111   1.290  0.00  0.00     0.017 A 
ATOM      8  C8  DEN d   1      -0.172  -0.846   0.805  0.00  0.00    -0.094 A 
ATOM      9  C9  DEN d   1      -1.118   0.165   0.813  0.00  0.00    -0.072 A 
ENDROOT
TORSDOF 0
ENDMDL
