MODEL 1
REMARK minimizedAffinity -6.65382671
REMARK minimizedRMSD -1
REMARK  0 active torsions:
REMARK  status: ('A' for Active; 'I' for Inactive)
ROOT
ATOM      1  C1  DEN d   1      -2.846  -0.812   1.644  0.00  0.00     0.130 A 
ATOM      2  C2  DEN d   1      -2.535  -2.238   1.605  0.00  0.00    -0.031 A 
ATOM      3  C3  DEN d   1      -1.172  -2.393   1.057  0.00  0.00     0.027 A 
ATOM      4  C4  DEN d   1       0.479  -0.572   0.277  0.00  0.00     0.027 A 
ATOM      5  C5  DEN d   1       0.659   0.784   0.109  0.00  0.00    -0.003 A 
ATOM      6  C6  DEN d   1      -0.322   1.692   0.407  0.00  0.00     0.001 A 
ATOM      7  C7  DEN d   1      -1.511   1.260   0.931  0.00  0.00     0.017 A 
ATOM      8  C8  DEN d   1      -1.702  -0.105   1.096  0.00  0.00    -0.094 A 
ATOM      9  C9  DEN d   1      -0.694  -1.007   0.801  0.00  0.00    -0.072 A 
ENDROOT
TORSDOF 0
ENDMDL
