MODEL 1
REMARK minimizedAffinity -0.753873169
REMARK minimizedRMSD -1
REMARK  0 active torsions:
REMARK  status: ('A' for Active; 'I' for Inactive)
ROOT
ATOM      1  C1  DEN d   1       1.436   0.471  -0.593  0.00  0.00     0.130 A 
ATOM      2  C2  DEN d   1       0.635   1.685  -0.454  0.00  0.00    -0.031 A 
ATOM      3  C3  DEN d   1      -0.648   1.316   0.176  0.00  0.00     0.027 A 
ATOM      4  C4  DEN d   1      -1.467  -1.004   0.952  0.00  0.00     0.027 A 
ATOM      5  C5  DEN d   1      -1.141  -2.340   1.032  0.00  0.00    -0.003 A 
ATOM      6  C6  DEN d   1       0.041  -2.834   0.550  0.00  0.00     0.001 A 
ATOM      7  C7  DEN d   1       0.963  -1.978   0.005  0.00  0.00     0.017 A 
ATOM      8  C8  DEN d   1       0.639  -0.631  -0.086  0.00  0.00    -0.094 A 
ATOM      9  C9  DEN d   1      -0.557  -0.149   0.419  0.00  0.00    -0.072 A 
ENDROOT
TORSDOF 0
ENDMDL
