MODEL 1
REMARK minimizedAffinity -3.94137907
REMARK minimizedRMSD -1
REMARK  0 active torsions:
REMARK  status: ('A' for Active; 'I' for Inactive)
ROOT
ATOM      1  C1  DEN d   1      -2.026  -1.015   2.293  0.00  0.00     0.130 A 
ATOM      2  C2  DEN d   1      -2.544   0.349   2.227  0.00  0.00    -0.031 A 
ATOM      3  C3  DEN d   1      -1.730   1.100   1.251  0.00  0.00     0.027 A 
ATOM      4  C4  DEN d   1       0.269   0.287  -0.162  0.00  0.00     0.027 A 
ATOM      5  C5  DEN d   1       1.082  -0.789  -0.441  0.00  0.00    -0.003 A 
ATOM      6  C6  DEN d   1       0.939  -1.996   0.191  0.00  0.00     0.001 A 
ATOM      7  C7  DEN d   1      -0.069  -2.170   1.102  0.00  0.00     0.017 A 
ATOM      8  C8  DEN d   1      -0.888  -1.087   1.394  0.00  0.00    -0.094 A 
ATOM      9  C9  DEN d   1      -0.735   0.121   0.736  0.00  0.00    -0.072 A 
ENDROOT
TORSDOF 0
ENDMDL
