MODEL 1
REMARK minimizedAffinity -4.00021887
REMARK minimizedRMSD -1
REMARK  0 active torsions:
REMARK  status: ('A' for Active; 'I' for Inactive)
ROOT
ATOM      1  C1  DEN d   1      -0.901  -2.650   1.255  0.00  0.00     0.130 A 
ATOM      2  C2  DEN d   1      -2.159  -2.398   1.952  0.00  0.00    -0.031 A 
ATOM      3  C3  DEN d   1      -2.459  -0.956   1.847  0.00  0.00     0.027 A 
ATOM      4  C4  DEN d   1      -1.106   0.901   0.675  0.00  0.00     0.027 A 
ATOM      5  C5  DEN d   1       0.037   1.174  -0.044  0.00  0.00    -0.003 A 
ATOM      6  C6  DEN d   1       0.957   0.206  -0.348  0.00  0.00     0.001 A 
ATOM      7  C7  DEN d   1       0.727  -1.091   0.030  0.00  0.00     0.017 A 
ATOM      8  C8  DEN d   1      -0.419  -1.372   0.761  0.00  0.00    -0.094 A 
ATOM      9  C9  DEN d   1      -1.343  -0.382   1.047  0.00  0.00    -0.072 A 
ENDROOT
TORSDOF 0
ENDMDL
