MODEL 1
REMARK minimizedAffinity -2.74182105
REMARK minimizedRMSD -1
REMARK  0 active torsions:
REMARK  status: ('A' for Active; 'I' for Inactive)
ROOT
ATOM      1  C1  DEN d   1      -0.360   0.400  -0.506  0.00  0.00     0.130 A 
ATOM      2  C2  DEN d   1       0.419   0.088   0.689  0.00  0.00    -0.031 A 
ATOM      3  C3  DEN d   1       1.765   0.673   0.523  0.00  0.00     0.027 A 
ATOM      4  C4  DEN d   1       2.711   2.028  -1.457  0.00  0.00     0.027 A 
ATOM      5  C5  DEN d   1       2.429   2.539  -2.705  0.00  0.00    -0.003 A 
ATOM      6  C6  DEN d   1       1.219   2.345  -3.316  0.00  0.00     0.001 A 
ATOM      7  C7  DEN d   1       0.229   1.660  -2.662  0.00  0.00     0.017 A 
ATOM      8  C8  DEN d   1       0.509   1.136  -1.407  0.00  0.00    -0.094 A 
ATOM      9  C9  DEN d   1       1.734   1.353  -0.800  0.00  0.00    -0.072 A 
ENDROOT
TORSDOF 0
ENDMDL
