MODEL 1
REMARK minimizedAffinity -3.86300468
REMARK minimizedRMSD -1
REMARK  0 active torsions:
REMARK  status: ('A' for Active; 'I' for Inactive)
ROOT
ATOM      1  C1  DEN d   1      -2.037  -0.820   1.868  0.00  0.00     0.130 A 
ATOM      2  C2  DEN d   1      -1.609  -2.215   1.906  0.00  0.00    -0.031 A 
ATOM      3  C3  DEN d   1      -0.397  -2.344   1.072  0.00  0.00     0.027 A 
ATOM      4  C4  DEN d   1       0.855  -0.526  -0.262  0.00  0.00     0.027 A 
ATOM      5  C5  DEN d   1       0.862   0.807  -0.609  0.00  0.00    -0.003 A 
ATOM      6  C6  DEN d   1      -0.107   1.677  -0.186  0.00  0.00     0.001 A 
ATOM      7  C7  DEN d   1      -1.101   1.234   0.647  0.00  0.00     0.017 A 
ATOM      8  C8  DEN d   1      -1.119  -0.111   0.995  0.00  0.00    -0.094 A 
ATOM      9  C9  DEN d   1      -0.123  -0.972   0.566  0.00  0.00    -0.072 A 
ENDROOT
TORSDOF 0
ENDMDL
