MODEL 1
REMARK minimizedAffinity 0.227551699
REMARK minimizedRMSD -1
REMARK  0 active torsions:
REMARK  status: ('A' for Active; 'I' for Inactive)
ROOT
ATOM      1  C1  DEN d   1      -1.818   1.238   0.950  0.00  0.00     0.130 A 
ATOM      2  C2  DEN d   1      -2.773   0.923   2.009  0.00  0.00    -0.031 A 
ATOM      3  C3  DEN d   1      -2.580  -0.490   2.392  0.00  0.00     0.027 A 
ATOM      4  C4  DEN d   1      -0.901  -2.210   1.455  0.00  0.00     0.027 A 
ATOM      5  C5  DEN d   1       0.107  -2.410   0.537  0.00  0.00    -0.003 A 
ATOM      6  C6  DEN d   1       0.516  -1.427  -0.323  0.00  0.00     0.001 A 
ATOM      7  C7  DEN d   1      -0.054  -0.183  -0.254  0.00  0.00     0.017 A 
ATOM      8  C8  DEN d   1      -1.075   0.024   0.664  0.00  0.00    -0.094 A 
ATOM      9  C9  DEN d   1      -1.466  -0.979   1.534  0.00  0.00    -0.072 A 
ENDROOT
TORSDOF 0
ENDMDL
