MODEL 1
REMARK minimizedAffinity -6.03587055
REMARK minimizedRMSD -1
REMARK  0 active torsions:
REMARK  status: ('A' for Active; 'I' for Inactive)
ROOT
ATOM      1  C1  DEN d   1       1.174   0.087   0.516  0.00  0.00     0.130 A 
ATOM      2  C2  DEN d   1       2.031  -1.095   0.546  0.00  0.00    -0.031 A 
ATOM      3  C3  DEN d   1       1.168  -2.282   0.707  0.00  0.00     0.027 A 
ATOM      4  C4  DEN d   1      -1.401  -2.404   0.908  0.00  0.00     0.027 A 
ATOM      5  C5  DEN d   1      -2.560  -1.662   0.948  0.00  0.00    -0.003 A 
ATOM      6  C6  DEN d   1      -2.554  -0.294   0.882  0.00  0.00     0.001 A 
ATOM      7  C7  DEN d   1      -1.367   0.373   0.726  0.00  0.00     0.017 A 
ATOM      8  C8  DEN d   1      -0.194  -0.368   0.693  0.00  0.00    -0.094 A 
ATOM      9  C9  DEN d   1      -0.222  -1.751   0.749  0.00  0.00    -0.072 A 
ENDROOT
TORSDOF 0
ENDMDL
