MODEL 1
REMARK minimizedAffinity 0.30701822
REMARK minimizedRMSD -1
REMARK  0 active torsions:
REMARK  status: ('A' for Active; 'I' for Inactive)
ROOT
ATOM      1  C1  DEN d   1      -0.893   0.863  -0.354  0.00  0.00     0.130 A 
ATOM      2  C2  DEN d   1       0.005   0.188   0.578  0.00  0.00    -0.031 A 
ATOM      3  C3  DEN d   1       1.389   0.389   0.105  0.00  0.00     0.027 A 
ATOM      4  C4  DEN d   1       2.224   1.676  -1.969  0.00  0.00     0.027 A 
ATOM      5  C5  DEN d   1       1.833   2.407  -3.069  0.00  0.00    -0.003 A 
ATOM      6  C6  DEN d   1       0.515   2.644  -3.357  0.00  0.00     0.001 A 
ATOM      7  C7  DEN d   1      -0.458   2.184  -2.510  0.00  0.00     0.017 A 
ATOM      8  C8  DEN d   1      -0.072   1.439  -1.404  0.00  0.00    -0.094 A 
ATOM      9  C9  DEN d   1       1.266   1.221  -1.123  0.00  0.00    -0.072 A 
ENDROOT
TORSDOF 0
ENDMDL
