MODEL 1
REMARK minimizedAffinity -5.23936605
REMARK minimizedRMSD -1
REMARK  0 active torsions:
REMARK  status: ('A' for Active; 'I' for Inactive)
ROOT
ATOM      1  C1  DEN d   1       0.808   0.358   0.047  0.00  0.00     0.130 A 
ATOM      2  C2  DEN d   1       1.568  -0.887  -0.024  0.00  0.00    -0.031 A 
ATOM      3  C3  DEN d   1       0.726  -1.968   0.525  0.00  0.00     0.027 A 
ATOM      4  C4  DEN d   1      -1.670  -1.839   1.470  0.00  0.00     0.027 A 
ATOM      5  C5  DEN d   1      -2.722  -0.995   1.749  0.00  0.00    -0.003 A 
ATOM      6  C6  DEN d   1      -2.660   0.353   1.514  0.00  0.00     0.001 A 
ATOM      7  C7  DEN d   1      -1.537   0.891   0.942  0.00  0.00     0.017 A 
ATOM      8  C8  DEN d   1      -0.469   0.048   0.664  0.00  0.00    -0.094 A 
ATOM      9  C9  DEN d   1      -0.557  -1.314   0.898  0.00  0.00    -0.072 A 
ENDROOT
TORSDOF 0
ENDMDL
