MODEL 1
REMARK minimizedAffinity -5.68862391
REMARK minimizedRMSD -1
REMARK  0 active torsions:
REMARK  status: ('A' for Active; 'I' for Inactive)
ROOT
ATOM      1  C1  DEN d   1       0.530  -2.259   0.916  0.00  0.00     0.130 A 
ATOM      2  C2  DEN d   1       1.177  -1.087   0.333  0.00  0.00    -0.031 A 
ATOM      3  C3  DEN d   1       0.190   0.012   0.303  0.00  0.00     0.027 A 
ATOM      4  C4  DEN d   1      -2.262   0.013   1.102  0.00  0.00     0.027 A 
ATOM      5  C5  DEN d   1      -3.262  -0.755   1.658  0.00  0.00    -0.003 A 
ATOM      6  C6  DEN d   1      -3.080  -2.076   1.971  0.00  0.00     0.001 A 
ATOM      7  C7  DEN d   1      -1.856  -2.658   1.773  0.00  0.00     0.017 A 
ATOM      8  C8  DEN d   1      -0.845  -1.893   1.206  0.00  0.00    -0.094 A 
ATOM      9  C9  DEN d   1      -1.045  -0.556   0.907  0.00  0.00    -0.072 A 
ENDROOT
TORSDOF 0
ENDMDL
