MODEL 1
REMARK minimizedAffinity -2.26405811
REMARK minimizedRMSD -1
REMARK  0 active torsions:
REMARK  status: ('A' for Active; 'I' for Inactive)
ROOT
ATOM      1  C1  DEN d   1       0.917  -1.717   0.030  0.00  0.00     0.130 A 
ATOM      2  C2  DEN d   1       0.046  -1.994   1.169  0.00  0.00    -0.031 A 
ATOM      3  C3  DEN d   1      -0.709  -0.763   1.477  0.00  0.00     0.027 A 
ATOM      4  C4  DEN d   1      -0.619   1.532   0.304  0.00  0.00     0.027 A 
ATOM      5  C5  DEN d   1      -0.021   2.254  -0.705  0.00  0.00    -0.003 A 
ATOM      6  C6  DEN d   1       0.947   1.718  -1.512  0.00  0.00     0.001 A 
ATOM      7  C7  DEN d   1       1.315   0.408  -1.352  0.00  0.00     0.017 A 
ATOM      8  C8  DEN d   1       0.723  -0.324  -0.331  0.00  0.00    -0.094 A 
ATOM      9  C9  DEN d   1      -0.264   0.232   0.465  0.00  0.00    -0.072 A 
ENDROOT
TORSDOF 0
ENDMDL
