MODEL 1
REMARK minimizedAffinity -6.0267067
REMARK minimizedRMSD -1
REMARK  0 active torsions:
REMARK  status: ('A' for Active; 'I' for Inactive)
ROOT
ATOM      1  C1  DEN d   1       1.120  -0.649   0.368  0.00  0.00     0.130 A 
ATOM      2  C2  DEN d   1       1.156   0.749  -0.053  0.00  0.00    -0.031 A 
ATOM      3  C3  DEN d   1      -0.184   1.328   0.168  0.00  0.00     0.027 A 
ATOM      4  C4  DEN d   1      -2.299   0.202   1.124  0.00  0.00     0.027 A 
ATOM      5  C5  DEN d   1      -2.821  -0.975   1.611  0.00  0.00    -0.003 A 
ATOM      6  C6  DEN d   1      -2.082  -2.126   1.686  0.00  0.00     0.001 A 
ATOM      7  C7  DEN d   1      -0.765  -2.113   1.309  0.00  0.00     0.017 A 
ATOM      8  C8  DEN d   1      -0.234  -0.931   0.810  0.00  0.00    -0.094 A 
ATOM      9  C9  DEN d   1      -0.994   0.225   0.753  0.00  0.00    -0.072 A 
ENDROOT
TORSDOF 0
ENDMDL
