MODEL 1
REMARK minimizedAffinity -5.32772923
REMARK minimizedRMSD -1
REMARK  0 active torsions:
REMARK  status: ('A' for Active; 'I' for Inactive)
ROOT
ATOM      1  C1  DEN d   1      -0.420   0.582   0.469  0.00  0.00     0.130 A 
ATOM      2  C2  DEN d   1       0.845  -0.054   0.112  0.00  0.00    -0.031 A 
ATOM      3  C3  DEN d   1       0.723  -1.500   0.383  0.00  0.00     0.027 A 
ATOM      4  C4  DEN d   1      -1.295  -2.811   1.312  0.00  0.00     0.027 A 
ATOM      5  C5  DEN d   1      -2.589  -2.702   1.773  0.00  0.00    -0.003 A 
ATOM      6  C6  DEN d   1      -3.233  -1.497   1.863  0.00  0.00     0.001 A 
ATOM      7  C7  DEN d   1      -2.600  -0.356   1.444  0.00  0.00     0.017 A 
ATOM      8  C8  DEN d   1      -1.294  -0.457   0.984  0.00  0.00    -0.094 A 
ATOM      9  C9  DEN d   1      -0.664  -1.687   0.889  0.00  0.00    -0.072 A 
ENDROOT
TORSDOF 0
ENDMDL
