MODEL 1
REMARK minimizedAffinity -5.36237192
REMARK minimizedRMSD -1
REMARK  0 active torsions:
REMARK  status: ('A' for Active; 'I' for Inactive)
ROOT
ATOM      1  C1  DEN d   1       0.595  -1.148   0.490  0.00  0.00     0.130 A 
ATOM      2  C2  DEN d   1       0.667   0.305   0.362  0.00  0.00    -0.031 A 
ATOM      3  C3  DEN d   1      -0.654   0.861   0.717  0.00  0.00     0.027 A 
ATOM      4  C4  DEN d   1      -2.792  -0.380   1.455  0.00  0.00     0.027 A 
ATOM      5  C5  DEN d   1      -3.343  -1.618   1.699  0.00  0.00    -0.003 A 
ATOM      6  C6  DEN d   1      -2.636  -2.779   1.527  0.00  0.00     0.001 A 
ATOM      7  C7  DEN d   1      -1.323  -2.723   1.141  0.00  0.00     0.017 A 
ATOM      8  C8  DEN d   1      -0.763  -1.478   0.885  0.00  0.00    -0.094 A 
ATOM      9  C9  DEN d   1      -1.490  -0.316   1.077  0.00  0.00    -0.072 A 
ENDROOT
TORSDOF 0
ENDMDL
