MODEL 1
REMARK minimizedAffinity -4.20770502
REMARK minimizedRMSD -1
REMARK  0 active torsions:
REMARK  status: ('A' for Active; 'I' for Inactive)
ROOT
ATOM      1  N1  IND d   1       0.382  -0.437   1.137  0.00  0.00    -0.196 N 
ATOM      2  C2  IND d   1       1.628  -0.363   0.580  0.00  0.00     0.054 A 
ATOM      3  C3  IND d   1       1.818   0.850   0.012  0.00  0.00    -0.031 A 
ATOM      4  C4  IND d   1       0.257   2.897  -0.031  0.00  0.00     0.051 A 
ATOM      5  C5  IND d   1      -1.002   3.299   0.315  0.00  0.00    -0.031 A 
ATOM      6  C6  IND d   1      -1.881   2.460   0.969  0.00  0.00     0.015 A 
ATOM      7  C7  IND d   1      -1.528   1.186   1.312  0.00  0.00    -0.016 A 
ATOM      8  C8  IND d   1      -0.252   0.772   0.956  0.00  0.00    -0.047 A 
ATOM      9  C9  IND d   1       0.629   1.605   0.255  0.00  0.00    -0.096 A 
ATOM     10  HN1 IND d   1       0.051  -1.124   1.535  0.00  0.00     0.298 HD
ENDROOT
TORSDOF 0
ENDMDL
