MODEL 1
REMARK minimizedAffinity -4.22948837
REMARK minimizedRMSD -1
REMARK  0 active torsions:
REMARK  status: ('A' for Active; 'I' for Inactive)
ROOT
ATOM      1  N1  IND d   1       0.462  -0.188   0.876  0.00  0.00    -0.196 N 
ATOM      2  C2  IND d   1       1.747  -0.258   0.416  0.00  0.00     0.054 A 
ATOM      3  C3  IND d   1       2.148   0.947  -0.047  0.00  0.00    -0.031 A 
ATOM      4  C4  IND d   1       0.894   3.195  -0.055  0.00  0.00     0.051 A 
ATOM      5  C5  IND d   1      -0.322   3.752   0.228  0.00  0.00    -0.031 A 
ATOM      6  C6  IND d   1      -1.359   3.009   0.754  0.00  0.00     0.015 A 
ATOM      7  C7  IND d   1      -1.214   1.679   1.029  0.00  0.00    -0.016 A 
ATOM      8  C8  IND d   1       0.017   1.109   0.737  0.00  0.00    -0.047 A 
ATOM      9  C9  IND d   1       1.059   1.848   0.163  0.00  0.00    -0.096 A 
ATOM     10  HN1 IND d   1       0.007  -0.843   1.198  0.00  0.00     0.298 HD
ENDROOT
TORSDOF 0
ENDMDL
