MODEL 1
REMARK minimizedAffinity -3.03805327
REMARK minimizedRMSD -1
REMARK  0 active torsions:
REMARK  status: ('A' for Active; 'I' for Inactive)
ROOT
ATOM      1  N1  IND d   1      -0.684   2.157  -0.800  0.00  0.00    -0.196 N 
ATOM      2  C2  IND d   1       0.206   3.191  -0.883  0.00  0.00     0.054 A 
ATOM      3  C3  IND d   1       1.382   2.847  -0.313  0.00  0.00    -0.031 A 
ATOM      4  C4  IND d   1       2.102   0.604   0.726  0.00  0.00     0.051 A 
ATOM      5  C5  IND d   1       1.621  -0.630   1.064  0.00  0.00    -0.031 A 
ATOM      6  C6  IND d   1       0.322  -1.006   0.790  0.00  0.00     0.015 A 
ATOM      7  C7  IND d   1      -0.545  -0.163   0.155  0.00  0.00    -0.016 A 
ATOM      8  C8  IND d   1      -0.063   1.093  -0.184  0.00  0.00    -0.047 A 
ATOM      9  C9  IND d   1       1.242   1.496   0.130  0.00  0.00    -0.096 A 
ATOM     10  HN1 IND d   1      -1.495   2.169  -1.084  0.00  0.00     0.298 HD
ENDROOT
TORSDOF 0
ENDMDL
