MODEL 1
REMARK minimizedAffinity -2.14508247
REMARK minimizedRMSD -1
REMARK  0 active torsions:
REMARK  status: ('A' for Active; 'I' for Inactive)
ROOT
ATOM      1  N1  IND d   1       0.894  -1.622  -1.069  0.00  0.00    -0.196 N 
ATOM      2  C2  IND d   1      -0.050  -2.604  -0.959  0.00  0.00     0.054 A 
ATOM      3  C3  IND d   1      -1.069  -2.191  -0.171  0.00  0.00    -0.031 A 
ATOM      4  C4  IND d   1      -1.441   0.093   0.957  0.00  0.00     0.051 A 
ATOM      5  C5  IND d   1      -0.835   1.298   1.175  0.00  0.00    -0.031 A 
ATOM      6  C6  IND d   1       0.402   1.599   0.643  0.00  0.00     0.015 A 
ATOM      7  C7  IND d   1       1.077   0.706  -0.140  0.00  0.00    -0.016 A 
ATOM      8  C8  IND d   1       0.468  -0.522  -0.357  0.00  0.00    -0.047 A 
ATOM      9  C9  IND d   1      -0.768  -0.849   0.215  0.00  0.00    -0.096 A 
ATOM     10  HN1 IND d   1       1.630  -1.681  -1.510  0.00  0.00     0.298 HD
ENDROOT
TORSDOF 0
ENDMDL
