MODEL 1
REMARK minimizedAffinity -2.29023671
REMARK minimizedRMSD -1
REMARK  0 active torsions:
REMARK  status: ('A' for Active; 'I' for Inactive)
ROOT
ATOM      1  N1  IND d   1       0.426  -0.967  -0.753  0.00  0.00    -0.196 N 
ATOM      2  C2  IND d   1      -0.551  -1.901  -0.550  0.00  0.00     0.054 A 
ATOM      3  C3  IND d   1      -1.518  -1.404   0.254  0.00  0.00    -0.031 A 
ATOM      4  C4  IND d   1      -1.750   0.950   1.268  0.00  0.00     0.051 A 
ATOM      5  C5  IND d   1      -1.088   2.139   1.395  0.00  0.00    -0.031 A 
ATOM      6  C6  IND d   1       0.136   2.359   0.797  0.00  0.00     0.015 A 
ATOM      7  C7  IND d   1       0.741   1.397   0.038  0.00  0.00    -0.016 A 
ATOM      8  C8  IND d   1       0.075   0.186  -0.086  0.00  0.00    -0.047 A 
ATOM      9  C9  IND d   1      -1.148  -0.057   0.553  0.00  0.00    -0.096 A 
ATOM     10  HN1 IND d   1       1.140  -1.081  -1.219  0.00  0.00     0.298 HD
ENDROOT
TORSDOF 0
ENDMDL
