MODEL 1
REMARK minimizedAffinity -3.99422073
REMARK minimizedRMSD -1
REMARK  0 active torsions:
REMARK  status: ('A' for Active; 'I' for Inactive)
ROOT
ATOM      1  N1  IND d   1      -0.936   0.373   1.215  0.00  0.00    -0.196 N 
ATOM      2  C2  IND d   1      -0.560  -0.684   0.434  0.00  0.00     0.054 A 
ATOM      3  C3  IND d   1       0.123  -0.250  -0.648  0.00  0.00    -0.031 A 
ATOM      4  C4  IND d   1       0.826   2.143  -1.287  0.00  0.00     0.051 A 
ATOM      5  C5  IND d   1       0.681   3.447  -0.903  0.00  0.00    -0.031 A 
ATOM      6  C6  IND d   1      -0.023   3.800   0.231  0.00  0.00     0.015 A 
ATOM      7  C7  IND d   1      -0.600   2.856   1.033  0.00  0.00    -0.016 A 
ATOM      8  C8  IND d   1      -0.461   1.532   0.642  0.00  0.00    -0.047 A 
ATOM      9  C9  IND d   1       0.215   1.171  -0.530  0.00  0.00    -0.096 A 
ATOM     10  HN1 IND d   1      -1.394   0.322   1.941  0.00  0.00     0.298 HD
ENDROOT
TORSDOF 0
ENDMDL
