MODEL 1
REMARK minimizedAffinity -0.874015093
REMARK minimizedRMSD -1
REMARK  0 active torsions:
REMARK  status: ('A' for Active; 'I' for Inactive)
ROOT
ATOM      1  N1  IND d   1      -1.410   1.515   0.708  0.00  0.00    -0.196 N 
ATOM      2  C2  IND d   1      -1.002   2.811   0.852  0.00  0.00     0.054 A 
ATOM      3  C3  IND d   1       0.343   2.896   0.744  0.00  0.00    -0.031 A 
ATOM      4  C4  IND d   1       2.062   1.050   0.230  0.00  0.00     0.051 A 
ATOM      5  C5  IND d   1       2.172  -0.301   0.055  0.00  0.00    -0.031 A 
ATOM      6  C6  IND d   1       1.071  -1.132   0.087  0.00  0.00     0.015 A 
ATOM      7  C7  IND d   1      -0.188  -0.640   0.284  0.00  0.00    -0.016 A 
ATOM      8  C8  IND d   1      -0.303   0.731   0.469  0.00  0.00    -0.047 A 
ATOM      9  C9  IND d   1       0.816   1.574   0.481  0.00  0.00    -0.096 A 
ATOM     10  HN1 IND d   1      -2.222   1.236   0.759  0.00  0.00     0.298 HD
ENDROOT
TORSDOF 0
ENDMDL
