MODEL 1
REMARK minimizedAffinity -3.71397901
REMARK minimizedRMSD -1
REMARK  0 active torsions:
REMARK  status: ('A' for Active; 'I' for Inactive)
ROOT
ATOM      1  N1  IND d   1       0.503  -0.468  -1.360  0.00  0.00    -0.196 N 
ATOM      2  C2  IND d   1      -0.076  -1.677  -1.090  0.00  0.00     0.054 A 
ATOM      3  C3  IND d   1      -1.058  -1.534  -0.173  0.00  0.00    -0.031 A 
ATOM      4  C4  IND d   1      -1.953   0.605   0.945  0.00  0.00     0.051 A 
ATOM      5  C5  IND d   1      -1.718   1.948   1.044  0.00  0.00    -0.031 A 
ATOM      6  C6  IND d   1      -0.712   2.567   0.331  0.00  0.00     0.015 A 
ATOM      7  C7  IND d   1       0.093   1.865  -0.521  0.00  0.00    -0.016 A 
ATOM      8  C8  IND d   1      -0.138   0.500  -0.619  0.00  0.00    -0.047 A 
ATOM      9  C9  IND d   1      -1.130  -0.141   0.135  0.00  0.00    -0.096 A 
ATOM     10  HN1 IND d   1       1.158  -0.335  -1.901  0.00  0.00     0.298 HD
ENDROOT
TORSDOF 0
ENDMDL
