MODEL 1
REMARK minimizedAffinity -3.84237194
REMARK minimizedRMSD -1
REMARK  0 active torsions:
REMARK  status: ('A' for Active; 'I' for Inactive)
ROOT
ATOM      1  N1  IND d   1       2.269  -0.317   0.910  0.00  0.00    -0.196 N 
ATOM      2  C2  IND d   1       3.368   0.493   0.989  0.00  0.00     0.054 A 
ATOM      3  C3  IND d   1       2.997   1.792   0.960  0.00  0.00    -0.031 A 
ATOM      4  C4  IND d   1       0.638   2.820   0.888  0.00  0.00     0.051 A 
ATOM      5  C5  IND d   1      -0.681   2.482   0.770  0.00  0.00    -0.031 A 
ATOM      6  C6  IND d   1      -1.092   1.167   0.693  0.00  0.00     0.015 A 
ATOM      7  C7  IND d   1      -0.197   0.136   0.744  0.00  0.00    -0.016 A 
ATOM      8  C8  IND d   1       1.143   0.476   0.857  0.00  0.00    -0.047 A 
ATOM      9  C9  IND d   1       1.571   1.809   0.892  0.00  0.00    -0.096 A 
ATOM     10  HN1 IND d   1       2.279  -1.177   0.895  0.00  0.00     0.298 HD
ENDROOT
TORSDOF 0
ENDMDL
