MODEL 1
REMARK minimizedAffinity -1.77275062
REMARK minimizedRMSD -1
REMARK  0 active torsions:
REMARK  status: ('A' for Active; 'I' for Inactive)
ROOT
ATOM      1  N1  IND d   1       0.926  -0.578   0.072  0.00  0.00    -0.196 N 
ATOM      2  C2  IND d   1      -0.410  -0.864   0.019  0.00  0.00     0.054 A 
ATOM      3  C3  IND d   1      -1.139   0.256   0.224  0.00  0.00    -0.031 A 
ATOM      4  C4  IND d   1      -0.349   2.683   0.565  0.00  0.00     0.051 A 
ATOM      5  C5  IND d   1       0.780   3.435   0.725  0.00  0.00    -0.031 A 
ATOM      6  C6  IND d   1       2.042   2.877   0.673  0.00  0.00     0.015 A 
ATOM      7  C7  IND d   1       2.221   1.542   0.445  0.00  0.00    -0.016 A 
ATOM      8  C8  IND d   1       1.076   0.774   0.289  0.00  0.00    -0.047 A 
ATOM      9  C9  IND d   1      -0.207   1.327   0.383  0.00  0.00    -0.096 A 
ATOM     10  HN1 IND d   1       1.564  -1.147  -0.015  0.00  0.00     0.298 HD
ENDROOT
TORSDOF 0
ENDMDL
