MODEL 1
REMARK minimizedAffinity -4.72527504
REMARK minimizedRMSD -1
REMARK  0 active torsions:
REMARK  status: ('A' for Active; 'I' for Inactive)
ROOT
ATOM      1  N1  IND d   1      -0.552  -0.592   1.320  0.00  0.00    -0.196 N 
ATOM      2  C2  IND d   1      -0.249  -1.582   0.427  0.00  0.00     0.054 A 
ATOM      3  C3  IND d   1       0.252  -1.052  -0.711  0.00  0.00    -0.031 A 
ATOM      4  C4  IND d   1       0.758   1.406  -1.286  0.00  0.00     0.051 A 
ATOM      5  C5  IND d   1       0.617   2.676  -0.802  0.00  0.00    -0.031 A 
ATOM      6  C6  IND d   1       0.070   2.927   0.440  0.00  0.00     0.015 A 
ATOM      7  C7  IND d   1      -0.347   1.911   1.253  0.00  0.00    -0.016 A 
ATOM      8  C8  IND d   1      -0.212   0.620   0.762  0.00  0.00    -0.047 A 
ATOM      9  C9  IND d   1       0.303   0.362  -0.515  0.00  0.00    -0.096 A 
ATOM     10  HN1 IND d   1      -0.898  -0.708   2.099  0.00  0.00     0.298 HD
ENDROOT
TORSDOF 0
ENDMDL
