MODEL 1
REMARK minimizedAffinity -4.30623865
REMARK minimizedRMSD -1
REMARK  0 active torsions:
REMARK  status: ('A' for Active; 'I' for Inactive)
ROOT
ATOM      1  N1  IND d   1      -1.115   1.510  -0.137  0.00  0.00    -0.196 N 
ATOM      2  C2  IND d   1      -0.624   2.771  -0.331  0.00  0.00     0.054 A 
ATOM      3  C3  IND d   1       0.721   2.779  -0.190  0.00  0.00    -0.031 A 
ATOM      4  C4  IND d   1       2.330   0.819   0.257  0.00  0.00     0.051 A 
ATOM      5  C5  IND d   1       2.347  -0.517   0.541  0.00  0.00    -0.031 A 
ATOM      6  C6  IND d   1       1.187  -1.262   0.614  0.00  0.00     0.015 A 
ATOM      7  C7  IND d   1      -0.037  -0.698   0.391  0.00  0.00    -0.016 A 
ATOM      8  C8  IND d   1      -0.058   0.661   0.109  0.00  0.00    -0.047 A 
ATOM      9  C9  IND d   1       1.112   1.431   0.076  0.00  0.00    -0.096 A 
ATOM     10  HN1 IND d   1      -1.944   1.285  -0.164  0.00  0.00     0.298 HD
ENDROOT
TORSDOF 0
ENDMDL
