MODEL 1
REMARK minimizedAffinity -2.21035767
REMARK minimizedRMSD -1
REMARK  0 active torsions:
REMARK  status: ('A' for Active; 'I' for Inactive)
ROOT
ATOM      1  N1  IND d   1       0.674  -0.451  -1.155  0.00  0.00    -0.196 N 
ATOM      2  C2  IND d   1       0.056  -1.517  -0.564  0.00  0.00     0.054 A 
ATOM      3  C3  IND d   1      -0.811  -1.093   0.383  0.00  0.00    -0.031 A 
ATOM      4  C4  IND d   1      -1.449   1.307   1.059  0.00  0.00     0.051 A 
ATOM      5  C5  IND d   1      -1.124   2.614   0.827  0.00  0.00    -0.031 A 
ATOM      6  C6  IND d   1      -0.166   2.974  -0.099  0.00  0.00     0.015 A 
ATOM      7  C7  IND d   1       0.498   2.036  -0.838  0.00  0.00    -0.016 A 
ATOM      8  C8  IND d   1       0.176   0.707  -0.599  0.00  0.00    -0.047 A 
ATOM      9  C9  IND d   1      -0.765   0.334   0.369  0.00  0.00    -0.096 A 
ATOM     10  HN1 IND d   1       1.273  -0.495  -1.770  0.00  0.00     0.298 HD
ENDROOT
TORSDOF 0
ENDMDL
