MODEL 1
REMARK minimizedAffinity -1.75194478
REMARK minimizedRMSD -1
REMARK  0 active torsions:
REMARK  status: ('A' for Active; 'I' for Inactive)
ROOT
ATOM      1  N1  IND d   1       1.022  -0.298  -0.357  0.00  0.00    -0.196 N 
ATOM      2  C2  IND d   1       0.336  -1.479  -0.287  0.00  0.00     0.054 A 
ATOM      3  C3  IND d   1      -0.937  -1.260   0.112  0.00  0.00    -0.031 A 
ATOM      4  C4  IND d   1      -2.137   0.963   0.605  0.00  0.00     0.051 A 
ATOM      5  C5  IND d   1      -1.914   2.307   0.713  0.00  0.00    -0.031 A 
ATOM      6  C6  IND d   1      -0.676   2.863   0.461  0.00  0.00     0.015 A 
ATOM      7  C7  IND d   1       0.386   2.093   0.080  0.00  0.00    -0.016 A 
ATOM      8  C8  IND d   1       0.165   0.727  -0.023  0.00  0.00    -0.047 A 
ATOM      9  C9  IND d   1      -1.078   0.152   0.272  0.00  0.00    -0.096 A 
ATOM     10  HN1 IND d   1       1.849  -0.211  -0.574  0.00  0.00     0.298 HD
ENDROOT
TORSDOF 0
ENDMDL
