MODEL 1
REMARK minimizedAffinity 8.56183434
REMARK minimizedRMSD -1
REMARK  0 active torsions:
REMARK  status: ('A' for Active; 'I' for Inactive)
ROOT
ATOM      1  C   UNL d   1      -0.837   0.851   0.502  0.00  0.00    -0.002 A 
ATOM      2  C1  UNL d   1      -1.892  -0.050   0.510  0.00  0.00     0.010 A 
ATOM      3  C2  UNL d   1      -1.905  -1.121   1.406  0.00  0.00     0.041 A 
ATOM      4  C3  UNL d   1      -0.830  -1.271   2.304  0.00  0.00    -0.075 A 
ATOM      5  S   UNL d   1      -0.631  -2.506   3.491  0.00  0.00     0.015 SA
ATOM      6  C4  UNL d   1       0.858  -1.866   4.016  0.00  0.00     0.022 A 
ATOM      7  C5  UNL d   1       1.211  -0.738   3.314  0.00  0.00     0.026 A 
ATOM      8  C6  UNL d   1       0.244  -0.376   2.316  0.00  0.00    -0.082 A 
ATOM      9  C7  UNL d   1       0.228   0.699   1.394  0.00  0.00     0.045 A 
ENDROOT
TORSDOF 0
ENDMDL
