MODEL 1
REMARK minimizedAffinity 4.98856354
REMARK minimizedRMSD -1
REMARK  0 active torsions:
REMARK  status: ('A' for Active; 'I' for Inactive)
ROOT
ATOM      1  C   UNL d   1       0.732   0.824   0.998  0.00  0.00    -0.002 A 
ATOM      2  C1  UNL d   1      -0.641   0.628   1.042  0.00  0.00     0.010 A 
ATOM      3  C2  UNL d   1      -1.200  -0.271   1.953  0.00  0.00     0.041 A 
ATOM      4  C3  UNL d   1      -0.349  -0.974   2.828  0.00  0.00    -0.075 A 
ATOM      5  S   UNL d   1      -0.810  -2.124   4.027  0.00  0.00     0.015 SA
ATOM      6  C4  UNL d   1       0.805  -2.380   4.509  0.00  0.00     0.022 A 
ATOM      7  C5  UNL d   1       1.687  -1.616   3.783  0.00  0.00     0.026 A 
ATOM      8  C6  UNL d   1       1.037  -0.792   2.802  0.00  0.00    -0.082 A 
ATOM      9  C7  UNL d   1       1.574   0.125   1.867  0.00  0.00     0.045 A 
ENDROOT
TORSDOF 0
ENDMDL
