MODEL 1
REMARK minimizedAffinity 2.71194077
REMARK minimizedRMSD -1
REMARK  0 active torsions:
REMARK  status: ('A' for Active; 'I' for Inactive)
ROOT
ATOM      1  C   UNL d   1      -0.800   1.249   1.116  0.00  0.00    -0.002 A 
ATOM      2  C1  UNL d   1      -1.841   0.338   1.224  0.00  0.00     0.010 A 
ATOM      3  C2  UNL d   1      -1.704  -0.807   2.012  0.00  0.00     0.041 A 
ATOM      4  C3  UNL d   1      -0.493  -1.021   2.698  0.00  0.00    -0.075 A 
ATOM      5  S   UNL d   1      -0.099  -2.351   3.721  0.00  0.00     0.015 SA
ATOM      6  C4  UNL d   1       1.460  -1.741   4.040  0.00  0.00     0.022 A 
ATOM      7  C5  UNL d   1       1.692  -0.552   3.389  0.00  0.00     0.026 A 
ATOM      8  C6  UNL d   1       0.570  -0.118   2.605  0.00  0.00    -0.082 A 
ATOM      9  C7  UNL d   1       0.401   1.033   1.798  0.00  0.00     0.045 A 
ENDROOT
TORSDOF 0
ENDMDL
