MODEL 1
REMARK minimizedAffinity 7.40859795
REMARK minimizedRMSD -1
REMARK  0 active torsions:
REMARK  status: ('A' for Active; 'I' for Inactive)
ROOT
ATOM      1  C   UNL d   1      -0.552   0.749   1.328  0.00  0.00    -0.002 A 
ATOM      2  C1  UNL d   1      -1.549  -0.206   1.471  0.00  0.00     0.010 A 
ATOM      3  C2  UNL d   1      -1.375  -1.290   2.334  0.00  0.00     0.041 A 
ATOM      4  C3  UNL d   1      -0.171  -1.399   3.058  0.00  0.00    -0.075 A 
ATOM      5  S   UNL d   1       0.262  -2.641   4.173  0.00  0.00     0.015 SA
ATOM      6  C4  UNL d   1       1.781  -1.932   4.486  0.00  0.00     0.022 A 
ATOM      7  C5  UNL d   1       1.969  -0.776   3.766  0.00  0.00     0.026 A 
ATOM      8  C6  UNL d   1       0.847  -0.450   2.931  0.00  0.00    -0.082 A 
ATOM      9  C7  UNL d   1       0.640   0.638   2.048  0.00  0.00     0.045 A 
ENDROOT
TORSDOF 0
ENDMDL
