MODEL 1
REMARK minimizedAffinity -4.44475269
REMARK minimizedRMSD -1
REMARK  2 active torsions:
REMARK  status: ('A' for Active; 'I' for Inactive)
REMARK    1  A    between atoms: C2'_3  and  C1'_4 
REMARK    2  A    between atoms: C1'_4  and  C1_5 
ROOT
ATOM      1  C1  I4B d   1      -1.061   1.787   0.846  0.00  0.00    -0.075 A 
ATOM      2  C2  I4B d   1      -0.779   0.853  -0.120  0.00  0.00     0.003 A 
ATOM      3  C3  I4B d   1      -0.530  -0.493   0.241  0.00  0.00     0.002 A 
ATOM      4  C4  I4B d   1      -0.524  -0.849   1.574  0.00  0.00    -0.004 A 
ATOM      5  C5  I4B d   1      -0.833   0.093   2.550  0.00  0.00     0.002 A 
ATOM      6  C6  I4B d   1      -1.116   1.417   2.183  0.00  0.00     0.003 A 
ENDROOT
BRANCH   1   7
ATOM      7  C1' I4B d   1      -1.287   3.206   0.432  0.00  0.00     0.060 C 
BRANCH   7   8
ATOM      8  C2' I4B d   1      -0.199   3.584  -0.552  0.00  0.00    -0.013 C 
ATOM      9  C4' I4B d   1      -0.775   4.262  -1.768  0.00  0.00     0.013 C 
ATOM     10  C3' I4B d   1       0.775   4.478   0.155  0.00  0.00     0.013 C 
ENDBRANCH   7   8
ENDBRANCH   1   7
TORSDOF 2
ENDMDL
