MODEL 1
REMARK minimizedAffinity -4.63202858
REMARK minimizedRMSD -1
REMARK  2 active torsions:
REMARK  status: ('A' for Active; 'I' for Inactive)
REMARK    1  A    between atoms: C2'_3  and  C1'_4 
REMARK    2  A    between atoms: C1'_4  and  C1_5 
ROOT
ATOM      1  C1  I4B d   1       0.009  -0.136  -0.043  0.00  0.00    -0.075 A 
ATOM      2  C2  I4B d   1      -0.526  -0.881   0.978  0.00  0.00     0.003 A 
ATOM      3  C3  I4B d   1      -1.478  -0.308   1.856  0.00  0.00     0.002 A 
ATOM      4  C4  I4B d   1      -1.825   1.019   1.709  0.00  0.00    -0.004 A 
ATOM      5  C5  I4B d   1      -1.299   1.766   0.659  0.00  0.00     0.002 A 
ATOM      6  C6  I4B d   1      -0.386   1.182  -0.230  0.00  0.00     0.003 A 
ENDROOT
BRANCH   1   7
ATOM      7  C1' I4B d   1       1.036  -0.763  -0.932  0.00  0.00     0.060 C 
BRANCH   7   8
ATOM      8  C2' I4B d   1       0.465  -2.065  -1.458  0.00  0.00    -0.013 C 
ATOM      9  C4' I4B d   1      -0.152  -1.879  -2.819  0.00  0.00     0.013 C 
ATOM     10  C3' I4B d   1       1.575  -3.073  -1.499  0.00  0.00     0.013 C 
ENDBRANCH   7   8
ENDBRANCH   1   7
TORSDOF 2
ENDMDL
