MODEL 1
REMARK minimizedAffinity -4.40557528
REMARK minimizedRMSD -1
REMARK  2 active torsions:
REMARK  status: ('A' for Active; 'I' for Inactive)
REMARK    1  A    between atoms: C2'_3  and  C1'_4 
REMARK    2  A    between atoms: C1'_4  and  C1_5 
ROOT
ATOM      1  C1  I4B d   1      -0.660   1.070   0.188  0.00  0.00    -0.075 A 
ATOM      2  C2  I4B d   1      -1.329   1.634   1.246  0.00  0.00     0.003 A 
ATOM      3  C3  I4B d   1      -1.362   3.042   1.399  0.00  0.00     0.002 A 
ATOM      4  C4  I4B d   1      -0.675   3.839   0.506  0.00  0.00    -0.004 A 
ATOM      5  C5  I4B d   1      -0.017   3.266  -0.578  0.00  0.00     0.002 A 
ATOM      6  C6  I4B d   1      -0.019   1.874  -0.746  0.00  0.00     0.003 A 
ENDROOT
BRANCH   1   7
ATOM      7  C1' I4B d   1      -0.617  -0.421   0.075  0.00  0.00     0.060 C 
BRANCH   7   8
ATOM      8  C2' I4B d   1      -0.822  -1.000   1.460  0.00  0.00    -0.013 C 
ATOM      9  C4' I4B d   1      -1.689  -2.230   1.414  0.00  0.00     0.013 C 
ATOM     10  C3' I4B d   1       0.528  -1.310   2.037  0.00  0.00     0.013 C 
ENDBRANCH   7   8
ENDBRANCH   1   7
TORSDOF 2
ENDMDL
