MODEL 1
REMARK minimizedAffinity -4.85477591
REMARK minimizedRMSD -1
REMARK  2 active torsions:
REMARK  status: ('A' for Active; 'I' for Inactive)
REMARK    1  A    between atoms: C2'_3  and  C1'_4 
REMARK    2  A    between atoms: C1'_4  and  C1_5 
ROOT
ATOM      1  C1  I4B d   1       0.796  -1.478  -1.055  0.00  0.00    -0.075 A 
ATOM      2  C2  I4B d   1       1.443  -2.635  -0.700  0.00  0.00     0.003 A 
ATOM      3  C3  I4B d   1       1.519  -3.717  -1.610  0.00  0.00     0.002 A 
ATOM      4  C4  I4B d   1       0.894  -3.619  -2.836  0.00  0.00    -0.004 A 
ATOM      5  C5  I4B d   1       0.257  -2.436  -3.203  0.00  0.00     0.002 A 
ATOM      6  C6  I4B d   1       0.218  -1.354  -2.312  0.00  0.00     0.003 A 
ENDROOT
BRANCH   1   7
ATOM      7  C1' I4B d   1       0.706  -0.367  -0.057  0.00  0.00     0.060 C 
BRANCH   7   8
ATOM      8  C2' I4B d   1      -0.609  -0.507   0.681  0.00  0.00    -0.013 C 
ATOM      9  C4' I4B d   1      -0.469  -1.409   1.879  0.00  0.00     0.013 C 
ATOM     10  C3' I4B d   1      -1.061   0.864   1.087  0.00  0.00     0.013 C 
ENDBRANCH   7   8
ENDBRANCH   1   7
TORSDOF 2
ENDMDL
