MODEL 1
REMARK minimizedAffinity -3.6665051
REMARK minimizedRMSD -1
REMARK  2 active torsions:
REMARK  status: ('A' for Active; 'I' for Inactive)
REMARK    1  A    between atoms: C2'_3  and  C1'_4 
REMARK    2  A    between atoms: C1'_4  and  C1_5 
ROOT
ATOM      1  C1  I4B d   1      -0.357   0.202  -0.117  0.00  0.00    -0.075 A 
ATOM      2  C2  I4B d   1      -1.383  -0.525   0.434  0.00  0.00     0.003 A 
ATOM      3  C3  I4B d   1      -2.449   0.133   1.092  0.00  0.00     0.002 A 
ATOM      4  C4  I4B d   1      -2.425   1.507   1.220  0.00  0.00    -0.004 A 
ATOM      5  C5  I4B d   1      -1.396   2.244   0.641  0.00  0.00     0.002 A 
ATOM      6  C6  I4B d   1      -0.361   1.588  -0.043  0.00  0.00     0.003 A 
ENDROOT
BRANCH   1   7
ATOM      7  C1' I4B d   1       0.771  -0.528  -0.777  0.00  0.00     0.060 C 
BRANCH   7   8
ATOM      8  C2' I4B d   1       0.199  -1.756  -1.454  0.00  0.00    -0.013 C 
ATOM      9  C4' I4B d   1      -0.017  -1.517  -2.926  0.00  0.00     0.013 C 
ATOM     10  C3' I4B d   1       1.146  -2.895  -1.224  0.00  0.00     0.013 C 
ENDBRANCH   7   8
ENDBRANCH   1   7
TORSDOF 2
ENDMDL
