MODEL 1
REMARK minimizedAffinity -5.0872407
REMARK minimizedRMSD -1
REMARK  2 active torsions:
REMARK  status: ('A' for Active; 'I' for Inactive)
REMARK    1  A    between atoms: C2'_3  and  C1'_4 
REMARK    2  A    between atoms: C1'_4  and  C1_5 
ROOT
ATOM      1  C1  I4B d   1       0.045  -0.594  -0.591  0.00  0.00    -0.075 A 
ATOM      2  C2  I4B d   1      -0.224   0.625  -1.163  0.00  0.00     0.003 A 
ATOM      3  C3  I4B d   1      -0.864   1.639  -0.411  0.00  0.00     0.002 A 
ATOM      4  C4  I4B d   1      -1.260   1.378   0.885  0.00  0.00    -0.004 A 
ATOM      5  C5  I4B d   1      -0.967   0.150   1.470  0.00  0.00     0.002 A 
ATOM      6  C6  I4B d   1      -0.299  -0.839   0.733  0.00  0.00     0.003 A 
ENDROOT
BRANCH   1   7
ATOM      7  C1' I4B d   1       0.692  -1.654  -1.424  0.00  0.00     0.060 C 
BRANCH   7   8
ATOM      8  C2' I4B d   1      -0.368  -2.672  -1.791  0.00  0.00    -0.013 C 
ATOM      9  C4' I4B d   1      -1.288  -2.139  -2.858  0.00  0.00     0.013 C 
ATOM     10  C3' I4B d   1       0.326  -3.920  -2.248  0.00  0.00     0.013 C 
ENDBRANCH   7   8
ENDBRANCH   1   7
TORSDOF 2
ENDMDL
