MODEL 1
REMARK minimizedAffinity -2.81834006
REMARK minimizedRMSD -1
REMARK  2 active torsions:
REMARK  status: ('A' for Active; 'I' for Inactive)
REMARK    1  A    between atoms: C2'_3  and  C1'_4 
REMARK    2  A    between atoms: C1'_4  and  C1_5 
ROOT
ATOM      1  C1  I4B d   1       0.667  -0.752  -0.477  0.00  0.00    -0.075 A 
ATOM      2  C2  I4B d   1       0.529  -1.010   0.864  0.00  0.00     0.003 A 
ATOM      3  C3  I4B d   1      -0.236  -0.144   1.682  0.00  0.00     0.002 A 
ATOM      4  C4  I4B d   1      -0.802   0.988   1.131  0.00  0.00    -0.004 A 
ATOM      5  C5  I4B d   1      -0.681   1.236  -0.233  0.00  0.00     0.002 A 
ATOM      6  C6  I4B d   1       0.048   0.354  -1.045  0.00  0.00     0.003 A 
ENDROOT
BRANCH   1   7
ATOM      7  C1' I4B d   1       1.510  -1.669  -1.305  0.00  0.00     0.060 C 
BRANCH   7   8
ATOM      8  C2' I4B d   1       0.740  -2.958  -1.504  0.00  0.00    -0.013 C 
ATOM      9  C4' I4B d   1       0.347  -3.142  -2.946  0.00  0.00     0.013 C 
ATOM     10  C3' I4B d   1       1.601  -4.090  -1.029  0.00  0.00     0.013 C 
ENDBRANCH   7   8
ENDBRANCH   1   7
TORSDOF 2
ENDMDL
