MODEL 1
REMARK minimizedAffinity -1.22395551
REMARK minimizedRMSD -1
REMARK  2 active torsions:
REMARK  status: ('A' for Active; 'I' for Inactive)
REMARK    1  A    between atoms: C2'_3  and  C1'_4 
REMARK    2  A    between atoms: C1'_4  and  C1_5 
ROOT
ATOM      1  C1  I4B d   1       0.566  -0.285   0.132  0.00  0.00    -0.075 A 
ATOM      2  C2  I4B d   1       0.101   0.985  -0.106  0.00  0.00     0.003 A 
ATOM      3  C3  I4B d   1      -0.736   1.626   0.838  0.00  0.00     0.002 A 
ATOM      4  C4  I4B d   1      -1.123   0.947   1.976  0.00  0.00    -0.004 A 
ATOM      5  C5  I4B d   1      -0.632  -0.331   2.227  0.00  0.00     0.002 A 
ATOM      6  C6  I4B d   1       0.227  -0.947   1.305  0.00  0.00     0.003 A 
ENDROOT
BRANCH   1   7
ATOM      7  C1' I4B d   1       1.421  -0.945  -0.902  0.00  0.00     0.060 C 
BRANCH   7   8
ATOM      8  C2' I4B d   1       0.765  -2.257  -1.282  0.00  0.00    -0.013 C 
ATOM      9  C4' I4B d   1       0.580  -2.362  -2.773  0.00  0.00     0.013 C 
ATOM     10  C3' I4B d   1       1.624  -3.371  -0.764  0.00  0.00     0.013 C 
ENDBRANCH   7   8
ENDBRANCH   1   7
TORSDOF 2
ENDMDL
