MODEL 1
REMARK minimizedAffinity -4.23195982
REMARK minimizedRMSD -1
REMARK  2 active torsions:
REMARK  status: ('A' for Active; 'I' for Inactive)
REMARK    1  A    between atoms: C2'_3  and  C1'_4 
REMARK    2  A    between atoms: C1'_4  and  C1_5 
ROOT
ATOM      1  C1  I4B d   1       0.392   0.731   0.298  0.00  0.00    -0.075 A 
ATOM      2  C2  I4B d   1      -0.396   0.847   1.415  0.00  0.00     0.003 A 
ATOM      3  C3  I4B d   1      -1.035   2.076   1.712  0.00  0.00     0.002 A 
ATOM      4  C4  I4B d   1      -0.818   3.168   0.898  0.00  0.00    -0.004 A 
ATOM      5  C5  I4B d   1      -0.037   3.042  -0.247  0.00  0.00     0.002 A 
ATOM      6  C6  I4B d   1       0.563   1.813  -0.556  0.00  0.00     0.003 A 
ENDROOT
BRANCH   1   7
ATOM      7  C1' I4B d   1       1.078  -0.572   0.032  0.00  0.00     0.060 C 
BRANCH   7   8
ATOM      8  C2' I4B d   1       0.480  -1.166  -1.227  0.00  0.00    -0.013 C 
ATOM      9  C4' I4B d   1       1.104  -2.498  -1.551  0.00  0.00     0.013 C 
ATOM     10  C3' I4B d   1      -1.000  -1.298  -1.019  0.00  0.00     0.013 C 
ENDBRANCH   7   8
ENDBRANCH   1   7
TORSDOF 2
ENDMDL
