MODEL 1
REMARK minimizedAffinity -0.507911742
REMARK minimizedRMSD -1
REMARK  2 active torsions:
REMARK  status: ('A' for Active; 'I' for Inactive)
REMARK    1  A    between atoms: C2'_3  and  C1'_4 
REMARK    2  A    between atoms: C1'_4  and  C1_5 
ROOT
ATOM      1  C1  I4B d   1       0.553  -0.696   0.191  0.00  0.00    -0.075 A 
ATOM      2  C2  I4B d   1       0.127  -1.041   1.450  0.00  0.00     0.003 A 
ATOM      3  C3  I4B d   1      -0.861  -0.268   2.105  0.00  0.00     0.002 A 
ATOM      4  C4  I4B d   1      -1.356   0.864   1.491  0.00  0.00    -0.004 A 
ATOM      5  C5  I4B d   1      -0.940   1.200   0.206  0.00  0.00     0.002 A 
ATOM      6  C6  I4B d   1       0.011   0.409  -0.453  0.00  0.00     0.003 A 
ENDROOT
BRANCH   1   7
ATOM      7  C1' I4B d   1       1.622  -1.516  -0.458  0.00  0.00     0.060 C 
BRANCH   7   8
ATOM      8  C2' I4B d   1       1.120  -2.942  -0.558  0.00  0.00    -0.013 C 
ATOM      9  C4' I4B d   1       0.658  -3.261  -1.956  0.00  0.00     0.013 C 
ATOM     10  C3' I4B d   1       2.232  -3.855  -0.135  0.00  0.00     0.013 C 
ENDBRANCH   7   8
ENDBRANCH   1   7
TORSDOF 2
ENDMDL
