MODEL 1
REMARK minimizedAffinity -4.28561163
REMARK minimizedRMSD -1
REMARK  2 active torsions:
REMARK  status: ('A' for Active; 'I' for Inactive)
REMARK    1  A    between atoms: C2'_3  and  C1'_4 
REMARK    2  A    between atoms: C1'_4  and  C1_5 
ROOT
ATOM      1  C1  I4B d   1       0.927  -1.120  -0.399  0.00  0.00    -0.075 A 
ATOM      2  C2  I4B d   1       0.187  -1.985  -1.166  0.00  0.00     0.003 A 
ATOM      3  C3  I4B d   1       0.593  -2.294  -2.486  0.00  0.00     0.002 A 
ATOM      4  C4  I4B d   1       1.710  -1.681  -3.015  0.00  0.00    -0.004 A 
ATOM      5  C5  I4B d   1       2.473  -0.822  -2.229  0.00  0.00     0.002 A 
ATOM      6  C6  I4B d   1       2.086  -0.549  -0.908  0.00  0.00     0.003 A 
ENDROOT
BRANCH   1   7
ATOM      7  C1' I4B d   1       0.451  -0.791   0.980  0.00  0.00     0.060 C 
BRANCH   7   8
ATOM      8  C2' I4B d   1      -0.756   0.115   0.853  0.00  0.00    -0.013 C 
ATOM      9  C4' I4B d   1      -2.005  -0.678   0.571  0.00  0.00     0.013 C 
ATOM     10  C3' I4B d   1      -0.886   0.895   2.128  0.00  0.00     0.013 C 
ENDBRANCH   7   8
ENDBRANCH   1   7
TORSDOF 2
ENDMDL
