MODEL 1
REMARK minimizedAffinity 13.6883068
REMARK minimizedRMSD -1
REMARK  2 active torsions:
REMARK  status: ('A' for Active; 'I' for Inactive)
REMARK    1  A    between atoms: C1_2  and  C2_3 
REMARK    2  A    between atoms: C2_3  and  C3_4 
ROOT
ATOM      1  C3  UNL d   1      -0.992   0.585  -0.975  0.00  0.00    -0.075 A 
ATOM      2  C4  UNL d   1      -1.227   1.660  -1.845  0.00  0.00     0.002 A 
ATOM      3  C5  UNL d   1      -0.234   2.085  -2.728  0.00  0.00     0.002 A 
ATOM      4  C6  UNL d   1       1.006   1.451  -2.746  0.00  0.00    -0.004 A 
ATOM      5  C7  UNL d   1       1.256   0.393  -1.874  0.00  0.00     0.002 A 
ATOM      6  C8  UNL d   1       0.263  -0.038  -0.993  0.00  0.00     0.002 A 
ENDROOT
BRANCH   1   7
ATOM      7  C2  UNL d   1      -2.072   0.100  -0.037  0.00  0.00     0.056 C 
BRANCH   7   8
ATOM      8  C1  UNL d   1      -1.802   0.412   1.439  0.00  0.00     0.007 C 
ATOM      9  C   UNL d   1      -2.966   0.049   2.351  0.00  0.00     0.009 C 
ENDBRANCH   7   8
ENDBRANCH   1   7
TORSDOF 2
ENDMDL
