MODEL 1
REMARK minimizedAffinity 1.95815146
REMARK minimizedRMSD -1
REMARK  2 active torsions:
REMARK  status: ('A' for Active; 'I' for Inactive)
REMARK    1  A    between atoms: C1_2  and  C2_3 
REMARK    2  A    between atoms: C2_3  and  C3_4 
ROOT
ATOM      1  C3  UNL d   1       1.845   2.099  -2.279  0.00  0.00    -0.075 A 
ATOM      2  C4  UNL d   1       0.578   1.546  -2.516  0.00  0.00     0.002 A 
ATOM      3  C5  UNL d   1       0.308   0.221  -2.173  0.00  0.00     0.002 A 
ATOM      4  C6  UNL d   1       1.302  -0.570  -1.599  0.00  0.00    -0.004 A 
ATOM      5  C7  UNL d   1       2.569  -0.035  -1.374  0.00  0.00     0.002 A 
ATOM      6  C8  UNL d   1       2.840   1.291  -1.712  0.00  0.00     0.002 A 
ENDROOT
BRANCH   1   7
ATOM      7  C2  UNL d   1       2.135   3.541  -2.620  0.00  0.00     0.056 C 
BRANCH   7   8
ATOM      8  C1  UNL d   1       2.817   4.324  -1.494  0.00  0.00     0.007 C 
ATOM      9  C   UNL d   1       1.939   5.423  -0.910  0.00  0.00     0.009 C 
ENDBRANCH   7   8
ENDBRANCH   1   7
TORSDOF 2
ENDMDL
