MODEL 1
REMARK minimizedAffinity 11.4750185
REMARK minimizedRMSD -1
REMARK  2 active torsions:
REMARK  status: ('A' for Active; 'I' for Inactive)
REMARK    1  A    between atoms: C1_2  and  C2_3 
REMARK    2  A    between atoms: C2_3  and  C3_4 
ROOT
ATOM      1  C3  UNL d   1      -3.051   4.004   4.137  0.00  0.00    -0.075 A 
ATOM      2  C4  UNL d   1      -4.312   3.983   4.751  0.00  0.00     0.002 A 
ATOM      3  C5  UNL d   1      -4.668   4.967   5.673  0.00  0.00     0.002 A 
ATOM      4  C6  UNL d   1      -3.767   5.978   6.000  0.00  0.00    -0.004 A 
ATOM      5  C7  UNL d   1      -2.505   6.000   5.409  0.00  0.00     0.002 A 
ATOM      6  C8  UNL d   1      -2.148   5.018   4.482  0.00  0.00     0.002 A 
ENDROOT
BRANCH   1   7
ATOM      7  C2  UNL d   1      -2.671   2.959   3.116  0.00  0.00     0.056 C 
BRANCH   7   8
ATOM      8  C1  UNL d   1      -3.492   1.668   3.210  0.00  0.00     0.007 C 
ATOM      9  C   UNL d   1      -2.762   0.451   2.657  0.00  0.00     0.009 C 
ENDBRANCH   7   8
ENDBRANCH   1   7
TORSDOF 2
ENDMDL
