MODEL 1
REMARK minimizedAffinity 14.7543516
REMARK minimizedRMSD -1
REMARK  2 active torsions:
REMARK  status: ('A' for Active; 'I' for Inactive)
REMARK    1  A    between atoms: C1_2  and  C2_3 
REMARK    2  A    between atoms: C2_3  and  C3_4 
ROOT
ATOM      1  C3  UNL d   1      -3.526   3.942   3.884  0.00  0.00    -0.075 A 
ATOM      2  C4  UNL d   1      -4.619   4.760   4.202  0.00  0.00     0.002 A 
ATOM      3  C5  UNL d   1      -4.489   5.784   5.142  0.00  0.00     0.002 A 
ATOM      4  C6  UNL d   1      -3.269   5.995   5.781  0.00  0.00    -0.004 A 
ATOM      5  C7  UNL d   1      -2.181   5.177   5.485  0.00  0.00     0.002 A 
ATOM      6  C8  UNL d   1      -2.307   4.156   4.542  0.00  0.00     0.002 A 
ENDROOT
BRANCH   1   7
ATOM      7  C2  UNL d   1      -3.653   2.852   2.847  0.00  0.00     0.056 C 
BRANCH   7   8
ATOM      8  C1  UNL d   1      -2.642   1.712   3.013  0.00  0.00     0.007 C 
ATOM      9  C   UNL d   1      -3.260   0.438   3.572  0.00  0.00     0.009 C 
ENDBRANCH   7   8
ENDBRANCH   1   7
TORSDOF 2
ENDMDL
