MODEL 1
REMARK minimizedAffinity 10.0224056
REMARK minimizedRMSD -1
REMARK  2 active torsions:
REMARK  status: ('A' for Active; 'I' for Inactive)
REMARK    1  A    between atoms: C1_2  and  C2_3 
REMARK    2  A    between atoms: C2_3  and  C3_4 
ROOT
ATOM      1  C3  UNL d   1      -3.211   3.833   4.140  0.00  0.00    -0.075 A 
ATOM      2  C4  UNL d   1      -4.082   4.932   4.087  0.00  0.00     0.002 A 
ATOM      3  C5  UNL d   1      -3.930   6.000   4.972  0.00  0.00     0.002 A 
ATOM      4  C6  UNL d   1      -2.915   5.978   5.926  0.00  0.00    -0.004 A 
ATOM      5  C7  UNL d   1      -2.056   4.885   6.000  0.00  0.00     0.002 A 
ATOM      6  C8  UNL d   1      -2.202   3.817   5.112  0.00  0.00     0.002 A 
ENDROOT
BRANCH   1   7
ATOM      7  C2  UNL d   1      -3.352   2.688   3.166  0.00  0.00     0.056 C 
BRANCH   7   8
ATOM      8  C1  UNL d   1      -3.034   1.315   3.768  0.00  0.00     0.007 C 
ATOM      9  C   UNL d   1      -2.987   0.202   2.730  0.00  0.00     0.009 C 
ENDBRANCH   7   8
ENDBRANCH   1   7
TORSDOF 2
ENDMDL
