MODEL 1
REMARK minimizedAffinity 6.49809933
REMARK minimizedRMSD -1
REMARK  2 active torsions:
REMARK  status: ('A' for Active; 'I' for Inactive)
REMARK    1  A    between atoms: C1_2  and  C2_3 
REMARK    2  A    between atoms: C2_3  and  C3_4 
ROOT
ATOM      1  C3  UNL d   1       1.650   2.997  -1.746  0.00  0.00    -0.075 A 
ATOM      2  C4  UNL d   1       2.036   3.031  -3.094  0.00  0.00     0.002 A 
ATOM      3  C5  UNL d   1       1.595   2.049  -3.981  0.00  0.00     0.002 A 
ATOM      4  C6  UNL d   1       0.772   1.018  -3.532  0.00  0.00    -0.004 A 
ATOM      5  C7  UNL d   1       0.396   0.966  -2.192  0.00  0.00     0.002 A 
ATOM      6  C8  UNL d   1       0.832   1.949  -1.302  0.00  0.00     0.002 A 
ENDROOT
BRANCH   1   7
ATOM      7  C2  UNL d   1       2.100   4.073  -0.786  0.00  0.00     0.056 C 
BRANCH   7   8
ATOM      8  C1  UNL d   1       1.760   3.783   0.680  0.00  0.00     0.007 C 
ATOM      9  C   UNL d   1       2.977   3.417   1.518  0.00  0.00     0.009 C 
ENDBRANCH   7   8
ENDBRANCH   1   7
TORSDOF 2
ENDMDL
