MODEL 1
REMARK minimizedAffinity 1.73788309
REMARK minimizedRMSD -1
REMARK  2 active torsions:
REMARK  status: ('A' for Active; 'I' for Inactive)
REMARK    1  A    between atoms: C1_2  and  C2_3 
REMARK    2  A    between atoms: C2_3  and  C3_4 
ROOT
ATOM      1  C3  UNL d   1       1.422   1.882  -3.119  0.00  0.00    -0.075 A 
ATOM      2  C4  UNL d   1       1.428   2.842  -2.096  0.00  0.00     0.002 A 
ATOM      3  C5  UNL d   1       0.752   2.604  -0.898  0.00  0.00     0.002 A 
ATOM      4  C6  UNL d   1       0.055   1.412  -0.712  0.00  0.00    -0.004 A 
ATOM      5  C7  UNL d   1       0.029   0.459  -1.729  0.00  0.00     0.002 A 
ATOM      6  C8  UNL d   1       0.707   0.692  -2.926  0.00  0.00     0.002 A 
ENDROOT
BRANCH   1   7
ATOM      7  C2  UNL d   1       2.175   2.121  -4.406  0.00  0.00     0.056 C 
BRANCH   7   8
ATOM      8  C1  UNL d   1       2.596   3.578  -4.621  0.00  0.00     0.007 C 
ATOM      9  C   UNL d   1       2.229   4.111  -6.000  0.00  0.00     0.009 C 
ENDBRANCH   7   8
ENDBRANCH   1   7
TORSDOF 2
ENDMDL
