MODEL 1
REMARK minimizedAffinity 3.44834352
REMARK minimizedRMSD -1
REMARK  2 active torsions:
REMARK  status: ('A' for Active; 'I' for Inactive)
REMARK    1  A    between atoms: C1_2  and  C2_3 
REMARK    2  A    between atoms: C2_3  and  C3_4 
ROOT
ATOM      1  C3  UNL d   1       1.773   1.959  -3.854  0.00  0.00    -0.075 A 
ATOM      2  C4  UNL d   1       1.856   3.320  -3.525  0.00  0.00     0.002 A 
ATOM      3  C5  UNL d   1       2.646   4.185  -4.282  0.00  0.00     0.002 A 
ATOM      4  C6  UNL d   1       3.370   3.701  -5.369  0.00  0.00    -0.004 A 
ATOM      5  C7  UNL d   1       3.308   2.348  -5.695  0.00  0.00     0.002 A 
ATOM      6  C8  UNL d   1       2.515   1.480  -4.942  0.00  0.00     0.002 A 
ENDROOT
BRANCH   1   7
ATOM      7  C2  UNL d   1       0.896   1.023  -3.057  0.00  0.00     0.056 C 
BRANCH   7   8
ATOM      8  C1  UNL d   1       0.670   1.464  -1.607  0.00  0.00     0.007 C 
ATOM      9  C   UNL d   1      -0.785   1.792  -1.299  0.00  0.00     0.009 C 
ENDBRANCH   7   8
ENDBRANCH   1   7
TORSDOF 2
ENDMDL
