MODEL 1
REMARK minimizedAffinity 2.56316257
REMARK minimizedRMSD -1
REMARK  2 active torsions:
REMARK  status: ('A' for Active; 'I' for Inactive)
REMARK    1  A    between atoms: C1_2  and  C2_3 
REMARK    2  A    between atoms: C2_3  and  C3_4 
ROOT
ATOM      1  C3  UNL d   1       2.792   2.886  -3.206  0.00  0.00    -0.075 A 
ATOM      2  C4  UNL d   1       2.720   1.825  -4.121  0.00  0.00     0.002 A 
ATOM      3  C5  UNL d   1       1.816   0.781  -3.925  0.00  0.00     0.002 A 
ATOM      4  C6  UNL d   1       0.982   0.778  -2.809  0.00  0.00    -0.004 A 
ATOM      5  C7  UNL d   1       1.057   1.818  -1.885  0.00  0.00     0.002 A 
ATOM      6  C8  UNL d   1       1.957   2.866  -2.081  0.00  0.00     0.002 A 
ENDROOT
BRANCH   1   7
ATOM      7  C2  UNL d   1       3.748   4.034  -3.428  0.00  0.00     0.056 C 
BRANCH   7   8
ATOM      8  C1  UNL d   1       4.390   4.568  -2.143  0.00  0.00     0.007 C 
ATOM      9  C   UNL d   1       5.890   4.315  -2.072  0.00  0.00     0.009 C 
ENDBRANCH   7   8
ENDBRANCH   1   7
TORSDOF 2
ENDMDL
