MODEL 1
REMARK minimizedAffinity 5.08133173
REMARK minimizedRMSD -1
REMARK  2 active torsions:
REMARK  status: ('A' for Active; 'I' for Inactive)
REMARK    1  A    between atoms: C1_2  and  C2_3 
REMARK    2  A    between atoms: C2_3  and  C3_4 
ROOT
ATOM      1  C3  UNL d   1       1.382   0.866  -2.498  0.00  0.00    -0.075 A 
ATOM      2  C4  UNL d   1       2.598   0.246  -2.174  0.00  0.00     0.002 A 
ATOM      3  C5  UNL d   1       3.726   0.440  -2.971  0.00  0.00     0.002 A 
ATOM      4  C6  UNL d   1       3.652   1.246  -4.105  0.00  0.00    -0.004 A 
ATOM      5  C7  UNL d   1       2.445   1.853  -4.446  0.00  0.00     0.002 A 
ATOM      6  C8  UNL d   1       1.315   1.664  -3.647  0.00  0.00     0.002 A 
ENDROOT
BRANCH   1   7
ATOM      7  C2  UNL d   1       0.165   0.683  -1.623  0.00  0.00     0.056 C 
BRANCH   7   8
ATOM      8  C1  UNL d   1      -0.301   1.967  -0.928  0.00  0.00     0.007 C 
ATOM      9  C   UNL d   1      -1.814   2.052  -0.777  0.00  0.00     0.009 C 
ENDBRANCH   7   8
ENDBRANCH   1   7
TORSDOF 2
ENDMDL
