MODEL 1
REMARK minimizedAffinity 12.1257772
REMARK minimizedRMSD -1
REMARK  2 active torsions:
REMARK  status: ('A' for Active; 'I' for Inactive)
REMARK    1  A    between atoms: C1_2  and  C2_3 
REMARK    2  A    between atoms: C2_3  and  C3_4 
ROOT
ATOM      1  C3  UNL d   1       0.281  -0.429  -2.979  0.00  0.00    -0.075 A 
ATOM      2  C4  UNL d   1      -0.182   0.552  -2.090  0.00  0.00     0.002 A 
ATOM      3  C5  UNL d   1       0.408   1.816  -2.059  0.00  0.00     0.002 A 
ATOM      4  C6  UNL d   1       1.473   2.112  -2.907  0.00  0.00    -0.004 A 
ATOM      5  C7  UNL d   1       1.952   1.140  -3.782  0.00  0.00     0.002 A 
ATOM      6  C8  UNL d   1       1.361  -0.124  -3.818  0.00  0.00     0.002 A 
ENDROOT
BRANCH   1   7
ATOM      7  C2  UNL d   1      -0.372  -1.789  -3.037  0.00  0.00     0.056 C 
BRANCH   7   8
ATOM      8  C1  UNL d   1       0.619  -2.954  -3.127  0.00  0.00     0.007 C 
ATOM      9  C   UNL d   1       1.423  -3.158  -1.849  0.00  0.00     0.009 C 
ENDBRANCH   7   8
ENDBRANCH   1   7
TORSDOF 2
ENDMDL
