MODEL 1
REMARK minimizedAffinity -1.59096265
REMARK minimizedRMSD -1
REMARK  0 active torsions:
REMARK  status: ('A' for Active; 'I' for Inactive)
ROOT
ATOM      1  C4' PXY d   1       0.900  -2.405  -1.141  0.00  0.00     0.077 C 
ATOM      2  C1' PXY d   1      -0.982   2.059   2.013  0.00  0.00     0.077 C 
ATOM      3  C1  PXY d   1      -0.486   0.896   1.176  0.00  0.00    -0.082 A 
ATOM      4  C2  PXY d   1      -0.881  -0.333   1.465  0.00  0.00     0.003 A 
ATOM      5  C3  PXY d   1      -0.418  -1.399   0.738  0.00  0.00     0.003 A 
ATOM      6  C4  PXY d   1       0.417  -1.200  -0.329  0.00  0.00    -0.082 A 
ATOM      7  C5  PXY d   1       0.816   0.053  -0.636  0.00  0.00     0.003 A 
ATOM      8  C6  PXY d   1       0.367   1.117   0.140  0.00  0.00     0.003 A 
ENDROOT
TORSDOF 0
ENDMDL
