MODEL 1
REMARK minimizedAffinity -1.36031055
REMARK minimizedRMSD -1
REMARK  0 active torsions:
REMARK  status: ('A' for Active; 'I' for Inactive)
ROOT
ATOM      1  C4' PXY d   1       1.100   0.356  -0.775  0.00  0.00     0.077 C 
ATOM      2  C1' PXY d   1      -0.018  -4.882  -2.949  0.00  0.00     0.077 C 
ATOM      3  C1  PXY d   1       0.275  -3.504  -2.391  0.00  0.00    -0.082 A 
ATOM      4  C2  PXY d   1       0.864  -3.387  -1.212  0.00  0.00     0.003 A 
ATOM      5  C3  PXY d   1       1.108  -2.148  -0.678  0.00  0.00     0.003 A 
ATOM      6  C4  PXY d   1       0.793  -1.016  -1.382  0.00  0.00    -0.082 A 
ATOM      7  C5  PXY d   1       0.202  -1.127  -2.590  0.00  0.00     0.003 A 
ATOM      8  C6  PXY d   1      -0.074  -2.394  -3.096  0.00  0.00     0.003 A 
ENDROOT
TORSDOF 0
ENDMDL
