MODEL 1
REMARK minimizedAffinity -2.80099607
REMARK minimizedRMSD -1
REMARK  0 active torsions:
REMARK  status: ('A' for Active; 'I' for Inactive)
ROOT
ATOM      1  C4' PXY d   1      -0.423   3.812   0.676  0.00  0.00     0.077 C 
ATOM      2  C1' PXY d   1       0.926  -1.667  -0.581  0.00  0.00     0.077 C 
ATOM      3  C1  PXY d   1       0.562  -0.234  -0.245  0.00  0.00    -0.082 A 
ATOM      4  C2  PXY d   1       1.003   0.750  -1.012  0.00  0.00     0.003 A 
ATOM      5  C3  PXY d   1       0.710   2.054  -0.704  0.00  0.00     0.003 A 
ATOM      6  C4  PXY d   1      -0.088   2.350   0.369  0.00  0.00    -0.082 A 
ATOM      7  C5  PXY d   1      -0.550   1.351   1.150  0.00  0.00     0.003 A 
ATOM      8  C6  PXY d   1      -0.207   0.037   0.844  0.00  0.00     0.003 A 
ENDROOT
TORSDOF 0
ENDMDL
