MODEL 1
REMARK minimizedAffinity -1.28691995
REMARK minimizedRMSD -1
REMARK  0 active torsions:
REMARK  status: ('A' for Active; 'I' for Inactive)
ROOT
ATOM      1  C4' PXY d   1       1.284  -2.111  -1.299  0.00  0.00     0.077 C 
ATOM      2  C1' PXY d   1      -1.392   1.893   1.899  0.00  0.00     0.077 C 
ATOM      3  C1  PXY d   1      -0.684   0.839   1.071  0.00  0.00    -0.082 A 
ATOM      4  C2  PXY d   1      -0.561   1.007  -0.236  0.00  0.00     0.003 A 
ATOM      5  C3  PXY d   1       0.049   0.049  -1.004  0.00  0.00     0.003 A 
ATOM      6  C4  PXY d   1       0.584  -1.068  -0.422  0.00  0.00    -0.082 A 
ATOM      7  C5  PXY d   1       0.472  -1.243   0.912  0.00  0.00     0.003 A 
ATOM      8  C6  PXY d   1      -0.187  -0.278   1.668  0.00  0.00     0.003 A 
ENDROOT
TORSDOF 0
ENDMDL
