MODEL 1
REMARK minimizedAffinity -2.07819128
REMARK minimizedRMSD -1
REMARK  0 active torsions:
REMARK  status: ('A' for Active; 'I' for Inactive)
ROOT
ATOM      1  C4' PXY d   1       0.698   2.759  -1.045  0.00  0.00     0.077 C 
ATOM      2  C1' PXY d   1      -0.590  -1.011   3.144  0.00  0.00     0.077 C 
ATOM      3  C1  PXY d   1      -0.241  -0.028   2.044  0.00  0.00    -0.082 A 
ATOM      4  C2  PXY d   1      -0.782   1.179   2.049  0.00  0.00     0.003 A 
ATOM      5  C3  PXY d   1      -0.502   2.069   1.044  0.00  0.00     0.003 A 
ATOM      6  C4  PXY d   1       0.382   1.738   0.052  0.00  0.00    -0.082 A 
ATOM      7  C5  PXY d   1       0.946   0.511   0.045  0.00  0.00     0.003 A 
ATOM      8  C6  PXY d   1       0.617  -0.392   1.052  0.00  0.00     0.003 A 
ENDROOT
TORSDOF 0
ENDMDL
