MODEL 1
REMARK minimizedAffinity -2.22204995
REMARK minimizedRMSD -1
REMARK  0 active torsions:
REMARK  status: ('A' for Active; 'I' for Inactive)
ROOT
ATOM      1  C4' PXY d   1       0.976  -2.776  -1.382  0.00  0.00     0.077 C 
ATOM      2  C1' PXY d   1      -1.068   1.465   1.973  0.00  0.00     0.077 C 
ATOM      3  C1  PXY d   1      -0.536   0.360   1.082  0.00  0.00    -0.082 A 
ATOM      4  C2  PXY d   1      -0.450  -0.874   1.552  0.00  0.00     0.003 A 
ATOM      5  C3  PXY d   1       0.060  -1.880   0.771  0.00  0.00     0.003 A 
ATOM      6  C4  PXY d   1       0.435  -1.630  -0.522  0.00  0.00    -0.082 A 
ATOM      7  C5  PXY d   1       0.340  -0.376  -1.012  0.00  0.00     0.003 A 
ATOM      8  C6  PXY d   1      -0.141   0.639  -0.189  0.00  0.00     0.003 A 
ENDROOT
TORSDOF 0
ENDMDL
