MODEL 1
REMARK minimizedAffinity -4.03605366
REMARK minimizedRMSD -1
REMARK  0 active torsions:
REMARK  status: ('A' for Active; 'I' for Inactive)
ROOT
ATOM      1  C4' PXY d   1       1.563  -2.347  -1.045  0.00  0.00     0.077 C 
ATOM      2  C1' PXY d   1      -0.691   2.195   1.731  0.00  0.00     0.077 C 
ATOM      3  C1  PXY d   1      -0.100   1.011   0.992  0.00  0.00    -0.082 A 
ATOM      4  C2  PXY d   1      -0.301  -0.214   1.451  0.00  0.00     0.003 A 
ATOM      5  C3  PXY d   1       0.253  -1.294   0.813  0.00  0.00     0.003 A 
ATOM      6  C4  PXY d   1       0.977  -1.122  -0.337  0.00  0.00    -0.082 A 
ATOM      7  C5  PXY d   1       1.178   0.123  -0.817  0.00  0.00     0.003 A 
ATOM      8  C6  PXY d   1       0.641   1.209  -0.132  0.00  0.00     0.003 A 
ENDROOT
TORSDOF 0
ENDMDL
