MODEL 1
REMARK minimizedAffinity -2.43706369
REMARK minimizedRMSD -1
REMARK  0 active torsions:
REMARK  status: ('A' for Active; 'I' for Inactive)
ROOT
ATOM      1  C4' PXY d   1      -0.969   1.225   2.026  0.00  0.00     0.077 C 
ATOM      2  C1' PXY d   1       1.826  -2.438  -1.464  0.00  0.00     0.077 C 
ATOM      3  C1  PXY d   1       1.092  -1.487  -0.540  0.00  0.00    -0.082 A 
ATOM      4  C2  PXY d   1       0.464  -0.438  -1.046  0.00  0.00     0.003 A 
ATOM      5  C3  PXY d   1      -0.178   0.450  -0.221  0.00  0.00     0.003 A 
ATOM      6  C4  PXY d   1      -0.223   0.233   1.130  0.00  0.00    -0.082 A 
ATOM      7  C5  PXY d   1       0.406  -0.841   1.652  0.00  0.00     0.003 A 
ATOM      8  C6  PXY d   1       1.087  -1.708   0.803  0.00  0.00     0.003 A 
ENDROOT
TORSDOF 0
ENDMDL
