MODEL 1
REMARK minimizedAffinity -0.999813378
REMARK minimizedRMSD -1
REMARK  0 active torsions:
REMARK  status: ('A' for Active; 'I' for Inactive)
ROOT
ATOM      1  C4' PXY d   1       1.131  -4.953  -1.390  0.00  0.00     0.077 C 
ATOM      2  C1' PXY d   1       0.501   0.790  -1.562  0.00  0.00     0.077 C 
ATOM      3  C1  PXY d   1       0.656  -0.717  -1.525  0.00  0.00    -0.082 A 
ATOM      4  C2  PXY d   1       1.272  -1.286  -0.502  0.00  0.00     0.003 A 
ATOM      5  C3  PXY d   1       1.449  -2.646  -0.468  0.00  0.00     0.003 A 
ATOM      6  C4  PXY d   1       0.943  -3.436  -1.465  0.00  0.00    -0.082 A 
ATOM      7  C5  PXY d   1       0.303  -2.863  -2.507  0.00  0.00     0.003 A 
ATOM      8  C6  PXY d   1       0.170  -1.478  -2.543  0.00  0.00     0.003 A 
ENDROOT
TORSDOF 0
ENDMDL
