MODEL 1
REMARK minimizedAffinity -0.82185936
REMARK minimizedRMSD -1
REMARK  0 active torsions:
REMARK  status: ('A' for Active; 'I' for Inactive)
ROOT
ATOM      1  C4' PXY d   1       1.045  -3.722  -3.451  0.00  0.00     0.077 C 
ATOM      2  C1' PXY d   1      -0.307   0.551   0.200  0.00  0.00     0.077 C 
ATOM      3  C1  PXY d   1       0.036  -0.569  -0.763  0.00  0.00    -0.082 A 
ATOM      4  C2  PXY d   1       1.013  -1.410  -0.466  0.00  0.00     0.003 A 
ATOM      5  C3  PXY d   1       1.357  -2.409  -1.340  0.00  0.00     0.003 A 
ATOM      6  C4  PXY d   1       0.658  -2.582  -2.505  0.00  0.00    -0.082 A 
ATOM      7  C5  PXY d   1      -0.347  -1.734  -2.809  0.00  0.00     0.003 A 
ATOM      8  C6  PXY d   1      -0.654  -0.701  -1.928  0.00  0.00     0.003 A 
ENDROOT
TORSDOF 0
ENDMDL
