MODEL 1
REMARK minimizedAffinity -0.496499568
REMARK minimizedRMSD -1
REMARK  0 active torsions:
REMARK  status: ('A' for Active; 'I' for Inactive)
ROOT
ATOM      1  C4' PXY d   1       1.511  -0.331   0.015  0.00  0.00     0.077 C 
ATOM      2  C1' PXY d   1      -0.443  -4.569  -3.395  0.00  0.00     0.077 C 
ATOM      3  C1  PXY d   1       0.070  -3.466  -2.491  0.00  0.00    -0.082 A 
ATOM      4  C2  PXY d   1      -0.225  -2.206  -2.764  0.00  0.00     0.003 A 
ATOM      5  C3  PXY d   1       0.258  -1.193  -1.975  0.00  0.00     0.003 A 
ATOM      6  C4  PXY d   1       1.006  -1.478  -0.865  0.00  0.00    -0.082 A 
ATOM      7  C5  PXY d   1       1.303  -2.762  -0.573  0.00  0.00     0.003 A 
ATOM      8  C6  PXY d   1       0.837  -3.772  -1.410  0.00  0.00     0.003 A 
ENDROOT
TORSDOF 0
ENDMDL
