MODEL 1
REMARK minimizedAffinity -2.85402179
REMARK minimizedRMSD -1
REMARK  0 active torsions:
REMARK  status: ('A' for Active; 'I' for Inactive)
ROOT
ATOM      1  C4' PXY d   1       0.591  -2.676  -2.215  0.00  0.00     0.077 C 
ATOM      2  C1' PXY d   1      -1.029   1.031   1.913  0.00  0.00     0.077 C 
ATOM      3  C1  PXY d   1      -0.594   0.067   0.827  0.00  0.00    -0.082 A 
ATOM      4  C2  PXY d   1      -1.461  -0.810   0.346  0.00  0.00     0.003 A 
ATOM      5  C3  PXY d   1      -1.076  -1.710  -0.614  0.00  0.00     0.003 A 
ATOM      6  C4  PXY d   1       0.194  -1.677  -1.125  0.00  0.00    -0.082 A 
ATOM      7  C5  PXY d   1       1.081  -0.779  -0.647  0.00  0.00     0.003 A 
ATOM      8  C6  PXY d   1       0.682   0.099   0.357  0.00  0.00     0.003 A 
ENDROOT
TORSDOF 0
ENDMDL
