MODEL 1
REMARK minimizedAffinity -2.78980899
REMARK minimizedRMSD -1
REMARK  0 active torsions:
REMARK  status: ('A' for Active; 'I' for Inactive)
ROOT
ATOM      1  C4' PXY d   1       1.112  -2.185  -1.710  0.00  0.00     0.077 C 
ATOM      2  C1' PXY d   1      -0.922   1.621   2.136  0.00  0.00     0.077 C 
ATOM      3  C1  PXY d   1      -0.396   0.629   1.118  0.00  0.00    -0.082 A 
ATOM      4  C2  PXY d   1       0.082  -0.536   1.526  0.00  0.00     0.003 A 
ATOM      5  C3  PXY d   1       0.591  -1.432   0.622  0.00  0.00     0.003 A 
ATOM      6  C4  PXY d   1       0.562  -1.156  -0.719  0.00  0.00    -0.082 A 
ATOM      7  C5  PXY d   1       0.066   0.025  -1.144  0.00  0.00     0.003 A 
ATOM      8  C6  PXY d   1      -0.408   0.938  -0.207  0.00  0.00     0.003 A 
ENDROOT
TORSDOF 0
ENDMDL
