MODEL 1
REMARK minimizedAffinity -2.11723614
REMARK minimizedRMSD -1
REMARK  0 active torsions:
REMARK  status: ('A' for Active; 'I' for Inactive)
ROOT
ATOM      1  C4' PXY d   1       1.245  -1.964  -1.553  0.00  0.00     0.077 C 
ATOM      2  C1' PXY d   1      -0.479   1.679   2.590  0.00  0.00     0.077 C 
ATOM      3  C1  PXY d   1      -0.030   0.733   1.495  0.00  0.00    -0.082 A 
ATOM      4  C2  PXY d   1       0.007  -0.569   1.729  0.00  0.00     0.003 A 
ATOM      5  C3  PXY d   1       0.441  -1.436   0.760  0.00  0.00     0.003 A 
ATOM      6  C4  PXY d   1       0.790  -0.972  -0.480  0.00  0.00    -0.082 A 
ATOM      7  C5  PXY d   1       0.745   0.354  -0.730  0.00  0.00     0.003 A 
ATOM      8  C6  PXY d   1       0.341   1.222   0.280  0.00  0.00     0.003 A 
ENDROOT
TORSDOF 0
ENDMDL
