MODEL 1
REMARK minimizedAffinity -2.29755163
REMARK minimizedRMSD -1
REMARK  0 active torsions:
REMARK  status: ('A' for Active; 'I' for Inactive)
ROOT
ATOM      1  C4' PXY d   1       1.337  -2.208  -1.508  0.00  0.00     0.077 C 
ATOM      2  C1' PXY d   1      -0.976   1.510   2.267  0.00  0.00     0.077 C 
ATOM      3  C1  PXY d   1      -0.373   0.542   1.267  0.00  0.00    -0.082 A 
ATOM      4  C2  PXY d   1      -0.169  -0.717   1.618  0.00  0.00     0.003 A 
ATOM      5  C3  PXY d   1       0.405  -1.598   0.737  0.00  0.00     0.003 A 
ATOM      6  C4  PXY d   1       0.722  -1.199  -0.534  0.00  0.00    -0.082 A 
ATOM      7  C5  PXY d   1       0.507   0.082  -0.902  0.00  0.00     0.003 A 
ATOM      8  C6  PXY d   1      -0.038   0.971   0.020  0.00  0.00     0.003 A 
ENDROOT
TORSDOF 0
ENDMDL
