MODEL 1
REMARK minimizedAffinity -2.99134684
REMARK minimizedRMSD -1
REMARK  0 active torsions:
REMARK  status: ('A' for Active; 'I' for Inactive)
ROOT
ATOM      1  C4' PXY d   1      -0.381   0.617   0.688  0.00  0.00     0.077 C 
ATOM      2  C1' PXY d   1       0.985  -3.524  -3.107  0.00  0.00     0.077 C 
ATOM      3  C1  PXY d   1       0.636  -2.442  -2.104  0.00  0.00    -0.082 A 
ATOM      4  C2  PXY d   1      -0.582  -1.925  -2.097  0.00  0.00     0.003 A 
ATOM      5  C3  PXY d   1      -0.904  -0.923  -1.218  0.00  0.00     0.003 A 
ATOM      6  C4  PXY d   1       0.012  -0.484  -0.301  0.00  0.00    -0.082 A 
ATOM      7  C5  PXY d   1       1.254  -1.015  -0.294  0.00  0.00     0.003 A 
ATOM      8  C6  PXY d   1       1.574  -2.002  -1.222  0.00  0.00     0.003 A 
ENDROOT
TORSDOF 0
ENDMDL
