MODEL 1
REMARK minimizedAffinity -3.61145377
REMARK minimizedRMSD -1
REMARK  0 active torsions:
REMARK  status: ('A' for Active; 'I' for Inactive)
ROOT
ATOM      1  C4' PXY d   1      -1.405   2.878   1.175  0.00  0.00     0.077 C 
ATOM      2  C1' PXY d   1       1.114  -2.017  -0.587  0.00  0.00     0.077 C 
ATOM      3  C1  PXY d   1       0.446  -0.740  -0.117  0.00  0.00    -0.082 A 
ATOM      4  C2  PXY d   1       0.442   0.324  -0.903  0.00  0.00     0.003 A 
ATOM      5  C3  PXY d   1      -0.130   1.497  -0.480  0.00  0.00     0.003 A 
ATOM      6  C4  PXY d   1      -0.751   1.565   0.738  0.00  0.00    -0.082 A 
ATOM      7  C5  PXY d   1      -0.760   0.480   1.541  0.00  0.00     0.003 A 
ATOM      8  C6  PXY d   1      -0.138  -0.688   1.111  0.00  0.00     0.003 A 
ENDROOT
TORSDOF 0
ENDMDL
