MODEL 1
REMARK minimizedAffinity -4.11042118
REMARK minimizedRMSD -1
REMARK  0 active torsions:
REMARK  status: ('A' for Active; 'I' for Inactive)
ROOT
ATOM      1  C4' PXY d   1       0.606  -2.389  -2.147  0.00  0.00     0.077 C 
ATOM      2  C1' PXY d   1      -0.709   1.415   2.002  0.00  0.00     0.077 C 
ATOM      3  C1  PXY d   1      -0.360   0.427   0.906  0.00  0.00    -0.082 A 
ATOM      4  C2  PXY d   1      -0.976  -0.743   0.859  0.00  0.00     0.003 A 
ATOM      5  C3  PXY d   1      -0.650  -1.661  -0.106  0.00  0.00     0.003 A 
ATOM      6  C4  PXY d   1       0.279  -1.357  -1.064  0.00  0.00    -0.082 A 
ATOM      7  C5  PXY d   1       0.905  -0.162  -1.030  0.00  0.00     0.003 A 
ATOM      8  C6  PXY d   1       0.589   0.740  -0.017  0.00  0.00     0.003 A 
ENDROOT
TORSDOF 0
ENDMDL
