MODEL 1
REMARK minimizedAffinity 1.44762993
REMARK minimizedRMSD -1
REMARK  0 active torsions:
REMARK  status: ('A' for Active; 'I' for Inactive)
ROOT
ATOM      1  C4' PXY d   1      -0.031  -2.514  -1.305  0.00  0.00     0.077 C 
ATOM      2  C1' PXY d   1      -0.550   1.661   2.659  0.00  0.00     0.077 C 
ATOM      3  C1  PXY d   1      -0.412   0.575   1.611  0.00  0.00    -0.082 A 
ATOM      4  C2  PXY d   1      -0.955  -0.613   1.823  0.00  0.00     0.003 A 
ATOM      5  C3  PXY d   1      -0.813  -1.616   0.900  0.00  0.00     0.003 A 
ATOM      6  C4  PXY d   1      -0.153  -1.385  -0.278  0.00  0.00    -0.082 A 
ATOM      7  C5  PXY d   1       0.395  -0.173  -0.507  0.00  0.00     0.003 A 
ATOM      8  C6  PXY d   1       0.274   0.820   0.461  0.00  0.00     0.003 A 
ENDROOT
TORSDOF 0
ENDMDL
