MODEL 1
REMARK minimizedAffinity -4.40111303
REMARK minimizedRMSD -1
REMARK  0 active torsions:
REMARK  status: ('A' for Active; 'I' for Inactive)
ROOT
ATOM      1  C4' PXY d   1      -1.739   2.157   1.979  0.00  0.00     0.077 C 
ATOM      2  C1' PXY d   1       1.107  -1.720  -1.228  0.00  0.00     0.077 C 
ATOM      3  C1  PXY d   1       0.354  -0.713  -0.381  0.00  0.00    -0.082 A 
ATOM      4  C2  PXY d   1       0.195   0.524  -0.823  0.00  0.00     0.003 A 
ATOM      5  C3  PXY d   1      -0.456   1.456  -0.056  0.00  0.00     0.003 A 
ATOM      6  C4  PXY d   1      -0.994   1.104   1.153  0.00  0.00    -0.082 A 
ATOM      7  C5  PXY d   1      -0.845  -0.159   1.606  0.00  0.00     0.003 A 
ATOM      8  C6  PXY d   1      -0.145  -1.079   0.831  0.00  0.00     0.003 A 
ENDROOT
TORSDOF 0
ENDMDL
