MODEL 1
REMARK minimizedAffinity 5.52202845
REMARK minimizedRMSD -1
REMARK  1 active torsions:
REMARK  status: ('A' for Active; 'I' for Inactive)
REMARK    1  A    between atoms: N_2  and  C1_3 
ROOT
ATOM      1  C1  UNL d   1      -3.217  -2.550  -2.289  0.00  0.00     0.143 A 
ATOM      2  C2  UNL d   1      -1.982  -3.039  -1.851  0.00  0.00    -0.057 A 
ATOM      3  C3  UNL d   1      -1.889  -3.884  -0.738  0.00  0.00     0.033 A 
ATOM      4  C4  UNL d   1      -3.031  -4.231  -0.023  0.00  0.00    -0.042 A 
ATOM      5  C5  UNL d   1      -4.266  -3.736  -0.426  0.00  0.00     0.033 A 
ATOM      6  C6  UNL d   1      -4.353  -2.898  -1.542  0.00  0.00    -0.057 A 
ENDROOT
BRANCH   1   7
ATOM      7  N   UNL d   1      -3.364  -1.628  -3.328  0.00  0.00    -0.732 N 
ATOM      8  C   UNL d   1      -4.312  -0.540  -3.220  0.00  0.00     0.284 C 
ATOM      9  H3  UNL d   1      -2.472  -1.363  -3.741  0.00  0.00     0.395 HD
ENDBRANCH   1   7
TORSDOF 1
ENDMDL
