MODEL 1
REMARK minimizedAffinity 0.395004839
REMARK minimizedRMSD -1
REMARK  1 active torsions:
REMARK  status: ('A' for Active; 'I' for Inactive)
REMARK    1  A    between atoms: N_2  and  C1_3 
ROOT
ATOM      1  C1  UNL d   1      -1.288  -2.467   0.360  0.00  0.00     0.143 A 
ATOM      2  C2  UNL d   1      -0.758  -2.615  -0.926  0.00  0.00    -0.057 A 
ATOM      3  C3  UNL d   1       0.587  -2.950  -1.123  0.00  0.00     0.033 A 
ATOM      4  C4  UNL d   1       1.435  -3.115  -0.034  0.00  0.00    -0.042 A 
ATOM      5  C5  UNL d   1       0.937  -2.948   1.253  0.00  0.00     0.033 A 
ATOM      6  C6  UNL d   1      -0.409  -2.620   1.444  0.00  0.00    -0.057 A 
ENDROOT
BRANCH   1   7
ATOM      7  N   UNL d   1      -2.592  -2.038   0.620  0.00  0.00    -0.732 N 
ATOM      8  C   UNL d   1      -2.835  -0.861   1.426  0.00  0.00     0.284 C 
ATOM      9  H3  UNL d   1      -3.196  -2.115  -0.196  0.00  0.00     0.395 HD
ENDBRANCH   1   7
TORSDOF 1
ENDMDL
