MODEL 1
REMARK minimizedAffinity -1.96551037
REMARK minimizedRMSD -1
REMARK  1 active torsions:
REMARK  status: ('A' for Active; 'I' for Inactive)
REMARK    1  A    between atoms: N_2  and  C1_3 
ROOT
ATOM      1  C1  UNL d   1       1.363  -2.099   0.202  0.00  0.00     0.143 A 
ATOM      2  C2  UNL d   1       2.029  -0.895   0.454  0.00  0.00    -0.057 A 
ATOM      3  C3  UNL d   1       1.355   0.211   0.984  0.00  0.00     0.033 A 
ATOM      4  C4  UNL d   1      -0.010   0.142   1.244  0.00  0.00    -0.042 A 
ATOM      5  C5  UNL d   1      -0.698  -1.036   0.978  0.00  0.00     0.033 A 
ATOM      6  C6  UNL d   1      -0.017  -2.140   0.455  0.00  0.00    -0.057 A 
ENDROOT
BRANCH   1   7
ATOM      7  N   UNL d   1       1.957  -3.202  -0.416  0.00  0.00    -0.732 N 
ATOM      8  C   UNL d   1       2.908  -4.024   0.300  0.00  0.00     0.284 C 
ATOM      9  H3  UNL d   1       1.299  -3.729  -0.987  0.00  0.00     0.395 HD
ENDBRANCH   1   7
TORSDOF 1
ENDMDL
