MODEL 1
REMARK minimizedAffinity 4.32388306
REMARK minimizedRMSD -1
REMARK  1 active torsions:
REMARK  status: ('A' for Active; 'I' for Inactive)
REMARK    1  A    between atoms: N_2  and  C1_3 
ROOT
ATOM      1  C1  UNL d   1       3.769   5.998   3.542  0.00  0.00     0.143 A 
ATOM      2  C2  UNL d   1       3.089   5.989   4.764  0.00  0.00    -0.057 A 
ATOM      3  C3  UNL d   1       3.782   5.986   5.981  0.00  0.00     0.033 A 
ATOM      4  C4  UNL d   1       5.172   5.961   5.996  0.00  0.00    -0.042 A 
ATOM      5  C5  UNL d   1       5.869   5.945   4.793  0.00  0.00     0.033 A 
ATOM      6  C6  UNL d   1       5.172   5.955   3.582  0.00  0.00    -0.057 A 
ENDROOT
BRANCH   1   7
ATOM      7  N   UNL d   1       3.138   5.903   2.300  0.00  0.00    -0.732 N 
ATOM      8  C   UNL d   1       3.910   5.929   1.076  0.00  0.00     0.284 C 
ATOM      9  H3  UNL d   1       2.382   5.222   2.299  0.00  0.00     0.395 HD
ENDBRANCH   1   7
TORSDOF 1
ENDMDL
