MODEL 1
REMARK minimizedAffinity 4.19309616
REMARK minimizedRMSD -1
REMARK  1 active torsions:
REMARK  status: ('A' for Active; 'I' for Inactive)
REMARK    1  A    between atoms: N_2  and  C1_3 
ROOT
ATOM      1  C1  UNL d   1       4.547   5.825   3.194  0.00  0.00     0.143 A 
ATOM      2  C2  UNL d   1       5.825   5.817   3.765  0.00  0.00    -0.057 A 
ATOM      3  C3  UNL d   1       6.000   5.832   5.154  0.00  0.00     0.033 A 
ATOM      4  C4  UNL d   1       4.896   5.885   5.999  0.00  0.00    -0.042 A 
ATOM      5  C5  UNL d   1       3.618   5.919   5.454  0.00  0.00     0.033 A 
ATOM      6  C6  UNL d   1       3.449   5.897   4.066  0.00  0.00    -0.057 A 
ENDROOT
BRANCH   1   7
ATOM      7  N   UNL d   1       4.310   5.910   1.820  0.00  0.00    -0.732 N 
ATOM      8  C   UNL d   1       2.958   5.996   1.310  0.00  0.00     0.284 C 
ATOM      9  H3  UNL d   1       4.972   6.522   1.349  0.00  0.00     0.395 HD
ENDBRANCH   1   7
TORSDOF 1
ENDMDL
