MODEL 1
REMARK minimizedAffinity -0.808620811
REMARK minimizedRMSD -1
REMARK  1 active torsions:
REMARK  status: ('A' for Active; 'I' for Inactive)
REMARK    1  A    between atoms: N_2  and  C1_3 
ROOT
ATOM      1  C1  UNL d   1      -4.375   1.152   0.679  0.00  0.00     0.143 A 
ATOM      2  C2  UNL d   1      -3.951   0.047   1.424  0.00  0.00    -0.057 A 
ATOM      3  C3  UNL d   1      -2.950   0.166   2.396  0.00  0.00     0.033 A 
ATOM      4  C4  UNL d   1      -2.333   1.393   2.619  0.00  0.00    -0.042 A 
ATOM      5  C5  UNL d   1      -2.720   2.500   1.873  0.00  0.00     0.033 A 
ATOM      6  C6  UNL d   1      -3.726   2.375   0.909  0.00  0.00    -0.057 A 
ENDROOT
BRANCH   1   7
ATOM      7  N   UNL d   1      -5.296   1.077  -0.369  0.00  0.00    -0.732 N 
ATOM      8  C   UNL d   1      -4.908   1.431  -1.717  0.00  0.00     0.284 C 
ATOM      9  H3  UNL d   1      -5.886   0.250  -0.309  0.00  0.00     0.395 HD
ENDBRANCH   1   7
TORSDOF 1
ENDMDL
