MODEL 1
REMARK minimizedAffinity 3.28407836
REMARK minimizedRMSD -1
REMARK  1 active torsions:
REMARK  status: ('A' for Active; 'I' for Inactive)
REMARK    1  A    between atoms: N_2  and  C1_3 
ROOT
ATOM      1  C1  UNL d   1       0.158   2.565  -4.863  0.00  0.00     0.143 A 
ATOM      2  C2  UNL d   1      -0.493   3.068  -5.995  0.00  0.00    -0.057 A 
ATOM      3  C3  UNL d   1      -1.875   3.288  -5.999  0.00  0.00     0.033 A 
ATOM      4  C4  UNL d   1      -2.639   2.982  -4.878  0.00  0.00    -0.042 A 
ATOM      5  C5  UNL d   1      -2.017   2.457  -3.750  0.00  0.00     0.033 A 
ATOM      6  C6  UNL d   1      -0.635   2.245  -3.749  0.00  0.00    -0.057 A 
ENDROOT
BRANCH   1   7
ATOM      7  N   UNL d   1       1.514   2.231  -4.830  0.00  0.00    -0.732 N 
ATOM      8  C   UNL d   1       2.387   2.582  -5.929  0.00  0.00     0.284 C 
ATOM      9  H3  UNL d   1       1.926   2.372  -3.910  0.00  0.00     0.395 HD
ENDBRANCH   1   7
TORSDOF 1
ENDMDL
