MODEL 1
REMARK minimizedAffinity 4.81579256
REMARK minimizedRMSD -1
REMARK  1 active torsions:
REMARK  status: ('A' for Active; 'I' for Inactive)
REMARK    1  A    between atoms: N_2  and  C1_3 
ROOT
ATOM      1  C1  UNL d   1      -0.396   2.916  -3.625  0.00  0.00     0.143 A 
ATOM      2  C2  UNL d   1       0.775   2.151  -3.648  0.00  0.00    -0.057 A 
ATOM      3  C3  UNL d   1       1.537   2.025  -4.815  0.00  0.00     0.033 A 
ATOM      4  C4  UNL d   1       1.125   2.641  -5.992  0.00  0.00    -0.042 A 
ATOM      5  C5  UNL d   1      -0.049   3.386  -5.999  0.00  0.00     0.033 A 
ATOM      6  C6  UNL d   1      -0.802   3.513  -4.829  0.00  0.00    -0.057 A 
ENDROOT
BRANCH   1   7
ATOM      7  N   UNL d   1      -1.250   2.999  -2.522  0.00  0.00    -0.732 N 
ATOM      8  C   UNL d   1      -2.612   2.517  -2.606  0.00  0.00     0.284 C 
ATOM      9  H3  UNL d   1      -0.780   2.769  -1.649  0.00  0.00     0.395 HD
ENDBRANCH   1   7
TORSDOF 1
ENDMDL
