MODEL 1
REMARK minimizedAffinity -3.70950341
REMARK minimizedRMSD -1
REMARK  1 active torsions:
REMARK  status: ('A' for Active; 'I' for Inactive)
REMARK    1  A    between atoms: N_2  and  C1_3 
ROOT
ATOM      1  C1  UNL d   1       0.808  -3.339  -0.838  0.00  0.00     0.143 A 
ATOM      2  C2  UNL d   1      -0.343  -3.666  -1.564  0.00  0.00    -0.057 A 
ATOM      3  C3  UNL d   1      -1.621  -3.392  -1.062  0.00  0.00     0.033 A 
ATOM      4  C4  UNL d   1      -1.772  -2.810   0.192  0.00  0.00    -0.042 A 
ATOM      5  C5  UNL d   1      -0.643  -2.499   0.942  0.00  0.00     0.033 A 
ATOM      6  C6  UNL d   1       0.631  -2.769   0.432  0.00  0.00    -0.057 A 
ENDROOT
BRANCH   1   7
ATOM      7  N   UNL d   1       2.103  -3.676  -1.239  0.00  0.00    -0.732 N 
ATOM      8  C   UNL d   1       3.074  -4.146  -0.275  0.00  0.00     0.284 C 
ATOM      9  H3  UNL d   1       2.117  -4.180  -2.123  0.00  0.00     0.395 HD
ENDBRANCH   1   7
TORSDOF 1
ENDMDL
