MODEL 1
REMARK minimizedAffinity 0.914654136
REMARK minimizedRMSD -1
REMARK  1 active torsions:
REMARK  status: ('A' for Active; 'I' for Inactive)
REMARK    1  A    between atoms: N_2  and  C1_3 
ROOT
ATOM      1  C1  UNL d   1       4.518   6.000   3.199  0.00  0.00     0.143 A 
ATOM      2  C2  UNL d   1       3.430   5.996   4.078  0.00  0.00    -0.057 A 
ATOM      3  C3  UNL d   1       3.618   5.990   5.466  0.00  0.00     0.033 A 
ATOM      4  C4  UNL d   1       4.902   5.958   6.000  0.00  0.00    -0.042 A 
ATOM      5  C5  UNL d   1       5.997   5.936   5.144  0.00  0.00     0.033 A 
ATOM      6  C6  UNL d   1       5.804   5.949   3.760  0.00  0.00    -0.057 A 
ENDROOT
BRANCH   1   7
ATOM      7  N   UNL d   1       4.396   5.906   1.810  0.00  0.00    -0.732 N 
ATOM      8  C   UNL d   1       3.097   5.984   1.177  0.00  0.00     0.284 C 
ATOM      9  H3  UNL d   1       5.128   6.416   1.321  0.00  0.00     0.395 HD
ENDBRANCH   1   7
TORSDOF 1
ENDMDL
