MODEL 1
REMARK minimizedAffinity -3.60245037
REMARK minimizedRMSD -1
REMARK  1 active torsions:
REMARK  status: ('A' for Active; 'I' for Inactive)
REMARK    1  A    between atoms: N_2  and  C1_3 
ROOT
ATOM      1  C1  UNL d   1      -3.646   1.606   0.402  0.00  0.00     0.143 A 
ATOM      2  C2  UNL d   1      -3.163   0.783   1.425  0.00  0.00    -0.057 A 
ATOM      3  C3  UNL d   1      -1.804   0.459   1.516  0.00  0.00     0.033 A 
ATOM      4  C4  UNL d   1      -0.906   0.930   0.565  0.00  0.00    -0.042 A 
ATOM      5  C5  UNL d   1      -1.367   1.728  -0.476  0.00  0.00     0.033 A 
ATOM      6  C6  UNL d   1      -2.724   2.054  -0.557  0.00  0.00    -0.057 A 
ENDROOT
BRANCH   1   7
ATOM      7  N   UNL d   1      -5.000   1.884   0.201  0.00  0.00    -0.732 N 
ATOM      8  C   UNL d   1      -6.000   1.383   1.120  0.00  0.00     0.284 C 
ATOM      9  H3  UNL d   1      -5.159   2.842  -0.104  0.00  0.00     0.395 HD
ENDBRANCH   1   7
TORSDOF 1
ENDMDL
