MODEL 1
REMARK minimizedAffinity 0.766860962
REMARK minimizedRMSD -1
REMARK  1 active torsions:
REMARK  status: ('A' for Active; 'I' for Inactive)
REMARK    1  A    between atoms: N_2  and  C1_3 
ROOT
ATOM      1  C1  UNL d   1      -1.293   4.121  -5.814  0.00  0.00     0.143 A 
ATOM      2  C2  UNL d   1      -1.862   2.843  -5.807  0.00  0.00    -0.057 A 
ATOM      3  C3  UNL d   1      -3.247   2.664  -5.906  0.00  0.00     0.033 A 
ATOM      4  C4  UNL d   1      -4.092   3.766  -5.986  0.00  0.00    -0.042 A 
ATOM      5  C5  UNL d   1      -3.551   5.046  -5.969  0.00  0.00     0.033 A 
ATOM      6  C6  UNL d   1      -2.166   5.218  -5.877  0.00  0.00    -0.057 A 
ENDROOT
BRANCH   1   7
ATOM      7  N   UNL d   1       0.069   4.368  -5.619  0.00  0.00    -0.732 N 
ATOM      8  C   UNL d   1       0.877   3.460  -4.834  0.00  0.00     0.284 C 
ATOM      9  H3  UNL d   1       0.526   4.709  -6.462  0.00  0.00     0.395 HD
ENDBRANCH   1   7
TORSDOF 1
ENDMDL
