MODEL 1
REMARK minimizedAffinity -2.72781873
REMARK minimizedRMSD -1
REMARK  1 active torsions:
REMARK  status: ('A' for Active; 'I' for Inactive)
REMARK    1  A    between atoms: C1_2  and  C2_3 
ROOT
ATOM      1  C2  UNL d   1       0.822  -0.548  -1.139  0.00  0.00    -0.073 A 
ATOM      2  C3  UNL d   1       1.058  -1.923  -1.249  0.00  0.00    -0.002 A 
ATOM      3  C4  UNL d   1       1.424  -2.479  -2.475  0.00  0.00     0.004 A 
ATOM      4  C5  UNL d   1       1.565  -1.668  -3.600  0.00  0.00    -0.004 A 
ATOM      5  C6  UNL d   1       1.345  -0.289  -3.508  0.00  0.00    -0.075 A 
ATOM      6  C7  UNL d   1       1.490   0.597  -4.709  0.00  0.00     0.076 C 
ATOM      7  C8  UNL d   1       0.975   0.262  -2.274  0.00  0.00     0.001 A 
ENDROOT
BRANCH   1   8
ATOM      8  C1  UNL d   1       0.433   0.058   0.185  0.00  0.00     0.053 C 
ATOM      9  C   UNL d   1       1.496  -0.163   1.248  0.00  0.00     0.018 C 
ENDBRANCH   1   8
TORSDOF 1
ENDMDL
