MODEL 1
REMARK minimizedAffinity -1.74561048
REMARK minimizedRMSD -1
REMARK  1 active torsions:
REMARK  status: ('A' for Active; 'I' for Inactive)
REMARK    1  A    between atoms: C1_2  and  C2_3 
ROOT
ATOM      1  C2  UNL d   1       0.245   0.247  -0.837  0.00  0.00    -0.073 A 
ATOM      2  C3  UNL d   1      -0.904   0.721  -1.479  0.00  0.00    -0.002 A 
ATOM      3  C4  UNL d   1      -1.133   0.424  -2.823  0.00  0.00     0.004 A 
ATOM      4  C5  UNL d   1      -0.221  -0.354  -3.536  0.00  0.00    -0.004 A 
ATOM      5  C6  UNL d   1       0.928  -0.846  -2.908  0.00  0.00    -0.075 A 
ATOM      6  C7  UNL d   1       1.920  -1.683  -3.661  0.00  0.00     0.076 C 
ATOM      7  C8  UNL d   1       1.152  -0.542  -1.559  0.00  0.00     0.001 A 
ENDROOT
BRANCH   1   8
ATOM      8  C1  UNL d   1       0.494   0.559   0.617  0.00  0.00     0.053 C 
ATOM      9  C   UNL d   1       1.475  -0.414   1.249  0.00  0.00     0.018 C 
ENDBRANCH   1   8
TORSDOF 1
ENDMDL
