MODEL 1
REMARK minimizedAffinity -4.76269674
REMARK minimizedRMSD -1
REMARK  1 active torsions:
REMARK  status: ('A' for Active; 'I' for Inactive)
REMARK    1  A    between atoms: C1_2  and  C2_3 
ROOT
ATOM      1  C2  UNL d   1       0.681  -0.006  -2.257  0.00  0.00    -0.073 A 
ATOM      2  C3  UNL d   1      -0.104  -0.944  -2.935  0.00  0.00    -0.002 A 
ATOM      3  C4  UNL d   1       0.359  -1.531  -4.114  0.00  0.00     0.004 A 
ATOM      4  C5  UNL d   1       1.613  -1.192  -4.621  0.00  0.00    -0.004 A 
ATOM      5  C6  UNL d   1       2.417  -0.264  -3.951  0.00  0.00    -0.075 A 
ATOM      6  C7  UNL d   1       3.768   0.114  -4.486  0.00  0.00     0.076 C 
ATOM      7  C8  UNL d   1       1.944   0.323  -2.770  0.00  0.00     0.001 A 
ENDROOT
BRANCH   1   8
ATOM      8  C1  UNL d   1       0.188   0.626  -0.981  0.00  0.00     0.053 C 
ATOM      9  C   UNL d   1       0.705  -0.099   0.251  0.00  0.00     0.018 C 
ENDBRANCH   1   8
TORSDOF 1
ENDMDL
