MODEL 1
REMARK minimizedAffinity -5.21260643
REMARK minimizedRMSD -1
REMARK  1 active torsions:
REMARK  status: ('A' for Active; 'I' for Inactive)
REMARK    1  A    between atoms: C1_2  and  C2_3 
ROOT
ATOM      1  C2  UNL d   1       0.321   0.163  -0.154  0.00  0.00    -0.073 A 
ATOM      2  C3  UNL d   1       1.358  -0.082   0.753  0.00  0.00    -0.002 A 
ATOM      3  C4  UNL d   1       1.112  -0.062   2.127  0.00  0.00     0.004 A 
ATOM      4  C5  UNL d   1      -0.172   0.196   2.607  0.00  0.00    -0.004 A 
ATOM      5  C6  UNL d   1      -1.224   0.432   1.715  0.00  0.00    -0.075 A 
ATOM      6  C7  UNL d   1      -2.610   0.713   2.215  0.00  0.00     0.076 C 
ATOM      7  C8  UNL d   1      -0.968   0.413   0.338  0.00  0.00     0.001 A 
ENDROOT
BRANCH   1   8
ATOM      8  C1  UNL d   1       0.580   0.137  -1.638  0.00  0.00     0.053 C 
ATOM      9  C   UNL d   1       0.357  -1.245  -2.231  0.00  0.00     0.018 C 
ENDBRANCH   1   8
TORSDOF 1
ENDMDL
