MODEL 1
REMARK minimizedAffinity -2.80419135
REMARK minimizedRMSD -1
REMARK  1 active torsions:
REMARK  status: ('A' for Active; 'I' for Inactive)
REMARK    1  A    between atoms: C1_2  and  C2_3 
ROOT
ATOM      1  C2  UNL d   1       0.540  -0.107   0.358  0.00  0.00    -0.073 A 
ATOM      2  C3  UNL d   1      -0.505   0.688  -0.128  0.00  0.00    -0.002 A 
ATOM      3  C4  UNL d   1      -0.818   0.686  -1.488  0.00  0.00     0.004 A 
ATOM      4  C5  UNL d   1      -0.097  -0.114  -2.373  0.00  0.00    -0.004 A 
ATOM      5  C6  UNL d   1       0.943  -0.924  -1.906  0.00  0.00    -0.075 A 
ATOM      6  C7  UNL d   1       1.730  -1.789  -2.846  0.00  0.00     0.076 C 
ATOM      7  C8  UNL d   1       1.254  -0.915  -0.539  0.00  0.00     0.001 A 
ENDROOT
BRANCH   1   8
ATOM      8  C1  UNL d   1       0.878  -0.113   1.826  0.00  0.00     0.053 C 
ATOM      9  C   UNL d   1      -0.118   0.693   2.644  0.00  0.00     0.018 C 
ENDBRANCH   1   8
TORSDOF 1
ENDMDL
