MODEL 1
REMARK minimizedAffinity -5.07178497
REMARK minimizedRMSD -1
REMARK  1 active torsions:
REMARK  status: ('A' for Active; 'I' for Inactive)
REMARK    1  A    between atoms: C1_2  and  C2_3 
ROOT
ATOM      1  C2  UNL d   1       0.670  -0.283   0.410  0.00  0.00    -0.073 A 
ATOM      2  C3  UNL d   1      -0.158   0.729  -0.092  0.00  0.00    -0.002 A 
ATOM      3  C4  UNL d   1      -0.421   0.810  -1.460  0.00  0.00     0.004 A 
ATOM      4  C5  UNL d   1       0.133  -0.120  -2.338  0.00  0.00    -0.004 A 
ATOM      5  C6  UNL d   1       0.953  -1.145  -1.855  0.00  0.00    -0.075 A 
ATOM      6  C7  UNL d   1       1.559  -2.153  -2.787  0.00  0.00     0.076 C 
ATOM      7  C8  UNL d   1       1.215  -1.219  -0.480  0.00  0.00     0.001 A 
ENDROOT
BRANCH   1   8
ATOM      8  C1  UNL d   1       0.952  -0.379   1.887  0.00  0.00     0.053 C 
ATOM      9  C   UNL d   1       0.246   0.713   2.674  0.00  0.00     0.018 C 
ENDBRANCH   1   8
TORSDOF 1
ENDMDL
