MODEL 1
REMARK minimizedAffinity -2.59467483
REMARK minimizedRMSD -1
REMARK  1 active torsions:
REMARK  status: ('A' for Active; 'I' for Inactive)
REMARK    1  A    between atoms: C1_2  and  C2_3 
ROOT
ATOM      1  C2  UNL d   1       0.940  -0.433   0.152  0.00  0.00    -0.073 A 
ATOM      2  C3  UNL d   1       0.501   0.808  -0.324  0.00  0.00    -0.002 A 
ATOM      3  C4  UNL d   1       0.381   1.035  -1.695  0.00  0.00     0.004 A 
ATOM      4  C5  UNL d   1       0.691   0.024  -2.604  0.00  0.00    -0.004 A 
ATOM      5  C6  UNL d   1       1.120  -1.227  -2.148  0.00  0.00    -0.075 A 
ATOM      6  C7  UNL d   1       1.460  -2.325  -3.113  0.00  0.00     0.076 C 
ATOM      7  C8  UNL d   1       1.241  -1.446  -0.769  0.00  0.00     0.001 A 
ENDROOT
BRANCH   1   8
ATOM      8  C1  UNL d   1       1.065  -0.684   1.632  0.00  0.00     0.053 C 
ATOM      9  C   UNL d   1       0.287   0.333   2.451  0.00  0.00     0.018 C 
ENDBRANCH   1   8
TORSDOF 1
ENDMDL
