MODEL 1
REMARK minimizedAffinity -2.78527236
REMARK minimizedRMSD -1
REMARK  0 active torsions:
REMARK  status: ('A' for Active; 'I' for Inactive)
ROOT
ATOM      1  N1  IND d   1      -0.917  -1.878  -1.074  0.00  0.00    -0.196 N 
ATOM      2  C2  IND d   1      -1.128  -2.684   0.010  0.00  0.00     0.054 A 
ATOM      3  C3  IND d   1      -0.771  -2.047   1.147  0.00  0.00    -0.031 A 
ATOM      4  C4  IND d   1       0.087   0.358   1.474  0.00  0.00     0.051 A 
ATOM      5  C5  IND d   1       0.477   1.467   0.777  0.00  0.00    -0.031 A 
ATOM      6  C6  IND d   1       0.418   1.520  -0.601  0.00  0.00     0.015 A 
ATOM      7  C7  IND d   1      -0.045   0.465  -1.335  0.00  0.00    -0.016 A 
ATOM      8  C8  IND d   1      -0.435  -0.666  -0.630  0.00  0.00    -0.047 A 
ATOM      9  C9  IND d   1      -0.337  -0.740   0.765  0.00  0.00    -0.096 A 
ATOM     10  HN1 IND d   1      -1.060  -2.092  -1.894  0.00  0.00     0.298 HD
ENDROOT
TORSDOF 0
ENDMDL
