MODEL 1
REMARK minimizedAffinity -1.31618667
REMARK minimizedRMSD -1
REMARK  0 active torsions:
REMARK  status: ('A' for Active; 'I' for Inactive)
ROOT
ATOM      1  N1  IND d   1       1.837   2.860   2.141  0.00  0.00    -0.196 N 
ATOM      2  C2  IND d   1       1.875   4.052   1.473  0.00  0.00     0.054 A 
ATOM      3  C3  IND d   1       1.193   3.961   0.309  0.00  0.00    -0.031 A 
ATOM      4  C4  IND d   1      -0.147   1.983  -0.651  0.00  0.00     0.051 A 
ATOM      5  C5  IND d   1      -0.444   0.669  -0.419  0.00  0.00    -0.031 A 
ATOM      6  C6  IND d   1       0.012   0.006   0.702  0.00  0.00     0.015 A 
ATOM      7  C7  IND d   1       0.775   0.638   1.643  0.00  0.00    -0.016 A 
ATOM      8  C8  IND d   1       1.084   1.970   1.407  0.00  0.00    -0.047 A 
ATOM      9  C9  IND d   1       0.660   2.636   0.250  0.00  0.00    -0.096 A 
ATOM     10  HN1 IND d   1       2.220   2.694   2.893  0.00  0.00     0.298 HD
ENDROOT
TORSDOF 0
ENDMDL
