MODEL 1
REMARK minimizedAffinity -2.64676881
REMARK minimizedRMSD -1
REMARK  0 active torsions:
REMARK  status: ('A' for Active; 'I' for Inactive)
ROOT
ATOM      1  N1  IND d   1       0.266   5.560   2.941  0.00  0.00    -0.196 N 
ATOM      2  C2  IND d   1      -1.093   5.695   2.880  0.00  0.00     0.054 A 
ATOM      3  C3  IND d   1      -1.606   4.867   1.942  0.00  0.00    -0.031 A 
ATOM      4  C4  IND d   1      -0.411   3.132   0.463  0.00  0.00     0.051 A 
ATOM      5  C5  IND d   1       0.833   2.670   0.134  0.00  0.00    -0.031 A 
ATOM      6  C6  IND d   1       1.974   3.155   0.739  0.00  0.00     0.015 A 
ATOM      7  C7  IND d   1       1.913   4.117   1.707  0.00  0.00    -0.016 A 
ATOM      8  C8  IND d   1       0.652   4.594   2.038  0.00  0.00    -0.047 A 
ATOM      9  C9  IND d   1      -0.506   4.136   1.398  0.00  0.00    -0.096 A 
ATOM     10  HN1 IND d   1       0.792   6.004   3.457  0.00  0.00     0.298 HD
ENDROOT
TORSDOF 0
ENDMDL
