MODEL 1
REMARK minimizedAffinity -3.70224094
REMARK minimizedRMSD -1
REMARK  0 active torsions:
REMARK  status: ('A' for Active; 'I' for Inactive)
ROOT
ATOM      1  N1  IND d   1      -1.593  -2.069   2.561  0.00  0.00    -0.196 N 
ATOM      2  C2  IND d   1      -1.792  -0.992   3.379  0.00  0.00     0.054 A 
ATOM      3  C3  IND d   1      -1.358   0.140   2.782  0.00  0.00    -0.031 A 
ATOM      4  C4  IND d   1      -0.378   0.473   0.425  0.00  0.00     0.051 A 
ATOM      5  C5  IND d   1       0.031  -0.220  -0.680  0.00  0.00    -0.031 A 
ATOM      6  C6  IND d   1      -0.086  -1.593  -0.764  0.00  0.00     0.015 A 
ATOM      7  C7  IND d   1      -0.628  -2.325   0.254  0.00  0.00    -0.016 A 
ATOM      8  C8  IND d   1      -1.038  -1.625   1.380  0.00  0.00    -0.047 A 
ATOM      9  C9  IND d   1      -0.883  -0.237   1.488  0.00  0.00    -0.096 A 
ATOM     10  HN1 IND d   1      -1.782  -2.886   2.751  0.00  0.00     0.298 HD
ENDROOT
TORSDOF 0
ENDMDL
