MODEL 1
REMARK minimizedAffinity -4.58859396
REMARK minimizedRMSD -1
REMARK  0 active torsions:
REMARK  status: ('A' for Active; 'I' for Inactive)
ROOT
ATOM      1  N1  IND d   1       0.149  -1.258  -2.927  0.00  0.00    -0.196 N 
ATOM      2  C2  IND d   1      -0.124  -2.594  -2.827  0.00  0.00     0.054 A 
ATOM      3  C3  IND d   1      -0.482  -2.907  -1.561  0.00  0.00    -0.031 A 
ATOM      4  C4  IND d   1      -0.785  -1.369   0.481  0.00  0.00     0.051 A 
ATOM      5  C5  IND d   1      -0.618  -0.076   0.890  0.00  0.00    -0.031 A 
ATOM      6  C6  IND d   1      -0.180   0.910   0.029  0.00  0.00     0.015 A 
ATOM      7  C7  IND d   1       0.097   0.640  -1.281  0.00  0.00    -0.016 A 
ATOM      8  C8  IND d   1      -0.065  -0.673  -1.698  0.00  0.00    -0.047 A 
ATOM      9  C9  IND d   1      -0.468  -1.687  -0.819  0.00  0.00    -0.096 A 
ATOM     10  HN1 IND d   1       0.411  -0.851  -3.638  0.00  0.00     0.298 HD
ENDROOT
TORSDOF 0
ENDMDL
