MODEL 1
REMARK minimizedAffinity -1.01122022
REMARK minimizedRMSD -1
REMARK  0 active torsions:
REMARK  status: ('A' for Active; 'I' for Inactive)
ROOT
ATOM      1  N1  IND d   1      -0.160  -1.973   0.518  0.00  0.00    -0.196 N 
ATOM      2  C2  IND d   1       0.568  -2.430  -0.545  0.00  0.00     0.054 A 
ATOM      3  C3  IND d   1       1.020  -1.393  -1.286  0.00  0.00    -0.031 A 
ATOM      4  C4  IND d   1       0.773   1.137  -0.881  0.00  0.00     0.051 A 
ATOM      5  C5  IND d   1       0.162   2.042  -0.058  0.00  0.00    -0.031 A 
ATOM      6  C6  IND d   1      -0.601   1.646   1.022  0.00  0.00     0.015 A 
ATOM      7  C7  IND d   1      -0.772   0.326   1.328  0.00  0.00    -0.016 A 
ATOM      8  C8  IND d   1      -0.159  -0.596   0.491  0.00  0.00    -0.047 A 
ATOM      9  C9  IND d   1       0.581  -0.202  -0.632  0.00  0.00    -0.096 A 
ATOM     10  HN1 IND d   1      -0.552  -2.464   1.106  0.00  0.00     0.298 HD
ENDROOT
TORSDOF 0
ENDMDL
