MODEL 1
REMARK minimizedAffinity -4.83939886
REMARK minimizedRMSD -1
REMARK  0 active torsions:
REMARK  status: ('A' for Active; 'I' for Inactive)
ROOT
ATOM      1  N1  IND d   1      -0.010   0.128  -1.126  0.00  0.00    -0.196 N 
ATOM      2  C2  IND d   1       0.128   0.660   0.126  0.00  0.00     0.054 A 
ATOM      3  C3  IND d   1       0.235  -0.325   1.046  0.00  0.00    -0.031 A 
ATOM      4  C4  IND d   1       0.309  -2.876   0.710  0.00  0.00     0.051 A 
ATOM      5  C5  IND d   1       0.183  -3.840  -0.251  0.00  0.00    -0.031 A 
ATOM      6  C6  IND d   1      -0.016  -3.524  -1.579  0.00  0.00     0.015 A 
ATOM      7  C7  IND d   1      -0.084  -2.226  -2.000  0.00  0.00    -0.016 A 
ATOM      8  C8  IND d   1       0.037  -1.245  -1.027  0.00  0.00    -0.047 A 
ATOM      9  C9  IND d   1       0.196  -1.560   0.329  0.00  0.00    -0.096 A 
ATOM     10  HN1 IND d   1      -0.110   0.576  -1.853  0.00  0.00     0.298 HD
ENDROOT
TORSDOF 0
ENDMDL
