MODEL 1
REMARK minimizedAffinity -1.86123717
REMARK minimizedRMSD -1
REMARK  0 active torsions:
REMARK  status: ('A' for Active; 'I' for Inactive)
ROOT
ATOM      1  N1  IND d   1      -0.844  -2.457   1.039  0.00  0.00    -0.196 N 
ATOM      2  C2  IND d   1       0.231  -3.165   0.578  0.00  0.00     0.054 A 
ATOM      3  C3  IND d   1       1.159  -2.329   0.062  0.00  0.00    -0.031 A 
ATOM      4  C4  IND d   1       1.167   0.243  -0.039  0.00  0.00     0.051 A 
ATOM      5  C5  IND d   1       0.386   1.334   0.224  0.00  0.00    -0.031 A 
ATOM      6  C6  IND d   1      -0.869   1.214   0.785  0.00  0.00     0.015 A 
ATOM      7  C7  IND d   1      -1.387  -0.005   1.117  0.00  0.00    -0.016 A 
ATOM      8  C8  IND d   1      -0.600  -1.115   0.845  0.00  0.00    -0.047 A 
ATOM      9  C9  IND d   1       0.656  -1.003   0.237  0.00  0.00    -0.096 A 
ATOM     10  HN1 IND d   1      -1.553  -2.794   1.390  0.00  0.00     0.298 HD
ENDROOT
TORSDOF 0
ENDMDL
