MODEL 1
REMARK minimizedAffinity -4.86354351
REMARK minimizedRMSD -1
REMARK  0 active torsions:
REMARK  status: ('A' for Active; 'I' for Inactive)
ROOT
ATOM      1  N1  IND d   1       0.320   0.780  -0.017  0.00  0.00    -0.196 N 
ATOM      2  C2  IND d   1      -0.808   1.283   0.570  0.00  0.00     0.054 A 
ATOM      3  C3  IND d   1      -1.615   0.277   0.976  0.00  0.00    -0.031 A 
ATOM      4  C4  IND d   1      -1.237  -2.267   0.872  0.00  0.00     0.051 A 
ATOM      5  C5  IND d   1      -0.371  -3.209   0.391  0.00  0.00    -0.031 A 
ATOM      6  C6  IND d   1       0.795  -2.862  -0.261  0.00  0.00     0.015 A 
ATOM      7  C7  IND d   1       1.145  -1.554  -0.448  0.00  0.00    -0.016 A 
ATOM      8  C8  IND d   1       0.264  -0.595   0.033  0.00  0.00    -0.047 A 
ATOM      9  C9  IND d   1      -0.941  -0.941   0.658  0.00  0.00    -0.096 A 
ATOM     10  HN1 IND d   1       0.957   1.245  -0.359  0.00  0.00     0.298 HD
ENDROOT
TORSDOF 0
ENDMDL
