MODEL 1
REMARK minimizedAffinity -5.51947403
REMARK minimizedRMSD -1
REMARK  0 active torsions:
REMARK  status: ('A' for Active; 'I' for Inactive)
ROOT
ATOM      1  N1  IND d   1      -0.057   0.396  -1.161  0.00  0.00    -0.196 N 
ATOM      2  C2  IND d   1      -0.372   0.863   0.085  0.00  0.00     0.054 A 
ATOM      3  C3  IND d   1      -0.585  -0.167   0.934  0.00  0.00    -0.031 A 
ATOM      4  C4  IND d   1      -0.371  -2.699   0.520  0.00  0.00     0.051 A 
ATOM      5  C5  IND d   1      -0.143  -3.613  -0.470  0.00  0.00    -0.031 A 
ATOM      6  C6  IND d   1       0.134  -3.229  -1.767  0.00  0.00     0.015 A 
ATOM      7  C7  IND d   1       0.204  -1.912  -2.120  0.00  0.00    -0.016 A 
ATOM      8  C8  IND d   1      -0.034  -0.981  -1.119  0.00  0.00    -0.047 A 
ATOM      9  C9  IND d   1      -0.357  -1.364   0.189  0.00  0.00    -0.096 A 
ATOM     10  HN1 IND d   1       0.100   0.880  -1.853  0.00  0.00     0.298 HD
ENDROOT
TORSDOF 0
ENDMDL
