MODEL 1
REMARK minimizedAffinity -4.62208366
REMARK minimizedRMSD -1
REMARK  0 active torsions:
REMARK  status: ('A' for Active; 'I' for Inactive)
ROOT
ATOM      1  N1  IND d   1       0.099   0.138  -0.866  0.00  0.00    -0.196 N 
ATOM      2  C2  IND d   1      -0.170   0.737   0.333  0.00  0.00     0.054 A 
ATOM      3  C3  IND d   1      -0.499  -0.190   1.259  0.00  0.00    -0.031 A 
ATOM      4  C4  IND d   1      -0.563  -2.756   1.055  0.00  0.00     0.051 A 
ATOM      5  C5  IND d   1      -0.431  -3.767   0.146  0.00  0.00    -0.031 A 
ATOM      6  C6  IND d   1      -0.106  -3.524  -1.173  0.00  0.00     0.015 A 
ATOM      7  C7  IND d   1       0.111  -2.256  -1.631  0.00  0.00    -0.016 A 
ATOM      8  C8  IND d   1      -0.029  -1.225  -0.712  0.00  0.00    -0.047 A 
ATOM      9  C9  IND d   1      -0.400  -1.462   0.617  0.00  0.00    -0.096 A 
ATOM     10  HN1 IND d   1       0.313   0.543  -1.593  0.00  0.00     0.298 HD
ENDROOT
TORSDOF 0
ENDMDL
