MODEL 1
REMARK minimizedAffinity -5.28007841
REMARK minimizedRMSD -1
REMARK  0 active torsions:
REMARK  status: ('A' for Active; 'I' for Inactive)
ROOT
ATOM      1  N1  IND d   1       0.357   0.346  -0.313  0.00  0.00    -0.196 N 
ATOM      2  C2  IND d   1      -0.195   0.766   0.866  0.00  0.00     0.054 A 
ATOM      3  C3  IND d   1      -0.846  -0.254   1.469  0.00  0.00    -0.031 A 
ATOM      4  C4  IND d   1      -1.048  -2.718   0.753  0.00  0.00     0.051 A 
ATOM      5  C5  IND d   1      -0.741  -3.571  -0.270  0.00  0.00    -0.031 A 
ATOM      6  C6  IND d   1      -0.036  -3.154  -1.381  0.00  0.00     0.015 A 
ATOM      7  C7  IND d   1       0.400  -1.865  -1.505  0.00  0.00    -0.016 A 
ATOM      8  C8  IND d   1       0.084  -0.995  -0.472  0.00  0.00    -0.047 A 
ATOM      9  C9  IND d   1      -0.667  -1.402   0.638  0.00  0.00    -0.096 A 
ATOM     10  HN1 IND d   1       0.800   0.838  -0.862  0.00  0.00     0.298 HD
ENDROOT
TORSDOF 0
ENDMDL
