MODEL 1
REMARK minimizedAffinity -5.61580324
REMARK minimizedRMSD -1
REMARK  0 active torsions:
REMARK  status: ('A' for Active; 'I' for Inactive)
ROOT
ATOM      1  N1  IND d   1      -0.000   0.325  -0.673  0.00  0.00    -0.196 N 
ATOM      2  C2  IND d   1      -0.370   0.371   0.642  0.00  0.00     0.054 A 
ATOM      3  C3  IND d   1      -0.612  -0.876   1.107  0.00  0.00    -0.031 A 
ATOM      4  C4  IND d   1      -0.364  -3.143  -0.087  0.00  0.00     0.051 A 
ATOM      5  C5  IND d   1      -0.088  -3.693  -1.307  0.00  0.00    -0.031 A 
ATOM      6  C6  IND d   1       0.240  -2.917  -2.400  0.00  0.00     0.015 A 
ATOM      7  C7  IND d   1       0.317  -1.556  -2.309  0.00  0.00    -0.016 A 
ATOM      8  C8  IND d   1       0.030  -0.993  -1.074  0.00  0.00    -0.047 A 
ATOM      9  C9  IND d   1      -0.345  -1.773   0.028  0.00  0.00    -0.096 A 
ATOM     10  HN1 IND d   1       0.182   1.004  -1.167  0.00  0.00     0.298 HD
ENDROOT
TORSDOF 0
ENDMDL
