MODEL 1
REMARK minimizedAffinity -4.57551384
REMARK minimizedRMSD -1
REMARK  0 active torsions:
REMARK  status: ('A' for Active; 'I' for Inactive)
ROOT
ATOM      1  N1  IND d   1       0.573  -1.607  -2.508  0.00  0.00    -0.196 N 
ATOM      2  C2  IND d   1       0.305  -2.919  -2.784  0.00  0.00     0.054 A 
ATOM      3  C3  IND d   1      -0.200  -3.536  -1.692  0.00  0.00    -0.031 A 
ATOM      4  C4  IND d   1      -0.766  -2.560   0.622  0.00  0.00     0.051 A 
ATOM      5  C5  IND d   1      -0.664  -1.416   1.363  0.00  0.00    -0.031 A 
ATOM      6  C6  IND d   1      -0.136  -0.253   0.840  0.00  0.00     0.015 A 
ATOM      7  C7  IND d   1       0.301  -0.188  -0.452  0.00  0.00    -0.016 A 
ATOM      8  C8  IND d   1       0.205  -1.349  -1.206  0.00  0.00    -0.047 A 
ATOM      9  C9  IND d   1      -0.290  -2.544  -0.667  0.00  0.00    -0.096 A 
ATOM     10  HN1 IND d   1       0.914  -1.039  -3.056  0.00  0.00     0.298 HD
ENDROOT
TORSDOF 0
ENDMDL
