MODEL 1
REMARK minimizedAffinity -2.96793842
REMARK minimizedRMSD -1
REMARK  0 active torsions:
REMARK  status: ('A' for Active; 'I' for Inactive)
ROOT
ATOM      1  N1  IND d   1       0.263   1.011  -1.229  0.00  0.00    -0.196 N 
ATOM      2  C2  IND d   1       0.199   2.051  -0.345  0.00  0.00     0.054 A 
ATOM      3  C3  IND d   1      -0.204   1.612   0.869  0.00  0.00    -0.031 A 
ATOM      4  C4  IND d   1      -0.714  -0.786   1.654  0.00  0.00     0.051 A 
ATOM      5  C5  IND d   1      -0.829  -2.068   1.195  0.00  0.00    -0.031 A 
ATOM      6  C6  IND d   1      -0.579  -2.397  -0.121  0.00  0.00     0.015 A 
ATOM      7  C7  IND d   1      -0.191  -1.453  -1.030  0.00  0.00    -0.016 A 
ATOM      8  C8  IND d   1      -0.079  -0.149  -0.569  0.00  0.00    -0.047 A 
ATOM      9  C9  IND d   1      -0.373   0.198   0.756  0.00  0.00    -0.096 A 
ATOM     10  HN1 IND d   1       0.480   1.071  -2.059  0.00  0.00     0.298 HD
ENDROOT
TORSDOF 0
ENDMDL
