MODEL 1
REMARK minimizedAffinity -3.65225029
REMARK minimizedRMSD -1
REMARK  0 active torsions:
REMARK  status: ('A' for Active; 'I' for Inactive)
ROOT
ATOM      1  N1  IND d   1       1.799   2.771   1.730  0.00  0.00    -0.196 N 
ATOM      2  C2  IND d   1       1.826   3.820   0.854  0.00  0.00     0.054 A 
ATOM      3  C3  IND d   1       1.178   3.496  -0.287  0.00  0.00    -0.031 A 
ATOM      4  C4  IND d   1      -0.086   1.337  -0.894  0.00  0.00     0.051 A 
ATOM      5  C5  IND d   1      -0.357   0.081  -0.430  0.00  0.00    -0.031 A 
ATOM      6  C6  IND d   1       0.084  -0.351   0.805  0.00  0.00     0.015 A 
ATOM      7  C7  IND d   1       0.805   0.465   1.629  0.00  0.00    -0.016 A 
ATOM      8  C8  IND d   1       1.088   1.740   1.158  0.00  0.00    -0.047 A 
ATOM      9  C9  IND d   1       0.680   2.169  -0.112  0.00  0.00    -0.096 A 
ATOM     10  HN1 IND d   1       2.165   2.758   2.508  0.00  0.00     0.298 HD
ENDROOT
TORSDOF 0
ENDMDL
