MODEL 1
REMARK minimizedAffinity 8.47750282
REMARK minimizedRMSD -1
REMARK  3 active torsions:
REMARK  status: ('A' for Active; 'I' for Inactive)
REMARK    1  A    between atoms: C3'_2  and  C2'_3 
REMARK    2  A    between atoms: C2'_3  and  C1'_4 
REMARK    3  A    between atoms: C1'_4  and  C1_5 
ROOT
ATOM      1  C1  N4B d   1       0.425  -2.771   2.061  0.00  0.00    -0.075 A 
ATOM      2  C2  N4B d   1       0.624  -2.608   3.450  0.00  0.00     0.002 A 
ATOM      3  C3  N4B d   1       1.445  -1.610   3.913  0.00  0.00     0.002 A 
ATOM      4  C4  N4B d   1       2.090  -0.778   3.011  0.00  0.00    -0.004 A 
ATOM      5  C5  N4B d   1       1.873  -0.926   1.672  0.00  0.00     0.002 A 
ATOM      6  C6  N4B d   1       1.047  -1.922   1.192  0.00  0.00     0.002 A 
ENDROOT
BRANCH   1   7
ATOM      7  C1' N4B d   1      -0.396  -3.902   1.504  0.00  0.00     0.057 C 
BRANCH   7   8
ATOM      8  C2' N4B d   1       0.511  -4.832   0.704  0.00  0.00     0.009 C 
BRANCH   8   9
ATOM      9  C3' N4B d   1       0.078  -4.937  -0.749  0.00  0.00     0.004 C 
ATOM     10  C4' N4B d   1       1.109  -4.410  -1.702  0.00  0.00     0.003 C 
ENDBRANCH   8   9
ENDBRANCH   7   8
ENDBRANCH   1   7
TORSDOF 3
ENDMDL
