MODEL 1
REMARK minimizedAffinity 13.1541319
REMARK minimizedRMSD -1
REMARK  3 active torsions:
REMARK  status: ('A' for Active; 'I' for Inactive)
REMARK    1  A    between atoms: C3'_2  and  C2'_3 
REMARK    2  A    between atoms: C2'_3  and  C1'_4 
REMARK    3  A    between atoms: C1'_4  and  C1_5 
ROOT
ATOM      1  C1  N4B d   1       1.609  -1.880   1.825  0.00  0.00    -0.075 A 
ATOM      2  C2  N4B d   1       0.759  -2.084   2.933  0.00  0.00     0.002 A 
ATOM      3  C3  N4B d   1       0.052  -3.255   3.050  0.00  0.00     0.002 A 
ATOM      4  C4  N4B d   1       0.164  -4.225   2.064  0.00  0.00    -0.004 A 
ATOM      5  C5  N4B d   1       1.007  -4.030   1.009  0.00  0.00     0.002 A 
ATOM      6  C6  N4B d   1       1.727  -2.860   0.882  0.00  0.00     0.002 A 
ENDROOT
BRANCH   1   7
ATOM      7  C1' N4B d   1       2.337  -0.581   1.610  0.00  0.00     0.057 C 
BRANCH   7   8
ATOM      8  C2' N4B d   1       1.584   0.538   2.324  0.00  0.00     0.009 C 
BRANCH   8   9
ATOM      9  C3' N4B d   1       2.270   1.883   2.153  0.00  0.00     0.004 C 
ATOM     10  C4' N4B d   1       2.246   2.711   3.403  0.00  0.00     0.003 C 
ENDBRANCH   8   9
ENDBRANCH   7   8
ENDBRANCH   1   7
TORSDOF 3
ENDMDL
