MODEL 1
REMARK minimizedAffinity 1.19408834
REMARK minimizedRMSD -1
REMARK  3 active torsions:
REMARK  status: ('A' for Active; 'I' for Inactive)
REMARK    1  A    between atoms: C3'_2  and  C2'_3 
REMARK    2  A    between atoms: C2'_3  and  C1'_4 
REMARK    3  A    between atoms: C1'_4  and  C1_5 
ROOT
ATOM      1  C1  N4B d   1       3.143  -1.230   2.447  0.00  0.00    -0.075 A 
ATOM      2  C2  N4B d   1       3.892  -1.578   3.593  0.00  0.00     0.002 A 
ATOM      3  C3  N4B d   1       3.307  -2.305   4.601  0.00  0.00     0.002 A 
ATOM      4  C4  N4B d   1       1.976  -2.678   4.494  0.00  0.00    -0.004 A 
ATOM      5  C5  N4B d   1       1.267  -2.360   3.373  0.00  0.00     0.002 A 
ATOM      6  C6  N4B d   1       1.842  -1.633   2.351  0.00  0.00     0.002 A 
ENDROOT
BRANCH   1   7
ATOM      7  C1' N4B d   1       3.713  -0.363   1.358  0.00  0.00     0.057 C 
BRANCH   7   8
ATOM      8  C2' N4B d   1       3.241   1.073   1.563  0.00  0.00     0.009 C 
BRANCH   8   9
ATOM      9  C3' N4B d   1       2.830   1.337   3.002  0.00  0.00     0.004 C 
ATOM     10  C4' N4B d   1       3.287   2.675   3.500  0.00  0.00     0.003 C 
ENDBRANCH   8   9
ENDBRANCH   7   8
ENDBRANCH   1   7
TORSDOF 3
ENDMDL
