MODEL 1
REMARK minimizedAffinity 2.85902262
REMARK minimizedRMSD -1
REMARK  3 active torsions:
REMARK  status: ('A' for Active; 'I' for Inactive)
REMARK    1  A    between atoms: C3'_2  and  C2'_3 
REMARK    2  A    between atoms: C2'_3  and  C1'_4 
REMARK    3  A    between atoms: C1'_4  and  C1_5 
ROOT
ATOM      1  C1  N4B d   1       0.941  -2.232   2.254  0.00  0.00    -0.075 A 
ATOM      2  C2  N4B d   1       1.227  -2.746   0.970  0.00  0.00     0.002 A 
ATOM      3  C3  N4B d   1       0.891  -4.041   0.659  0.00  0.00     0.002 A 
ATOM      4  C4  N4B d   1       0.288  -4.842   1.617  0.00  0.00    -0.004 A 
ATOM      5  C5  N4B d   1      -0.007  -4.330   2.846  0.00  0.00     0.002 A 
ATOM      6  C6  N4B d   1       0.321  -3.029   3.172  0.00  0.00     0.002 A 
ENDROOT
BRANCH   1   7
ATOM      7  C1' N4B d   1       1.367  -0.850   2.669  0.00  0.00     0.057 C 
BRANCH   7   8
ATOM      8  C2' N4B d   1       2.563  -0.420   1.825  0.00  0.00     0.009 C 
BRANCH   8   9
ATOM      9  C3' N4B d   1       2.741   1.089   1.819  0.00  0.00     0.004 C 
ATOM     10  C4' N4B d   1       1.949   1.771   2.894  0.00  0.00     0.003 C 
ENDBRANCH   8   9
ENDBRANCH   7   8
ENDBRANCH   1   7
TORSDOF 3
ENDMDL
