MODEL 1
REMARK minimizedAffinity 3.41137767
REMARK minimizedRMSD -1
REMARK  3 active torsions:
REMARK  status: ('A' for Active; 'I' for Inactive)
REMARK    1  A    between atoms: C3'_2  and  C2'_3 
REMARK    2  A    between atoms: C2'_3  and  C1'_4 
REMARK    3  A    between atoms: C1'_4  and  C1_5 
ROOT
ATOM      1  C1  N4B d   1      -5.581  -4.372  -3.512  0.00  0.00    -0.075 A 
ATOM      2  C2  N4B d   1      -4.731  -3.552  -4.286  0.00  0.00     0.002 A 
ATOM      3  C3  N4B d   1      -4.311  -3.973  -5.524  0.00  0.00     0.002 A 
ATOM      4  C4  N4B d   1      -4.710  -5.213  -5.998  0.00  0.00    -0.004 A 
ATOM      5  C5  N4B d   1      -5.551  -5.989  -5.255  0.00  0.00     0.002 A 
ATOM      6  C6  N4B d   1      -5.985  -5.577  -4.011  0.00  0.00     0.002 A 
ENDROOT
BRANCH   1   7
ATOM      7  C1' N4B d   1      -5.997  -3.992  -2.117  0.00  0.00     0.057 C 
BRANCH   7   8
ATOM      8  C2' N4B d   1      -5.112  -2.852  -1.624  0.00  0.00     0.009 C 
BRANCH   8   9
ATOM      9  C3' N4B d   1      -5.903  -1.575  -1.399  0.00  0.00     0.004 C 
ATOM     10  C4' N4B d   1      -5.250  -0.372  -2.012  0.00  0.00     0.003 C 
ENDBRANCH   8   9
ENDBRANCH   7   8
ENDBRANCH   1   7
TORSDOF 3
ENDMDL
