MODEL 1
REMARK minimizedAffinity 2.27403569
REMARK minimizedRMSD -1
REMARK  3 active torsions:
REMARK  status: ('A' for Active; 'I' for Inactive)
REMARK    1  A    between atoms: C3'_2  and  C2'_3 
REMARK    2  A    between atoms: C2'_3  and  C1'_4 
REMARK    3  A    between atoms: C1'_4  and  C1_5 
ROOT
ATOM      1  C1  N4B d   1      -5.654  -3.535  -3.686  0.00  0.00    -0.075 A 
ATOM      2  C2  N4B d   1      -5.496  -3.148  -5.035  0.00  0.00     0.002 A 
ATOM      3  C3  N4B d   1      -5.259  -4.098  -5.998  0.00  0.00     0.002 A 
ATOM      4  C4  N4B d   1      -5.159  -5.433  -5.635  0.00  0.00    -0.004 A 
ATOM      5  C5  N4B d   1      -5.338  -5.801  -4.334  0.00  0.00     0.002 A 
ATOM      6  C6  N4B d   1      -5.580  -4.857  -3.356  0.00  0.00     0.002 A 
ENDROOT
BRANCH   1   7
ATOM      7  C1' N4B d   1      -5.828  -2.525  -2.585  0.00  0.00     0.057 C 
BRANCH   7   8
ATOM      8  C2' N4B d   1      -5.634  -3.213  -1.238  0.00  0.00     0.009 C 
BRANCH   8   9
ATOM      9  C3' N4B d   1      -4.677  -4.389  -1.333  0.00  0.00     0.004 C 
ATOM     10  C4' N4B d   1      -5.313  -5.688  -0.936  0.00  0.00     0.003 C 
ENDBRANCH   8   9
ENDBRANCH   7   8
ENDBRANCH   1   7
TORSDOF 3
ENDMDL
