MODEL 1
REMARK minimizedAffinity 2.41966295
REMARK minimizedRMSD -1
REMARK  3 active torsions:
REMARK  status: ('A' for Active; 'I' for Inactive)
REMARK    1  A    between atoms: C3'_2  and  C2'_3 
REMARK    2  A    between atoms: C2'_3  and  C1'_4 
REMARK    3  A    between atoms: C1'_4  and  C1_5 
ROOT
ATOM      1  C1  N4B d   1       2.101  -4.516   2.596  0.00  0.00    -0.075 A 
ATOM      2  C2  N4B d   1       3.032  -5.238   1.819  0.00  0.00     0.002 A 
ATOM      3  C3  N4B d   1       2.610  -5.936   0.714  0.00  0.00     0.002 A 
ATOM      4  C4  N4B d   1       1.264  -5.942   0.380  0.00  0.00    -0.004 A 
ATOM      5  C5  N4B d   1       0.374  -5.221   1.121  0.00  0.00     0.002 A 
ATOM      6  C6  N4B d   1       0.785  -4.511   2.232  0.00  0.00     0.002 A 
ENDROOT
BRANCH   1   7
ATOM      7  C1' N4B d   1       2.502  -3.808   3.861  0.00  0.00     0.057 C 
BRANCH   7   8
ATOM      8  C2' N4B d   1       3.558  -2.757   3.534  0.00  0.00     0.009 C 
BRANCH   8   9
ATOM      9  C3' N4B d   1       4.918  -3.121   4.105  0.00  0.00     0.004 C 
ATOM     10  C4' N4B d   1       6.000  -3.135   3.067  0.00  0.00     0.003 C 
ENDBRANCH   8   9
ENDBRANCH   7   8
ENDBRANCH   1   7
TORSDOF 3
ENDMDL
