MODEL 1
REMARK minimizedAffinity 3.75263071
REMARK minimizedRMSD -1
REMARK  0 active torsions:
REMARK  status: ('A' for Active; 'I' for Inactive)
ROOT
ATOM      1  C1  BNZ d   1       3.744   1.502  -1.251  0.00  0.00     0.000 A 
ATOM      2  C2  BNZ d   1       4.501   1.893  -2.324  0.00  0.00     0.000 A 
ATOM      3  C3  BNZ d   1       5.640   2.626  -2.146  0.00  0.00     0.000 A 
ATOM      4  C4  BNZ d   1       6.000   3.002  -0.902  0.00  0.00     0.000 A 
ATOM      5  C5  BNZ d   1       5.243   2.623   0.189  0.00  0.00     0.000 A 
ATOM      6  C6  BNZ d   1       4.117   1.852   0.010  0.00  0.00     0.000 A 
ENDROOT
TORSDOF 0
ENDMDL
