MODEL 1
REMARK minimizedAffinity 6.21856356
REMARK minimizedRMSD -1
REMARK  0 active torsions:
REMARK  status: ('A' for Active; 'I' for Inactive)
ROOT
ATOM      1  C1  BNZ d   1      -1.991  -1.572  -4.364  0.00  0.00     0.000 A 
ATOM      2  C2  BNZ d   1      -3.012  -1.983  -5.180  0.00  0.00     0.000 A 
ATOM      3  C3  BNZ d   1      -3.404  -3.292  -5.205  0.00  0.00     0.000 A 
ATOM      4  C4  BNZ d   1      -2.748  -4.195  -4.448  0.00  0.00     0.000 A 
ATOM      5  C5  BNZ d   1      -1.711  -3.798  -3.628  0.00  0.00     0.000 A 
ATOM      6  C6  BNZ d   1      -1.345  -2.473  -3.575  0.00  0.00     0.000 A 
ENDROOT
TORSDOF 0
ENDMDL
