MODEL 1
REMARK minimizedAffinity 11.3310699
REMARK minimizedRMSD -1
REMARK  0 active torsions:
REMARK  status: ('A' for Active; 'I' for Inactive)
ROOT
ATOM      1  C1  BNZ d   1      -3.741   0.392  -0.646  0.00  0.00     0.000 A 
ATOM      2  C2  BNZ d   1      -3.769  -0.005  -1.956  0.00  0.00     0.000 A 
ATOM      3  C3  BNZ d   1      -4.906  -0.531  -2.504  0.00  0.00     0.000 A 
ATOM      4  C4  BNZ d   1      -5.999  -0.697  -1.731  0.00  0.00     0.000 A 
ATOM      5  C5  BNZ d   1      -5.983  -0.310  -0.406  0.00  0.00     0.000 A 
ATOM      6  C6  BNZ d   1      -4.849   0.255   0.131  0.00  0.00     0.000 A 
ENDROOT
TORSDOF 0
ENDMDL
