MODEL 1
REMARK minimizedAffinity 2.75045276
REMARK minimizedRMSD -1
REMARK  0 active torsions:
REMARK  status: ('A' for Active; 'I' for Inactive)
ROOT
ATOM      1  C1  BNZ d   1       1.922   1.374  -0.548  0.00  0.00     0.000 A 
ATOM      2  C2  BNZ d   1       2.821   1.354   0.484  0.00  0.00     0.000 A 
ATOM      3  C3  BNZ d   1       2.614   2.105   1.607  0.00  0.00     0.000 A 
ATOM      4  C4  BNZ d   1       1.531   2.906   1.679  0.00  0.00     0.000 A 
ATOM      5  C5  BNZ d   1       0.620   2.944   0.642  0.00  0.00     0.000 A 
ATOM      6  C6  BNZ d   1       0.811   2.157  -0.470  0.00  0.00     0.000 A 
ENDROOT
TORSDOF 0
ENDMDL
