MODEL 1
REMARK minimizedAffinity -3.48752737
REMARK minimizedRMSD -1
REMARK  0 active torsions:
REMARK  status: ('A' for Active; 'I' for Inactive)
ROOT
ATOM      1  C   UNL d   1       2.899  -0.154   0.922  0.00  0.00     0.172 C 
ATOM      2  N   UNL d   1       1.475  -0.105   0.686  0.00  0.00    -0.070 N 
ATOM      3  C1  UNL d   1       0.582  -1.101   0.983  0.00  0.00    -0.004 A 
ATOM      4  C2  UNL d   1      -0.671  -0.669   0.607  0.00  0.00    -0.047 A 
ATOM      5  C3  UNL d   1      -0.527   0.630   0.065  0.00  0.00    -0.047 A 
ATOM      6  C4  UNL d   1       0.812   0.954   0.126  0.00  0.00    -0.004 A 
ENDROOT
TORSDOF 0
ENDMDL
