MODEL 1
REMARK minimizedAffinity -2.91288376
REMARK minimizedRMSD -1
REMARK  0 active torsions:
REMARK  status: ('A' for Active; 'I' for Inactive)
ROOT
ATOM      1  C   UNL d   1      -1.080  -0.121  -0.629  0.00  0.00     0.172 C 
ATOM      2  N   UNL d   1       0.307  -0.185  -0.232  0.00  0.00    -0.070 N 
ATOM      3  C1  UNL d   1       1.146   0.888  -0.090  0.00  0.00    -0.004 A 
ATOM      4  C2  UNL d   1       2.379   0.411   0.300  0.00  0.00    -0.047 A 
ATOM      5  C3  UNL d   1       2.277  -0.998   0.394  0.00  0.00    -0.047 A 
ATOM      6  C4  UNL d   1       0.984  -1.339   0.059  0.00  0.00    -0.004 A 
ENDROOT
TORSDOF 0
ENDMDL
