MODEL 1
REMARK minimizedAffinity -1.85787809
REMARK minimizedRMSD -1
REMARK  0 active torsions:
REMARK  status: ('A' for Active; 'I' for Inactive)
ROOT
ATOM      1  C   UNL d   1       3.263  -0.070   0.905  0.00  0.00     0.172 C 
ATOM      2  N   UNL d   1       1.976   0.346   0.399  0.00  0.00    -0.070 N 
ATOM      3  C1  UNL d   1       1.024  -0.480  -0.136  0.00  0.00    -0.004 A 
ATOM      4  C2  UNL d   1      -0.054   0.297  -0.499  0.00  0.00    -0.047 A 
ATOM      5  C3  UNL d   1       0.262   1.638  -0.172  0.00  0.00    -0.047 A 
ATOM      6  C4  UNL d   1       1.524   1.639   0.382  0.00  0.00    -0.004 A 
ENDROOT
TORSDOF 0
ENDMDL
