MODEL 1
REMARK minimizedAffinity -3.75151134
REMARK minimizedRMSD -1
REMARK  0 active torsions:
REMARK  status: ('A' for Active; 'I' for Inactive)
ROOT
ATOM      1  C   UNL d   1      -0.727  -0.026   0.103  0.00  0.00     0.172 C 
ATOM      2  N   UNL d   1       0.319  -0.725   0.812  0.00  0.00    -0.070 N 
ATOM      3  C1  UNL d   1       1.613  -0.299   0.949  0.00  0.00    -0.004 A 
ATOM      4  C2  UNL d   1       2.292  -1.243   1.689  0.00  0.00    -0.047 A 
ATOM      5  C3  UNL d   1       1.374  -2.272   2.008  0.00  0.00    -0.047 A 
ATOM      6  C4  UNL d   1       0.160  -1.926   1.452  0.00  0.00    -0.004 A 
ENDROOT
TORSDOF 0
ENDMDL
