MODEL 1
REMARK minimizedAffinity -4.2863555
REMARK minimizedRMSD -1
REMARK  1 active torsions:
REMARK  status: ('A' for Active; 'I' for Inactive)
REMARK    1  A    between atoms: C3_4  and  O_7 
ROOT
ATOM      1  C   UNL d   1       1.715  -2.378  -0.028  0.00  0.00    -0.033 A 
ATOM      2  C1  UNL d   1       0.608  -1.747   0.543  0.00  0.00     0.039 A 
ATOM      3  C2  UNL d   1       0.558  -0.353   0.616  0.00  0.00    -0.080 A 
ATOM      4  C3  UNL d   1       1.618   0.396   0.115  0.00  0.00     0.150 A 
ATOM      5  C4  UNL d   1       2.723  -0.226  -0.459  0.00  0.00    -0.007 A 
ATOM      6  C5  UNL d   1       2.772  -1.617  -0.530  0.00  0.00     0.039 A 
ENDROOT
BRANCH   4   7
ATOM      7  O   UNL d   1       1.616   1.758   0.168  0.00  0.00    -0.526 OA
ATOM      8  H5  UNL d   1       0.804   2.047   0.616  0.00  0.00     0.418 HD
ENDBRANCH   4   7
TORSDOF 1
ENDMDL
