MODEL 1
REMARK minimizedAffinity -0.540784955
REMARK minimizedRMSD -1
REMARK  1 active torsions:
REMARK  status: ('A' for Active; 'I' for Inactive)
REMARK    1  A    between atoms: C3_4  and  O_7 
ROOT
ATOM      1  C   UNL d   1      -0.239  -0.115  -0.086  0.00  0.00    -0.033 A 
ATOM      2  C1  UNL d   1       0.359  -0.951  -1.031  0.00  0.00     0.039 A 
ATOM      3  C2  UNL d   1       1.594  -1.543  -0.760  0.00  0.00    -0.080 A 
ATOM      4  C3  UNL d   1       2.220  -1.292   0.458  0.00  0.00     0.150 A 
ATOM      5  C4  UNL d   1       1.629  -0.463   1.406  0.00  0.00    -0.007 A 
ATOM      6  C5  UNL d   1       0.396   0.128   1.133  0.00  0.00     0.039 A 
ENDROOT
BRANCH   4   7
ATOM      7  O   UNL d   1       3.428  -1.843   0.765  0.00  0.00    -0.526 OA
ATOM      8  H5  UNL d   1       3.729  -2.369   0.005  0.00  0.00     0.418 HD
ENDBRANCH   4   7
TORSDOF 1
ENDMDL
