MODEL 1
REMARK minimizedAffinity -5.41509914
REMARK minimizedRMSD -1
REMARK  1 active torsions:
REMARK  status: ('A' for Active; 'I' for Inactive)
REMARK    1  A    between atoms: C3_4  and  O_7 
ROOT
ATOM      1  C   UNL d   1       0.306  -0.375  -0.959  0.00  0.00    -0.033 A 
ATOM      2  C1  UNL d   1       0.689  -1.713  -1.073  0.00  0.00     0.039 A 
ATOM      3  C2  UNL d   1       1.761  -2.201  -0.323  0.00  0.00    -0.080 A 
ATOM      4  C3  UNL d   1       2.441  -1.342   0.536  0.00  0.00     0.150 A 
ATOM      5  C4  UNL d   1       2.063  -0.009   0.657  0.00  0.00    -0.007 A 
ATOM      6  C5  UNL d   1       0.993   0.477  -0.093  0.00  0.00     0.039 A 
ENDROOT
BRANCH   4   7
ATOM      7  O   UNL d   1       3.497  -1.771   1.284  0.00  0.00    -0.526 OA
ATOM      8  H5  UNL d   1       3.663  -2.705   1.075  0.00  0.00     0.418 HD
ENDBRANCH   4   7
TORSDOF 1
ENDMDL
