MODEL 1
REMARK minimizedAffinity -3.8004353
REMARK minimizedRMSD -1
REMARK  1 active torsions:
REMARK  status: ('A' for Active; 'I' for Inactive)
REMARK    1  A    between atoms: C3_4  and  O_7 
ROOT
ATOM      1  C   UNL d   1       3.539  -0.695   0.296  0.00  0.00    -0.033 A 
ATOM      2  C1  UNL d   1       2.805   0.295   0.953  0.00  0.00     0.039 A 
ATOM      3  C2  UNL d   1       1.426   0.388   0.760  0.00  0.00    -0.080 A 
ATOM      4  C3  UNL d   1       0.793  -0.513  -0.092  0.00  0.00     0.150 A 
ATOM      5  C4  UNL d   1       1.516  -1.504  -0.747  0.00  0.00    -0.007 A 
ATOM      6  C5  UNL d   1       2.894  -1.595  -0.553  0.00  0.00     0.039 A 
ENDROOT
BRANCH   4   7
ATOM      7  O   UNL d   1      -0.551  -0.458  -0.316  0.00  0.00    -0.526 OA
ATOM      8  H5  UNL d   1      -0.915   0.294   0.180  0.00  0.00     0.418 HD
ENDBRANCH   4   7
TORSDOF 1
ENDMDL
