MODEL 1
REMARK minimizedAffinity -1.99228477
REMARK minimizedRMSD -1
REMARK  1 active torsions:
REMARK  status: ('A' for Active; 'I' for Inactive)
REMARK    1  A    between atoms: C3_4  and  O_7 
ROOT
ATOM      1  C   UNL d   1      -0.008  -0.884   0.638  0.00  0.00    -0.033 A 
ATOM      2  C1  UNL d   1       1.252  -0.309   0.465  0.00  0.00     0.039 A 
ATOM      3  C2  UNL d   1       1.368   1.056   0.197  0.00  0.00    -0.080 A 
ATOM      4  C3  UNL d   1       0.217   1.834   0.104  0.00  0.00     0.150 A 
ATOM      5  C4  UNL d   1      -1.042   1.268   0.279  0.00  0.00    -0.007 A 
ATOM      6  C5  UNL d   1      -1.155  -0.095   0.546  0.00  0.00     0.039 A 
ENDROOT
BRANCH   4   7
ATOM      7  O   UNL d   1       0.279   3.170  -0.161  0.00  0.00    -0.526 OA
ATOM      8  H5  UNL d   1       1.211   3.416  -0.286  0.00  0.00     0.418 HD
ENDBRANCH   4   7
TORSDOF 1
ENDMDL
