MODEL 1
REMARK minimizedAffinity -3.46227932
REMARK minimizedRMSD -1
REMARK  0 active torsions:
REMARK  status: ('A' for Active; 'I' for Inactive)
ROOT
ATOM      1  C   UNL d   1       1.892  -2.514  -0.073  0.00  0.00    -0.002 A 
ATOM      2  C1  UNL d   1       1.080  -3.031   0.927  0.00  0.00     0.010 A 
ATOM      3  C2  UNL d   1       0.046  -2.264   1.469  0.00  0.00     0.041 A 
ATOM      4  C3  UNL d   1      -0.160  -0.958   0.984  0.00  0.00    -0.075 A 
ATOM      5  S   UNL d   1      -1.365   0.164   1.497  0.00  0.00     0.015 SA
ATOM      6  C4  UNL d   1      -0.830   1.354   0.401  0.00  0.00     0.022 A 
ATOM      7  C5  UNL d   1       0.241   0.924  -0.346  0.00  0.00     0.026 A 
ATOM      8  C6  UNL d   1       0.644  -0.416  -0.023  0.00  0.00    -0.082 A 
ATOM      9  C7  UNL d   1       1.684  -1.218  -0.551  0.00  0.00     0.045 A 
ENDROOT
TORSDOF 0
ENDMDL
