MODEL 1
REMARK minimizedAffinity 1.25701082
REMARK minimizedRMSD -1
REMARK  0 active torsions:
REMARK  status: ('A' for Active; 'I' for Inactive)
ROOT
ATOM      1  C   UNL d   1       3.687  -1.130   0.154  0.00  0.00    -0.002 A 
ATOM      2  C1  UNL d   1       3.243  -0.807   1.428  0.00  0.00     0.010 A 
ATOM      3  C2  UNL d   1       1.935  -0.363   1.633  0.00  0.00     0.041 A 
ATOM      4  C3  UNL d   1       1.072  -0.250   0.525  0.00  0.00    -0.075 A 
ATOM      5  S   UNL d   1      -0.572   0.271   0.537  0.00  0.00     0.015 SA
ATOM      6  C4  UNL d   1      -0.723   0.076  -1.150  0.00  0.00     0.022 A 
ATOM      7  C5  UNL d   1       0.442  -0.375  -1.723  0.00  0.00     0.026 A 
ATOM      8  C6  UNL d   1       1.495  -0.571  -0.768  0.00  0.00    -0.082 A 
ATOM      9  C7  UNL d   1       2.827  -1.017  -0.943  0.00  0.00     0.045 A 
ENDROOT
TORSDOF 0
ENDMDL
