MODEL 1
REMARK minimizedAffinity -1.15729904
REMARK minimizedRMSD -1
REMARK  0 active torsions:
REMARK  status: ('A' for Active; 'I' for Inactive)
ROOT
ATOM      1  C   UNL d   1       3.121  -1.310   0.692  0.00  0.00    -0.002 A 
ATOM      2  C1  UNL d   1       2.257  -2.314   1.104  0.00  0.00     0.010 A 
ATOM      3  C2  UNL d   1       0.899  -2.257   0.787  0.00  0.00     0.041 A 
ATOM      4  C3  UNL d   1       0.419  -1.163   0.039  0.00  0.00    -0.075 A 
ATOM      5  S   UNL d   1      -1.205  -0.882  -0.467  0.00  0.00     0.015 SA
ATOM      6  C4  UNL d   1      -0.789   0.577  -1.244  0.00  0.00     0.022 A 
ATOM      7  C5  UNL d   1       0.552   0.858  -1.129  0.00  0.00     0.026 A 
ATOM      8  C6  UNL d   1       1.270  -0.141  -0.389  0.00  0.00    -0.082 A 
ATOM      9  C7  UNL d   1       2.642  -0.227  -0.050  0.00  0.00     0.045 A 
ENDROOT
TORSDOF 0
ENDMDL
