MODEL 1
REMARK minimizedAffinity -4.76282787
REMARK minimizedRMSD -1
REMARK  0 active torsions:
REMARK  status: ('A' for Active; 'I' for Inactive)
ROOT
ATOM      1  C   UNL d   1       2.213  -2.279   1.363  0.00  0.00    -0.002 A 
ATOM      2  C1  UNL d   1       2.592  -1.543   0.249  0.00  0.00     0.010 A 
ATOM      3  C2  UNL d   1       1.820  -0.464  -0.185  0.00  0.00     0.041 A 
ATOM      4  C3  UNL d   1       0.650  -0.132   0.527  0.00  0.00    -0.075 A 
ATOM      5  S   UNL d   1      -0.450   1.149   0.180  0.00  0.00     0.015 SA
ATOM      6  C4  UNL d   1      -1.448   0.750   1.503  0.00  0.00     0.022 A 
ATOM      7  C5  UNL d   1      -0.969  -0.332   2.203  0.00  0.00     0.026 A 
ATOM      8  C6  UNL d   1       0.249  -0.858   1.652  0.00  0.00    -0.082 A 
ATOM      9  C7  UNL d   1       1.053  -1.947   2.067  0.00  0.00     0.045 A 
ENDROOT
TORSDOF 0
ENDMDL
