MODEL 1
REMARK minimizedAffinity 4.44986248
REMARK minimizedRMSD -1
REMARK  0 active torsions:
REMARK  status: ('A' for Active; 'I' for Inactive)
ROOT
ATOM      1  C   UNL d   1      -1.852  -0.248   0.884  0.00  0.00     0.078 C 
ATOM      2  C1  UNL d   1      -0.388  -0.474   1.114  0.00  0.00    -0.077 A 
ATOM      3  C2  UNL d   1       0.059  -1.345   2.116  0.00  0.00    -0.001 A 
ATOM      4  C3  UNL d   1       1.425  -1.539   2.325  0.00  0.00     0.003 A 
ATOM      5  C4  UNL d   1       2.356  -0.863   1.539  0.00  0.00    -0.005 A 
ATOM      6  C5  UNL d   1       1.922   0.007   0.542  0.00  0.00     0.003 A 
ATOM      7  C6  UNL d   1       0.556   0.202   0.330  0.00  0.00    -0.001 A 
ENDROOT
TORSDOF 0
ENDMDL
