MODEL 1
REMARK minimizedAffinity 0.729801416
REMARK minimizedRMSD -1
REMARK  0 active torsions:
REMARK  status: ('A' for Active; 'I' for Inactive)
ROOT
ATOM      1  C   UNL d   1       1.652  -1.780   3.262  0.00  0.00     0.078 C 
ATOM      2  C1  UNL d   1       1.763  -0.939   2.026  0.00  0.00    -0.077 A 
ATOM      3  C2  UNL d   1       0.621  -0.439   1.388  0.00  0.00    -0.001 A 
ATOM      4  C3  UNL d   1       0.740   0.334   0.232  0.00  0.00     0.003 A 
ATOM      5  C4  UNL d   1       1.998   0.614  -0.297  0.00  0.00    -0.005 A 
ATOM      6  C5  UNL d   1       3.140   0.119   0.329  0.00  0.00     0.003 A 
ATOM      7  C6  UNL d   1       3.024  -0.655   1.485  0.00  0.00    -0.001 A 
ENDROOT
TORSDOF 0
ENDMDL
