MODEL 1
REMARK minimizedAffinity 0.57777375
REMARK minimizedRMSD -1
REMARK  0 active torsions:
REMARK  status: ('A' for Active; 'I' for Inactive)
ROOT
ATOM      1  C   UNL d   1       1.065   1.198   0.394  0.00  0.00     0.078 C 
ATOM      2  C1  UNL d   1       1.152  -0.151   1.043  0.00  0.00    -0.077 A 
ATOM      3  C2  UNL d   1       1.938  -0.352   2.184  0.00  0.00    -0.001 A 
ATOM      4  C3  UNL d   1       2.017  -1.616   2.772  0.00  0.00     0.003 A 
ATOM      5  C4  UNL d   1       1.314  -2.687   2.226  0.00  0.00    -0.005 A 
ATOM      6  C5  UNL d   1       0.531  -2.497   1.089  0.00  0.00     0.003 A 
ATOM      7  C6  UNL d   1       0.450  -1.234   0.500  0.00  0.00    -0.001 A 
ENDROOT
TORSDOF 0
ENDMDL
