MODEL 1
REMARK minimizedAffinity 0.148904517
REMARK minimizedRMSD -1
REMARK  0 active torsions:
REMARK  status: ('A' for Active; 'I' for Inactive)
ROOT
ATOM      1  C   UNL d   1      -3.155  -1.591   0.715  0.00  0.00     0.078 C 
ATOM      2  C1  UNL d   1      -4.138  -0.899  -0.182  0.00  0.00    -0.077 A 
ATOM      3  C2  UNL d   1      -4.630   0.374   0.134  0.00  0.00    -0.001 A 
ATOM      4  C3  UNL d   1      -5.552   1.002  -0.705  0.00  0.00     0.003 A 
ATOM      5  C4  UNL d   1      -5.991   0.365  -1.864  0.00  0.00    -0.005 A 
ATOM      6  C5  UNL d   1      -5.508  -0.902  -2.185  0.00  0.00     0.003 A 
ATOM      7  C6  UNL d   1      -4.587  -1.532  -1.348  0.00  0.00    -0.001 A 
ENDROOT
TORSDOF 0
ENDMDL
