MODEL 1
REMARK minimizedAffinity -1.42414999
REMARK minimizedRMSD -1
REMARK  0 active torsions:
REMARK  status: ('A' for Active; 'I' for Inactive)
ROOT
ATOM      1  C   UNL d   1       1.671  -5.975  -5.259  0.00  0.00     0.078 C 
ATOM      2  C1  UNL d   1       0.404  -5.989  -4.456  0.00  0.00    -0.077 A 
ATOM      3  C2  UNL d   1      -0.848  -5.982  -5.084  0.00  0.00    -0.001 A 
ATOM      4  C3  UNL d   1      -2.018  -5.986  -4.325  0.00  0.00     0.003 A 
ATOM      5  C4  UNL d   1      -1.949  -5.995  -2.933  0.00  0.00    -0.005 A 
ATOM      6  C5  UNL d   1      -0.709  -6.000  -2.299  0.00  0.00     0.003 A 
ATOM      7  C6  UNL d   1       0.463  -5.996  -3.057  0.00  0.00    -0.001 A 
ENDROOT
TORSDOF 0
ENDMDL
