MODEL 1
REMARK minimizedAffinity 1.95004714
REMARK minimizedRMSD -1
REMARK  0 active torsions:
REMARK  status: ('A' for Active; 'I' for Inactive)
ROOT
ATOM      1  C   UNL d   1       0.876   0.941   0.354  0.00  0.00     0.078 C 
ATOM      2  C1  UNL d   1       1.158  -0.331   1.096  0.00  0.00    -0.077 A 
ATOM      3  C2  UNL d   1       0.493  -1.519   0.768  0.00  0.00    -0.001 A 
ATOM      4  C3  UNL d   1       0.758  -2.694   1.474  0.00  0.00     0.003 A 
ATOM      5  C4  UNL d   1       1.688  -2.692   2.512  0.00  0.00    -0.005 A 
ATOM      6  C5  UNL d   1       2.352  -1.514   2.847  0.00  0.00     0.003 A 
ATOM      7  C6  UNL d   1       2.089  -0.338   2.142  0.00  0.00    -0.001 A 
ENDROOT
TORSDOF 0
ENDMDL
