MODEL 1
REMARK minimizedAffinity -0.882290304
REMARK minimizedRMSD -1
REMARK  0 active torsions:
REMARK  status: ('A' for Active; 'I' for Inactive)
ROOT
ATOM      1  C   UNL d   1       0.748  -5.998  -5.994  0.00  0.00     0.078 C 
ATOM      2  C1  UNL d   1      -0.072  -5.989  -4.738  0.00  0.00    -0.077 A 
ATOM      3  C2  UNL d   1       0.538  -5.996  -3.478  0.00  0.00    -0.001 A 
ATOM      4  C3  UNL d   1      -0.238  -5.997  -2.318  0.00  0.00     0.003 A 
ATOM      5  C4  UNL d   1      -1.628  -5.992  -2.406  0.00  0.00    -0.005 A 
ATOM      6  C5  UNL d   1      -2.245  -5.987  -3.656  0.00  0.00     0.003 A 
ATOM      7  C6  UNL d   1      -1.471  -5.986  -4.817  0.00  0.00    -0.001 A 
ENDROOT
TORSDOF 0
ENDMDL
