MODEL 1
REMARK minimizedAffinity -2.69562674
REMARK minimizedRMSD -1
REMARK  0 active torsions:
REMARK  status: ('A' for Active; 'I' for Inactive)
ROOT
ATOM      1  C   UNL d   1      -3.284  -6.000  -3.368  0.00  0.00     0.078 C 
ATOM      2  C1  UNL d   1      -1.826  -5.983  -3.721  0.00  0.00    -0.077 A 
ATOM      3  C2  UNL d   1      -0.843  -6.000  -2.724  0.00  0.00    -0.001 A 
ATOM      4  C3  UNL d   1       0.510  -5.974  -3.067  0.00  0.00     0.003 A 
ATOM      5  C4  UNL d   1       0.892  -5.929  -4.406  0.00  0.00    -0.005 A 
ATOM      6  C5  UNL d   1      -0.080  -5.910  -5.405  0.00  0.00     0.003 A 
ATOM      7  C6  UNL d   1      -1.433  -5.936  -5.064  0.00  0.00    -0.001 A 
ENDROOT
TORSDOF 0
ENDMDL
