MODEL 1
REMARK minimizedAffinity -3.21955848
REMARK minimizedRMSD -1
REMARK  0 active torsions:
REMARK  status: ('A' for Active; 'I' for Inactive)
ROOT
ATOM      1  C   UNL d   1       1.886  -5.989  -4.989  0.00  0.00     0.078 C 
ATOM      2  C1  UNL d   1       0.537  -6.000  -4.336  0.00  0.00    -0.077 A 
ATOM      3  C2  UNL d   1      -0.636  -5.997  -5.102  0.00  0.00    -0.001 A 
ATOM      4  C3  UNL d   1      -1.885  -5.997  -4.480  0.00  0.00     0.003 A 
ATOM      5  C4  UNL d   1      -1.975  -5.999  -3.089  0.00  0.00    -0.005 A 
ATOM      6  C5  UNL d   1      -0.814  -6.000  -2.319  0.00  0.00     0.003 A 
ATOM      7  C6  UNL d   1       0.437  -6.000  -2.939  0.00  0.00    -0.001 A 
ENDROOT
TORSDOF 0
ENDMDL
