MODEL 1
REMARK minimizedAffinity 1.33498073
REMARK minimizedRMSD -1
REMARK  0 active torsions:
REMARK  status: ('A' for Active; 'I' for Inactive)
ROOT
ATOM      1  C   UNL d   1      -3.218  -6.000  -3.190  0.00  0.00     0.078 C 
ATOM      2  C1  UNL d   1      -1.774  -5.982  -3.592  0.00  0.00    -0.077 A 
ATOM      3  C2  UNL d   1      -1.400  -6.000  -4.942  0.00  0.00    -0.001 A 
ATOM      4  C3  UNL d   1      -0.052  -5.993  -5.301  0.00  0.00     0.003 A 
ATOM      5  C4  UNL d   1       0.935  -5.969  -4.317  0.00  0.00    -0.005 A 
ATOM      6  C5  UNL d   1       0.573  -5.953  -2.972  0.00  0.00     0.003 A 
ATOM      7  C6  UNL d   1      -0.775  -5.960  -2.610  0.00  0.00    -0.001 A 
ENDROOT
TORSDOF 0
ENDMDL
