MODEL 1
REMARK minimizedAffinity -2.388201
REMARK minimizedRMSD -1
REMARK  0 active torsions:
REMARK  status: ('A' for Active; 'I' for Inactive)
ROOT
ATOM      1  C   UNL d   1       0.991  -5.970  -4.863  0.00  0.00     0.078 C 
ATOM      2  C1  UNL d   1      -0.303  -5.867  -4.112  0.00  0.00    -0.077 A 
ATOM      3  C2  UNL d   1      -0.340  -5.999  -2.718  0.00  0.00    -0.001 A 
ATOM      4  C3  UNL d   1      -1.553  -5.911  -2.033  0.00  0.00     0.003 A 
ATOM      5  C4  UNL d   1      -2.738  -5.691  -2.733  0.00  0.00    -0.005 A 
ATOM      6  C5  UNL d   1      -2.711  -5.560  -4.120  0.00  0.00     0.003 A 
ATOM      7  C6  UNL d   1      -1.499  -5.648  -4.807  0.00  0.00    -0.001 A 
ENDROOT
TORSDOF 0
ENDMDL
