MODEL 1
REMARK minimizedAffinity 0.283449143
REMARK minimizedRMSD -1
REMARK  0 active torsions:
REMARK  status: ('A' for Active; 'I' for Inactive)
ROOT
ATOM      1  C   UNL d   1      -0.890  -5.967  -1.949  0.00  0.00     0.078 C 
ATOM      2  C1  UNL d   1      -0.391  -5.958  -3.363  0.00  0.00    -0.077 A 
ATOM      3  C2  UNL d   1      -1.282  -5.999  -4.443  0.00  0.00    -0.001 A 
ATOM      4  C3  UNL d   1      -0.803  -6.000  -5.754  0.00  0.00     0.003 A 
ATOM      5  C4  UNL d   1       0.569  -5.961  -5.997  0.00  0.00    -0.005 A 
ATOM      6  C5  UNL d   1       1.463  -5.922  -4.930  0.00  0.00     0.003 A 
ATOM      7  C6  UNL d   1       0.986  -5.921  -3.618  0.00  0.00    -0.001 A 
ENDROOT
TORSDOF 0
ENDMDL
