MODEL 1
REMARK minimizedAffinity -2.12845707
REMARK minimizedRMSD -1
REMARK  0 active torsions:
REMARK  status: ('A' for Active; 'I' for Inactive)
ROOT
ATOM      1  C   UNL d   1       1.119  -5.996  -4.364  0.00  0.00     0.078 C 
ATOM      2  C1  UNL d   1      -0.321  -6.000  -3.944  0.00  0.00    -0.077 A 
ATOM      3  C2  UNL d   1      -1.349  -5.997  -4.894  0.00  0.00    -0.001 A 
ATOM      4  C3  UNL d   1      -2.685  -5.991  -4.489  0.00  0.00     0.003 A 
ATOM      5  C4  UNL d   1      -3.004  -5.986  -3.133  0.00  0.00    -0.005 A 
ATOM      6  C5  UNL d   1      -1.987  -5.987  -2.180  0.00  0.00     0.003 A 
ATOM      7  C6  UNL d   1      -0.651  -5.993  -2.583  0.00  0.00    -0.001 A 
ENDROOT
TORSDOF 0
ENDMDL
