MODEL 1
REMARK minimizedAffinity 0.490786999
REMARK minimizedRMSD -1
REMARK  0 active torsions:
REMARK  status: ('A' for Active; 'I' for Inactive)
ROOT
ATOM      1  C   UNL d   1       1.535  -5.995  -4.895  0.00  0.00     0.078 C 
ATOM      2  C1  UNL d   1       0.220  -5.984  -4.175  0.00  0.00    -0.077 A 
ATOM      3  C2  UNL d   1       0.163  -5.973  -2.776  0.00  0.00    -0.001 A 
ATOM      4  C3  UNL d   1      -1.068  -5.973  -2.119  0.00  0.00     0.003 A 
ATOM      5  C4  UNL d   1      -2.253  -5.985  -2.853  0.00  0.00    -0.005 A 
ATOM      6  C5  UNL d   1      -2.207  -5.999  -4.245  0.00  0.00     0.003 A 
ATOM      7  C6  UNL d   1      -0.976  -5.999  -4.904  0.00  0.00    -0.001 A 
ENDROOT
TORSDOF 0
ENDMDL
