MODEL 1
REMARK minimizedAffinity 2.95449543
REMARK minimizedRMSD -1
REMARK  0 active torsions:
REMARK  status: ('A' for Active; 'I' for Inactive)
ROOT
ATOM      1  C   UNL d   1      -2.610  -1.406   0.304  0.00  0.00     0.078 C 
ATOM      2  C1  UNL d   1      -3.692  -0.712  -0.469  0.00  0.00    -0.077 A 
ATOM      3  C2  UNL d   1      -4.287   0.459   0.015  0.00  0.00    -0.001 A 
ATOM      4  C3  UNL d   1      -5.299   1.089  -0.710  0.00  0.00     0.003 A 
ATOM      5  C4  UNL d   1      -5.727   0.554  -1.924  0.00  0.00    -0.005 A 
ATOM      6  C5  UNL d   1      -5.143  -0.613  -2.413  0.00  0.00     0.003 A 
ATOM      7  C6  UNL d   1      -4.130  -1.244  -1.689  0.00  0.00    -0.001 A 
ENDROOT
TORSDOF 0
ENDMDL
