MODEL 1
REMARK minimizedAffinity -1.32781541
REMARK minimizedRMSD -1
REMARK  0 active torsions:
REMARK  status: ('A' for Active; 'I' for Inactive)
ROOT
ATOM      1  C   UNL d   1      -2.796  -5.999  -2.754  0.00  0.00     0.078 C 
ATOM      2  C1  UNL d   1      -1.645  -5.997  -3.716  0.00  0.00    -0.077 A 
ATOM      3  C2  UNL d   1      -0.322  -6.000  -3.257  0.00  0.00    -0.001 A 
ATOM      4  C3  UNL d   1       0.739  -5.988  -4.164  0.00  0.00     0.003 A 
ATOM      5  C4  UNL d   1       0.488  -5.972  -5.534  0.00  0.00    -0.005 A 
ATOM      6  C5  UNL d   1      -0.825  -5.966  -6.000  0.00  0.00     0.003 A 
ATOM      7  C6  UNL d   1      -1.887  -5.978  -5.095  0.00  0.00    -0.001 A 
ENDROOT
TORSDOF 0
ENDMDL
