MODEL 1
REMARK minimizedAffinity 1.17728412
REMARK minimizedRMSD -1
REMARK  0 active torsions:
REMARK  status: ('A' for Active; 'I' for Inactive)
ROOT
ATOM      1  C   UNL d   1       1.709   5.056  -0.177  0.00  0.00     0.077 C 
ATOM      2  C1  UNL d   1       0.739   4.331   0.707  0.00  0.00    -0.074 A 
ATOM      3  C2  UNL d   1      -0.542   4.843   0.941  0.00  0.00    -0.005 A 
ATOM      4  C3  UNL d   1      -1.437   4.152   1.758  0.00  0.00     0.006 A 
ATOM      5  C4  UNL d   1      -1.061   2.944   2.348  0.00  0.00    -0.005 A 
ATOM      6  C5  UNL d   1       0.214   2.416   2.124  0.00  0.00    -0.074 A 
ATOM      7  C6  UNL d   1       0.630   1.115   2.743  0.00  0.00     0.077 C 
ATOM      8  C7  UNL d   1       1.106   3.113   1.297  0.00  0.00    -0.001 A 
ENDROOT
TORSDOF 0
ENDMDL
