MODEL 1
REMARK minimizedAffinity -0.0284299664
REMARK minimizedRMSD -1
REMARK  0 active torsions:
REMARK  status: ('A' for Active; 'I' for Inactive)
ROOT
ATOM      1  C   UNL d   1      -6.000   4.607  -6.000  0.00  0.00     0.077 C 
ATOM      2  C1  UNL d   1      -5.284   3.779  -4.974  0.00  0.00    -0.074 A 
ATOM      3  C2  UNL d   1      -3.965   3.363  -5.179  0.00  0.00    -0.005 A 
ATOM      4  C3  UNL d   1      -3.309   2.602  -4.211  0.00  0.00     0.006 A 
ATOM      5  C4  UNL d   1      -3.965   2.250  -3.031  0.00  0.00    -0.005 A 
ATOM      6  C5  UNL d   1      -5.283   2.658  -2.808  0.00  0.00    -0.074 A 
ATOM      7  C6  UNL d   1      -5.999   2.297  -1.540  0.00  0.00     0.077 C 
ATOM      8  C7  UNL d   1      -5.933   3.428  -3.782  0.00  0.00    -0.001 A 
ENDROOT
TORSDOF 0
ENDMDL
