MODEL 1
REMARK minimizedAffinity 6.26167488
REMARK minimizedRMSD -1
REMARK  0 active torsions:
REMARK  status: ('A' for Active; 'I' for Inactive)
ROOT
ATOM      1  C   UNL d   1      -5.996   1.466  -2.031  0.00  0.00     0.077 C 
ATOM      2  C1  UNL d   1      -5.469   2.668  -2.757  0.00  0.00    -0.074 A 
ATOM      3  C2  UNL d   1      -6.000   3.051  -3.993  0.00  0.00    -0.005 A 
ATOM      4  C3  UNL d   1      -5.505   4.176  -4.653  0.00  0.00     0.006 A 
ATOM      5  C4  UNL d   1      -4.477   4.929  -4.084  0.00  0.00    -0.005 A 
ATOM      6  C5  UNL d   1      -3.935   4.562  -2.848  0.00  0.00    -0.074 A 
ATOM      7  C6  UNL d   1      -2.836   5.365  -2.218  0.00  0.00     0.077 C 
ATOM      8  C7  UNL d   1      -4.441   3.433  -2.188  0.00  0.00    -0.001 A 
ENDROOT
TORSDOF 0
ENDMDL
