MODEL 1
REMARK minimizedAffinity 0.707565784
REMARK minimizedRMSD -1
REMARK  0 active torsions:
REMARK  status: ('A' for Active; 'I' for Inactive)
ROOT
ATOM      1  C   UNL d   1       1.736   6.000  -2.352  0.00  0.00     0.077 C 
ATOM      2  C1  UNL d   1       0.760   5.075  -1.688  0.00  0.00    -0.074 A 
ATOM      3  C2  UNL d   1       1.192   4.110  -0.772  0.00  0.00    -0.005 A 
ATOM      4  C3  UNL d   1       0.272   3.263  -0.155  0.00  0.00     0.006 A 
ATOM      5  C4  UNL d   1      -1.088   3.372  -0.447  0.00  0.00    -0.005 A 
ATOM      6  C5  UNL d   1      -1.540   4.331  -1.359  0.00  0.00    -0.074 A 
ATOM      7  C6  UNL d   1      -2.999   4.468  -1.677  0.00  0.00     0.077 C 
ATOM      8  C7  UNL d   1      -0.609   5.183  -1.970  0.00  0.00    -0.001 A 
ENDROOT
TORSDOF 0
ENDMDL
