MODEL 1
REMARK minimizedAffinity 7.42355919
REMARK minimizedRMSD -1
REMARK  0 active torsions:
REMARK  status: ('A' for Active; 'I' for Inactive)
ROOT
ATOM      1  C   UNL d   1       0.505   1.770  -1.055  0.00  0.00     0.077 C 
ATOM      2  C1  UNL d   1       0.129   2.109   0.357  0.00  0.00    -0.074 A 
ATOM      3  C2  UNL d   1      -1.146   2.595   0.664  0.00  0.00    -0.005 A 
ATOM      4  C3  UNL d   1      -1.485   2.898   1.983  0.00  0.00     0.006 A 
ATOM      5  C4  UNL d   1      -0.554   2.717   3.006  0.00  0.00    -0.005 A 
ATOM      6  C5  UNL d   1       0.726   2.231   2.719  0.00  0.00    -0.074 A 
ATOM      7  C6  UNL d   1       1.735   2.022   3.808  0.00  0.00     0.077 C 
ATOM      8  C7  UNL d   1       1.056   1.923   1.392  0.00  0.00    -0.001 A 
ENDROOT
TORSDOF 0
ENDMDL
