MODEL 1
REMARK minimizedAffinity 6.48045015
REMARK minimizedRMSD -1
REMARK  0 active torsions:
REMARK  status: ('A' for Active; 'I' for Inactive)
ROOT
ATOM      1  C   UNL d   1      -2.822   4.413  -2.128  0.00  0.00     0.077 C 
ATOM      2  C1  UNL d   1      -3.926   3.584  -2.715  0.00  0.00    -0.074 A 
ATOM      3  C2  UNL d   1      -4.527   2.560  -1.976  0.00  0.00    -0.005 A 
ATOM      4  C3  UNL d   1      -5.559   1.804  -2.531  0.00  0.00     0.006 A 
ATOM      5  C4  UNL d   1      -6.000   2.063  -3.829  0.00  0.00    -0.005 A 
ATOM      6  C5  UNL d   1      -5.412   3.084  -4.583  0.00  0.00    -0.074 A 
ATOM      7  C6  UNL d   1      -5.881   3.382  -5.976  0.00  0.00     0.077 C 
ATOM      8  C7  UNL d   1      -4.380   3.844  -4.016  0.00  0.00    -0.001 A 
ENDROOT
TORSDOF 0
ENDMDL
