MODEL 1
REMARK minimizedAffinity -4.80108023
REMARK minimizedRMSD -1
REMARK  3 active torsions:
REMARK  status: ('A' for Active; 'I' for Inactive)
REMARK    1  A    between atoms: C3'_2  and  C2'_3 
REMARK    2  A    between atoms: C2'_3  and  C1'_4 
REMARK    3  A    between atoms: C1'_4  and  C1_5 
ROOT
ATOM      1  C1  N4B d   1       2.507  -0.302  -3.689  0.00  0.00    -0.075 A 
ATOM      2  C2  N4B d   1       1.959  -1.597  -3.828  0.00  0.00     0.002 A 
ATOM      3  C3  N4B d   1       0.774  -1.910  -3.209  0.00  0.00     0.002 A 
ATOM      4  C4  N4B d   1       0.131  -0.956  -2.434  0.00  0.00    -0.004 A 
ATOM      5  C5  N4B d   1       0.654   0.300  -2.327  0.00  0.00     0.002 A 
ATOM      6  C6  N4B d   1       1.842   0.630  -2.947  0.00  0.00     0.002 A 
ENDROOT
BRANCH   1   7
ATOM      7  C1' N4B d   1       3.843   0.061  -4.277  0.00  0.00     0.057 C 
BRANCH   7   8
ATOM      8  C2' N4B d   1       4.071   1.561  -4.114  0.00  0.00     0.009 C 
BRANCH   8   9
ATOM      9  C3' N4B d   1       5.302   2.034  -4.867  0.00  0.00     0.004 C 
ATOM     10  C4' N4B d   1       4.971   2.962  -5.998  0.00  0.00     0.003 C 
ENDBRANCH   8   9
ENDBRANCH   7   8
ENDBRANCH   1   7
TORSDOF 3
ENDMDL
