MODEL 1
REMARK minimizedAffinity -3.93898821
REMARK minimizedRMSD -1
REMARK  3 active torsions:
REMARK  status: ('A' for Active; 'I' for Inactive)
REMARK    1  A    between atoms: C3'_2  and  C2'_3 
REMARK    2  A    between atoms: C2'_3  and  C1'_4 
REMARK    3  A    between atoms: C1'_4  and  C1_5 
ROOT
ATOM      1  C1  N4B d   1       0.633   0.310  -0.823  0.00  0.00    -0.075 A 
ATOM      2  C2  N4B d   1       1.975   0.068  -0.454  0.00  0.00     0.002 A 
ATOM      3  C3  N4B d   1       2.277  -0.295   0.835  0.00  0.00     0.002 A 
ATOM      4  C4  N4B d   1       1.261  -0.404   1.773  0.00  0.00    -0.004 A 
ATOM      5  C5  N4B d   1      -0.034  -0.193   1.403  0.00  0.00     0.002 A 
ATOM      6  C6  N4B d   1      -0.354   0.168   0.109  0.00  0.00     0.002 A 
ENDROOT
BRANCH   1   7
ATOM      7  C1' N4B d   1       0.263   0.792  -2.199  0.00  0.00     0.057 C 
BRANCH   7   8
ATOM      8  C2' N4B d   1       1.292   0.282  -3.203  0.00  0.00     0.009 C 
BRANCH   8   9
ATOM      9  C3' N4B d   1       0.869  -1.035  -3.831  0.00  0.00     0.004 C 
ATOM     10  C4' N4B d   1       1.933  -2.088  -3.743  0.00  0.00     0.003 C 
ENDBRANCH   8   9
ENDBRANCH   7   8
ENDBRANCH   1   7
TORSDOF 3
ENDMDL
