MODEL 1
REMARK minimizedAffinity -3.04480219
REMARK minimizedRMSD -1
REMARK  3 active torsions:
REMARK  status: ('A' for Active; 'I' for Inactive)
REMARK    1  A    between atoms: C3'_2  and  C2'_3 
REMARK    2  A    between atoms: C2'_3  and  C1'_4 
REMARK    3  A    between atoms: C1'_4  and  C1_5 
ROOT
ATOM      1  C1  N4B d   1       0.075   0.536  -0.623  0.00  0.00    -0.075 A 
ATOM      2  C2  N4B d   1       1.290   0.859   0.020  0.00  0.00     0.002 A 
ATOM      3  C3  N4B d   1       1.472   0.541   1.344  0.00  0.00     0.002 A 
ATOM      4  C4  N4B d   1       0.451  -0.081   2.047  0.00  0.00    -0.004 A 
ATOM      5  C5  N4B d   1      -0.710  -0.412   1.412  0.00  0.00     0.002 A 
ATOM      6  C6  N4B d   1      -0.905  -0.102   0.081  0.00  0.00     0.002 A 
ENDROOT
BRANCH   1   7
ATOM      7  C1' N4B d   1      -0.203   0.941  -2.044  0.00  0.00     0.057 C 
BRANCH   7   8
ATOM      8  C2' N4B d   1       0.896   0.388  -2.947  0.00  0.00     0.009 C 
BRANCH   8   9
ATOM      9  C3' N4B d   1       0.505  -0.940  -3.571  0.00  0.00     0.004 C 
ATOM     10  C4' N4B d   1       1.670  -1.870  -3.737  0.00  0.00     0.003 C 
ENDBRANCH   8   9
ENDBRANCH   7   8
ENDBRANCH   1   7
TORSDOF 3
ENDMDL
