MODEL 1
REMARK minimizedAffinity -5.95234585
REMARK minimizedRMSD -1
REMARK  3 active torsions:
REMARK  status: ('A' for Active; 'I' for Inactive)
REMARK    1  A    between atoms: C3'_2  and  C2'_3 
REMARK    2  A    between atoms: C2'_3  and  C1'_4 
REMARK    3  A    between atoms: C1'_4  and  C1_5 
ROOT
ATOM      1  C1  N4B d   1       0.131   0.203   0.795  0.00  0.00    -0.075 A 
ATOM      2  C2  N4B d   1       1.113  -0.567   1.457  0.00  0.00     0.002 A 
ATOM      3  C3  N4B d   1       0.890  -1.010   2.738  0.00  0.00     0.002 A 
ATOM      4  C4  N4B d   1      -0.293  -0.680   3.381  0.00  0.00    -0.004 A 
ATOM      5  C5  N4B d   1      -1.247   0.042   2.726  0.00  0.00     0.002 A 
ATOM      6  C6  N4B d   1      -1.039   0.490   1.437  0.00  0.00     0.002 A 
ENDROOT
BRANCH   1   7
ATOM      7  C1' N4B d   1       0.365   0.781  -0.574  0.00  0.00     0.057 C 
BRANCH   7   8
ATOM      8  C2' N4B d   1       0.692  -0.349  -1.546  0.00  0.00     0.009 C 
BRANCH   8   9
ATOM      9  C3' N4B d   1       0.641   0.114  -2.992  0.00  0.00     0.004 C 
ATOM     10  C4' N4B d   1       0.168  -0.958  -3.928  0.00  0.00     0.003 C 
ENDBRANCH   8   9
ENDBRANCH   7   8
ENDBRANCH   1   7
TORSDOF 3
ENDMDL
