MODEL 1
REMARK minimizedAffinity -6.08641529
REMARK minimizedRMSD -1
REMARK  3 active torsions:
REMARK  status: ('A' for Active; 'I' for Inactive)
REMARK    1  A    between atoms: C3'_2  and  C2'_3 
REMARK    2  A    between atoms: C2'_3  and  C1'_4 
REMARK    3  A    between atoms: C1'_4  and  C1_5 
ROOT
ATOM      1  C1  N4B d   1      -0.051   0.029   0.233  0.00  0.00    -0.075 A 
ATOM      2  C2  N4B d   1      -1.202  -0.568   0.791  0.00  0.00     0.002 A 
ATOM      3  C3  N4B d   1      -1.216  -0.923   2.118  0.00  0.00     0.002 A 
ATOM      4  C4  N4B d   1      -0.089  -0.708   2.897  0.00  0.00    -0.004 A 
ATOM      5  C5  N4B d   1       1.010  -0.107   2.356  0.00  0.00     0.002 A 
ATOM      6  C6  N4B d   1       1.036   0.258   1.025  0.00  0.00     0.002 A 
ENDROOT
BRANCH   1   7
ATOM      7  C1' N4B d   1       0.043   0.356  -1.233  0.00  0.00     0.057 C 
BRANCH   7   8
ATOM      8  C2' N4B d   1       0.183  -0.940  -2.027  0.00  0.00     0.009 C 
BRANCH   8   9
ATOM      9  C3' N4B d   1       1.554  -1.067  -2.669  0.00  0.00     0.004 C 
ATOM     10  C4' N4B d   1       1.500  -1.022  -4.167  0.00  0.00     0.003 C 
ENDBRANCH   8   9
ENDBRANCH   7   8
ENDBRANCH   1   7
TORSDOF 3
ENDMDL
