MODEL 1
REMARK minimizedAffinity -5.94834375
REMARK minimizedRMSD -1
REMARK  3 active torsions:
REMARK  status: ('A' for Active; 'I' for Inactive)
REMARK    1  A    between atoms: C3'_2  and  C2'_3 
REMARK    2  A    between atoms: C2'_3  and  C1'_4 
REMARK    3  A    between atoms: C1'_4  and  C1_5 
ROOT
ATOM      1  C1  N4B d   1      -0.295   0.009   0.454  0.00  0.00    -0.075 A 
ATOM      2  C2  N4B d   1       0.821   0.132   1.310  0.00  0.00     0.002 A 
ATOM      3  C3  N4B d   1       0.662   0.007   2.668  0.00  0.00     0.002 A 
ATOM      4  C4  N4B d   1      -0.601  -0.222   3.193  0.00  0.00    -0.004 A 
ATOM      5  C5  N4B d   1      -1.670  -0.365   2.357  0.00  0.00     0.002 A 
ATOM      6  C6  N4B d   1      -1.524  -0.245   0.990  0.00  0.00     0.002 A 
ENDROOT
BRANCH   1   7
ATOM      7  C1' N4B d   1      -0.185   0.224  -1.031  0.00  0.00     0.057 C 
BRANCH   7   8
ATOM      8  C2' N4B d   1       1.171  -0.285  -1.511  0.00  0.00     0.009 C 
BRANCH   8   9
ATOM      9  C3' N4B d   1       1.124  -0.749  -2.957  0.00  0.00     0.004 C 
ATOM     10  C4' N4B d   1       2.430  -0.563  -3.669  0.00  0.00     0.003 C 
ENDBRANCH   8   9
ENDBRANCH   7   8
ENDBRANCH   1   7
TORSDOF 3
ENDMDL
