MODEL 1
REMARK minimizedAffinity -6.01222897
REMARK minimizedRMSD -1
REMARK  3 active torsions:
REMARK  status: ('A' for Active; 'I' for Inactive)
REMARK    1  A    between atoms: C3'_2  and  C2'_3 
REMARK    2  A    between atoms: C2'_3  and  C1'_4 
REMARK    3  A    between atoms: C1'_4  and  C1_5 
ROOT
ATOM      1  C1  N4B d   1      -0.692   0.138   0.245  0.00  0.00    -0.075 A 
ATOM      2  C2  N4B d   1      -2.009   0.446  -0.161  0.00  0.00     0.002 A 
ATOM      3  C3  N4B d   1      -3.056   0.263   0.709  0.00  0.00     0.002 A 
ATOM      4  C4  N4B d   1      -2.814  -0.242   1.977  0.00  0.00    -0.004 A 
ATOM      5  C5  N4B d   1      -1.536  -0.513   2.370  0.00  0.00     0.002 A 
ATOM      6  C6  N4B d   1      -0.474  -0.331   1.508  0.00  0.00     0.002 A 
ENDROOT
BRANCH   1   7
ATOM      7  C1' N4B d   1       0.475   0.241  -0.699  0.00  0.00     0.057 C 
BRANCH   7   8
ATOM      8  C2' N4B d   1       0.004  -0.085  -2.113  0.00  0.00     0.009 C 
BRANCH   8   9
ATOM      9  C3' N4B d   1       1.169  -0.293  -3.066  0.00  0.00     0.004 C 
ATOM     10  C4' N4B d   1       0.958  -1.448  -3.998  0.00  0.00     0.003 C 
ENDBRANCH   8   9
ENDBRANCH   7   8
ENDBRANCH   1   7
TORSDOF 3
ENDMDL
