MODEL 1
REMARK minimizedAffinity -5.4163332
REMARK minimizedRMSD -1
REMARK  3 active torsions:
REMARK  status: ('A' for Active; 'I' for Inactive)
REMARK    1  A    between atoms: C3'_2  and  C2'_3 
REMARK    2  A    between atoms: C2'_3  and  C1'_4 
REMARK    3  A    between atoms: C1'_4  and  C1_5 
ROOT
ATOM      1  C1  N4B d   1      -0.252  -0.095   0.922  0.00  0.00    -0.075 A 
ATOM      2  C2  N4B d   1      -0.020  -0.242   2.307  0.00  0.00     0.002 A 
ATOM      3  C3  N4B d   1      -1.065  -0.141   3.193  0.00  0.00     0.002 A 
ATOM      4  C4  N4B d   1      -2.341   0.125   2.720  0.00  0.00    -0.004 A 
ATOM      5  C5  N4B d   1      -2.561   0.241   1.379  0.00  0.00     0.002 A 
ATOM      6  C6  N4B d   1      -1.521   0.138   0.477  0.00  0.00     0.002 A 
ENDROOT
BRANCH   1   7
ATOM      7  C1' N4B d   1       0.873  -0.112  -0.078  0.00  0.00     0.057 C 
BRANCH   7   8
ATOM      8  C2' N4B d   1       0.291  -0.238  -1.483  0.00  0.00     0.009 C 
BRANCH   8   9
ATOM      9  C3' N4B d   1       1.377  -0.365  -2.537  0.00  0.00     0.004 C 
ATOM     10  C4' N4B d   1       1.090  -1.444  -3.539  0.00  0.00     0.003 C 
ENDBRANCH   8   9
ENDBRANCH   7   8
ENDBRANCH   1   7
TORSDOF 3
ENDMDL
