MODEL 1
REMARK minimizedAffinity -5.14591599
REMARK minimizedRMSD -1
REMARK  1 active torsions:
REMARK  status: ('A' for Active; 'I' for Inactive)
REMARK    1  A    between atoms: C1_2  and  C2_3 
ROOT
ATOM      1  C2  UNL d   1      -0.055  -0.011   0.111  0.00  0.00    -0.073 A 
ATOM      2  C3  UNL d   1      -1.397   0.113   0.491  0.00  0.00    -0.002 A 
ATOM      3  C4  UNL d   1      -1.921   1.362   0.828  0.00  0.00     0.004 A 
ATOM      4  C5  UNL d   1      -1.113   2.498   0.783  0.00  0.00    -0.004 A 
ATOM      5  C6  UNL d   1       0.227   2.396   0.395  0.00  0.00    -0.075 A 
ATOM      6  C7  UNL d   1       1.110   3.608   0.344  0.00  0.00     0.076 C 
ATOM      7  C8  UNL d   1       0.747   1.138   0.060  0.00  0.00     0.001 A 
ENDROOT
BRANCH   1   8
ATOM      8  C1  UNL d   1       0.514  -1.356  -0.260  0.00  0.00     0.053 C 
ATOM      9  C   UNL d   1      -0.562  -2.318  -0.737  0.00  0.00     0.018 C 
ENDBRANCH   1   8
TORSDOF 1
ENDMDL
