MODEL 1
REMARK minimizedAffinity -3.32132983
REMARK minimizedRMSD -1
REMARK  1 active torsions:
REMARK  status: ('A' for Active; 'I' for Inactive)
REMARK    1  A    between atoms: C1_2  and  C2_3 
ROOT
ATOM      1  C2  UNL d   1      -0.339  -0.835   0.220  0.00  0.00    -0.073 A 
ATOM      2  C3  UNL d   1      -1.488  -0.480   0.936  0.00  0.00    -0.002 A 
ATOM      3  C4  UNL d   1      -1.738   0.857   1.249  0.00  0.00     0.004 A 
ATOM      4  C5  UNL d   1      -0.849   1.852   0.842  0.00  0.00    -0.004 A 
ATOM      5  C6  UNL d   1       0.298   1.518   0.115  0.00  0.00    -0.075 A 
ATOM      6  C7  UNL d   1       1.266   2.576  -0.327  0.00  0.00     0.076 C 
ATOM      7  C8  UNL d   1       0.545   0.173  -0.192  0.00  0.00     0.001 A 
ENDROOT
BRANCH   1   8
ATOM      8  C1  UNL d   1      -0.067  -2.276  -0.125  0.00  0.00     0.053 C 
ATOM      9  C   UNL d   1      -0.854  -2.729  -1.345  0.00  0.00     0.018 C 
ENDBRANCH   1   8
TORSDOF 1
ENDMDL
