MODEL 1
REMARK minimizedAffinity -3.65305042
REMARK minimizedRMSD -1
REMARK  1 active torsions:
REMARK  status: ('A' for Active; 'I' for Inactive)
REMARK    1  A    between atoms: C1_2  and  C2_3 
ROOT
ATOM      1  C2  UNL d   1      -0.271  -1.650  -0.417  0.00  0.00    -0.073 A 
ATOM      2  C3  UNL d   1       0.889  -0.874  -0.512  0.00  0.00    -0.002 A 
ATOM      3  C4  UNL d   1       0.937   0.397   0.062  0.00  0.00     0.004 A 
ATOM      4  C5  UNL d   1      -0.171   0.901   0.743  0.00  0.00    -0.004 A 
ATOM      5  C6  UNL d   1      -1.336   0.136   0.859  0.00  0.00    -0.075 A 
ATOM      6  C7  UNL d   1      -2.537   0.666   1.586  0.00  0.00     0.076 C 
ATOM      7  C8  UNL d   1      -1.377  -1.138   0.278  0.00  0.00     0.001 A 
ENDROOT
BRANCH   1   8
ATOM      8  C1  UNL d   1      -0.325  -3.026  -1.030  0.00  0.00     0.053 C 
ATOM      9  C   UNL d   1       0.224  -3.040  -2.447  0.00  0.00     0.018 C 
ENDBRANCH   1   8
TORSDOF 1
ENDMDL
