MODEL 1
REMARK minimizedAffinity -1.10675764
REMARK minimizedRMSD -1
REMARK  1 active torsions:
REMARK  status: ('A' for Active; 'I' for Inactive)
REMARK    1  A    between atoms: C1_2  and  C2_3 
ROOT
ATOM      1  C2  UNL d   1       0.186  -0.676  -0.498  0.00  0.00    -0.073 A 
ATOM      2  C3  UNL d   1       1.542  -0.885  -0.224  0.00  0.00    -0.002 A 
ATOM      3  C4  UNL d   1       2.324   0.147   0.297  0.00  0.00     0.004 A 
ATOM      4  C5  UNL d   1       1.756   1.395   0.555  0.00  0.00    -0.004 A 
ATOM      5  C6  UNL d   1       0.400   1.620   0.300  0.00  0.00    -0.075 A 
ATOM      6  C7  UNL d   1      -0.225   2.957   0.571  0.00  0.00     0.076 C 
ATOM      7  C8  UNL d   1      -0.378   0.579  -0.226  0.00  0.00     0.001 A 
ENDROOT
BRANCH   1   8
ATOM      8  C1  UNL d   1      -0.663  -1.790  -1.054  0.00  0.00     0.053 C 
ATOM      9  C   UNL d   1      -0.038  -2.422  -2.287  0.00  0.00     0.018 C 
ENDBRANCH   1   8
TORSDOF 1
ENDMDL
