MODEL 1
REMARK minimizedAffinity -3.77629614
REMARK minimizedRMSD -1
REMARK  1 active torsions:
REMARK  status: ('A' for Active; 'I' for Inactive)
REMARK    1  A    between atoms: C1_2  and  C2_3 
ROOT
ATOM      1  C2  UNL d   1      -0.017   1.085  -0.343  0.00  0.00    -0.073 A 
ATOM      2  C3  UNL d   1       0.408   2.004  -1.309  0.00  0.00    -0.002 A 
ATOM      3  C4  UNL d   1       0.426   3.370  -1.023  0.00  0.00     0.004 A 
ATOM      4  C5  UNL d   1       0.026   3.830   0.231  0.00  0.00    -0.004 A 
ATOM      5  C6  UNL d   1      -0.391   2.926   1.214  0.00  0.00    -0.075 A 
ATOM      6  C7  UNL d   1      -0.827   3.405   2.567  0.00  0.00     0.076 C 
ATOM      7  C8  UNL d   1      -0.409   1.556   0.918  0.00  0.00     0.001 A 
ENDROOT
BRANCH   1   8
ATOM      8  C1  UNL d   1      -0.031  -0.391  -0.645  0.00  0.00     0.053 C 
ATOM      9  C   UNL d   1       0.561  -1.211   0.491  0.00  0.00     0.018 C 
ENDBRANCH   1   8
TORSDOF 1
ENDMDL
