MODEL 1
REMARK minimizedAffinity -4.86673212
REMARK minimizedRMSD -1
REMARK  1 active torsions:
REMARK  status: ('A' for Active; 'I' for Inactive)
REMARK    1  A    between atoms: C1_2  and  C2_3 
ROOT
ATOM      1  C2  UNL d   1      -0.468  -0.308  -0.456  0.00  0.00    -0.073 A 
ATOM      2  C3  UNL d   1      -1.520  -0.396   0.462  0.00  0.00    -0.002 A 
ATOM      3  C4  UNL d   1      -2.051   0.759   1.039  0.00  0.00     0.004 A 
ATOM      4  C5  UNL d   1      -1.541   2.011   0.699  0.00  0.00    -0.004 A 
ATOM      5  C6  UNL d   1      -0.497   2.121  -0.225  0.00  0.00    -0.075 A 
ATOM      6  C7  UNL d   1       0.064   3.461  -0.599  0.00  0.00     0.076 C 
ATOM      7  C8  UNL d   1       0.032   0.957  -0.798  0.00  0.00     0.001 A 
ENDROOT
BRANCH   1   8
ATOM      8  C1  UNL d   1       0.105  -1.551  -1.086  0.00  0.00     0.053 C 
ATOM      9  C   UNL d   1      -0.736  -2.782  -0.784  0.00  0.00     0.018 C 
ENDBRANCH   1   8
TORSDOF 1
ENDMDL
