MODEL 1
REMARK minimizedAffinity -2.72128344
REMARK minimizedRMSD -1
REMARK  1 active torsions:
REMARK  status: ('A' for Active; 'I' for Inactive)
REMARK    1  A    between atoms: C1_2  and  C2_3 
ROOT
ATOM      1  C2  UNL d   1      -0.138  -1.377  -0.743  0.00  0.00    -0.073 A 
ATOM      2  C3  UNL d   1       0.416  -1.891  -1.921  0.00  0.00    -0.002 A 
ATOM      3  C4  UNL d   1      -0.075  -3.075  -2.472  0.00  0.00     0.004 A 
ATOM      4  C5  UNL d   1      -1.127  -3.753  -1.857  0.00  0.00    -0.004 A 
ATOM      5  C6  UNL d   1      -1.702  -3.250  -0.686  0.00  0.00    -0.075 A 
ATOM      6  C7  UNL d   1      -2.833  -3.968  -0.010  0.00  0.00     0.076 C 
ATOM      7  C8  UNL d   1      -1.202  -2.061  -0.136  0.00  0.00     0.001 A 
ENDROOT
BRANCH   1   8
ATOM      8  C1  UNL d   1       0.384  -0.096  -0.147  0.00  0.00     0.053 C 
ATOM      9  C   UNL d   1      -0.626   1.035  -0.253  0.00  0.00     0.018 C 
ENDBRANCH   1   8
TORSDOF 1
ENDMDL
