MODEL 1
REMARK minimizedAffinity -4.14343262
REMARK minimizedRMSD -1
REMARK  1 active torsions:
REMARK  status: ('A' for Active; 'I' for Inactive)
REMARK    1  A    between atoms: C1_2  and  C2_3 
ROOT
ATOM      1  C2  UNL d   1       0.392   1.237  -0.096  0.00  0.00    -0.073 A 
ATOM      2  C3  UNL d   1       1.775   1.123   0.085  0.00  0.00    -0.002 A 
ATOM      3  C4  UNL d   1       2.376  -0.134   0.155  0.00  0.00     0.004 A 
ATOM      4  C5  UNL d   1       1.603  -1.289   0.037  0.00  0.00    -0.004 A 
ATOM      5  C6  UNL d   1       0.221  -1.196  -0.157  0.00  0.00    -0.075 A 
ATOM      6  C7  UNL d   1      -0.625  -2.429  -0.284  0.00  0.00     0.076 C 
ATOM      7  C8  UNL d   1      -0.376   0.070  -0.223  0.00  0.00     0.001 A 
ENDROOT
BRANCH   1   8
ATOM      8  C1  UNL d   1      -0.261   2.592  -0.178  0.00  0.00     0.053 C 
ATOM      9  C   UNL d   1      -0.870   3.013   1.150  0.00  0.00     0.018 C 
ENDBRANCH   1   8
TORSDOF 1
ENDMDL
