MODEL 1
REMARK minimizedAffinity -3.61569023
REMARK minimizedRMSD -1
REMARK  1 active torsions:
REMARK  status: ('A' for Active; 'I' for Inactive)
REMARK    1  A    between atoms: C1_2  and  C2_3 
ROOT
ATOM      1  C2  UNL d   1      -0.341   0.401   0.166  0.00  0.00    -0.073 A 
ATOM      2  C3  UNL d   1       0.467   1.187  -0.663  0.00  0.00    -0.002 A 
ATOM      3  C4  UNL d   1       0.528   2.569  -0.484  0.00  0.00     0.004 A 
ATOM      4  C5  UNL d   1      -0.212   3.179   0.529  0.00  0.00    -0.004 A 
ATOM      5  C6  UNL d   1      -1.016   2.410   1.376  0.00  0.00    -0.075 A 
ATOM      6  C7  UNL d   1      -1.820   3.050   2.469  0.00  0.00     0.076 C 
ATOM      7  C8  UNL d   1      -1.074   1.022   1.188  0.00  0.00     0.001 A 
ENDROOT
BRANCH   1   8
ATOM      8  C1  UNL d   1      -0.405  -1.093  -0.019  0.00  0.00     0.053 C 
ATOM      9  C   UNL d   1       0.789  -1.797   0.607  0.00  0.00     0.018 C 
ENDBRANCH   1   8
TORSDOF 1
ENDMDL
