MODEL 1
REMARK minimizedAffinity -3.90300488
REMARK minimizedRMSD -1
REMARK  1 active torsions:
REMARK  status: ('A' for Active; 'I' for Inactive)
REMARK    1  A    between atoms: C3_4  and  O_7 
ROOT
ATOM      1  C   UNL d   1      -1.577   0.182   0.022  0.00  0.00    -0.033 A 
ATOM      2  C1  UNL d   1      -0.332  -0.192  -0.488  0.00  0.00     0.039 A 
ATOM      3  C2  UNL d   1       0.726  -0.467   0.381  0.00  0.00    -0.080 A 
ATOM      4  C3  UNL d   1       0.527  -0.365   1.755  0.00  0.00     0.150 A 
ATOM      5  C4  UNL d   1      -0.712   0.004   2.270  0.00  0.00    -0.007 A 
ATOM      6  C5  UNL d   1      -1.767   0.278   1.401  0.00  0.00     0.039 A 
ENDROOT
BRANCH   4   7
ATOM      7  O   UNL d   1       1.531  -0.618   2.641  0.00  0.00    -0.526 OA
ATOM      8  H5  UNL d   1       2.336  -0.833   2.141  0.00  0.00     0.418 HD
ENDBRANCH   4   7
TORSDOF 1
ENDMDL
