MODEL 1
REMARK minimizedAffinity -3.45849514
REMARK minimizedRMSD -1
REMARK  1 active torsions:
REMARK  status: ('A' for Active; 'I' for Inactive)
REMARK    1  A    between atoms: C3_4  and  O_7 
ROOT
ATOM      1  C   UNL d   1      -0.097  -1.012  -0.601  0.00  0.00    -0.033 A 
ATOM      2  C1  UNL d   1       0.358  -1.740  -1.702  0.00  0.00     0.039 A 
ATOM      3  C2  UNL d   1       0.747  -1.077  -2.868  0.00  0.00    -0.080 A 
ATOM      4  C3  UNL d   1       0.676   0.312  -2.920  0.00  0.00     0.150 A 
ATOM      5  C4  UNL d   1       0.227   1.044  -1.825  0.00  0.00    -0.007 A 
ATOM      6  C5  UNL d   1      -0.162   0.381  -0.663  0.00  0.00     0.039 A 
ENDROOT
BRANCH   4   7
ATOM      7  O   UNL d   1       1.040   1.003  -4.037  0.00  0.00    -0.526 OA
ATOM      8  H5  UNL d   1       1.301   0.365  -4.722  0.00  0.00     0.418 HD
ENDBRANCH   4   7
TORSDOF 1
ENDMDL
