MODEL 1
REMARK minimizedAffinity -0.839806616
REMARK minimizedRMSD -1
REMARK  1 active torsions:
REMARK  status: ('A' for Active; 'I' for Inactive)
REMARK    1  A    between atoms: C3_4  and  O_7 
ROOT
ATOM      1  C   UNL d   1       1.518   0.204  -3.880  0.00  0.00    -0.033 A 
ATOM      2  C1  UNL d   1       2.124   0.504  -2.659  0.00  0.00     0.039 A 
ATOM      3  C2  UNL d   1       1.440   0.275  -1.463  0.00  0.00    -0.080 A 
ATOM      4  C3  UNL d   1       0.153  -0.254  -1.503  0.00  0.00     0.150 A 
ATOM      5  C4  UNL d   1      -0.455  -0.559  -2.716  0.00  0.00    -0.007 A 
ATOM      6  C5  UNL d   1       0.229  -0.329  -3.909  0.00  0.00     0.039 A 
ENDROOT
BRANCH   4   7
ATOM      7  O   UNL d   1      -0.555  -0.490  -0.362  0.00  0.00    -0.526 OA
ATOM      8  H5  UNL d   1      -0.020  -0.205   0.397  0.00  0.00     0.418 HD
ENDBRANCH   4   7
TORSDOF 1
ENDMDL
