MODEL 1
REMARK minimizedAffinity -4.21604633
REMARK minimizedRMSD -1
REMARK  1 active torsions:
REMARK  status: ('A' for Active; 'I' for Inactive)
REMARK    1  A    between atoms: C3_4  and  O_7 
ROOT
ATOM      1  C   UNL d   1      -1.514   0.916   2.260  0.00  0.00    -0.033 A 
ATOM      2  C1  UNL d   1      -1.084   0.443   1.019  0.00  0.00     0.039 A 
ATOM      3  C2  UNL d   1       0.138  -0.223   0.909  0.00  0.00    -0.080 A 
ATOM      4  C3  UNL d   1       0.919  -0.411   2.047  0.00  0.00     0.150 A 
ATOM      5  C4  UNL d   1       0.494   0.054   3.287  0.00  0.00    -0.007 A 
ATOM      6  C5  UNL d   1      -0.726   0.720   3.394  0.00  0.00     0.039 A 
ENDROOT
BRANCH   4   7
ATOM      7  O   UNL d   1       2.121  -1.051   1.988  0.00  0.00    -0.526 OA
ATOM      8  H5  UNL d   1       2.297  -1.291   1.063  0.00  0.00     0.418 HD
ENDBRANCH   4   7
TORSDOF 1
ENDMDL
