MODEL 1
REMARK minimizedAffinity -4.17086029
REMARK minimizedRMSD -1
REMARK  1 active torsions:
REMARK  status: ('A' for Active; 'I' for Inactive)
REMARK    1  A    between atoms: C3_4  and  O_7 
ROOT
ATOM      1  C   UNL d   1      -0.097  -0.171   3.174  0.00  0.00    -0.033 A 
ATOM      2  C1  UNL d   1       1.083  -0.653   2.606  0.00  0.00     0.039 A 
ATOM      3  C2  UNL d   1       1.186  -0.797   1.221  0.00  0.00    -0.080 A 
ATOM      4  C3  UNL d   1       0.103  -0.455   0.416  0.00  0.00     0.150 A 
ATOM      5  C4  UNL d   1      -1.075   0.030   0.975  0.00  0.00    -0.007 A 
ATOM      6  C5  UNL d   1      -1.176   0.173   2.358  0.00  0.00     0.039 A 
ENDROOT
BRANCH   4   7
ATOM      7  O   UNL d   1       0.155  -0.583  -0.940  0.00  0.00    -0.526 OA
ATOM      8  H5  UNL d   1       1.019  -0.956  -1.181  0.00  0.00     0.418 HD
ENDBRANCH   4   7
TORSDOF 1
ENDMDL
