MODEL 1
REMARK minimizedAffinity 9.86432552
REMARK minimizedRMSD -1
REMARK  1 active torsions:
REMARK  status: ('A' for Active; 'I' for Inactive)
REMARK    1  A    between atoms: C1_2  and  C2_3 
ROOT
ATOM      1  C2  UNL d   1      -4.596  -1.197  -3.858  0.00  0.00    -0.073 A 
ATOM      2  C3  UNL d   1      -5.598  -1.725  -3.037  0.00  0.00    -0.002 A 
ATOM      3  C4  UNL d   1      -5.999  -3.054  -3.180  0.00  0.00     0.004 A 
ATOM      4  C5  UNL d   1      -5.398  -3.869  -4.139  0.00  0.00    -0.004 A 
ATOM      5  C6  UNL d   1      -4.387  -3.362  -4.962  0.00  0.00    -0.075 A 
ATOM      6  C7  UNL d   1      -3.732  -4.225  -6.000  0.00  0.00     0.076 C 
ATOM      7  C8  UNL d   1      -3.991  -2.026  -4.813  0.00  0.00     0.001 A 
ENDROOT
BRANCH   1   8
ATOM      8  C1  UNL d   1      -4.155   0.236  -3.703  0.00  0.00     0.053 C 
ATOM      9  C   UNL d   1      -3.024   0.378  -2.696  0.00  0.00     0.018 C 
ENDBRANCH   1   8
TORSDOF 1
ENDMDL
