MODEL 1
REMARK minimizedAffinity 7.67198372
REMARK minimizedRMSD -1
REMARK  1 active torsions:
REMARK  status: ('A' for Active; 'I' for Inactive)
REMARK    1  A    between atoms: C1_2  and  C2_3 
ROOT
ATOM      1  C2  UNL d   1      -5.268   1.456  -2.495  0.00  0.00    -0.073 A 
ATOM      2  C3  UNL d   1      -5.979   0.399  -1.917  0.00  0.00    -0.002 A 
ATOM      3  C4  UNL d   1      -5.392  -0.862  -1.795  0.00  0.00     0.004 A 
ATOM      4  C5  UNL d   1      -4.088  -1.075  -2.242  0.00  0.00    -0.004 A 
ATOM      5  C6  UNL d   1      -3.357  -0.028  -2.811  0.00  0.00    -0.075 A 
ATOM      6  C7  UNL d   1      -1.954  -0.241  -3.299  0.00  0.00     0.076 C 
ATOM      7  C8  UNL d   1      -3.954   1.234  -2.933  0.00  0.00     0.001 A 
ENDROOT
BRANCH   1   8
ATOM      8  C1  UNL d   1      -5.895   2.820  -2.624  0.00  0.00     0.053 C 
ATOM      9  C   UNL d   1      -5.981   3.274  -4.072  0.00  0.00     0.018 C 
ENDBRANCH   1   8
TORSDOF 1
ENDMDL
