MODEL 1
REMARK minimizedAffinity 3.9760201
REMARK minimizedRMSD -1
REMARK  1 active torsions:
REMARK  status: ('A' for Active; 'I' for Inactive)
REMARK    1  A    between atoms: C1_2  and  C2_3 
ROOT
ATOM      1  C2  UNL d   1       4.653  -5.463  -3.164  0.00  0.00    -0.073 A 
ATOM      2  C3  UNL d   1       5.865  -5.503  -3.861  0.00  0.00    -0.002 A 
ATOM      3  C4  UNL d   1       5.879  -5.710  -5.241  0.00  0.00     0.004 A 
ATOM      4  C5  UNL d   1       4.681  -5.872  -5.938  0.00  0.00    -0.004 A 
ATOM      5  C6  UNL d   1       3.459  -5.824  -5.261  0.00  0.00    -0.075 A 
ATOM      6  C7  UNL d   1       2.162  -5.999  -5.995  0.00  0.00     0.076 C 
ATOM      7  C8  UNL d   1       3.454  -5.618  -3.874  0.00  0.00     0.001 A 
ENDROOT
BRANCH   1   8
ATOM      8  C1  UNL d   1       4.633  -5.233  -1.675  0.00  0.00     0.053 C 
ATOM      9  C   UNL d   1       3.300  -4.676  -1.201  0.00  0.00     0.018 C 
ENDBRANCH   1   8
TORSDOF 1
ENDMDL
