MODEL 1
REMARK minimizedAffinity 1.40654767
REMARK minimizedRMSD -1
REMARK  1 active torsions:
REMARK  status: ('A' for Active; 'I' for Inactive)
REMARK    1  A    between atoms: C1_2  and  C2_3 
ROOT
ATOM      1  C2  UNL d   1       1.958  -1.769   3.089  0.00  0.00    -0.073 A 
ATOM      2  C3  UNL d   1       3.303  -2.107   2.899  0.00  0.00    -0.002 A 
ATOM      3  C4  UNL d   1       3.834  -3.251   3.496  0.00  0.00     0.004 A 
ATOM      4  C5  UNL d   1       3.026  -4.072   4.282  0.00  0.00    -0.004 A 
ATOM      5  C6  UNL d   1       1.676  -3.758   4.474  0.00  0.00    -0.075 A 
ATOM      6  C7  UNL d   1       0.794  -4.629   5.319  0.00  0.00     0.076 C 
ATOM      7  C8  UNL d   1       1.151  -2.605   3.874  0.00  0.00     0.001 A 
ENDROOT
BRANCH   1   8
ATOM      8  C1  UNL d   1       1.379  -0.538   2.442  0.00  0.00     0.053 C 
ATOM      9  C   UNL d   1       2.409   0.204   1.605  0.00  0.00     0.018 C 
ENDBRANCH   1   8
TORSDOF 1
ENDMDL
