MODEL 1
REMARK minimizedAffinity 1.30510581
REMARK minimizedRMSD -1
REMARK  1 active torsions:
REMARK  status: ('A' for Active; 'I' for Inactive)
REMARK    1  A    between atoms: C1_2  and  C2_3 
ROOT
ATOM      1  C2  UNL d   1       1.825  -1.244   2.988  0.00  0.00    -0.073 A 
ATOM      2  C3  UNL d   1       1.286  -0.527   4.063  0.00  0.00    -0.002 A 
ATOM      3  C4  UNL d   1       1.483   0.851   4.160  0.00  0.00     0.004 A 
ATOM      4  C5  UNL d   1       2.213   1.527   3.182  0.00  0.00    -0.004 A 
ATOM      5  C6  UNL d   1       2.749   0.830   2.094  0.00  0.00    -0.075 A 
ATOM      6  C7  UNL d   1       3.539   1.541   1.035  0.00  0.00     0.076 C 
ATOM      7  C8  UNL d   1       2.550  -0.555   2.005  0.00  0.00     0.001 A 
ENDROOT
BRANCH   1   8
ATOM      8  C1  UNL d   1       1.610  -2.731   2.876  0.00  0.00     0.053 C 
ATOM      9  C   UNL d   1       0.947  -3.307   4.117  0.00  0.00     0.018 C 
ENDBRANCH   1   8
TORSDOF 1
ENDMDL
