MODEL 1
REMARK minimizedAffinity 11.4934845
REMARK minimizedRMSD -1
REMARK  1 active torsions:
REMARK  status: ('A' for Active; 'I' for Inactive)
REMARK    1  A    between atoms: C1_2  and  C2_3 
ROOT
ATOM      1  C2  UNL d   1       1.316  -4.654   4.332  0.00  0.00    -0.073 A 
ATOM      2  C3  UNL d   1       2.507  -4.564   5.062  0.00  0.00    -0.002 A 
ATOM      3  C4  UNL d   1       3.367  -3.480   4.877  0.00  0.00     0.004 A 
ATOM      4  C5  UNL d   1       3.042  -2.474   3.968  0.00  0.00    -0.004 A 
ATOM      5  C6  UNL d   1       1.851  -2.540   3.238  0.00  0.00    -0.075 A 
ATOM      6  C7  UNL d   1       1.488  -1.467   2.254  0.00  0.00     0.076 C 
ATOM      7  C8  UNL d   1       0.994  -3.633   3.427  0.00  0.00     0.001 A 
ENDROOT
BRANCH   1   8
ATOM      8  C1  UNL d   1       0.382  -5.819   4.533  0.00  0.00     0.053 C 
ATOM      9  C   UNL d   1       0.003  -6.000   5.995  0.00  0.00     0.018 C 
ENDBRANCH   1   8
TORSDOF 1
ENDMDL
