MODEL 1
REMARK minimizedAffinity 10.8223066
REMARK minimizedRMSD -1
REMARK  1 active torsions:
REMARK  status: ('A' for Active; 'I' for Inactive)
REMARK    1  A    between atoms: C1_2  and  C2_3 
ROOT
ATOM      1  C2  UNL d   1       1.923  -1.933   3.154  0.00  0.00    -0.073 A 
ATOM      2  C3  UNL d   1       2.717  -1.944   4.307  0.00  0.00    -0.002 A 
ATOM      3  C4  UNL d   1       3.203  -3.148   4.817  0.00  0.00     0.004 A 
ATOM      4  C5  UNL d   1       2.908  -4.352   4.178  0.00  0.00    -0.004 A 
ATOM      5  C6  UNL d   1       2.126  -4.361   3.018  0.00  0.00    -0.075 A 
ATOM      6  C7  UNL d   1       1.797  -5.648   2.319  0.00  0.00     0.076 C 
ATOM      7  C8  UNL d   1       1.639  -3.148   2.513  0.00  0.00     0.001 A 
ENDROOT
BRANCH   1   8
ATOM      8  C1  UNL d   1       1.401  -0.635   2.595  0.00  0.00     0.053 C 
ATOM      9  C   UNL d   1       2.486   0.156   1.881  0.00  0.00     0.018 C 
ENDBRANCH   1   8
TORSDOF 1
ENDMDL
