MODEL 1
REMARK minimizedAffinity 2.98643517
REMARK minimizedRMSD -1
REMARK  1 active torsions:
REMARK  status: ('A' for Active; 'I' for Inactive)
REMARK    1  A    between atoms: C1_2  and  C2_3 
ROOT
ATOM      1  C2  UNL d   1       2.010  -1.821   2.903  0.00  0.00    -0.073 A 
ATOM      2  C3  UNL d   1       1.447  -3.082   3.130  0.00  0.00    -0.002 A 
ATOM      3  C4  UNL d   1       2.256  -4.162   3.486  0.00  0.00     0.004 A 
ATOM      4  C5  UNL d   1       3.633  -3.991   3.625  0.00  0.00    -0.004 A 
ATOM      5  C6  UNL d   1       4.213  -2.736   3.414  0.00  0.00    -0.075 A 
ATOM      6  C7  UNL d   1       5.693  -2.536   3.557  0.00  0.00     0.076 C 
ATOM      7  C8  UNL d   1       3.394  -1.657   3.054  0.00  0.00     0.001 A 
ENDROOT
BRANCH   1   8
ATOM      8  C1  UNL d   1       1.139  -0.651   2.525  0.00  0.00     0.053 C 
ATOM      9  C   UNL d   1       1.359   0.543   3.442  0.00  0.00     0.018 C 
ENDBRANCH   1   8
TORSDOF 1
ENDMDL
