MODEL 1
REMARK minimizedAffinity 0.0890737623
REMARK minimizedRMSD -1
REMARK  1 active torsions:
REMARK  status: ('A' for Active; 'I' for Inactive)
REMARK    1  A    between atoms: C3_4  and  O_7 
ROOT
ATOM      1  C   UNL d   1       0.007   5.210  -0.948  0.00  0.00    -0.033 A 
ATOM      2  C1  UNL d   1      -0.431   4.955  -2.249  0.00  0.00     0.039 A 
ATOM      3  C2  UNL d   1      -0.757   3.654  -2.636  0.00  0.00    -0.080 A 
ATOM      4  C3  UNL d   1      -0.642   2.618  -1.714  0.00  0.00     0.150 A 
ATOM      5  C4  UNL d   1      -0.210   2.865  -0.415  0.00  0.00    -0.007 A 
ATOM      6  C5  UNL d   1       0.116   4.165  -0.030  0.00  0.00     0.039 A 
ENDROOT
BRANCH   4   7
ATOM      7  O   UNL d   1      -0.944   1.331  -2.046  0.00  0.00    -0.526 OA
ATOM      8  H5  UNL d   1      -1.201   1.307  -2.983  0.00  0.00     0.418 HD
ENDBRANCH   4   7
TORSDOF 1
ENDMDL
