MODEL 1
REMARK minimizedAffinity 1.47676194
REMARK minimizedRMSD -1
REMARK  1 active torsions:
REMARK  status: ('A' for Active; 'I' for Inactive)
REMARK    1  A    between atoms: C3_4  and  O_7 
ROOT
ATOM      1  C   UNL d   1      -0.917   5.999  -0.577  0.00  0.00    -0.033 A 
ATOM      2  C1  UNL d   1      -0.175   4.861  -0.895  0.00  0.00     0.039 A 
ATOM      3  C2  UNL d   1      -0.266   3.719  -0.096  0.00  0.00    -0.080 A 
ATOM      4  C3  UNL d   1      -1.102   3.729   1.017  0.00  0.00     0.150 A 
ATOM      5  C4  UNL d   1      -1.848   4.859   1.338  0.00  0.00    -0.007 A 
ATOM      6  C5  UNL d   1      -1.755   5.998   0.539  0.00  0.00     0.039 A 
ENDROOT
BRANCH   4   7
ATOM      7  O   UNL d   1      -1.220   2.641   1.829  0.00  0.00    -0.526 OA
ATOM      8  H5  UNL d   1      -0.625   1.946   1.501  0.00  0.00     0.418 HD
ENDBRANCH   4   7
TORSDOF 1
ENDMDL
