MODEL 1
REMARK minimizedAffinity 7.41815233
REMARK minimizedRMSD -1
REMARK  1 active torsions:
REMARK  status: ('A' for Active; 'I' for Inactive)
REMARK    1  A    between atoms: C3_4  and  O_7 
ROOT
ATOM      1  C   UNL d   1      -2.500  -0.675  -2.780  0.00  0.00    -0.033 A 
ATOM      2  C1  UNL d   1      -3.264   0.250  -2.065  0.00  0.00     0.039 A 
ATOM      3  C2  UNL d   1      -2.661   1.390  -1.529  0.00  0.00    -0.080 A 
ATOM      4  C3  UNL d   1      -1.297   1.594  -1.717  0.00  0.00     0.150 A 
ATOM      5  C4  UNL d   1      -0.531   0.679  -2.432  0.00  0.00    -0.007 A 
ATOM      6  C5  UNL d   1      -1.134  -0.459  -2.965  0.00  0.00     0.039 A 
ENDROOT
BRANCH   4   7
ATOM      7  O   UNL d   1      -0.664   2.690  -1.209  0.00  0.00    -0.526 OA
ATOM      8  H5  UNL d   1      -1.313   3.219  -0.715  0.00  0.00     0.418 HD
ENDBRANCH   4   7
TORSDOF 1
ENDMDL
