MODEL 1
REMARK minimizedAffinity 1.67448008
REMARK minimizedRMSD -1
REMARK  1 active torsions:
REMARK  status: ('A' for Active; 'I' for Inactive)
REMARK    1  A    between atoms: C3_4  and  O_7 
ROOT
ATOM      1  C   UNL d   1      -1.947  -0.064  -2.485  0.00  0.00    -0.033 A 
ATOM      2  C1  UNL d   1      -0.571  -0.233  -2.315  0.00  0.00     0.039 A 
ATOM      3  C2  UNL d   1       0.208   0.819  -1.830  0.00  0.00    -0.080 A 
ATOM      4  C3  UNL d   1      -0.399   2.032  -1.517  0.00  0.00     0.150 A 
ATOM      5  C4  UNL d   1      -1.769   2.206  -1.680  0.00  0.00    -0.007 A 
ATOM      6  C5  UNL d   1      -2.546   1.155  -2.166  0.00  0.00     0.039 A 
ENDROOT
BRANCH   4   7
ATOM      7  O   UNL d   1       0.322   3.088  -1.044  0.00  0.00    -0.526 OA
ATOM      8  H5  UNL d   1       1.258   2.832  -1.011  0.00  0.00     0.418 HD
ENDBRANCH   4   7
TORSDOF 1
ENDMDL
