MODEL 1
REMARK minimizedAffinity -0.910998702
REMARK minimizedRMSD -1
REMARK  1 active torsions:
REMARK  status: ('A' for Active; 'I' for Inactive)
REMARK    1  A    between atoms: C3_4  and  O_7 
ROOT
ATOM      1  C   UNL d   1      -5.989  -2.917   2.393  0.00  0.00    -0.033 A 
ATOM      2  C1  UNL d   1      -5.865  -1.716   1.692  0.00  0.00     0.039 A 
ATOM      3  C2  UNL d   1      -5.743  -0.510   2.387  0.00  0.00    -0.080 A 
ATOM      4  C3  UNL d   1      -5.746  -0.520   3.779  0.00  0.00     0.150 A 
ATOM      5  C4  UNL d   1      -5.866  -1.714   4.483  0.00  0.00    -0.007 A 
ATOM      6  C5  UNL d   1      -5.988  -2.917   3.788  0.00  0.00     0.039 A 
ENDROOT
BRANCH   4   7
ATOM      7  O   UNL d   1      -5.635   0.631   4.500  0.00  0.00    -0.526 OA
ATOM      8  H5  UNL d   1      -5.590   1.379   3.881  0.00  0.00     0.418 HD
ENDBRANCH   4   7
TORSDOF 1
ENDMDL
