MODEL 1
REMARK minimizedAffinity -3.29768729
REMARK minimizedRMSD -1
REMARK  1 active torsions:
REMARK  status: ('A' for Active; 'I' for Inactive)
REMARK    1  A    between atoms: C3_4  and  O_7 
ROOT
ATOM      1  C   UNL d   1      -0.298   0.757   0.736  0.00  0.00    -0.033 A 
ATOM      2  C1  UNL d   1      -0.070   1.799   1.638  0.00  0.00     0.039 A 
ATOM      3  C2  UNL d   1       0.012   3.116   1.180  0.00  0.00    -0.080 A 
ATOM      4  C3  UNL d   1      -0.137   3.377  -0.179  0.00  0.00     0.150 A 
ATOM      5  C4  UNL d   1      -0.367   2.345  -1.082  0.00  0.00    -0.007 A 
ATOM      6  C5  UNL d   1      -0.448   1.030  -0.624  0.00  0.00     0.039 A 
ENDROOT
BRANCH   4   7
ATOM      7  O   UNL d   1      -0.060   4.645  -0.673  0.00  0.00    -0.526 OA
ATOM      8  H5  UNL d   1       0.131   5.251   0.062  0.00  0.00     0.418 HD
ENDBRANCH   4   7
TORSDOF 1
ENDMDL
