MODEL 1
REMARK minimizedAffinity -0.0837406963
REMARK minimizedRMSD -1
REMARK  1 active torsions:
REMARK  status: ('A' for Active; 'I' for Inactive)
REMARK    1  A    between atoms: C3_4  and  O_7 
ROOT
ATOM      1  C   UNL d   1       0.782  -0.015  -1.387  0.00  0.00    -0.033 A 
ATOM      2  C1  UNL d   1       1.397  -0.708  -0.343  0.00  0.00     0.039 A 
ATOM      3  C2  UNL d   1       1.280  -0.246   0.969  0.00  0.00    -0.080 A 
ATOM      4  C3  UNL d   1       0.544   0.908   1.224  0.00  0.00     0.150 A 
ATOM      5  C4  UNL d   1      -0.075   1.602   0.189  0.00  0.00    -0.007 A 
ATOM      6  C5  UNL d   1       0.044   1.139  -1.121  0.00  0.00     0.039 A 
ENDROOT
BRANCH   4   7
ATOM      7  O   UNL d   1       0.405   1.400   2.487  0.00  0.00    -0.526 OA
ATOM      8  H5  UNL d   1       0.909   0.835   3.095  0.00  0.00     0.418 HD
ENDBRANCH   4   7
TORSDOF 1
ENDMDL
