MODEL 1
REMARK minimizedAffinity -3.75568914
REMARK minimizedRMSD -1
REMARK  0 active torsions:
REMARK  status: ('A' for Active; 'I' for Inactive)
ROOT
ATOM      1  C   UNL d   1       2.369  -0.873   0.223  0.00  0.00     0.023 A 
ATOM      2  C1  UNL d   1       1.504  -1.523  -0.658  0.00  0.00     0.003 A 
ATOM      3  C2  UNL d   1       0.161  -1.147  -0.725  0.00  0.00     0.048 A 
ATOM      4  C3  UNL d   1      -0.311  -0.120   0.092  0.00  0.00     0.023 A 
ATOM      5  C4  UNL d   1       0.550   0.534   0.974  0.00  0.00     0.048 A 
ATOM      6  C5  UNL d   1       1.892   0.154   1.038  0.00  0.00     0.003 A 
ATOM      7  I   UNL d   1      -2.310   0.441  -0.006  0.00  0.00    -0.146 I 
ENDROOT
TORSDOF 0
ENDMDL
