MODEL 1
REMARK minimizedAffinity -4.31534863
REMARK minimizedRMSD -1
REMARK  0 active torsions:
REMARK  status: ('A' for Active; 'I' for Inactive)
ROOT
ATOM      1  C   UNL d   1       2.048  -1.493   0.252  0.00  0.00     0.023 A 
ATOM      2  C1  UNL d   1       1.061  -1.808  -0.682  0.00  0.00     0.003 A 
ATOM      3  C2  UNL d   1      -0.152  -1.116  -0.679  0.00  0.00     0.048 A 
ATOM      4  C3  UNL d   1      -0.371  -0.110   0.262  0.00  0.00     0.023 A 
ATOM      5  C4  UNL d   1       0.613   0.209   1.198  0.00  0.00     0.048 A 
ATOM      6  C5  UNL d   1       1.824  -0.486   1.191  0.00  0.00     0.003 A 
ATOM      7  I   UNL d   1      -2.176   0.921   0.269  0.00  0.00    -0.146 I 
ENDROOT
TORSDOF 0
ENDMDL
