MODEL 1
REMARK minimizedAffinity -3.61758709
REMARK minimizedRMSD -1
REMARK  0 active torsions:
REMARK  status: ('A' for Active; 'I' for Inactive)
ROOT
ATOM      1  C   UNL d   1       2.509  -1.178   0.202  0.00  0.00     0.023 A 
ATOM      2  C1  UNL d   1       1.500  -1.986  -0.323  0.00  0.00     0.003 A 
ATOM      3  C2  UNL d   1       0.193  -1.503  -0.413  0.00  0.00     0.048 A 
ATOM      4  C3  UNL d   1      -0.099  -0.211   0.024  0.00  0.00     0.023 A 
ATOM      5  C4  UNL d   1       0.908   0.601   0.549  0.00  0.00     0.048 A 
ATOM      6  C5  UNL d   1       2.213   0.114   0.637  0.00  0.00     0.003 A 
ATOM      7  I   UNL d   1      -2.044   0.509  -0.108  0.00  0.00    -0.146 I 
ENDROOT
TORSDOF 0
ENDMDL
