MODEL 1
REMARK minimizedAffinity -3.21844506
REMARK minimizedRMSD -1
REMARK  0 active torsions:
REMARK  status: ('A' for Active; 'I' for Inactive)
ROOT
ATOM      1  C   UNL d   1       1.555  -0.604   0.077  0.00  0.00     0.023 A 
ATOM      2  C1  UNL d   1       0.527  -1.496  -0.231  0.00  0.00     0.003 A 
ATOM      3  C2  UNL d   1      -0.804  -1.081  -0.158  0.00  0.00     0.048 A 
ATOM      4  C3  UNL d   1      -1.101   0.227   0.222  0.00  0.00     0.023 A 
ATOM      5  C4  UNL d   1      -0.076   1.123   0.530  0.00  0.00     0.048 A 
ATOM      6  C5  UNL d   1       1.254   0.703   0.457  0.00  0.00     0.003 A 
ATOM      7  I   UNL d   1      -3.081   0.847   0.331  0.00  0.00    -0.146 I 
ENDROOT
TORSDOF 0
ENDMDL
