MODEL 1
REMARK minimizedAffinity -5.40371275
REMARK minimizedRMSD -1
REMARK  0 active torsions:
REMARK  status: ('A' for Active; 'I' for Inactive)
ROOT
ATOM      1  C   UNL d   1       3.904   0.514   0.370  0.00  0.00     0.023 A 
ATOM      2  C1  UNL d   1       3.053   1.611   0.238  0.00  0.00     0.003 A 
ATOM      3  C2  UNL d   1       1.673   1.420   0.146  0.00  0.00     0.048 A 
ATOM      4  C3  UNL d   1       1.150   0.128   0.188  0.00  0.00     0.023 A 
ATOM      5  C4  UNL d   1       1.997  -0.973   0.321  0.00  0.00     0.048 A 
ATOM      6  C5  UNL d   1       3.376  -0.777   0.412  0.00  0.00     0.003 A 
ATOM      7  I   UNL d   1      -0.904  -0.160   0.051  0.00  0.00    -0.146 I 
ENDROOT
TORSDOF 0
ENDMDL
