MODEL 1
REMARK minimizedAffinity -3.3985486
REMARK minimizedRMSD -1
REMARK  0 active torsions:
REMARK  status: ('A' for Active; 'I' for Inactive)
ROOT
ATOM      1  C   UNL d   1       4.345   0.077  -0.137  0.00  0.00     0.023 A 
ATOM      2  C1  UNL d   1       3.379   1.079  -0.232  0.00  0.00     0.003 A 
ATOM      3  C2  UNL d   1       2.029   0.768  -0.057  0.00  0.00     0.048 A 
ATOM      4  C3  UNL d   1       1.652  -0.546   0.212  0.00  0.00     0.023 A 
ATOM      5  C4  UNL d   1       2.615  -1.552   0.309  0.00  0.00     0.048 A 
ATOM      6  C5  UNL d   1       3.963  -1.237   0.133  0.00  0.00     0.003 A 
ATOM      7  I   UNL d   1      -0.357  -1.012   0.473  0.00  0.00    -0.146 I 
ENDROOT
TORSDOF 0
ENDMDL
