MODEL 1
REMARK minimizedAffinity -4.92253017
REMARK minimizedRMSD -1
REMARK  0 active torsions:
REMARK  status: ('A' for Active; 'I' for Inactive)
ROOT
ATOM      1  C   UNL d   1       3.039  -0.191  -0.726  0.00  0.00     0.023 A 
ATOM      2  C1  UNL d   1       2.070  -1.188  -0.843  0.00  0.00     0.003 A 
ATOM      3  C2  UNL d   1       0.715  -0.855  -0.798  0.00  0.00     0.048 A 
ATOM      4  C3  UNL d   1       0.335   0.477  -0.638  0.00  0.00     0.023 A 
ATOM      5  C4  UNL d   1       1.301   1.478  -0.521  0.00  0.00     0.048 A 
ATOM      6  C5  UNL d   1       2.654   1.140  -0.565  0.00  0.00     0.003 A 
ATOM      7  I   UNL d   1      -1.682   0.975  -0.571  0.00  0.00    -0.146 I 
ENDROOT
TORSDOF 0
ENDMDL
