MODEL 1
REMARK minimizedAffinity 13.4118443
REMARK minimizedRMSD -1
REMARK  0 active torsions:
REMARK  status: ('A' for Active; 'I' for Inactive)
ROOT
ATOM      1  C   UNL d   1       0.434  -3.865  -1.103  0.00  0.00    -0.002 A 
ATOM      2  C1  UNL d   1       0.372  -5.247  -1.003  0.00  0.00     0.010 A 
ATOM      3  C2  UNL d   1      -0.449  -5.985  -1.858  0.00  0.00     0.041 A 
ATOM      4  C3  UNL d   1      -1.211  -5.304  -2.827  0.00  0.00    -0.075 A 
ATOM      5  S   UNL d   1      -2.285  -6.000  -3.982  0.00  0.00     0.015 SA
ATOM      6  C4  UNL d   1      -2.686  -4.478  -4.637  0.00  0.00     0.022 A 
ATOM      7  C5  UNL d   1      -2.026  -3.453  -4.001  0.00  0.00     0.026 A 
ATOM      8  C6  UNL d   1      -1.165  -3.912  -2.948  0.00  0.00    -0.082 A 
ATOM      9  C7  UNL d   1      -0.324  -3.192  -2.065  0.00  0.00     0.045 A 
ENDROOT
TORSDOF 0
ENDMDL
