MODEL 1
REMARK minimizedAffinity 21.8290787
REMARK minimizedRMSD -1
REMARK  0 active torsions:
REMARK  status: ('A' for Active; 'I' for Inactive)
ROOT
ATOM      1  C   UNL d   1      -5.993   2.281  -1.140  0.00  0.00    -0.002 A 
ATOM      2  C1  UNL d   1      -5.994   3.581  -1.625  0.00  0.00     0.010 A 
ATOM      3  C2  UNL d   1      -5.994   3.826  -2.999  0.00  0.00     0.041 A 
ATOM      4  C3  UNL d   1      -5.995   2.732  -3.887  0.00  0.00    -0.075 A 
ATOM      5  S   UNL d   1      -5.996   2.791  -5.610  0.00  0.00     0.015 SA
ATOM      6  C4  UNL d   1      -5.996   1.092  -5.743  0.00  0.00     0.022 A 
ATOM      7  C5  UNL d   1      -5.995   0.479  -4.512  0.00  0.00     0.026 A 
ATOM      8  C6  UNL d   1      -5.995   1.414  -3.422  0.00  0.00    -0.082 A 
ATOM      9  C7  UNL d   1      -5.994   1.198  -2.023  0.00  0.00     0.045 A 
ENDROOT
TORSDOF 0
ENDMDL
