MODEL 1
REMARK minimizedAffinity 16.237051
REMARK minimizedRMSD -1
REMARK  0 active torsions:
REMARK  status: ('A' for Active; 'I' for Inactive)
ROOT
ATOM      1  C   UNL d   1      -1.247   0.980   3.352  0.00  0.00    -0.002 A 
ATOM      2  C1  UNL d   1       0.041   0.939   3.867  0.00  0.00     0.010 A 
ATOM      3  C2  UNL d   1       1.084   1.608   3.224  0.00  0.00     0.041 A 
ATOM      4  C3  UNL d   1       0.809   2.326   2.043  0.00  0.00    -0.075 A 
ATOM      5  S   UNL d   1       1.929   3.221   1.086  0.00  0.00     0.015 SA
ATOM      6  C4  UNL d   1       0.724   3.679  -0.029  0.00  0.00     0.022 A 
ATOM      7  C5  UNL d   1      -0.508   3.170   0.305  0.00  0.00     0.026 A 
ATOM      8  C6  UNL d   1      -0.480   2.382   1.505  0.00  0.00    -0.082 A 
ATOM      9  C7  UNL d   1      -1.516   1.693   2.180  0.00  0.00     0.045 A 
ENDROOT
TORSDOF 0
ENDMDL
