MODEL 1
REMARK minimizedAffinity 17.9028168
REMARK minimizedRMSD -1
REMARK  0 active torsions:
REMARK  status: ('A' for Active; 'I' for Inactive)
ROOT
ATOM      1  C   UNL d   1      -5.865   2.597  -0.051  0.00  0.00    -0.002 A 
ATOM      2  C1  UNL d   1      -5.642   3.864  -0.571  0.00  0.00     0.010 A 
ATOM      3  C2  UNL d   1      -5.544   4.058  -1.951  0.00  0.00     0.041 A 
ATOM      4  C3  UNL d   1      -5.676   2.946  -2.806  0.00  0.00    -0.075 A 
ATOM      5  S   UNL d   1      -5.593   2.944  -4.528  0.00  0.00     0.015 SA
ATOM      6  C4  UNL d   1      -5.851   1.262  -4.613  0.00  0.00     0.022 A 
ATOM      7  C5  UNL d   1      -6.000   0.699  -3.367  0.00  0.00     0.026 A 
ATOM      8  C6  UNL d   1      -5.902   1.661  -2.305  0.00  0.00    -0.082 A 
ATOM      9  C7  UNL d   1      -5.996   1.497  -0.902  0.00  0.00     0.045 A 
ENDROOT
TORSDOF 0
ENDMDL
