MODEL 1
REMARK minimizedAffinity 0.828883171
REMARK minimizedRMSD -1
REMARK  0 active torsions:
REMARK  status: ('A' for Active; 'I' for Inactive)
ROOT
ATOM      1  C   UNL d   1       1.919   2.956   3.681  0.00  0.00    -0.002 A 
ATOM      2  C1  UNL d   1       0.564   2.679   3.788  0.00  0.00     0.010 A 
ATOM      3  C2  UNL d   1      -0.297   2.922   2.716  0.00  0.00     0.041 A 
ATOM      4  C3  UNL d   1       0.232   3.451   1.523  0.00  0.00    -0.075 A 
ATOM      5  S   UNL d   1      -0.632   3.828   0.080  0.00  0.00     0.015 SA
ATOM      6  C4  UNL d   1       0.778   4.365  -0.713  0.00  0.00     0.022 A 
ATOM      7  C5  UNL d   1       1.890   4.266   0.089  0.00  0.00     0.026 A 
ATOM      8  C6  UNL d   1       1.594   3.737   1.391  0.00  0.00    -0.082 A 
ATOM      9  C7  UNL d   1       2.441   3.481   2.496  0.00  0.00     0.045 A 
ENDROOT
TORSDOF 0
ENDMDL
