MODEL 1
REMARK minimizedAffinity 12.542244
REMARK minimizedRMSD -1
REMARK  0 active torsions:
REMARK  status: ('A' for Active; 'I' for Inactive)
ROOT
ATOM      1  C   UNL d   1      -5.678   3.946  -3.126  0.00  0.00    -0.002 A 
ATOM      2  C1  UNL d   1      -5.611   3.333  -1.882  0.00  0.00     0.010 A 
ATOM      3  C2  UNL d   1      -4.405   3.280  -1.181  0.00  0.00     0.041 A 
ATOM      4  C3  UNL d   1      -3.257   3.861  -1.754  0.00  0.00    -0.075 A 
ATOM      5  S   UNL d   1      -1.672   3.917  -1.078  0.00  0.00     0.015 SA
ATOM      6  C4  UNL d   1      -1.047   4.757  -2.422  0.00  0.00     0.022 A 
ATOM      7  C5  UNL d   1      -2.010   4.997  -3.374  0.00  0.00     0.026 A 
ATOM      8  C6  UNL d   1      -3.299   4.485  -3.004  0.00  0.00    -0.082 A 
ATOM      9  C7  UNL d   1      -4.537   4.521  -3.691  0.00  0.00     0.045 A 
ENDROOT
TORSDOF 0
ENDMDL
