MODEL 1
REMARK minimizedAffinity 7.58107328
REMARK minimizedRMSD -1
REMARK  0 active torsions:
REMARK  status: ('A' for Active; 'I' for Inactive)
ROOT
ATOM      1  C   UNL d   1       2.579  -3.000   0.201  0.00  0.00     0.023 A 
ATOM      2  C1  UNL d   1       2.588  -1.661   0.594  0.00  0.00     0.003 A 
ATOM      3  C2  UNL d   1       1.580  -1.171   1.427  0.00  0.00     0.048 A 
ATOM      4  C3  UNL d   1       0.567  -2.024   1.863  0.00  0.00     0.023 A 
ATOM      5  C4  UNL d   1       0.555  -3.364   1.473  0.00  0.00     0.048 A 
ATOM      6  C5  UNL d   1       1.564  -3.850   0.639  0.00  0.00     0.003 A 
ATOM      7  I   UNL d   1      -0.934  -1.296   3.102  0.00  0.00    -0.146 I 
ENDROOT
TORSDOF 0
ENDMDL
