MODEL 1
REMARK minimizedAffinity 9.56252289
REMARK minimizedRMSD -1
REMARK  0 active torsions:
REMARK  status: ('A' for Active; 'I' for Inactive)
ROOT
ATOM      1  C   UNL d   1       2.912  -2.268   1.020  0.00  0.00     0.023 A 
ATOM      2  C1  UNL d   1       2.120  -3.339   0.607  0.00  0.00     0.003 A 
ATOM      3  C2  UNL d   1       0.748  -3.334   0.862  0.00  0.00     0.048 A 
ATOM      4  C3  UNL d   1       0.173  -2.254   1.531  0.00  0.00     0.023 A 
ATOM      5  C4  UNL d   1       0.961  -1.179   1.945  0.00  0.00     0.048 A 
ATOM      6  C5  UNL d   1       2.333  -1.189   1.688  0.00  0.00     0.003 A 
ATOM      7  I   UNL d   1      -1.870  -2.244   1.912  0.00  0.00    -0.146 I 
ENDROOT
TORSDOF 0
ENDMDL
