MODEL 1
REMARK minimizedAffinity 4.02909565
REMARK minimizedRMSD -1
REMARK  0 active torsions:
REMARK  status: ('A' for Active; 'I' for Inactive)
ROOT
ATOM      1  C   UNL d   1       5.985   4.520  -5.395  0.00  0.00     0.023 A 
ATOM      2  C1  UNL d   1       5.534   5.704  -5.980  0.00  0.00     0.003 A 
ATOM      3  C2  UNL d   1       4.170   5.999  -6.000  0.00  0.00     0.048 A 
ATOM      4  C3  UNL d   1       3.261   5.106  -5.432  0.00  0.00     0.023 A 
ATOM      5  C4  UNL d   1       3.707   3.921  -4.845  0.00  0.00     0.048 A 
ATOM      6  C5  UNL d   1       5.073   3.630  -4.828  0.00  0.00     0.003 A 
ATOM      7  I   UNL d   1       1.229   5.543  -5.460  0.00  0.00    -0.146 I 
ENDROOT
TORSDOF 0
ENDMDL
