MODEL 1
REMARK minimizedAffinity 15.038394
REMARK minimizedRMSD -1
REMARK  0 active torsions:
REMARK  status: ('A' for Active; 'I' for Inactive)
ROOT
ATOM      1  C   UNL d   1       1.824  -2.136   0.817  0.00  0.00     0.023 A 
ATOM      2  C1  UNL d   1       3.015  -2.859   0.877  0.00  0.00     0.003 A 
ATOM      3  C2  UNL d   1       3.769  -2.869   2.052  0.00  0.00     0.048 A 
ATOM      4  C3  UNL d   1       3.325  -2.154   3.164  0.00  0.00     0.023 A 
ATOM      5  C4  UNL d   1       2.133  -1.430   3.109  0.00  0.00     0.048 A 
ATOM      6  C5  UNL d   1       1.383  -1.422   1.932  0.00  0.00     0.003 A 
ATOM      7  I   UNL d   1       4.445  -2.168   4.915  0.00  0.00    -0.146 I 
ENDROOT
TORSDOF 0
ENDMDL
