MODEL 1
REMARK minimizedAffinity 17.8387718
REMARK minimizedRMSD -1
REMARK  0 active torsions:
REMARK  status: ('A' for Active; 'I' for Inactive)
ROOT
ATOM      1  C   UNL d   1       1.230   4.532  -5.070  0.00  0.00     0.023 A 
ATOM      2  C1  UNL d   1       2.213   3.729  -4.492  0.00  0.00     0.003 A 
ATOM      3  C2  UNL d   1       3.563   4.041  -4.667  0.00  0.00     0.048 A 
ATOM      4  C3  UNL d   1       3.922   5.158  -5.420  0.00  0.00     0.023 A 
ATOM      5  C4  UNL d   1       2.942   5.965  -6.000  0.00  0.00     0.048 A 
ATOM      6  C5  UNL d   1       1.594   5.649  -5.823  0.00  0.00     0.003 A 
ATOM      7  I   UNL d   1       5.931   5.624  -5.681  0.00  0.00    -0.146 I 
ENDROOT
TORSDOF 0
ENDMDL
