MODEL 1
REMARK minimizedAffinity -5.04616594
REMARK minimizedRMSD -1
REMARK  1 active torsions:
REMARK  status: ('A' for Active; 'I' for Inactive)
REMARK    1  A    between atoms: C3_4  and  O_7 
ROOT
ATOM      1  C   UNL d   1      -0.394  -0.284   0.222  0.00  0.00    -0.033 A 
ATOM      2  C1  UNL d   1       0.972   0.006   0.199  0.00  0.00     0.039 A 
ATOM      3  C2  UNL d   1       1.766  -0.277   1.312  0.00  0.00    -0.080 A 
ATOM      4  C3  UNL d   1       1.183  -0.849   2.440  0.00  0.00     0.150 A 
ATOM      5  C4  UNL d   1      -0.176  -1.144   2.468  0.00  0.00    -0.007 A 
ATOM      6  C5  UNL d   1      -0.967  -0.860   1.356  0.00  0.00     0.039 A 
ENDROOT
BRANCH   4   7
ATOM      7  O   UNL d   1       1.917  -1.139   3.552  0.00  0.00    -0.526 OA
ATOM      8  H5  UNL d   1       2.833  -0.855   3.399  0.00  0.00     0.418 HD
ENDBRANCH   4   7
TORSDOF 1
ENDMDL
