MODEL 1
REMARK minimizedAffinity -5.1775775
REMARK minimizedRMSD -1
REMARK  1 active torsions:
REMARK  status: ('A' for Active; 'I' for Inactive)
REMARK    1  A    between atoms: C3_4  and  O_7 
ROOT
ATOM      1  C   UNL d   1       1.046  -0.107  -0.675  0.00  0.00    -0.033 A 
ATOM      2  C1  UNL d   1      -0.034  -0.247   0.199  0.00  0.00     0.039 A 
ATOM      3  C2  UNL d   1       0.191  -0.461   1.561  0.00  0.00    -0.080 A 
ATOM      4  C3  UNL d   1       1.498  -0.533   2.034  0.00  0.00     0.150 A 
ATOM      5  C4  UNL d   1       2.578  -0.391   1.170  0.00  0.00    -0.007 A 
ATOM      6  C5  UNL d   1       2.352  -0.178  -0.189  0.00  0.00     0.039 A 
ENDROOT
BRANCH   4   7
ATOM      7  O   UNL d   1       1.767  -0.746   3.354  0.00  0.00    -0.526 OA
ATOM      8  H5  UNL d   1       0.924  -0.854   3.826  0.00  0.00     0.418 HD
ENDBRANCH   4   7
TORSDOF 1
ENDMDL
