MODEL 1
REMARK minimizedAffinity -4.50021267
REMARK minimizedRMSD -1
REMARK  1 active torsions:
REMARK  status: ('A' for Active; 'I' for Inactive)
REMARK    1  A    between atoms: C3_4  and  O_7 
ROOT
ATOM      1  C   UNL d   1       0.407  -0.589  -0.625  0.00  0.00    -0.033 A 
ATOM      2  C1  UNL d   1      -0.472  -0.455   0.451  0.00  0.00     0.039 A 
ATOM      3  C2  UNL d   1      -0.014  -0.641   1.757  0.00  0.00    -0.080 A 
ATOM      4  C3  UNL d   1       1.324  -0.959   1.973  0.00  0.00     0.150 A 
ATOM      5  C4  UNL d   1       2.206  -1.090   0.906  0.00  0.00    -0.007 A 
ATOM      6  C5  UNL d   1       1.747  -0.905  -0.398  0.00  0.00     0.039 A 
ENDROOT
BRANCH   4   7
ATOM      7  O   UNL d   1       1.816  -1.154   3.229  0.00  0.00    -0.526 OA
ATOM      8  H5  UNL d   1       1.086  -1.060   3.864  0.00  0.00     0.418 HD
ENDBRANCH   4   7
TORSDOF 1
ENDMDL
