MODEL 1
REMARK minimizedAffinity -4.86783171
REMARK minimizedRMSD -1
REMARK  1 active torsions:
REMARK  status: ('A' for Active; 'I' for Inactive)
REMARK    1  A    between atoms: C3_4  and  O_7 
ROOT
ATOM      1  C   UNL d   1       1.124  -1.098   2.792  0.00  0.00    -0.033 A 
ATOM      2  C1  UNL d   1      -0.225  -0.922   2.474  0.00  0.00     0.039 A 
ATOM      3  C2  UNL d   1      -0.586  -0.296   1.280  0.00  0.00    -0.080 A 
ATOM      4  C3  UNL d   1       0.408   0.147   0.412  0.00  0.00     0.150 A 
ATOM      5  C4  UNL d   1       1.753  -0.029   0.720  0.00  0.00    -0.007 A 
ATOM      6  C5  UNL d   1       2.112  -0.653   1.914  0.00  0.00     0.039 A 
ENDROOT
BRANCH   4   7
ATOM      7  O   UNL d   1       0.103   0.767  -0.763  0.00  0.00    -0.526 OA
ATOM      8  H5  UNL d   1      -0.863   0.845  -0.829  0.00  0.00     0.418 HD
ENDBRANCH   4   7
TORSDOF 1
ENDMDL
