MODEL 1
REMARK minimizedAffinity -1.14199293
REMARK minimizedRMSD -1
REMARK  1 active torsions:
REMARK  status: ('A' for Active; 'I' for Inactive)
REMARK    1  A    between atoms: C3_4  and  O_7 
ROOT
ATOM      1  C   UNL d   1       1.968  -2.944   1.822  0.00  0.00    -0.033 A 
ATOM      2  C1  UNL d   1       1.789  -4.160   2.486  0.00  0.00     0.039 A 
ATOM      3  C2  UNL d   1       0.522  -4.526   2.946  0.00  0.00    -0.080 A 
ATOM      4  C3  UNL d   1      -0.555  -3.670   2.735  0.00  0.00     0.150 A 
ATOM      5  C4  UNL d   1      -0.385  -2.460   2.071  0.00  0.00    -0.007 A 
ATOM      6  C5  UNL d   1       0.881  -2.095   1.613  0.00  0.00     0.039 A 
ENDROOT
BRANCH   4   7
ATOM      7  O   UNL d   1      -1.809  -3.982   3.170  0.00  0.00    -0.526 OA
ATOM      8  H5  UNL d   1      -1.770  -4.834   3.636  0.00  0.00     0.418 HD
ENDBRANCH   4   7
TORSDOF 1
ENDMDL
