MODEL 1
REMARK minimizedAffinity -2.44928169
REMARK minimizedRMSD -1
REMARK  1 active torsions:
REMARK  status: ('A' for Active; 'I' for Inactive)
REMARK    1  A    between atoms: C3_4  and  O_7 
ROOT
ATOM      1  C   UNL d   1       0.321   2.695  -2.548  0.00  0.00    -0.033 A 
ATOM      2  C1  UNL d   1      -0.448   1.774  -1.834  0.00  0.00     0.039 A 
ATOM      3  C2  UNL d   1      -1.808   2.012  -1.624  0.00  0.00    -0.080 A 
ATOM      4  C3  UNL d   1      -2.385   3.172  -2.133  0.00  0.00     0.150 A 
ATOM      5  C4  UNL d   1      -1.626   4.091  -2.849  0.00  0.00    -0.007 A 
ATOM      6  C5  UNL d   1      -0.268   3.853  -3.057  0.00  0.00     0.039 A 
ENDROOT
BRANCH   4   7
ATOM      7  O   UNL d   1      -3.707   3.450  -1.949  0.00  0.00    -0.526 OA
ATOM      8  H5  UNL d   1      -4.099   2.741  -1.413  0.00  0.00     0.418 HD
ENDBRANCH   4   7
TORSDOF 1
ENDMDL
