MODEL 1
REMARK minimizedAffinity -2.67449188
REMARK minimizedRMSD -1
REMARK  1 active torsions:
REMARK  status: ('A' for Active; 'I' for Inactive)
REMARK    1  A    between atoms: C3_4  and  O_7 
ROOT
ATOM      1  C   UNL d   1      -0.413  -0.061  -0.541  0.00  0.00    -0.033 A 
ATOM      2  C1  UNL d   1      -1.115   0.025   0.663  0.00  0.00     0.039 A 
ATOM      3  C2  UNL d   1      -0.468  -0.242   1.871  0.00  0.00    -0.080 A 
ATOM      4  C3  UNL d   1       0.880  -0.593   1.862  0.00  0.00     0.150 A 
ATOM      5  C4  UNL d   1       1.586  -0.677   0.666  0.00  0.00    -0.007 A 
ATOM      6  C5  UNL d   1       0.937  -0.411  -0.539  0.00  0.00     0.039 A 
ENDROOT
BRANCH   4   7
ATOM      7  O   UNL d   1       1.553  -0.867   3.015  0.00  0.00    -0.526 OA
ATOM      8  H5  UNL d   1       0.931  -0.797   3.758  0.00  0.00     0.418 HD
ENDBRANCH   4   7
TORSDOF 1
ENDMDL
