MODEL 1
REMARK minimizedAffinity -3.70330381
REMARK minimizedRMSD -1
REMARK  1 active torsions:
REMARK  status: ('A' for Active; 'I' for Inactive)
REMARK    1  A    between atoms: C3_4  and  O_7 
ROOT
ATOM      1  C   UNL d   1       0.657  -1.606   2.850  0.00  0.00    -0.033 A 
ATOM      2  C1  UNL d   1      -0.691  -1.444   2.524  0.00  0.00     0.039 A 
ATOM      3  C2  UNL d   1      -1.058  -0.620   1.459  0.00  0.00    -0.080 A 
ATOM      4  C3  UNL d   1      -0.070   0.036   0.729  0.00  0.00     0.150 A 
ATOM      5  C4  UNL d   1       1.275  -0.124   1.047  0.00  0.00    -0.007 A 
ATOM      6  C5  UNL d   1       1.640  -0.948   2.111  0.00  0.00     0.039 A 
ENDROOT
BRANCH   4   7
ATOM      7  O   UNL d   1      -0.381   0.855  -0.315  0.00  0.00    -0.526 OA
ATOM      8  H5  UNL d   1      -1.348   0.892  -0.400  0.00  0.00     0.418 HD
ENDBRANCH   4   7
TORSDOF 1
ENDMDL
