MODEL 1
REMARK minimizedAffinity -1.78224707
REMARK minimizedRMSD -1
REMARK  1 active torsions:
REMARK  status: ('A' for Active; 'I' for Inactive)
REMARK    1  A    between atoms: C3_4  and  O_7 
ROOT
ATOM      1  C   UNL d   1       1.973  -2.534   2.316  0.00  0.00    -0.033 A 
ATOM      2  C1  UNL d   1       0.684  -2.847   1.880  0.00  0.00     0.039 A 
ATOM      3  C2  UNL d   1       0.026  -2.004   0.982  0.00  0.00    -0.080 A 
ATOM      4  C3  UNL d   1       0.667  -0.854   0.529  0.00  0.00     0.150 A 
ATOM      5  C4  UNL d   1       1.952  -0.539   0.957  0.00  0.00    -0.007 A 
ATOM      6  C5  UNL d   1       2.608  -1.381   1.854  0.00  0.00     0.039 A 
ENDROOT
BRANCH   4   7
ATOM      7  O   UNL d   1       0.062   0.001  -0.343  0.00  0.00    -0.526 OA
ATOM      8  H5  UNL d   1      -0.832  -0.329  -0.529  0.00  0.00     0.418 HD
ENDBRANCH   4   7
TORSDOF 1
ENDMDL
