MODEL 1
REMARK minimizedAffinity -4.26528168
REMARK minimizedRMSD -1
REMARK  1 active torsions:
REMARK  status: ('A' for Active; 'I' for Inactive)
REMARK    1  A    between atoms: C3_4  and  O_7 
ROOT
ATOM      1  C   UNL d   1       2.642  -2.143   1.602  0.00  0.00    -0.033 A 
ATOM      2  C1  UNL d   1       3.182  -0.858   1.698  0.00  0.00     0.039 A 
ATOM      3  C2  UNL d   1       2.486   0.234   1.176  0.00  0.00    -0.080 A 
ATOM      4  C3  UNL d   1       1.252   0.029   0.564  0.00  0.00     0.150 A 
ATOM      5  C4  UNL d   1       0.707  -1.248   0.469  0.00  0.00    -0.007 A 
ATOM      6  C5  UNL d   1       1.404  -2.337   0.989  0.00  0.00     0.039 A 
ENDROOT
BRANCH   4   7
ATOM      7  O   UNL d   1       0.538   1.063   0.036  0.00  0.00    -0.526 OA
ATOM      8  H5  UNL d   1       1.051   1.880   0.149  0.00  0.00     0.418 HD
ENDBRANCH   4   7
TORSDOF 1
ENDMDL
