MODEL 1
REMARK minimizedAffinity -5.01728058
REMARK minimizedRMSD -1
REMARK  1 active torsions:
REMARK  status: ('A' for Active; 'I' for Inactive)
REMARK    1  A    between atoms: C3_4  and  O_7 
ROOT
ATOM      1  C   UNL d   1      -0.608  -0.691   0.872  0.00  0.00    -0.033 A 
ATOM      2  C1  UNL d   1      -0.131   0.581   0.548  0.00  0.00     0.039 A 
ATOM      3  C2  UNL d   1       1.243   0.831   0.541  0.00  0.00    -0.080 A 
ATOM      4  C3  UNL d   1       2.127  -0.196   0.858  0.00  0.00     0.150 A 
ATOM      5  C4  UNL d   1       1.658  -1.466   1.178  0.00  0.00    -0.007 A 
ATOM      6  C5  UNL d   1       0.286  -1.715   1.185  0.00  0.00     0.039 A 
ENDROOT
BRANCH   4   7
ATOM      7  O   UNL d   1       3.475   0.002   0.869  0.00  0.00    -0.526 OA
ATOM      8  H5  UNL d   1       3.651   0.933   0.656  0.00  0.00     0.418 HD
ENDBRANCH   4   7
TORSDOF 1
ENDMDL
