MODEL 1
REMARK minimizedAffinity -2.55677962
REMARK minimizedRMSD -1
REMARK  1 active torsions:
REMARK  status: ('A' for Active; 'I' for Inactive)
REMARK    1  A    between atoms: C3_4  and  O_7 
ROOT
ATOM      1  C   UNL d   1      -1.255   0.557   0.382  0.00  0.00    -0.033 A 
ATOM      2  C1  UNL d   1      -0.375   1.635   0.492  0.00  0.00     0.039 A 
ATOM      3  C2  UNL d   1       1.004   1.423   0.419  0.00  0.00    -0.080 A 
ATOM      4  C3  UNL d   1       1.487   0.131   0.234  0.00  0.00     0.150 A 
ATOM      5  C4  UNL d   1       0.616  -0.947   0.120  0.00  0.00    -0.007 A 
ATOM      6  C5  UNL d   1      -0.760  -0.734   0.194  0.00  0.00     0.039 A 
ENDROOT
BRANCH   4   7
ATOM      7  O   UNL d   1       2.824  -0.126   0.161  0.00  0.00    -0.526 OA
ATOM      8  H5  UNL d   1       3.305   0.709   0.286  0.00  0.00     0.418 HD
ENDBRANCH   4   7
TORSDOF 1
ENDMDL
