MODEL 1
REMARK minimizedAffinity -4.28137159
REMARK minimizedRMSD -1
REMARK  1 active torsions:
REMARK  status: ('A' for Active; 'I' for Inactive)
REMARK    1  A    between atoms: C3_4  and  O_7 
ROOT
ATOM      1  C   UNL d   1      -0.584   0.168   0.130  0.00  0.00    -0.033 A 
ATOM      2  C1  UNL d   1       0.022  -1.084   0.245  0.00  0.00     0.039 A 
ATOM      3  C2  UNL d   1       1.409  -1.180   0.377  0.00  0.00    -0.080 A 
ATOM      4  C3  UNL d   1       2.176  -0.019   0.395  0.00  0.00     0.150 A 
ATOM      5  C4  UNL d   1       1.578   1.232   0.285  0.00  0.00    -0.007 A 
ATOM      6  C5  UNL d   1       0.193   1.326   0.151  0.00  0.00     0.039 A 
ENDROOT
BRANCH   4   7
ATOM      7  O   UNL d   1       3.533  -0.063   0.517  0.00  0.00    -0.526 OA
ATOM      8  H5  UNL d   1       3.809  -0.994   0.555  0.00  0.00     0.418 HD
ENDBRANCH   4   7
TORSDOF 1
ENDMDL
