MODEL 1
REMARK minimizedAffinity -3.21287513
REMARK minimizedRMSD -1
REMARK  1 active torsions:
REMARK  status: ('A' for Active; 'I' for Inactive)
REMARK    1  A    between atoms: C3_4  and  O_7 
ROOT
ATOM      1  C   UNL d   1      -3.524  -0.286  -3.864  0.00  0.00    -0.033 A 
ATOM      2  C1  UNL d   1      -3.274   0.989  -3.352  0.00  0.00     0.039 A 
ATOM      3  C2  UNL d   1      -2.569   1.137  -2.156  0.00  0.00    -0.080 A 
ATOM      4  C3  UNL d   1      -2.119   0.005  -1.483  0.00  0.00     0.150 A 
ATOM      5  C4  UNL d   1      -2.361  -1.268  -1.989  0.00  0.00    -0.007 A 
ATOM      6  C5  UNL d   1      -3.066  -1.414  -3.183  0.00  0.00     0.039 A 
ENDROOT
BRANCH   4   7
ATOM      7  O   UNL d   1      -1.430   0.100  -0.311  0.00  0.00    -0.526 OA
ATOM      8  H5  UNL d   1      -1.363   1.038  -0.068  0.00  0.00     0.418 HD
ENDBRANCH   4   7
TORSDOF 1
ENDMDL
