MODEL 1
REMARK minimizedAffinity -3.5228858
REMARK minimizedRMSD -1
REMARK  1 active torsions:
REMARK  status: ('A' for Active; 'I' for Inactive)
REMARK    1  A    between atoms: C3_4  and  O_7 
ROOT
ATOM      1  C   UNL d   1      -2.957   0.034  -3.960  0.00  0.00    -0.033 A 
ATOM      2  C1  UNL d   1      -2.891  -1.215  -3.339  0.00  0.00     0.039 A 
ATOM      3  C2  UNL d   1      -2.339  -1.332  -2.062  0.00  0.00    -0.080 A 
ATOM      4  C3  UNL d   1      -1.858  -0.196  -1.418  0.00  0.00     0.150 A 
ATOM      5  C4  UNL d   1      -1.924   1.052  -2.029  0.00  0.00    -0.007 A 
ATOM      6  C5  UNL d   1      -2.475   1.167  -3.305  0.00  0.00     0.039 A 
ENDROOT
BRANCH   4   7
ATOM      7  O   UNL d   1      -1.307  -0.262  -0.173  0.00  0.00    -0.526 OA
ATOM      8  H5  UNL d   1      -1.302  -1.191   0.113  0.00  0.00     0.418 HD
ENDBRANCH   4   7
TORSDOF 1
ENDMDL
