MODEL 1
REMARK minimizedAffinity -1.01202226
REMARK minimizedRMSD -1
REMARK  1 active torsions:
REMARK  status: ('A' for Active; 'I' for Inactive)
REMARK    1  A    between atoms: N_2  and  C1_3 
ROOT
ATOM      1  C1  UNL d   1      -1.042   0.303   1.747  0.00  0.00     0.143 A 
ATOM      2  C2  UNL d   1      -1.900   1.286   2.253  0.00  0.00    -0.057 A 
ATOM      3  C3  UNL d   1      -2.182   2.449   1.526  0.00  0.00     0.033 A 
ATOM      4  C4  UNL d   1      -1.585   2.664   0.288  0.00  0.00    -0.042 A 
ATOM      5  C5  UNL d   1      -0.710   1.712  -0.224  0.00  0.00     0.033 A 
ATOM      6  C6  UNL d   1      -0.438   0.550   0.504  0.00  0.00    -0.057 A 
ENDROOT
BRANCH   1   7
ATOM      7  N   UNL d   1      -0.646  -0.828   2.464  0.00  0.00    -0.732 N 
ATOM      8  C   UNL d   1      -1.624  -1.649   3.145  0.00  0.00     0.284 C 
ATOM      9  H3  UNL d   1       0.081  -1.356   1.986  0.00  0.00     0.395 HD
ENDBRANCH   1   7
TORSDOF 1
ENDMDL
