MODEL 1
REMARK minimizedAffinity -0.108944356
REMARK minimizedRMSD -1
REMARK  1 active torsions:
REMARK  status: ('A' for Active; 'I' for Inactive)
REMARK    1  A    between atoms: N_2  and  C1_3 
ROOT
ATOM      1  C1  UNL d   1      -3.160   0.974   1.068  0.00  0.00     0.143 A 
ATOM      2  C2  UNL d   1      -1.999   0.307   1.474  0.00  0.00    -0.057 A 
ATOM      3  C3  UNL d   1      -1.026   0.951   2.248  0.00  0.00     0.033 A 
ATOM      4  C4  UNL d   1      -1.183   2.286   2.605  0.00  0.00    -0.042 A 
ATOM      5  C5  UNL d   1      -2.317   2.975   2.190  0.00  0.00     0.033 A 
ATOM      6  C6  UNL d   1      -3.289   2.325   1.424  0.00  0.00    -0.057 A 
ENDROOT
BRANCH   1   7
ATOM      7  N   UNL d   1      -4.118   0.418   0.215  0.00  0.00    -0.732 N 
ATOM      8  C   UNL d   1      -4.458  -0.985   0.304  0.00  0.00     0.284 C 
ATOM      9  H3  UNL d   1      -4.918   1.032   0.077  0.00  0.00     0.395 HD
ENDBRANCH   1   7
TORSDOF 1
ENDMDL
