MODEL 1
REMARK minimizedAffinity -0.965092242
REMARK minimizedRMSD -1
REMARK  1 active torsions:
REMARK  status: ('A' for Active; 'I' for Inactive)
REMARK    1  A    between atoms: N_2  and  C1_3 
ROOT
ATOM      1  C1  UNL d   1      -0.011   0.669   1.013  0.00  0.00     0.143 A 
ATOM      2  C2  UNL d   1      -0.812   0.828   2.149  0.00  0.00    -0.057 A 
ATOM      3  C3  UNL d   1      -1.896   1.714   2.154  0.00  0.00     0.033 A 
ATOM      4  C4  UNL d   1      -2.181   2.480   1.029  0.00  0.00    -0.042 A 
ATOM      5  C5  UNL d   1      -1.383   2.357  -0.103  0.00  0.00     0.033 A 
ATOM      6  C6  UNL d   1      -0.306   1.466  -0.104  0.00  0.00    -0.057 A 
ENDROOT
BRANCH   1   7
ATOM      7  N   UNL d   1       1.140  -0.122   0.978  0.00  0.00    -0.732 N 
ATOM      8  C   UNL d   1       1.891  -0.278  -0.249  0.00  0.00     0.284 C 
ATOM      9  H3  UNL d   1       1.719  -0.004   1.807  0.00  0.00     0.395 HD
ENDBRANCH   1   7
TORSDOF 1
ENDMDL
