MODEL 1
REMARK minimizedAffinity 11.2511482
REMARK minimizedRMSD -1
REMARK  1 active torsions:
REMARK  status: ('A' for Active; 'I' for Inactive)
REMARK    1  A    between atoms: N_2  and  C1_3 
ROOT
ATOM      1  C1  UNL d   1       0.901   0.444  -1.586  0.00  0.00     0.143 A 
ATOM      2  C2  UNL d   1      -0.010  -0.183  -2.442  0.00  0.00    -0.057 A 
ATOM      3  C3  UNL d   1      -0.142  -1.577  -2.467  0.00  0.00     0.033 A 
ATOM      4  C4  UNL d   1       0.660  -2.372  -1.655  0.00  0.00    -0.042 A 
ATOM      5  C5  UNL d   1       1.591  -1.772  -0.815  0.00  0.00     0.033 A 
ATOM      6  C6  UNL d   1       1.712  -0.379  -0.789  0.00  0.00    -0.057 A 
ENDROOT
BRANCH   1   7
ATOM      7  N   UNL d   1       1.148   1.819  -1.585  0.00  0.00    -0.732 N 
ATOM      8  C   UNL d   1       0.067   2.762  -1.393  0.00  0.00     0.284 C 
ATOM      9  H3  UNL d   1       2.003   2.060  -1.088  0.00  0.00     0.395 HD
ENDBRANCH   1   7
TORSDOF 1
ENDMDL
