MODEL 1
REMARK minimizedAffinity -0.574085772
REMARK minimizedRMSD -1
REMARK  1 active torsions:
REMARK  status: ('A' for Active; 'I' for Inactive)
REMARK    1  A    between atoms: N_2  and  C1_3 
ROOT
ATOM      1  C1  UNL d   1      -0.211   1.313   0.194  0.00  0.00     0.143 A 
ATOM      2  C2  UNL d   1      -0.272   1.121   1.578  0.00  0.00    -0.057 A 
ATOM      3  C3  UNL d   1      -1.417   1.461   2.308  0.00  0.00     0.033 A 
ATOM      4  C4  UNL d   1      -2.515   2.028   1.668  0.00  0.00    -0.042 A 
ATOM      5  C5  UNL d   1      -2.467   2.250   0.296  0.00  0.00     0.033 A 
ATOM      6  C6  UNL d   1      -1.322   1.903  -0.428  0.00  0.00    -0.057 A 
ENDROOT
BRANCH   1   7
ATOM      7  N   UNL d   1       0.935   1.087  -0.573  0.00  0.00    -0.732 N 
ATOM      8  C   UNL d   1       1.557  -0.220  -0.602  0.00  0.00     0.284 C 
ATOM      9  H3  UNL d   1       0.894   1.548  -1.479  0.00  0.00     0.395 HD
ENDBRANCH   1   7
TORSDOF 1
ENDMDL
