MODEL 1
REMARK minimizedAffinity 9.03231621
REMARK minimizedRMSD -1
REMARK  1 active torsions:
REMARK  status: ('A' for Active; 'I' for Inactive)
REMARK    1  A    between atoms: N_2  and  C1_3 
ROOT
ATOM      1  C1  UNL d   1       1.420  -3.591  -2.258  0.00  0.00     0.143 A 
ATOM      2  C2  UNL d   1       2.770  -3.618  -2.624  0.00  0.00    -0.057 A 
ATOM      3  C3  UNL d   1       3.388  -4.807  -3.031  0.00  0.00     0.033 A 
ATOM      4  C4  UNL d   1       2.671  -5.999  -3.051  0.00  0.00    -0.042 A 
ATOM      5  C5  UNL d   1       1.335  -6.000  -2.667  0.00  0.00     0.033 A 
ATOM      6  C6  UNL d   1       0.722  -4.808  -2.268  0.00  0.00    -0.057 A 
ENDROOT
BRANCH   1   7
ATOM      7  N   UNL d   1       0.775  -2.460  -1.751  0.00  0.00    -0.732 N 
ATOM      8  C   UNL d   1      -0.148  -1.707  -2.572  0.00  0.00     0.284 C 
ATOM      9  H3  UNL d   1       0.467  -2.587  -0.789  0.00  0.00     0.395 HD
ENDBRANCH   1   7
TORSDOF 1
ENDMDL
