MODEL 1
REMARK minimizedAffinity 2.53365088
REMARK minimizedRMSD -1
REMARK  1 active torsions:
REMARK  status: ('A' for Active; 'I' for Inactive)
REMARK    1  A    between atoms: N_2  and  C1_3 
ROOT
ATOM      1  C1  UNL d   1       0.038   3.753  -0.303  0.00  0.00     0.143 A 
ATOM      2  C2  UNL d   1       0.730   3.244  -1.407  0.00  0.00    -0.057 A 
ATOM      3  C3  UNL d   1       0.846   1.865  -1.619  0.00  0.00     0.033 A 
ATOM      4  C4  UNL d   1       0.295   0.967  -0.710  0.00  0.00    -0.042 A 
ATOM      5  C5  UNL d   1      -0.375   1.450   0.408  0.00  0.00     0.033 A 
ATOM      6  C6  UNL d   1      -0.494   2.829   0.610  0.00  0.00    -0.057 A 
ENDROOT
BRANCH   1   7
ATOM      7  N   UNL d   1      -0.028   5.112   0.015  0.00  0.00    -0.732 N 
ATOM      8  C   UNL d   1       1.152   5.945  -0.064  0.00  0.00     0.284 C 
ATOM      9  H3  UNL d   1      -0.873   5.553  -0.340  0.00  0.00     0.395 HD
ENDBRANCH   1   7
TORSDOF 1
ENDMDL
