MODEL 1
REMARK minimizedAffinity 3.88311887
REMARK minimizedRMSD -1
REMARK  0 active torsions:
REMARK  status: ('A' for Active; 'I' for Inactive)
ROOT
ATOM      1  C   UNL d   1       2.305   1.317   3.036  0.00  0.00     0.124 A 
ATOM      2  C1  UNL d   1       1.692   2.537   2.788  0.00  0.00     0.062 A 
ATOM      3  C2  UNL d   1       0.628   2.617   1.893  0.00  0.00     0.162 A 
ATOM      4  C3  UNL d   1       0.170   1.472   1.241  0.00  0.00    -0.034 A 
ATOM      5  C4  UNL d   1       0.792   0.248   1.496  0.00  0.00     0.162 A 
ATOM      6  C5  UNL d   1       1.855   0.174   2.390  0.00  0.00     0.062 A 
ATOM      7  F   UNL d   1       2.445  -1.006   2.629  0.00  0.00    -0.097 F 
ATOM      8  F1  UNL d   1       0.377  -0.872   0.886  0.00  0.00    -0.096 F 
ATOM      9  I   UNL d   1      -1.420   1.587  -0.097  0.00  0.00    -0.060 I 
ATOM     10  F2  UNL d   1       0.055   3.809   1.672  0.00  0.00    -0.096 F 
ATOM     11  F3  UNL d   1       2.126   3.642   3.410  0.00  0.00    -0.097 F 
ATOM     12  F4  UNL d   1       3.328   1.243   3.897  0.00  0.00    -0.092 F 
ENDROOT
TORSDOF 0
ENDMDL
