MODEL 1
REMARK minimizedAffinity 10.1315193
REMARK minimizedRMSD -1
REMARK  0 active torsions:
REMARK  status: ('A' for Active; 'I' for Inactive)
ROOT
ATOM      1  C   UNL d   1       0.798   2.351   0.360  0.00  0.00     0.124 A 
ATOM      2  C1  UNL d   1       0.882   2.645   1.714  0.00  0.00     0.062 A 
ATOM      3  C2  UNL d   1       1.189   1.643   2.629  0.00  0.00     0.162 A 
ATOM      4  C3  UNL d   1       1.416   0.337   2.194  0.00  0.00    -0.034 A 
ATOM      5  C4  UNL d   1       1.328   0.049   0.831  0.00  0.00     0.162 A 
ATOM      6  C5  UNL d   1       1.021   1.054  -0.080  0.00  0.00     0.062 A 
ATOM      7  F   UNL d   1       0.940   0.769  -1.388  0.00  0.00    -0.097 F 
ATOM      8  F1  UNL d   1       1.540  -1.195   0.378  0.00  0.00    -0.096 F 
ATOM      9  I   UNL d   1       1.875  -1.164   3.560  0.00  0.00    -0.060 I 
ATOM     10  F2  UNL d   1       1.264   1.955   3.932  0.00  0.00    -0.096 F 
ATOM     11  F3  UNL d   1       0.666   3.897   2.141  0.00  0.00    -0.097 F 
ATOM     12  F4  UNL d   1       0.501   3.317  -0.519  0.00  0.00    -0.092 F 
ENDROOT
TORSDOF 0
ENDMDL
