MODEL 1
REMARK minimizedAffinity 2.71200109
REMARK minimizedRMSD -1
REMARK  0 active torsions:
REMARK  status: ('A' for Active; 'I' for Inactive)
ROOT
ATOM      1  C   UNL d   1       1.346   4.301   1.206  0.00  0.00     0.124 A 
ATOM      2  C1  UNL d   1       0.718   3.676   0.137  0.00  0.00     0.062 A 
ATOM      3  C2  UNL d   1       0.519   2.299   0.150  0.00  0.00     0.162 A 
ATOM      4  C3  UNL d   1       0.947   1.536   1.236  0.00  0.00    -0.034 A 
ATOM      5  C4  UNL d   1       1.579   2.170   2.307  0.00  0.00     0.162 A 
ATOM      6  C5  UNL d   1       1.776   3.547   2.289  0.00  0.00     0.062 A 
ATOM      7  F   UNL d   1       2.383   4.149   3.323  0.00  0.00    -0.097 F 
ATOM      8  F1  UNL d   1       2.003   1.467   3.367  0.00  0.00    -0.096 F 
ATOM      9  I   UNL d   1       0.651  -0.524   1.258  0.00  0.00    -0.060 I 
ATOM     10  F2  UNL d   1      -0.091   1.722  -0.897  0.00  0.00    -0.096 F 
ATOM     11  F3  UNL d   1       0.303   4.402  -0.911  0.00  0.00    -0.097 F 
ATOM     12  F4  UNL d   1       1.538   5.626   1.191  0.00  0.00    -0.092 F 
ENDROOT
TORSDOF 0
ENDMDL
