MODEL 1
REMARK minimizedAffinity 0.0586674586
REMARK minimizedRMSD -1
REMARK  0 active torsions:
REMARK  status: ('A' for Active; 'I' for Inactive)
ROOT
ATOM      1  C   UNL d   1       1.261  -0.247   0.830  0.00  0.00     0.124 A 
ATOM      2  C1  UNL d   1       1.439   0.297   2.094  0.00  0.00     0.062 A 
ATOM      3  C2  UNL d   1       1.049   1.608   2.354  0.00  0.00     0.162 A 
ATOM      4  C3  UNL d   1       0.477   2.384   1.346  0.00  0.00    -0.034 A 
ATOM      5  C4  UNL d   1       0.302   1.830   0.077  0.00  0.00     0.162 A 
ATOM      6  C5  UNL d   1       0.693   0.520  -0.178  0.00  0.00     0.062 A 
ATOM      7  F   UNL d   1       0.520  -0.004  -1.400  0.00  0.00    -0.097 F 
ATOM      8  F1  UNL d   1      -0.246   2.549  -0.915  0.00  0.00    -0.096 F 
ATOM      9  I   UNL d   1      -0.108   4.345   1.730  0.00  0.00    -0.060 I 
ATOM     10  F2  UNL d   1       1.233   2.108   3.585  0.00  0.00    -0.096 F 
ATOM     11  F3  UNL d   1       1.989  -0.442   3.069  0.00  0.00    -0.097 F 
ATOM     12  F4  UNL d   1       1.638  -1.508   0.583  0.00  0.00    -0.092 F 
ENDROOT
TORSDOF 0
ENDMDL
