MODEL 1
REMARK minimizedAffinity 1.47488332
REMARK minimizedRMSD -1
REMARK  0 active torsions:
REMARK  status: ('A' for Active; 'I' for Inactive)
ROOT
ATOM      1  C   UNL d   1       0.610  -0.247   2.166  0.00  0.00     0.124 A 
ATOM      2  C1  UNL d   1       0.619  -0.156   0.781  0.00  0.00     0.062 A 
ATOM      3  C2  UNL d   1       0.699   1.088   0.162  0.00  0.00     0.162 A 
ATOM      4  C3  UNL d   1       0.773   2.252   0.928  0.00  0.00    -0.034 A 
ATOM      5  C4  UNL d   1       0.763   2.152   2.321  0.00  0.00     0.162 A 
ATOM      6  C5  UNL d   1       0.682   0.906   2.934  0.00  0.00     0.062 A 
ATOM      7  F   UNL d   1       0.674   0.820   4.273  0.00  0.00    -0.097 F 
ATOM      8  F1  UNL d   1       0.832   3.250   3.087  0.00  0.00    -0.096 F 
ATOM      9  I   UNL d   1       0.893   4.114   0.006  0.00  0.00    -0.060 I 
ATOM     10  F2  UNL d   1       0.706   1.146  -1.178  0.00  0.00    -0.096 F 
ATOM     11  F3  UNL d   1       0.548  -1.269   0.037  0.00  0.00    -0.097 F 
ATOM     12  F4  UNL d   1       0.532  -1.446   2.759  0.00  0.00    -0.092 F 
ENDROOT
TORSDOF 0
ENDMDL
