MODEL 1
REMARK minimizedAffinity 1.33098578
REMARK minimizedRMSD -1
REMARK  0 active torsions:
REMARK  status: ('A' for Active; 'I' for Inactive)
ROOT
ATOM      1  C   UNL d   1       0.448   0.363   1.726  0.00  0.00     0.124 A 
ATOM      2  C1  UNL d   1       0.096   1.522   2.405  0.00  0.00     0.062 A 
ATOM      3  C2  UNL d   1       0.067   2.743   1.737  0.00  0.00     0.162 A 
ATOM      4  C3  UNL d   1       0.390   2.811   0.382  0.00  0.00    -0.034 A 
ATOM      5  C4  UNL d   1       0.744   1.642  -0.293  0.00  0.00     0.162 A 
ATOM      6  C5  UNL d   1       0.772   0.424   0.378  0.00  0.00     0.062 A 
ATOM      7  F   UNL d   1       1.113  -0.694  -0.279  0.00  0.00    -0.097 F 
ATOM      8  F1  UNL d   1       1.061   1.672  -1.596  0.00  0.00    -0.096 F 
ATOM      9  I   UNL d   1       0.348   4.635  -0.620  0.00  0.00    -0.060 I 
ATOM     10  F2  UNL d   1      -0.278   3.846   2.418  0.00  0.00    -0.096 F 
ATOM     11  F3  UNL d   1      -0.217   1.465   3.708  0.00  0.00    -0.097 F 
ATOM     12  F4  UNL d   1       0.476  -0.810   2.372  0.00  0.00    -0.092 F 
ENDROOT
TORSDOF 0
ENDMDL
