MODEL 1
REMARK minimizedAffinity -0.708405077
REMARK minimizedRMSD -1
REMARK  0 active torsions:
REMARK  status: ('A' for Active; 'I' for Inactive)
ROOT
ATOM      1  C   UNL d   1       2.297   4.656   1.981  0.00  0.00     0.124 A 
ATOM      2  C1  UNL d   1       2.150   3.596   2.864  0.00  0.00     0.062 A 
ATOM      3  C2  UNL d   1       1.263   2.563   2.576  0.00  0.00     0.162 A 
ATOM      4  C3  UNL d   1       0.515   2.585   1.399  0.00  0.00    -0.034 A 
ATOM      5  C4  UNL d   1       0.667   3.655   0.516  0.00  0.00     0.162 A 
ATOM      6  C5  UNL d   1       1.555   4.685   0.808  0.00  0.00     0.062 A 
ATOM      7  F   UNL d   1       1.696   5.709  -0.047  0.00  0.00    -0.097 F 
ATOM      8  F1  UNL d   1      -0.036   3.708  -0.625  0.00  0.00    -0.096 F 
ATOM      9  I   UNL d   1      -0.813   1.042   0.966  0.00  0.00    -0.060 I 
ATOM     10  F2  UNL d   1       1.141   1.550   3.448  0.00  0.00    -0.096 F 
ATOM     11  F3  UNL d   1       2.865   3.566   3.998  0.00  0.00    -0.097 F 
ATOM     12  F4  UNL d   1       3.151   5.649   2.260  0.00  0.00    -0.092 F 
ENDROOT
TORSDOF 0
ENDMDL
