MODEL 1
REMARK minimizedAffinity 5.90698862
REMARK minimizedRMSD -1
REMARK  0 active torsions:
REMARK  status: ('A' for Active; 'I' for Inactive)
ROOT
ATOM      1  C   UNL d   1       0.534   2.411   1.322  0.00  0.00     0.124 A 
ATOM      2  C1  UNL d   1       0.661   2.156  -0.037  0.00  0.00     0.062 A 
ATOM      3  C2  UNL d   1       0.928   0.866  -0.485  0.00  0.00     0.162 A 
ATOM      4  C3  UNL d   1       1.069  -0.181   0.426  0.00  0.00    -0.034 A 
ATOM      5  C4  UNL d   1       0.941   0.084   1.791  0.00  0.00     0.162 A 
ATOM      6  C5  UNL d   1       0.674   1.375   2.234  0.00  0.00     0.062 A 
ATOM      7  F   UNL d   1       0.551   1.619   3.547  0.00  0.00    -0.097 F 
ATOM      8  F1  UNL d   1       1.070  -0.899   2.695  0.00  0.00    -0.096 F 
ATOM      9  I   UNL d   1       1.468  -2.111  -0.240  0.00  0.00    -0.060 I 
ATOM     10  F2  UNL d   1       1.046   0.649  -1.803  0.00  0.00    -0.096 F 
ATOM     11  F3  UNL d   1       0.528   3.156  -0.920  0.00  0.00    -0.097 F 
ATOM     12  F4  UNL d   1       0.278   3.654   1.750  0.00  0.00    -0.092 F 
ENDROOT
TORSDOF 0
ENDMDL
