MODEL 1
REMARK minimizedAffinity 3.9222796
REMARK minimizedRMSD -1
REMARK  1 active torsions:
REMARK  status: ('A' for Active; 'I' for Inactive)
REMARK    1  A    between atoms: N_2  and  C1_3 
ROOT
ATOM      1  C1  UNL d   1      -1.735  -0.016   1.785  0.00  0.00     0.143 A 
ATOM      2  C2  UNL d   1      -1.900  -0.659   3.017  0.00  0.00    -0.057 A 
ATOM      3  C3  UNL d   1      -0.799  -1.122   3.748  0.00  0.00     0.033 A 
ATOM      4  C4  UNL d   1       0.489  -0.975   3.244  0.00  0.00    -0.042 A 
ATOM      5  C5  UNL d   1       0.675  -0.361   2.010  0.00  0.00     0.033 A 
ATOM      6  C6  UNL d   1      -0.428   0.105   1.288  0.00  0.00    -0.057 A 
ENDROOT
BRANCH   1   7
ATOM      7  N   UNL d   1      -2.795   0.378   0.966  0.00  0.00    -0.732 N 
ATOM      8  C   UNL d   1      -2.958  -0.192  -0.355  0.00  0.00     0.284 C 
ATOM      9  H3  UNL d   1      -3.666   0.487   1.481  0.00  0.00     0.395 HD
ENDBRANCH   1   7
TORSDOF 1
ENDMDL
