MODEL 1
REMARK minimizedAffinity -4.69672966
REMARK minimizedRMSD -1
REMARK  1 active torsions:
REMARK  status: ('A' for Active; 'I' for Inactive)
REMARK    1  A    between atoms: N_2  and  C1_3 
ROOT
ATOM      1  C1  UNL d   1       0.929  -0.363   1.574  0.00  0.00     0.143 A 
ATOM      2  C2  UNL d   1      -0.193   0.266   1.025  0.00  0.00    -0.057 A 
ATOM      3  C3  UNL d   1      -1.262   0.677   1.830  0.00  0.00     0.033 A 
ATOM      4  C4  UNL d   1      -1.240   0.439   3.200  0.00  0.00    -0.042 A 
ATOM      5  C5  UNL d   1      -0.146  -0.207   3.765  0.00  0.00     0.033 A 
ATOM      6  C6  UNL d   1       0.922  -0.609   2.956  0.00  0.00    -0.057 A 
ENDROOT
BRANCH   1   7
ATOM      7  N   UNL d   1       1.980  -0.882   0.814  0.00  0.00    -0.732 N 
ATOM      8  C   UNL d   1       2.864  -0.003   0.079  0.00  0.00     0.284 C 
ATOM      9  H3  UNL d   1       2.453  -1.653   1.281  0.00  0.00     0.395 HD
ENDBRANCH   1   7
TORSDOF 1
ENDMDL
