MODEL 1
REMARK minimizedAffinity -3.32472038
REMARK minimizedRMSD -1
REMARK  1 active torsions:
REMARK  status: ('A' for Active; 'I' for Inactive)
REMARK    1  A    between atoms: N_2  and  C1_3 
ROOT
ATOM      1  C1  UNL d   1      -0.466   0.110   1.275  0.00  0.00     0.143 A 
ATOM      2  C2  UNL d   1      -0.673  -0.159   2.632  0.00  0.00    -0.057 A 
ATOM      3  C3  UNL d   1      -0.275   0.748   3.621  0.00  0.00     0.033 A 
ATOM      4  C4  UNL d   1       0.366   1.932   3.270  0.00  0.00    -0.042 A 
ATOM      5  C5  UNL d   1       0.604   2.209   1.929  0.00  0.00     0.033 A 
ATOM      6  C6  UNL d   1       0.198   1.302   0.945  0.00  0.00    -0.057 A 
ENDROOT
BRANCH   1   7
ATOM      7  N   UNL d   1      -0.750  -0.796   0.250  0.00  0.00    -0.732 N 
ATOM      8  C   UNL d   1      -2.114  -1.023  -0.176  0.00  0.00     0.284 C 
ATOM      9  H3  UNL d   1      -0.079  -0.742  -0.513  0.00  0.00     0.395 HD
ENDBRANCH   1   7
TORSDOF 1
ENDMDL
