MODEL 1
REMARK minimizedAffinity 2.47028399
REMARK minimizedRMSD -1
REMARK  1 active torsions:
REMARK  status: ('A' for Active; 'I' for Inactive)
REMARK    1  A    between atoms: N_2  and  C1_3 
ROOT
ATOM      1  C1  UNL d   1      -0.434  -0.369   3.062  0.00  0.00     0.143 A 
ATOM      2  C2  UNL d   1      -1.705   0.154   2.800  0.00  0.00    -0.057 A 
ATOM      3  C3  UNL d   1      -2.196   0.247   1.492  0.00  0.00     0.033 A 
ATOM      4  C4  UNL d   1      -1.411  -0.157   0.417  0.00  0.00    -0.042 A 
ATOM      5  C5  UNL d   1      -0.135  -0.658   0.652  0.00  0.00     0.033 A 
ATOM      6  C6  UNL d   1       0.347  -0.754   1.961  0.00  0.00    -0.057 A 
ENDROOT
BRANCH   1   7
ATOM      7  N   UNL d   1       0.149  -0.396   4.331  0.00  0.00    -0.732 N 
ATOM      8  C   UNL d   1       0.814  -1.589   4.812  0.00  0.00     0.284 C 
ATOM      9  H3  UNL d   1       0.636   0.469   4.553  0.00  0.00     0.395 HD
ENDBRANCH   1   7
TORSDOF 1
ENDMDL
