MODEL 1
REMARK minimizedAffinity 0.246045306
REMARK minimizedRMSD -1
REMARK  1 active torsions:
REMARK  status: ('A' for Active; 'I' for Inactive)
REMARK    1  A    between atoms: N_2  and  C1_3 
ROOT
ATOM      1  C1  UNL d   1      -0.452  -0.236   1.155  0.00  0.00     0.143 A 
ATOM      2  C2  UNL d   1      -1.690   0.413   1.120  0.00  0.00    -0.057 A 
ATOM      3  C3  UNL d   1      -2.483   0.528   2.268  0.00  0.00     0.033 A 
ATOM      4  C4  UNL d   1      -2.062  -0.033   3.470  0.00  0.00    -0.042 A 
ATOM      5  C5  UNL d   1      -0.846  -0.704   3.522  0.00  0.00     0.033 A 
ATOM      6  C6  UNL d   1      -0.056  -0.810   2.373  0.00  0.00    -0.057 A 
ENDROOT
BRANCH   1   7
ATOM      7  N   UNL d   1       0.337  -0.469   0.025  0.00  0.00    -0.732 N 
ATOM      8  C   UNL d   1       0.001  -1.527  -0.903  0.00  0.00     0.284 C 
ATOM      9  H3  UNL d   1       0.641   0.394  -0.420  0.00  0.00     0.395 HD
ENDBRANCH   1   7
TORSDOF 1
ENDMDL
