MODEL 1
REMARK minimizedAffinity -2.80443311
REMARK minimizedRMSD -1
REMARK  1 active torsions:
REMARK  status: ('A' for Active; 'I' for Inactive)
REMARK    1  A    between atoms: N_2  and  C1_3 
ROOT
ATOM      1  C1  UNL d   1       0.968  -0.960   0.321  0.00  0.00     0.143 A 
ATOM      2  C2  UNL d   1       0.372  -0.171   1.310  0.00  0.00    -0.057 A 
ATOM      3  C3  UNL d   1      -1.005   0.084   1.303  0.00  0.00     0.033 A 
ATOM      4  C4  UNL d   1      -1.807  -0.424   0.287  0.00  0.00    -0.042 A 
ATOM      5  C5  UNL d   1      -1.232  -1.190  -0.721  0.00  0.00     0.033 A 
ATOM      6  C6  UNL d   1       0.142  -1.446  -0.705  0.00  0.00    -0.057 A 
ENDROOT
BRANCH   1   7
ATOM      7  N   UNL d   1       2.346  -1.168   0.217  0.00  0.00    -0.732 N 
ATOM      8  C   UNL d   1       3.235  -0.073  -0.106  0.00  0.00     0.284 C 
ATOM      9  H3  UNL d   1       2.700  -1.792   0.939  0.00  0.00     0.395 HD
ENDBRANCH   1   7
TORSDOF 1
ENDMDL
