MODEL 1
REMARK minimizedAffinity 3.03778958
REMARK minimizedRMSD -1
REMARK  1 active torsions:
REMARK  status: ('A' for Active; 'I' for Inactive)
REMARK    1  A    between atoms: N_2  and  C1_3 
ROOT
ATOM      1  C1  UNL d   1      -1.654   0.854   1.053  0.00  0.00     0.143 A 
ATOM      2  C2  UNL d   1      -2.903   0.664   0.453  0.00  0.00    -0.057 A 
ATOM      3  C3  UNL d   1      -3.078  -0.260  -0.585  0.00  0.00     0.033 A 
ATOM      4  C4  UNL d   1      -1.995  -0.992  -1.061  0.00  0.00    -0.042 A 
ATOM      5  C5  UNL d   1      -0.739  -0.802  -0.496  0.00  0.00     0.033 A 
ATOM      6  C6  UNL d   1      -0.573   0.117   0.544  0.00  0.00    -0.057 A 
ENDROOT
BRANCH   1   7
ATOM      7  N   UNL d   1      -1.396   1.827   2.021  0.00  0.00    -0.732 N 
ATOM      8  C   UNL d   1      -0.517   2.939   1.732  0.00  0.00     0.284 C 
ATOM      9  H3  UNL d   1      -2.229   2.082   2.548  0.00  0.00     0.395 HD
ENDBRANCH   1   7
TORSDOF 1
ENDMDL
