MODEL 1
REMARK minimizedAffinity -2.5574553
REMARK minimizedRMSD -1
REMARK  1 active torsions:
REMARK  status: ('A' for Active; 'I' for Inactive)
REMARK    1  A    between atoms: C1_2  and  C2_3 
ROOT
ATOM      1  C2  UNL d   1       1.766  -2.694   1.420  0.00  0.00    -0.073 A 
ATOM      2  C3  UNL d   1       2.207  -3.867   2.044  0.00  0.00    -0.002 A 
ATOM      3  C4  UNL d   1       2.451  -3.885   3.418  0.00  0.00     0.004 A 
ATOM      4  C5  UNL d   1       2.252  -2.736   4.182  0.00  0.00    -0.004 A 
ATOM      5  C6  UNL d   1       1.800  -1.558   3.579  0.00  0.00    -0.075 A 
ATOM      6  C7  UNL d   1       1.582  -0.312   4.387  0.00  0.00     0.076 C 
ATOM      7  C8  UNL d   1       1.559  -1.546   2.199  0.00  0.00     0.001 A 
ENDROOT
BRANCH   1   8
ATOM      8  C1  UNL d   1       1.494  -2.670  -0.062  0.00  0.00     0.053 C 
ATOM      9  C   UNL d   1       0.409  -1.669  -0.426  0.00  0.00     0.018 C 
ENDBRANCH   1   8
TORSDOF 1
ENDMDL
