MODEL 1
REMARK minimizedAffinity 9.80138111
REMARK minimizedRMSD -1
REMARK  1 active torsions:
REMARK  status: ('A' for Active; 'I' for Inactive)
REMARK    1  A    between atoms: C1_2  and  C2_3 
ROOT
ATOM      1  C2  UNL d   1       1.431  -1.041   0.787  0.00  0.00    -0.073 A 
ATOM      2  C3  UNL d   1       2.636  -0.417   0.445  0.00  0.00    -0.002 A 
ATOM      3  C4  UNL d   1       3.585  -0.129   1.427  0.00  0.00     0.004 A 
ATOM      4  C5  UNL d   1       3.342  -0.467   2.758  0.00  0.00    -0.004 A 
ATOM      5  C6  UNL d   1       2.148  -1.101   3.118  0.00  0.00    -0.075 A 
ATOM      6  C7  UNL d   1       1.871  -1.469   4.546  0.00  0.00     0.076 C 
ATOM      7  C8  UNL d   1       1.200  -1.385   2.127  0.00  0.00     0.001 A 
ENDROOT
BRANCH   1   8
ATOM      8  C1  UNL d   1       0.407  -1.360  -0.271  0.00  0.00     0.053 C 
ATOM      9  C   UNL d   1      -0.978  -0.857   0.106  0.00  0.00     0.018 C 
ENDBRANCH   1   8
TORSDOF 1
ENDMDL
