MODEL 1
REMARK minimizedAffinity 0.604397357
REMARK minimizedRMSD -1
REMARK  1 active torsions:
REMARK  status: ('A' for Active; 'I' for Inactive)
REMARK    1  A    between atoms: C1_2  and  C2_3 
ROOT
ATOM      1  C2  UNL d   1       2.285  -1.543   2.330  0.00  0.00    -0.073 A 
ATOM      2  C3  UNL d   1       1.527  -0.721   3.171  0.00  0.00    -0.002 A 
ATOM      3  C4  UNL d   1       1.441  -0.999   4.536  0.00  0.00     0.004 A 
ATOM      4  C5  UNL d   1       2.115  -2.095   5.074  0.00  0.00    -0.004 A 
ATOM      5  C6  UNL d   1       2.887  -2.921   4.251  0.00  0.00    -0.075 A 
ATOM      6  C7  UNL d   1       3.618  -4.105   4.813  0.00  0.00     0.076 C 
ATOM      7  C8  UNL d   1       2.967  -2.637   2.881  0.00  0.00     0.001 A 
ENDROOT
BRANCH   1   8
ATOM      8  C1  UNL d   1       2.387  -1.244   0.856  0.00  0.00     0.053 C 
ATOM      9  C   UNL d   1       1.400  -2.061   0.039  0.00  0.00     0.018 C 
ENDBRANCH   1   8
TORSDOF 1
ENDMDL
