MODEL 1
REMARK minimizedAffinity 14.2464609
REMARK minimizedRMSD -1
REMARK  1 active torsions:
REMARK  status: ('A' for Active; 'I' for Inactive)
REMARK    1  A    between atoms: C1_2  and  C2_3 
ROOT
ATOM      1  C2  UNL d   1      -5.244   3.318   0.240  0.00  0.00    -0.073 A 
ATOM      2  C3  UNL d   1      -3.852   3.171   0.206  0.00  0.00    -0.002 A 
ATOM      3  C4  UNL d   1      -3.160   2.755   1.344  0.00  0.00     0.004 A 
ATOM      4  C5  UNL d   1      -3.850   2.473   2.522  0.00  0.00    -0.004 A 
ATOM      5  C6  UNL d   1      -5.242   2.602   2.573  0.00  0.00    -0.075 A 
ATOM      6  C7  UNL d   1      -5.999   2.306   3.834  0.00  0.00     0.076 C 
ATOM      7  C8  UNL d   1      -5.930   3.024   1.427  0.00  0.00     0.001 A 
ENDROOT
BRANCH   1   8
ATOM      8  C1  UNL d   1      -5.997   3.761  -0.987  0.00  0.00     0.053 C 
ATOM      9  C   UNL d   1      -6.000   2.695  -2.071  0.00  0.00     0.018 C 
ENDBRANCH   1   8
TORSDOF 1
ENDMDL
