MODEL 1
REMARK minimizedAffinity 13.6370068
REMARK minimizedRMSD -1
REMARK  1 active torsions:
REMARK  status: ('A' for Active; 'I' for Inactive)
REMARK    1  A    between atoms: C1_2  and  C2_3 
ROOT
ATOM      1  C2  UNL d   1       2.284   0.017   2.405  0.00  0.00    -0.073 A 
ATOM      2  C3  UNL d   1       2.322   1.364   2.782  0.00  0.00    -0.002 A 
ATOM      3  C4  UNL d   1       2.919   2.313   1.951  0.00  0.00     0.004 A 
ATOM      4  C5  UNL d   1       3.477   1.926   0.732  0.00  0.00    -0.004 A 
ATOM      5  C6  UNL d   1       3.438   0.586   0.332  0.00  0.00    -0.075 A 
ATOM      6  C7  UNL d   1       4.036   0.154  -0.974  0.00  0.00     0.076 C 
ATOM      7  C8  UNL d   1       2.839  -0.360   1.174  0.00  0.00     0.001 A 
ENDROOT
BRANCH   1   8
ATOM      8  C1  UNL d   1       1.634  -1.009   3.296  0.00  0.00     0.053 C 
ATOM      9  C   UNL d   1       2.636  -2.028   3.816  0.00  0.00     0.018 C 
ENDBRANCH   1   8
TORSDOF 1
ENDMDL
