MODEL 1
REMARK minimizedAffinity 13.1325521
REMARK minimizedRMSD -1
REMARK  1 active torsions:
REMARK  status: ('A' for Active; 'I' for Inactive)
REMARK    1  A    between atoms: C1_2  and  C2_3 
ROOT
ATOM      1  C2  UNL d   1       1.470  -3.603   3.901  0.00  0.00    -0.073 A 
ATOM      2  C3  UNL d   1       2.798  -3.961   4.160  0.00  0.00    -0.002 A 
ATOM      3  C4  UNL d   1       3.840  -3.102   3.809  0.00  0.00     0.004 A 
ATOM      4  C5  UNL d   1       3.567  -1.877   3.202  0.00  0.00    -0.004 A 
ATOM      5  C6  UNL d   1       2.245  -1.496   2.946  0.00  0.00    -0.075 A 
ATOM      6  C7  UNL d   1       1.934  -0.182   2.292  0.00  0.00     0.076 C 
ATOM      7  C8  UNL d   1       1.204  -2.364   3.299  0.00  0.00     0.001 A 
ENDROOT
BRANCH   1   8
ATOM      8  C1  UNL d   1       0.340  -4.523   4.285  0.00  0.00     0.053 C 
ATOM      9  C   UNL d   1       0.546  -5.136   5.661  0.00  0.00     0.018 C 
ENDBRANCH   1   8
TORSDOF 1
ENDMDL
