MODEL 1
REMARK minimizedAffinity 9.15794373
REMARK minimizedRMSD -1
REMARK  1 active torsions:
REMARK  status: ('A' for Active; 'I' for Inactive)
REMARK    1  A    between atoms: C1_2  and  C2_3 
ROOT
ATOM      1  C2  UNL d   1      -5.210   2.602   2.370  0.00  0.00    -0.073 A 
ATOM      2  C3  UNL d   1      -3.867   2.226   2.254  0.00  0.00    -0.002 A 
ATOM      3  C4  UNL d   1      -3.206   2.342   1.031  0.00  0.00     0.004 A 
ATOM      4  C5  UNL d   1      -3.878   2.839  -0.086  0.00  0.00    -0.004 A 
ATOM      5  C6  UNL d   1      -5.217   3.231   0.013  0.00  0.00    -0.075 A 
ATOM      6  C7  UNL d   1      -5.954   3.765  -1.179  0.00  0.00     0.076 C 
ATOM      7  C8  UNL d   1      -5.874   3.109   1.245  0.00  0.00     0.001 A 
ENDROOT
BRANCH   1   8
ATOM      8  C1  UNL d   1      -5.926   2.485   3.691  0.00  0.00     0.053 C 
ATOM      9  C   UNL d   1      -5.874   3.782   4.484  0.00  0.00     0.018 C 
ENDBRANCH   1   8
TORSDOF 1
ENDMDL
