MODEL 1
REMARK minimizedAffinity 22.0702114
REMARK minimizedRMSD -1
REMARK  0 active torsions:
REMARK  status: ('A' for Active; 'I' for Inactive)
ROOT
ATOM      1  C   UNL d   1       2.612  -1.171   2.248  0.00  0.00     0.124 A 
ATOM      2  C1  UNL d   1       1.566  -2.081   2.174  0.00  0.00     0.062 A 
ATOM      3  C2  UNL d   1       0.529  -2.032   3.101  0.00  0.00     0.162 A 
ATOM      4  C3  UNL d   1       0.532  -1.069   4.110  0.00  0.00    -0.034 A 
ATOM      5  C4  UNL d   1       1.588  -0.158   4.179  0.00  0.00     0.162 A 
ATOM      6  C5  UNL d   1       2.622  -0.211   3.250  0.00  0.00     0.062 A 
ATOM      7  F   UNL d   1       3.631   0.669   3.323  0.00  0.00    -0.097 F 
ATOM      8  F1  UNL d   1       1.622   0.781   5.136  0.00  0.00    -0.096 F 
ATOM      9  I   UNL d   1      -1.017  -0.993   5.498  0.00  0.00    -0.060 I 
ATOM     10  F2  UNL d   1      -0.468  -2.924   3.006  0.00  0.00    -0.096 F 
ATOM     11  F3  UNL d   1       1.555  -3.010   1.207  0.00  0.00    -0.097 F 
ATOM     12  F4  UNL d   1       3.609  -1.221   1.355  0.00  0.00    -0.092 F 
ENDROOT
TORSDOF 0
ENDMDL
