MODEL 1
REMARK minimizedAffinity 18.171236
REMARK minimizedRMSD -1
REMARK  0 active torsions:
REMARK  status: ('A' for Active; 'I' for Inactive)
ROOT
ATOM      1  C   UNL d   1       2.779  -1.989   0.791  0.00  0.00     0.124 A 
ATOM      2  C1  UNL d   1       2.279  -3.268   0.992  0.00  0.00     0.062 A 
ATOM      3  C2  UNL d   1       1.140  -3.460   1.768  0.00  0.00     0.162 A 
ATOM      4  C3  UNL d   1       0.491  -2.370   2.348  0.00  0.00    -0.034 A 
ATOM      5  C4  UNL d   1       1.001  -1.086   2.143  0.00  0.00     0.162 A 
ATOM      6  C5  UNL d   1       2.140  -0.900   1.367  0.00  0.00     0.062 A 
ATOM      7  F   UNL d   1       2.622   0.337   1.174  0.00  0.00    -0.097 F 
ATOM      8  F1  UNL d   1       0.402  -0.016   2.686  0.00  0.00    -0.096 F 
ATOM      9  I   UNL d   1      -1.213  -2.653   3.509  0.00  0.00    -0.060 I 
ATOM     10  F2  UNL d   1       0.678  -4.707   1.945  0.00  0.00    -0.096 F 
ATOM     11  F3  UNL d   1       2.895  -4.322   0.438  0.00  0.00    -0.097 F 
ATOM     12  F4  UNL d   1       3.877  -1.807   0.045  0.00  0.00    -0.092 F 
ENDROOT
TORSDOF 0
ENDMDL
