MODEL 1
REMARK minimizedAffinity 28.3745632
REMARK minimizedRMSD -1
REMARK  0 active torsions:
REMARK  status: ('A' for Active; 'I' for Inactive)
ROOT
ATOM      1  C   UNL d   1       5.005  -0.164  -2.445  0.00  0.00     0.124 A 
ATOM      2  C1  UNL d   1       4.502   0.052  -3.721  0.00  0.00     0.062 A 
ATOM      3  C2  UNL d   1       4.498  -0.980  -4.655  0.00  0.00     0.162 A 
ATOM      4  C3  UNL d   1       4.998  -2.238  -4.317  0.00  0.00    -0.034 A 
ATOM      5  C4  UNL d   1       5.503  -2.446  -3.032  0.00  0.00     0.162 A 
ATOM      6  C5  UNL d   1       5.505  -1.412  -2.102  0.00  0.00     0.062 A 
ATOM      7  F   UNL d   1       5.991  -1.622  -0.870  0.00  0.00    -0.097 F 
ATOM      8  F1  UNL d   1       5.991  -3.643  -2.674  0.00  0.00    -0.096 F 
ATOM      9  I   UNL d   1       4.994  -3.783  -5.711  0.00  0.00    -0.060 I 
ATOM     10  F2  UNL d   1       4.006  -0.743  -5.880  0.00  0.00    -0.096 F 
ATOM     11  F3  UNL d   1       4.019   1.257  -4.055  0.00  0.00    -0.097 F 
ATOM     12  F4  UNL d   1       5.008   0.831  -1.548  0.00  0.00    -0.092 F 
ENDROOT
TORSDOF 0
ENDMDL
