MODEL 1
REMARK minimizedAffinity 23.3768272
REMARK minimizedRMSD -1
REMARK  0 active torsions:
REMARK  status: ('A' for Active; 'I' for Inactive)
ROOT
ATOM      1  C   UNL d   1       0.236  -0.365   4.150  0.00  0.00     0.124 A 
ATOM      2  C1  UNL d   1       0.522  -0.950   2.925  0.00  0.00     0.062 A 
ATOM      3  C2  UNL d   1      -0.362  -1.866   2.362  0.00  0.00     0.162 A 
ATOM      4  C3  UNL d   1      -1.543  -2.202   3.025  0.00  0.00    -0.034 A 
ATOM      5  C4  UNL d   1      -1.824  -1.611   4.258  0.00  0.00     0.162 A 
ATOM      6  C5  UNL d   1      -0.937  -0.696   4.816  0.00  0.00     0.062 A 
ATOM      7  F   UNL d   1      -1.215  -0.132   6.000  0.00  0.00    -0.097 F 
ATOM      8  F1  UNL d   1      -2.949  -1.912   4.921  0.00  0.00    -0.096 F 
ATOM      9  I   UNL d   1      -2.867  -3.571   2.187  0.00  0.00    -0.060 I 
ATOM     10  F2  UNL d   1      -0.059  -2.415   1.176  0.00  0.00    -0.096 F 
ATOM     11  F3  UNL d   1       1.654  -0.632   2.281  0.00  0.00    -0.097 F 
ATOM     12  F4  UNL d   1       1.089   0.515   4.690  0.00  0.00    -0.092 F 
ENDROOT
TORSDOF 0
ENDMDL
