MODEL 1
REMARK minimizedAffinity 20.8687019
REMARK minimizedRMSD -1
REMARK  0 active torsions:
REMARK  status: ('A' for Active; 'I' for Inactive)
ROOT
ATOM      1  C   UNL d   1      -1.836  -1.909   4.051  0.00  0.00     0.124 A 
ATOM      2  C1  UNL d   1      -1.508  -2.320   2.767  0.00  0.00     0.062 A 
ATOM      3  C2  UNL d   1      -0.347  -1.854   2.157  0.00  0.00     0.162 A 
ATOM      4  C3  UNL d   1       0.496  -0.970   2.831  0.00  0.00    -0.034 A 
ATOM      5  C4  UNL d   1       0.159  -0.560   4.122  0.00  0.00     0.162 A 
ATOM      6  C5  UNL d   1      -1.002  -1.029   4.727  0.00  0.00     0.062 A 
ATOM      7  F   UNL d   1      -1.317  -0.630   5.968  0.00  0.00    -0.097 F 
ATOM      8  F1  UNL d   1       0.947   0.289   4.799  0.00  0.00    -0.096 F 
ATOM      9  I   UNL d   1       2.232  -0.270   1.922  0.00  0.00    -0.060 I 
ATOM     10  F2  UNL d   1      -0.056  -2.268   0.915  0.00  0.00    -0.096 F 
ATOM     11  F3  UNL d   1      -2.312  -3.169   2.111  0.00  0.00    -0.097 F 
ATOM     12  F4  UNL d   1      -2.954  -2.358   4.635  0.00  0.00    -0.092 F 
ENDROOT
TORSDOF 0
ENDMDL
