MODEL 1
REMARK minimizedAffinity 9.89399815
REMARK minimizedRMSD -1
REMARK  0 active torsions:
REMARK  status: ('A' for Active; 'I' for Inactive)
ROOT
ATOM      1  C   UNL d   1       0.233   2.463  -1.239  0.00  0.00     0.124 A 
ATOM      2  C1  UNL d   1      -0.714   2.186  -2.214  0.00  0.00     0.062 A 
ATOM      3  C2  UNL d   1      -1.160   3.194  -3.064  0.00  0.00     0.162 A 
ATOM      4  C3  UNL d   1      -0.657   4.489  -2.944  0.00  0.00    -0.034 A 
ATOM      5  C4  UNL d   1       0.296   4.761  -1.960  0.00  0.00     0.162 A 
ATOM      6  C5  UNL d   1       0.737   3.750  -1.112  0.00  0.00     0.062 A 
ATOM      7  F   UNL d   1       1.653   4.020  -0.171  0.00  0.00    -0.097 F 
ATOM      8  F1  UNL d   1       0.800   5.995  -1.816  0.00  0.00    -0.096 F 
ATOM      9  I   UNL d   1      -1.320   5.999  -4.213  0.00  0.00    -0.060 I 
ATOM     10  F2  UNL d   1      -2.076   2.897  -3.998  0.00  0.00    -0.096 F 
ATOM     11  F3  UNL d   1      -1.204   0.943  -2.337  0.00  0.00    -0.097 F 
ATOM     12  F4  UNL d   1       0.659   1.491  -0.421  0.00  0.00    -0.092 F 
ENDROOT
TORSDOF 0
ENDMDL
