MODEL 1
REMARK minimizedAffinity 12.0718012
REMARK minimizedRMSD -1
REMARK  0 active torsions:
REMARK  status: ('A' for Active; 'I' for Inactive)
ROOT
ATOM      1  C   UNL d   1       0.745   2.873  -0.419  0.00  0.00     0.124 A 
ATOM      2  C1  UNL d   1       0.005   1.973  -1.174  0.00  0.00     0.062 A 
ATOM      3  C2  UNL d   1      -0.788   2.426  -2.223  0.00  0.00     0.162 A 
ATOM      4  C3  UNL d   1      -0.846   3.786  -2.526  0.00  0.00    -0.034 A 
ATOM      5  C4  UNL d   1      -0.099   4.685  -1.762  0.00  0.00     0.162 A 
ATOM      6  C5  UNL d   1       0.692   4.227  -0.714  0.00  0.00     0.062 A 
ATOM      7  F   UNL d   1       1.407   5.098   0.014  0.00  0.00    -0.097 F 
ATOM      8  F1  UNL d   1      -0.131   6.000  -2.026  0.00  0.00    -0.096 F 
ATOM      9  I   UNL d   1      -2.031   4.467  -4.095  0.00  0.00    -0.060 I 
ATOM     10  F2  UNL d   1      -1.493   1.533  -2.936  0.00  0.00    -0.096 F 
ATOM     11  F3  UNL d   1       0.054   0.663  -0.890  0.00  0.00    -0.097 F 
ATOM     12  F4  UNL d   1       1.508   2.434   0.591  0.00  0.00    -0.092 F 
ENDROOT
TORSDOF 0
ENDMDL
