MODEL 1
REMARK minimizedAffinity 11.3285923
REMARK minimizedRMSD -1
REMARK  0 active torsions:
REMARK  status: ('A' for Active; 'I' for Inactive)
ROOT
ATOM      1  C   UNL d   1       0.256  -2.342   1.871  0.00  0.00     0.124 A 
ATOM      2  C1  UNL d   1       0.738  -1.140   2.371  0.00  0.00     0.062 A 
ATOM      3  C2  UNL d   1       0.218  -0.613   3.549  0.00  0.00     0.162 A 
ATOM      4  C3  UNL d   1      -0.791  -1.288   4.237  0.00  0.00    -0.034 A 
ATOM      5  C4  UNL d   1      -1.271  -2.496   3.727  0.00  0.00     0.162 A 
ATOM      6  C5  UNL d   1      -0.748  -3.018   2.549  0.00  0.00     0.062 A 
ATOM      7  F   UNL d   1      -1.215  -4.179   2.067  0.00  0.00    -0.097 F 
ATOM      8  F1  UNL d   1      -2.240  -3.171   4.363  0.00  0.00    -0.096 F 
ATOM      9  I   UNL d   1      -1.572  -0.503   5.999  0.00  0.00    -0.060 I 
ATOM     10  F2  UNL d   1       0.703   0.550   4.009  0.00  0.00    -0.096 F 
ATOM     11  F3  UNL d   1       1.708  -0.484   1.717  0.00  0.00    -0.097 F 
ATOM     12  F4  UNL d   1       0.758  -2.846   0.736  0.00  0.00    -0.092 F 
ENDROOT
TORSDOF 0
ENDMDL
