MODEL 1
REMARK minimizedAffinity 7.76692343
REMARK minimizedRMSD -1
REMARK  0 active torsions:
REMARK  status: ('A' for Active; 'I' for Inactive)
ROOT
ATOM      1  C   UNL d   1       0.153  -2.447   1.910  0.00  0.00     0.124 A 
ATOM      2  C1  UNL d   1       0.753  -1.293   2.396  0.00  0.00     0.062 A 
ATOM      3  C2  UNL d   1       0.282  -0.699   3.564  0.00  0.00     0.162 A 
ATOM      4  C3  UNL d   1      -0.793  -1.258   4.254  0.00  0.00    -0.034 A 
ATOM      5  C4  UNL d   1      -1.392  -2.417   3.758  0.00  0.00     0.162 A 
ATOM      6  C5  UNL d   1      -0.918  -3.008   2.591  0.00  0.00     0.062 A 
ATOM      7  F   UNL d   1      -1.498  -4.122   2.122  0.00  0.00    -0.097 F 
ATOM      8  F1  UNL d   1      -2.428  -2.981   4.396  0.00  0.00    -0.096 F 
ATOM      9  I   UNL d   1      -1.500  -0.372   6.000  0.00  0.00    -0.060 I 
ATOM     10  F2  UNL d   1       0.881   0.415   4.011  0.00  0.00    -0.096 F 
ATOM     11  F3  UNL d   1       1.787  -0.749   1.740  0.00  0.00    -0.097 F 
ATOM     12  F4  UNL d   1       0.607  -3.016   0.786  0.00  0.00    -0.092 F 
ENDROOT
TORSDOF 0
ENDMDL
