MODEL 1
REMARK minimizedAffinity 10.4052601
REMARK minimizedRMSD -1
REMARK  0 active torsions:
REMARK  status: ('A' for Active; 'I' for Inactive)
ROOT
ATOM      1  C   UNL d   1      -1.479  -2.205   4.264  0.00  0.00     0.124 A 
ATOM      2  C1  UNL d   1      -0.771  -1.145   4.813  0.00  0.00     0.062 A 
ATOM      3  C2  UNL d   1       0.319  -0.606   4.137  0.00  0.00     0.162 A 
ATOM      4  C3  UNL d   1       0.708  -1.126   2.902  0.00  0.00    -0.034 A 
ATOM      5  C4  UNL d   1      -0.008  -2.193   2.357  0.00  0.00     0.162 A 
ATOM      6  C5  UNL d   1      -1.097  -2.728   3.037  0.00  0.00     0.062 A 
ATOM      7  F   UNL d   1      -1.779  -3.752   2.505  0.00  0.00    -0.097 F 
ATOM      8  F1  UNL d   1       0.339  -2.717   1.172  0.00  0.00    -0.096 F 
ATOM      9  I   UNL d   1       2.338  -0.323   1.887  0.00  0.00    -0.060 I 
ATOM     10  F2  UNL d   1       0.985   0.418   4.691  0.00  0.00    -0.096 F 
ATOM     11  F3  UNL d   1      -1.138  -0.638   5.999  0.00  0.00    -0.097 F 
ATOM     12  F4  UNL d   1      -2.527  -2.722   4.918  0.00  0.00    -0.092 F 
ENDROOT
TORSDOF 0
ENDMDL
