MODEL 1
REMARK minimizedAffinity 20.2775536
REMARK minimizedRMSD -1
REMARK  0 active torsions:
REMARK  status: ('A' for Active; 'I' for Inactive)
ROOT
ATOM      1  C   UNL d   1      -2.248   4.297  -2.270  0.00  0.00     0.124 A 
ATOM      2  C1  UNL d   1      -3.387   4.737  -1.610  0.00  0.00     0.062 A 
ATOM      3  C2  UNL d   1      -4.460   3.873  -1.412  0.00  0.00     0.162 A 
ATOM      4  C3  UNL d   1      -4.398   2.558  -1.874  0.00  0.00    -0.034 A 
ATOM      5  C4  UNL d   1      -3.250   2.122  -2.537  0.00  0.00     0.162 A 
ATOM      6  C5  UNL d   1      -2.180   2.990  -2.732  0.00  0.00     0.062 A 
ATOM      7  F   UNL d   1      -1.081   2.563  -3.370  0.00  0.00    -0.097 F 
ATOM      8  F1  UNL d   1      -3.157   0.864  -2.993  0.00  0.00    -0.096 F 
ATOM      9  I   UNL d   1      -6.000   1.262  -1.580  0.00  0.00    -0.060 I 
ATOM     10  F2  UNL d   1      -5.548   4.325  -0.772  0.00  0.00    -0.096 F 
ATOM     11  F3  UNL d   1      -3.455   6.000  -1.163  0.00  0.00    -0.097 F 
ATOM     12  F4  UNL d   1      -1.218   5.131  -2.460  0.00  0.00    -0.092 F 
ENDROOT
TORSDOF 0
ENDMDL
