MODEL 1
REMARK minimizedAffinity 19.998909
REMARK minimizedRMSD -1
REMARK  0 active torsions:
REMARK  status: ('A' for Active; 'I' for Inactive)
ROOT
ATOM      1  C   UNL d   1       0.324  -0.585   3.606  0.00  0.00     0.124 A 
ATOM      2  C1  UNL d   1      -0.862  -0.924   4.241  0.00  0.00     0.062 A 
ATOM      3  C2  UNL d   1      -1.782  -1.757   3.610  0.00  0.00     0.162 A 
ATOM      4  C3  UNL d   1      -1.517  -2.258   2.335  0.00  0.00    -0.034 A 
ATOM      5  C4  UNL d   1      -0.322  -1.912   1.702  0.00  0.00     0.162 A 
ATOM      6  C5  UNL d   1       0.594  -1.079   2.338  0.00  0.00     0.062 A 
ATOM      7  F   UNL d   1       1.740  -0.753   1.723  0.00  0.00    -0.097 F 
ATOM      8  F1  UNL d   1      -0.036  -2.376   0.477  0.00  0.00    -0.096 F 
ATOM      9  I   UNL d   1      -2.889  -3.503   1.387  0.00  0.00    -0.060 I 
ATOM     10  F2  UNL d   1      -2.920  -2.067   4.247  0.00  0.00    -0.096 F 
ATOM     11  F3  UNL d   1      -1.125  -0.447   5.467  0.00  0.00    -0.097 F 
ATOM     12  F4  UNL d   1       1.206   0.217   4.216  0.00  0.00    -0.092 F 
ENDROOT
TORSDOF 0
ENDMDL
