MODEL 1
REMARK minimizedAffinity 19.6794567
REMARK minimizedRMSD -1
REMARK  0 active torsions:
REMARK  status: ('A' for Active; 'I' for Inactive)
ROOT
ATOM      1  C   UNL d   1      -1.786  -2.233   3.935  0.00  0.00     0.124 A 
ATOM      2  C1  UNL d   1      -1.448  -2.475   2.611  0.00  0.00     0.062 A 
ATOM      3  C2  UNL d   1      -0.301  -1.906   2.066  0.00  0.00     0.162 A 
ATOM      4  C3  UNL d   1       0.518  -1.088   2.845  0.00  0.00    -0.034 A 
ATOM      5  C4  UNL d   1       0.171  -0.848   4.176  0.00  0.00     0.162 A 
ATOM      6  C5  UNL d   1      -0.977  -1.420   4.716  0.00  0.00     0.062 A 
ATOM      7  F   UNL d   1      -1.302  -1.184   5.996  0.00  0.00    -0.097 F 
ATOM      8  F1  UNL d   1       0.935  -0.067   4.954  0.00  0.00    -0.096 F 
ATOM      9  I   UNL d   1       2.234  -0.234   2.034  0.00  0.00    -0.060 I 
ATOM     10  F2  UNL d   1       0.001  -2.157   0.783  0.00  0.00    -0.096 F 
ATOM     11  F3  UNL d   1      -2.229  -3.260   1.854  0.00  0.00    -0.097 F 
ATOM     12  F4  UNL d   1      -2.891  -2.781   4.457  0.00  0.00    -0.092 F 
ENDROOT
TORSDOF 0
ENDMDL
