MODEL 1
REMARK minimizedAffinity 39.271534
REMARK minimizedRMSD -1
REMARK  0 active torsions:
REMARK  status: ('A' for Active; 'I' for Inactive)
ROOT
ATOM      1  C   UNL d   1       1.263  -1.746   1.660  0.00  0.00     0.124 A 
ATOM      2  C1  UNL d   1       0.000  -1.170   1.690  0.00  0.00     0.062 A 
ATOM      3  C2  UNL d   1      -0.177   0.151   1.288  0.00  0.00     0.162 A 
ATOM      4  C3  UNL d   1       0.912   0.905   0.850  0.00  0.00    -0.034 A 
ATOM      5  C4  UNL d   1       2.179   0.319   0.823  0.00  0.00     0.162 A 
ATOM      6  C5  UNL d   1       2.350  -1.001   1.226  0.00  0.00     0.062 A 
ATOM      7  F   UNL d   1       3.571  -1.556   1.196  0.00  0.00    -0.097 F 
ATOM      8  F1  UNL d   1       3.247   1.016   0.408  0.00  0.00    -0.096 F 
ATOM      9  I   UNL d   1       0.651   2.880   0.248  0.00  0.00    -0.060 I 
ATOM     10  F2  UNL d   1      -1.408   0.681   1.328  0.00  0.00    -0.096 F 
ATOM     11  F3  UNL d   1      -1.052  -1.887   2.110  0.00  0.00    -0.097 F 
ATOM     12  F4  UNL d   1       1.430  -3.016   2.048  0.00  0.00    -0.092 F 
ENDROOT
TORSDOF 0
ENDMDL
