MODEL 1
REMARK minimizedAffinity 32.0805359
REMARK minimizedRMSD -1
REMARK  0 active torsions:
REMARK  status: ('A' for Active; 'I' for Inactive)
ROOT
ATOM      1  C   UNL d   1       0.038   2.407  -1.021  0.00  0.00     0.124 A 
ATOM      2  C1  UNL d   1      -0.667   2.123  -2.182  0.00  0.00     0.062 A 
ATOM      3  C2  UNL d   1      -1.013   3.147  -3.059  0.00  0.00     0.162 A 
ATOM      4  C3  UNL d   1      -0.652   4.465  -2.779  0.00  0.00    -0.034 A 
ATOM      5  C4  UNL d   1       0.056   4.743  -1.609  0.00  0.00     0.162 A 
ATOM      6  C5  UNL d   1       0.399   3.716  -0.736  0.00  0.00     0.062 A 
ATOM      7  F   UNL d   1       1.081   3.992   0.386  0.00  0.00    -0.097 F 
ATOM      8  F1  UNL d   1       0.419   5.999  -1.309  0.00  0.00    -0.096 F 
ATOM      9  I   UNL d   1      -1.167   5.999  -4.088  0.00  0.00    -0.060 I 
ATOM     10  F2  UNL d   1      -1.695   2.844  -4.174  0.00  0.00    -0.096 F 
ATOM     11  F3  UNL d   1      -1.018   0.859  -2.460  0.00  0.00    -0.097 F 
ATOM     12  F4  UNL d   1       0.369   1.419  -0.179  0.00  0.00    -0.092 F 
ENDROOT
TORSDOF 0
ENDMDL
