MODEL 1
REMARK minimizedAffinity 0.721900344
REMARK minimizedRMSD -1
REMARK  0 active torsions:
REMARK  status: ('A' for Active; 'I' for Inactive)
ROOT
ATOM      1  C4' PXY d   1       2.106   2.754   2.524  0.00  0.00     0.077 C 
ATOM      2  C1' PXY d   1       0.427   5.646  -2.191  0.00  0.00     0.077 C 
ATOM      3  C1  PXY d   1       0.855   4.884  -0.953  0.00  0.00    -0.082 A 
ATOM      4  C2  PXY d   1       1.959   5.238  -0.315  0.00  0.00     0.003 A 
ATOM      5  C3  PXY d   1       2.378   4.540   0.788  0.00  0.00     0.003 A 
ATOM      6  C4  PXY d   1       1.631   3.501   1.275  0.00  0.00    -0.082 A 
ATOM      7  C5  PXY d   1       0.497   3.140   0.637  0.00  0.00     0.003 A 
ATOM      8  C6  PXY d   1       0.111   3.836  -0.505  0.00  0.00     0.003 A 
ENDROOT
TORSDOF 0
ENDMDL
