MODEL 1
REMARK minimizedAffinity -3.5329504
REMARK minimizedRMSD -1
REMARK  0 active torsions:
REMARK  status: ('A' for Active; 'I' for Inactive)
ROOT
ATOM      1  C4' PXY d   1       1.022  -4.843  -0.986  0.00  0.00     0.077 C 
ATOM      2  C1' PXY d   1      -1.869  -4.878  -5.991  0.00  0.00     0.077 C 
ATOM      3  C1  PXY d   1      -1.119  -4.879  -4.674  0.00  0.00    -0.082 A 
ATOM      4  C2  PXY d   1      -0.481  -3.787  -4.284  0.00  0.00     0.003 A 
ATOM      5  C3  PXY d   1       0.230  -3.780  -3.112  0.00  0.00     0.003 A 
ATOM      6  C4  PXY d   1       0.243  -4.886  -2.303  0.00  0.00    -0.082 A 
ATOM      7  C5  PXY d   1      -0.414  -6.000  -2.689  0.00  0.00     0.003 A 
ATOM      8  C6  PXY d   1      -1.095  -6.000  -3.903  0.00  0.00     0.003 A 
ENDROOT
TORSDOF 0
ENDMDL
