MODEL 1
REMARK minimizedAffinity -1.51222789
REMARK minimizedRMSD -1
REMARK  0 active torsions:
REMARK  status: ('A' for Active; 'I' for Inactive)
ROOT
ATOM      1  C4' PXY d   1       0.449   0.714   1.502  0.00  0.00     0.077 C 
ATOM      2  C1' PXY d   1       0.545   5.594  -1.594  0.00  0.00     0.077 C 
ATOM      3  C1  PXY d   1       0.510   4.309  -0.790  0.00  0.00    -0.082 A 
ATOM      4  C2  PXY d   1       0.952   4.307   0.458  0.00  0.00     0.003 A 
ATOM      5  C3  PXY d   1       0.957   3.147   1.189  0.00  0.00     0.003 A 
ATOM      6  C4  PXY d   1       0.456   1.989   0.656  0.00  0.00    -0.082 A 
ATOM      7  C5  PXY d   1      -0.006   1.986  -0.612  0.00  0.00     0.003 A 
ATOM      8  C6  PXY d   1       0.036   3.165  -1.352  0.00  0.00     0.003 A 
ENDROOT
TORSDOF 0
ENDMDL
