MODEL 1
REMARK minimizedAffinity 2.37066078
REMARK minimizedRMSD -1
REMARK  0 active torsions:
REMARK  status: ('A' for Active; 'I' for Inactive)
ROOT
ATOM      1  C4' PXY d   1       2.464   2.806   3.356  0.00  0.00     0.077 C 
ATOM      2  C1' PXY d   1      -0.333   2.802  -1.702  0.00  0.00     0.077 C 
ATOM      3  C1  PXY d   1       0.390   2.797  -0.370  0.00  0.00    -0.082 A 
ATOM      4  C2  PXY d   1       1.325   3.702  -0.130  0.00  0.00     0.003 A 
ATOM      5  C3  PXY d   1       2.012   3.692   1.057  0.00  0.00     0.003 A 
ATOM      6  C4  PXY d   1       1.701   2.779   2.029  0.00  0.00    -0.082 A 
ATOM      7  C5  PXY d   1       0.741   1.860   1.796  0.00  0.00     0.003 A 
ATOM      8  C6  PXY d   1       0.084   1.861   0.569  0.00  0.00     0.003 A 
ENDROOT
TORSDOF 0
ENDMDL
