MODEL 1
REMARK minimizedAffinity 13.2731361
REMARK minimizedRMSD -1
REMARK  0 active torsions:
REMARK  status: ('A' for Active; 'I' for Inactive)
ROOT
ATOM      1  C4' PXY d   1       0.605   1.784   1.210  0.00  0.00     0.077 C 
ATOM      2  C1' PXY d   1       0.576   5.591  -3.140  0.00  0.00     0.077 C 
ATOM      3  C1  PXY d   1       0.577   4.584  -2.007  0.00  0.00    -0.082 A 
ATOM      4  C2  PXY d   1       0.769   4.998  -0.765  0.00  0.00     0.003 A 
ATOM      5  C3  PXY d   1       0.804   4.097   0.269  0.00  0.00     0.003 A 
ATOM      6  C4  PXY d   1       0.587   2.766   0.035  0.00  0.00    -0.082 A 
ATOM      7  C5  PXY d   1       0.379   2.337  -1.228  0.00  0.00     0.003 A 
ATOM      8  C6  PXY d   1       0.389   3.262  -2.268  0.00  0.00     0.003 A 
ENDROOT
TORSDOF 0
ENDMDL
