MODEL 1
REMARK minimizedAffinity 4.76518774
REMARK minimizedRMSD -1
REMARK  0 active torsions:
REMARK  status: ('A' for Active; 'I' for Inactive)
ROOT
ATOM      1  C4' PXY d   1       0.281   1.015   1.340  0.00  0.00     0.077 C 
ATOM      2  C1' PXY d   1       1.598  -4.598   0.916  0.00  0.00     0.077 C 
ATOM      3  C1  PXY d   1       1.265  -3.123   1.031  0.00  0.00    -0.082 A 
ATOM      4  C2  PXY d   1       0.015  -2.751   1.253  0.00  0.00     0.003 A 
ATOM      5  C3  PXY d   1      -0.309  -1.420   1.328  0.00  0.00     0.003 A 
ATOM      6  C4  PXY d   1       0.665  -0.463   1.226  0.00  0.00    -0.082 A 
ATOM      7  C5  PXY d   1       1.944  -0.836   1.010  0.00  0.00     0.003 A 
ATOM      8  C6  PXY d   1       2.246  -2.190   0.896  0.00  0.00     0.003 A 
ENDROOT
TORSDOF 0
ENDMDL
