MODEL 1
REMARK minimizedAffinity 9.27469063
REMARK minimizedRMSD -1
REMARK  0 active torsions:
REMARK  status: ('A' for Active; 'I' for Inactive)
ROOT
ATOM      1  C4' PXY d   1       0.280   1.859   1.935  0.00  0.00     0.077 C 
ATOM      2  C1' PXY d   1       0.502   5.188  -2.786  0.00  0.00     0.077 C 
ATOM      3  C1  PXY d   1       0.442   4.305  -1.555  0.00  0.00    -0.082 A 
ATOM      4  C2  PXY d   1       0.144   4.838  -0.381  0.00  0.00     0.003 A 
ATOM      5  C3  PXY d   1       0.116   4.059   0.747  0.00  0.00     0.003 A 
ATOM      6  C4  PXY d   1       0.343   2.711   0.665  0.00  0.00    -0.082 A 
ATOM      7  C5  PXY d   1       0.637   2.158  -0.531  0.00  0.00     0.003 A 
ATOM      8  C6  PXY d   1       0.701   2.973  -1.658  0.00  0.00     0.003 A 
ENDROOT
TORSDOF 0
ENDMDL
