MODEL 1
REMARK minimizedAffinity 3.12369704
REMARK minimizedRMSD -1
REMARK  0 active torsions:
REMARK  status: ('A' for Active; 'I' for Inactive)
ROOT
ATOM      1  C4' PXY d   1      -0.014  -0.748   3.061  0.00  0.00     0.077 C 
ATOM      2  C1' PXY d   1      -0.226   3.262  -1.097  0.00  0.00     0.077 C 
ATOM      3  C1  PXY d   1      -0.183   2.214  -0.003  0.00  0.00    -0.082 A 
ATOM      4  C2  PXY d   1       0.984   1.821   0.481  0.00  0.00     0.003 A 
ATOM      5  C3  PXY d   1       1.043   0.851   1.448  0.00  0.00     0.003 A 
ATOM      6  C4  PXY d   1      -0.107   0.315   1.963  0.00  0.00    -0.082 A 
ATOM      7  C5  PXY d   1      -1.302   0.718   1.482  0.00  0.00     0.003 A 
ATOM      8  C6  PXY d   1      -1.339   1.674   0.472  0.00  0.00     0.003 A 
ENDROOT
TORSDOF 0
ENDMDL
