MODEL 1
REMARK minimizedAffinity 1.84295487
REMARK minimizedRMSD -1
REMARK  0 active torsions:
REMARK  status: ('A' for Active; 'I' for Inactive)
ROOT
ATOM      1  C4' PXY d   1      -0.005   1.021   1.113  0.00  0.00     0.077 C 
ATOM      2  C1' PXY d   1       0.557   5.597  -2.373  0.00  0.00     0.077 C 
ATOM      3  C1  PXY d   1       0.399   4.393  -1.466  0.00  0.00    -0.082 A 
ATOM      4  C2  PXY d   1       0.922   4.417  -0.250  0.00  0.00     0.003 A 
ATOM      5  C3  PXY d   1       0.816   3.325   0.572  0.00  0.00     0.003 A 
ATOM      6  C4  PXY d   1       0.122   2.217   0.166  0.00  0.00    -0.082 A 
ATOM      7  C5  PXY d   1      -0.424   2.189  -1.069  0.00  0.00     0.003 A 
ATOM      8  C6  PXY d   1      -0.269   3.292  -1.903  0.00  0.00     0.003 A 
ENDROOT
TORSDOF 0
ENDMDL
