MODEL 1
REMARK minimizedAffinity -1.43574131
REMARK minimizedRMSD -1
REMARK  0 active torsions:
REMARK  status: ('A' for Active; 'I' for Inactive)
ROOT
ATOM      1  C4' PXY d   1       0.174   2.890  -0.636  0.00  0.00     0.077 C 
ATOM      2  C1' PXY d   1       0.721  -1.800   2.699  0.00  0.00     0.077 C 
ATOM      3  C1  PXY d   1       0.589  -0.566   1.828  0.00  0.00    -0.082 A 
ATOM      4  C2  PXY d   1      -0.613  -0.116   1.509  0.00  0.00     0.003 A 
ATOM      5  C3  PXY d   1      -0.750   0.980   0.696  0.00  0.00     0.003 A 
ATOM      6  C4  PXY d   1       0.355   1.653   0.249  0.00  0.00    -0.082 A 
ATOM      7  C5  PXY d   1       1.585   1.207   0.579  0.00  0.00     0.003 A 
ATOM      8  C6  PXY d   1       1.703   0.069   1.371  0.00  0.00     0.003 A 
ENDROOT
TORSDOF 0
ENDMDL
