MODEL 1
REMARK minimizedAffinity 2.69586062
REMARK minimizedRMSD -1
REMARK  1 active torsions:
REMARK  status: ('A' for Active; 'I' for Inactive)
REMARK    1  A    between atoms: C1_2  and  C2_3 
ROOT
ATOM      1  C2  UNL d   1      -2.699   0.192  -1.891  0.00  0.00    -0.076 A 
ATOM      2  C3  UNL d   1      -2.296  -0.032  -0.563  0.00  0.00     0.004 A 
ATOM      3  C4  UNL d   1      -2.465   0.948   0.413  0.00  0.00    -0.003 A 
ATOM      4  C5  UNL d   1      -3.041   2.168   0.078  0.00  0.00     0.000 A 
ATOM      5  C6  UNL d   1      -3.464   2.401  -1.230  0.00  0.00     0.000 A 
ATOM      6  C7  UNL d   1      -3.315   1.418  -2.223  0.00  0.00    -0.073 A 
ATOM      7  C8  UNL d   1      -3.783   1.725  -3.619  0.00  0.00     0.078 C 
ENDROOT
BRANCH   1   8
ATOM      8  C1  UNL d   1      -2.466  -0.897  -2.913  0.00  0.00     0.053 C 
ATOM      9  C   UNL d   1      -3.498  -2.011  -2.824  0.00  0.00     0.018 C 
ENDBRANCH   1   8
TORSDOF 1
ENDMDL
