MODEL 1
REMARK minimizedAffinity 6.63497734
REMARK minimizedRMSD -1
REMARK  1 active torsions:
REMARK  status: ('A' for Active; 'I' for Inactive)
REMARK    1  A    between atoms: C1_2  and  C2_3 
ROOT
ATOM      1  C2  UNL d   1       0.684  -2.189   1.320  0.00  0.00    -0.076 A 
ATOM      2  C3  UNL d   1       0.730  -3.577   1.099  0.00  0.00     0.004 A 
ATOM      3  C4  UNL d   1       1.549  -4.399   1.871  0.00  0.00    -0.003 A 
ATOM      4  C5  UNL d   1       2.334  -3.847   2.877  0.00  0.00     0.000 A 
ATOM      5  C6  UNL d   1       2.288  -2.475   3.122  0.00  0.00     0.000 A 
ATOM      6  C7  UNL d   1       1.456  -1.634   2.363  0.00  0.00    -0.073 A 
ATOM      7  C8  UNL d   1       1.449  -0.160   2.666  0.00  0.00     0.078 C 
ENDROOT
BRANCH   1   8
ATOM      8  C1  UNL d   1      -0.202  -1.344   0.433  0.00  0.00     0.053 C 
ATOM      9  C   UNL d   1      -1.384  -2.124  -0.123  0.00  0.00     0.018 C 
ENDBRANCH   1   8
TORSDOF 1
ENDMDL
