MODEL 1
REMARK minimizedAffinity 5.20081425
REMARK minimizedRMSD -1
REMARK  1 active torsions:
REMARK  status: ('A' for Active; 'I' for Inactive)
REMARK    1  A    between atoms: C1_2  and  C2_3 
ROOT
ATOM      1  C2  UNL d   1       3.083  -3.033   0.441  0.00  0.00    -0.076 A 
ATOM      2  C3  UNL d   1       2.955  -3.506   1.758  0.00  0.00     0.004 A 
ATOM      3  C4  UNL d   1       2.460  -2.685   2.770  0.00  0.00    -0.003 A 
ATOM      4  C5  UNL d   1       2.084  -1.378   2.481  0.00  0.00     0.000 A 
ATOM      5  C6  UNL d   1       2.188  -0.897   1.176  0.00  0.00     0.000 A 
ATOM      6  C7  UNL d   1       2.670  -1.717   0.141  0.00  0.00    -0.073 A 
ATOM      7  C8  UNL d   1       2.767  -1.145  -1.247  0.00  0.00     0.078 C 
ENDROOT
BRANCH   1   8
ATOM      8  C1  UNL d   1       3.652  -3.960  -0.609  0.00  0.00     0.053 C 
ATOM      9  C   UNL d   1       4.416  -5.128  -0.004  0.00  0.00     0.018 C 
ENDBRANCH   1   8
TORSDOF 1
ENDMDL
