MODEL 1
REMARK minimizedAffinity 8.63430405
REMARK minimizedRMSD -1
REMARK  1 active torsions:
REMARK  status: ('A' for Active; 'I' for Inactive)
REMARK    1  A    between atoms: C1_2  and  C2_3 
ROOT
ATOM      1  C2  UNL d   1      -1.890   2.570  -3.738  0.00  0.00    -0.077 A 
ATOM      2  C3  UNL d   1      -2.264   1.995  -4.960  0.00  0.00     0.002 A 
ATOM      3  C4  UNL d   1      -1.338   1.877  -5.999  0.00  0.00     0.002 A 
ATOM      4  C5  UNL d   1      -0.032   2.328  -5.824  0.00  0.00    -0.004 A 
ATOM      5  C6  UNL d   1       0.350   2.904  -4.613  0.00  0.00     0.002 A 
ATOM      6  C7  UNL d   1      -0.574   3.023  -3.574  0.00  0.00     0.002 A 
ENDROOT
BRANCH   1   7
ATOM      7  C1  UNL d   1      -2.873   2.654  -2.600  0.00  0.00     0.055 C 
ATOM      8  C   UNL d   1      -2.923   1.351  -1.815  0.00  0.00     0.019 C 
ENDBRANCH   1   7
TORSDOF 1
ENDMDL
