MODEL 1
REMARK minimizedAffinity 1.18304431
REMARK minimizedRMSD -1
REMARK  1 active torsions:
REMARK  status: ('A' for Active; 'I' for Inactive)
REMARK    1  A    between atoms: C1_2  and  C2_3 
ROOT
ATOM      1  C2  UNL d   1       4.442  -3.078   3.351  0.00  0.00    -0.077 A 
ATOM      2  C3  UNL d   1       4.518  -4.478   3.389  0.00  0.00     0.002 A 
ATOM      3  C4  UNL d   1       4.123  -5.236   2.285  0.00  0.00     0.002 A 
ATOM      4  C5  UNL d   1       3.654  -4.605   1.135  0.00  0.00    -0.004 A 
ATOM      5  C6  UNL d   1       3.573  -3.214   1.088  0.00  0.00     0.002 A 
ATOM      6  C7  UNL d   1       3.966  -2.454   2.191  0.00  0.00     0.002 A 
ENDROOT
BRANCH   1   7
ATOM      7  C1  UNL d   1       4.914  -2.256   4.521  0.00  0.00     0.055 C 
ATOM      8  C   UNL d   1       4.973  -3.088   5.794  0.00  0.00     0.019 C 
ENDBRANCH   1   7
TORSDOF 1
ENDMDL
