MODEL 1
REMARK minimizedAffinity 3.17109036
REMARK minimizedRMSD -1
REMARK  1 active torsions:
REMARK  status: ('A' for Active; 'I' for Inactive)
REMARK    1  A    between atoms: C1_2  and  C2_3 
ROOT
ATOM      1  C2  UNL d   1      -3.463   3.141  -4.788  0.00  0.00    -0.077 A 
ATOM      2  C3  UNL d   1      -4.097   4.390  -4.861  0.00  0.00     0.002 A 
ATOM      3  C4  UNL d   1      -5.349   4.512  -5.467  0.00  0.00     0.002 A 
ATOM      4  C5  UNL d   1      -5.980   3.389  -6.000  0.00  0.00    -0.004 A 
ATOM      5  C6  UNL d   1      -5.357   2.144  -5.934  0.00  0.00     0.002 A 
ATOM      6  C7  UNL d   1      -4.105   2.020  -5.330  0.00  0.00     0.002 A 
ENDROOT
BRANCH   1   7
ATOM      7  C1  UNL d   1      -2.135   2.999  -4.092  0.00  0.00     0.055 C 
ATOM      8  C   UNL d   1      -2.276   2.239  -2.780  0.00  0.00     0.019 C 
ENDBRANCH   1   7
TORSDOF 1
ENDMDL
