MODEL 1
REMARK minimizedAffinity 3.85403275
REMARK minimizedRMSD -1
REMARK  1 active torsions:
REMARK  status: ('A' for Active; 'I' for Inactive)
REMARK    1  A    between atoms: C1_2  and  C2_3 
ROOT
ATOM      1  C2  UNL d   1       3.635  -3.044   2.721  0.00  0.00    -0.077 A 
ATOM      2  C3  UNL d   1       3.549  -3.829   1.563  0.00  0.00     0.002 A 
ATOM      3  C4  UNL d   1       2.567  -3.571   0.605  0.00  0.00     0.002 A 
ATOM      4  C5  UNL d   1       1.666  -2.525   0.794  0.00  0.00    -0.004 A 
ATOM      5  C6  UNL d   1       1.741  -1.740   1.944  0.00  0.00     0.002 A 
ATOM      6  C7  UNL d   1       2.722  -1.998   2.902  0.00  0.00     0.002 A 
ENDROOT
BRANCH   1   7
ATOM      7  C1  UNL d   1       4.724  -3.290   3.732  0.00  0.00     0.055 C 
ATOM      8  C   UNL d   1       4.777  -2.180   4.771  0.00  0.00     0.019 C 
ENDBRANCH   1   7
TORSDOF 1
ENDMDL
