MODEL 1
REMARK minimizedAffinity 7.72180891
REMARK minimizedRMSD -1
REMARK  1 active torsions:
REMARK  status: ('A' for Active; 'I' for Inactive)
REMARK    1  A    between atoms: C1_2  and  C2_3 
ROOT
ATOM      1  C2  UNL d   1       4.670  -4.002   0.773  0.00  0.00    -0.077 A 
ATOM      2  C3  UNL d   1       4.625  -2.624   0.521  0.00  0.00     0.002 A 
ATOM      3  C4  UNL d   1       3.406  -1.943   0.535  0.00  0.00     0.002 A 
ATOM      4  C5  UNL d   1       2.225  -2.631   0.805  0.00  0.00    -0.004 A 
ATOM      5  C6  UNL d   1       2.259  -4.002   1.054  0.00  0.00     0.002 A 
ATOM      6  C7  UNL d   1       3.476  -4.685   1.039  0.00  0.00     0.002 A 
ENDROOT
BRANCH   1   7
ATOM      7  C1  UNL d   1       5.989  -4.730   0.806  0.00  0.00     0.055 C 
ATOM      8  C   UNL d   1       6.000  -5.902  -0.164  0.00  0.00     0.019 C 
ENDBRANCH   1   7
TORSDOF 1
ENDMDL
