MODEL 1
REMARK minimizedAffinity 0.471544445
REMARK minimizedRMSD -1
REMARK  1 active torsions:
REMARK  status: ('A' for Active; 'I' for Inactive)
REMARK    1  A    between atoms: C1_2  and  C2_3 
ROOT
ATOM      1  C2  UNL d   1       4.632  -3.721   3.022  0.00  0.00    -0.077 A 
ATOM      2  C3  UNL d   1       5.635  -3.657   2.044  0.00  0.00     0.002 A 
ATOM      3  C4  UNL d   1       5.323  -3.280   0.737  0.00  0.00     0.002 A 
ATOM      4  C5  UNL d   1       4.010  -2.960   0.397  0.00  0.00    -0.004 A 
ATOM      5  C6  UNL d   1       3.006  -3.022   1.362  0.00  0.00     0.002 A 
ATOM      6  C7  UNL d   1       3.316  -3.400   2.669  0.00  0.00     0.002 A 
ENDROOT
BRANCH   1   7
ATOM      7  C1  UNL d   1       4.975  -4.080   4.445  0.00  0.00     0.055 C 
ATOM      8  C   UNL d   1       5.242  -2.836   5.280  0.00  0.00     0.019 C 
ENDBRANCH   1   7
TORSDOF 1
ENDMDL
