MODEL 1
REMARK minimizedAffinity 7.45289564
REMARK minimizedRMSD -1
REMARK  1 active torsions:
REMARK  status: ('A' for Active; 'I' for Inactive)
REMARK    1  A    between atoms: C1_2  and  C2_3 
ROOT
ATOM      1  C2  UNL d   1       2.554   1.870  -4.477  0.00  0.00    -0.081 A 
ATOM      2  C3  UNL d   1       1.349   2.570  -4.340  0.00  0.00     0.006 A 
ATOM      3  C4  UNL d   1       0.637   2.525  -3.139  0.00  0.00     0.002 A 
ATOM      4  C5  UNL d   1       1.122   1.787  -2.053  0.00  0.00    -0.080 A 
ATOM      5  C6  UNL d   1       0.383   1.755  -0.749  0.00  0.00     0.076 C 
ATOM      6  C7  UNL d   1       2.317   1.074  -2.196  0.00  0.00     0.002 A 
ATOM      7  C8  UNL d   1       3.029   1.118  -3.397  0.00  0.00     0.006 A 
ENDROOT
BRANCH   1   8
ATOM      8  C1  UNL d   1       3.357   1.969  -5.749  0.00  0.00     0.054 C 
ATOM      9  C   UNL d   1       3.824   3.396  -6.000  0.00  0.00     0.018 C 
ENDBRANCH   1   8
TORSDOF 1
ENDMDL
