MODEL 1
REMARK minimizedAffinity 8.63229847
REMARK minimizedRMSD -1
REMARK  1 active torsions:
REMARK  status: ('A' for Active; 'I' for Inactive)
REMARK    1  A    between atoms: C1_2  and  C2_3 
ROOT
ATOM      1  C2  UNL d   1       5.599   4.222   0.811  0.00  0.00    -0.081 A 
ATOM      2  C3  UNL d   1       5.671   3.391   1.936  0.00  0.00     0.006 A 
ATOM      3  C4  UNL d   1       5.272   3.860   3.190  0.00  0.00     0.002 A 
ATOM      4  C5  UNL d   1       4.788   5.164   3.339  0.00  0.00    -0.080 A 
ATOM      5  C6  UNL d   1       4.328   5.670   4.673  0.00  0.00     0.076 C 
ATOM      6  C7  UNL d   1       4.732   6.000   2.218  0.00  0.00     0.002 A 
ATOM      7  C8  UNL d   1       5.131   5.532   0.964  0.00  0.00     0.006 A 
ENDROOT
BRANCH   1   8
ATOM      8  C1  UNL d   1       5.967   3.698  -0.554  0.00  0.00     0.054 C 
ATOM      9  C   UNL d   1       5.768   4.760  -1.626  0.00  0.00     0.018 C 
ENDBRANCH   1   8
TORSDOF 1
ENDMDL
