MODEL 1
REMARK minimizedAffinity 1.50125122
REMARK minimizedRMSD -1
REMARK  1 active torsions:
REMARK  status: ('A' for Active; 'I' for Inactive)
REMARK    1  A    between atoms: C1_2  and  C2_3 
ROOT
ATOM      1  C2  UNL d   1      -3.307   3.850  -5.976  0.00  0.00    -0.081 A 
ATOM      2  C3  UNL d   1      -2.242   2.941  -5.987  0.00  0.00     0.006 A 
ATOM      3  C4  UNL d   1      -0.922   3.397  -6.000  0.00  0.00     0.002 A 
ATOM      4  C5  UNL d   1      -0.644   4.768  -5.993  0.00  0.00    -0.080 A 
ATOM      5  C6  UNL d   1       0.769   5.271  -5.976  0.00  0.00     0.076 C 
ATOM      6  C7  UNL d   1      -1.708   5.677  -5.999  0.00  0.00     0.002 A 
ATOM      7  C8  UNL d   1      -3.028   5.221  -5.988  0.00  0.00     0.006 A 
ENDROOT
BRANCH   1   8
ATOM      8  C1  UNL d   1      -4.731   3.362  -5.897  0.00  0.00     0.054 C 
ATOM      9  C   UNL d   1      -5.718   4.516  -5.999  0.00  0.00     0.018 C 
ENDBRANCH   1   8
TORSDOF 1
ENDMDL
