MODEL 1
REMARK minimizedAffinity 4.67763853
REMARK minimizedRMSD -1
REMARK  1 active torsions:
REMARK  status: ('A' for Active; 'I' for Inactive)
REMARK    1  A    between atoms: C1_2  and  C2_3 
ROOT
ATOM      1  C2  UNL d   1       3.159   5.095  -5.931  0.00  0.00    -0.081 A 
ATOM      2  C3  UNL d   1       3.166   3.695  -5.881  0.00  0.00     0.006 A 
ATOM      3  C4  UNL d   1       1.965   2.981  -5.881  0.00  0.00     0.002 A 
ATOM      4  C5  UNL d   1       0.740   3.653  -5.940  0.00  0.00    -0.080 A 
ATOM      5  C6  UNL d   1      -0.555   2.897  -5.971  0.00  0.00     0.076 C 
ATOM      6  C7  UNL d   1       0.733   5.052  -5.973  0.00  0.00     0.002 A 
ATOM      7  C8  UNL d   1       1.932   5.766  -5.972  0.00  0.00     0.006 A 
ENDROOT
BRANCH   1   8
ATOM      8  C1  UNL d   1       4.453   5.865  -5.997  0.00  0.00     0.054 C 
ATOM      9  C   UNL d   1       5.646   4.972  -5.688  0.00  0.00     0.018 C 
ENDBRANCH   1   8
TORSDOF 1
ENDMDL
