MODEL 1
REMARK minimizedAffinity 5.72684097
REMARK minimizedRMSD -1
REMARK  1 active torsions:
REMARK  status: ('A' for Active; 'I' for Inactive)
REMARK    1  A    between atoms: C1_2  and  C2_3 
ROOT
ATOM      1  C2  UNL d   1      -1.984   5.277  -5.756  0.00  0.00    -0.081 A 
ATOM      2  C3  UNL d   1      -0.768   5.971  -5.792  0.00  0.00     0.006 A 
ATOM      3  C4  UNL d   1       0.440   5.289  -5.630  0.00  0.00     0.002 A 
ATOM      4  C5  UNL d   1       0.454   3.904  -5.438  0.00  0.00    -0.080 A 
ATOM      5  C6  UNL d   1       1.746   3.156  -5.293  0.00  0.00     0.076 C 
ATOM      6  C7  UNL d   1      -0.762   3.213  -5.385  0.00  0.00     0.002 A 
ATOM      7  C8  UNL d   1      -1.971   3.894  -5.546  0.00  0.00     0.006 A 
ENDROOT
BRANCH   1   8
ATOM      8  C1  UNL d   1      -3.286   6.000  -5.995  0.00  0.00     0.054 C 
ATOM      9  C   UNL d   1      -4.165   5.980  -4.753  0.00  0.00     0.018 C 
ENDBRANCH   1   8
TORSDOF 1
ENDMDL
