MODEL 1
REMARK minimizedAffinity 8.60213184
REMARK minimizedRMSD -1
REMARK  1 active torsions:
REMARK  status: ('A' for Active; 'I' for Inactive)
REMARK    1  A    between atoms: C1_2  and  C2_3 
ROOT
ATOM      1  C2  UNL d   1      -0.353  -4.037   3.060  0.00  0.00    -0.081 A 
ATOM      2  C3  UNL d   1      -0.717  -3.072   2.112  0.00  0.00     0.006 A 
ATOM      3  C4  UNL d   1      -1.867  -2.300   2.293  0.00  0.00     0.002 A 
ATOM      4  C5  UNL d   1      -2.668  -2.474   3.427  0.00  0.00    -0.080 A 
ATOM      5  C6  UNL d   1      -3.889  -1.631   3.648  0.00  0.00     0.076 C 
ATOM      6  C7  UNL d   1      -2.314  -3.450   4.365  0.00  0.00     0.002 A 
ATOM      7  C8  UNL d   1      -1.165  -4.222   4.185  0.00  0.00     0.006 A 
ENDROOT
BRANCH   1   8
ATOM      8  C1  UNL d   1       0.921  -4.826   2.901  0.00  0.00     0.054 C 
ATOM      9  C   UNL d   1       0.732  -5.994   1.944  0.00  0.00     0.018 C 
ENDBRANCH   1   8
TORSDOF 1
ENDMDL
