MODEL 1
REMARK minimizedAffinity 18.1005535
REMARK minimizedRMSD -1
REMARK  1 active torsions:
REMARK  status: ('A' for Active; 'I' for Inactive)
REMARK    1  A    between atoms: C1_2  and  C2_3 
ROOT
ATOM      1  C2  UNL d   1      -3.148  -2.831   0.585  0.00  0.00    -0.081 A 
ATOM      2  C3  UNL d   1      -4.093  -3.834   0.830  0.00  0.00     0.006 A 
ATOM      3  C4  UNL d   1      -4.301  -4.854  -0.101  0.00  0.00     0.002 A 
ATOM      4  C5  UNL d   1      -3.562  -4.893  -1.288  0.00  0.00    -0.080 A 
ATOM      5  C6  UNL d   1      -3.754  -6.000  -2.282  0.00  0.00     0.076 C 
ATOM      6  C7  UNL d   1      -2.630  -3.881  -1.542  0.00  0.00     0.002 A 
ATOM      7  C8  UNL d   1      -2.422  -2.861  -0.611  0.00  0.00     0.006 A 
ENDROOT
BRANCH   1   8
ATOM      8  C1  UNL d   1      -2.875  -1.765   1.616  0.00  0.00     0.054 C 
ATOM      9  C   UNL d   1      -3.343  -0.399   1.136  0.00  0.00     0.018 C 
ENDBRANCH   1   8
TORSDOF 1
ENDMDL
