MODEL 1
REMARK minimizedAffinity 9.80406189
REMARK minimizedRMSD -1
REMARK  1 active torsions:
REMARK  status: ('A' for Active; 'I' for Inactive)
REMARK    1  A    between atoms: C1_2  and  C2_3 
ROOT
ATOM      1  C2  UNL d   1       4.724   5.261   3.684  0.00  0.00    -0.081 A 
ATOM      2  C3  UNL d   1       5.677   5.994   2.967  0.00  0.00     0.006 A 
ATOM      3  C4  UNL d   1       5.992   5.649   1.650  0.00  0.00     0.002 A 
ATOM      4  C5  UNL d   1       5.354   4.572   1.027  0.00  0.00    -0.080 A 
ATOM      5  C6  UNL d   1       5.661   4.210  -0.396  0.00  0.00     0.076 C 
ATOM      6  C7  UNL d   1       4.414   3.829   1.749  0.00  0.00     0.002 A 
ATOM      7  C8  UNL d   1       4.100   4.173   3.065  0.00  0.00     0.006 A 
ENDROOT
BRANCH   1   8
ATOM      8  C1  UNL d   1       4.335   5.670   5.082  0.00  0.00     0.054 C 
ATOM      9  C   UNL d   1       5.560   5.997   5.923  0.00  0.00     0.018 C 
ENDBRANCH   1   8
TORSDOF 1
ENDMDL
