MODEL 1
REMARK minimizedAffinity 8.33280563
REMARK minimizedRMSD -1
REMARK  1 active torsions:
REMARK  status: ('A' for Active; 'I' for Inactive)
REMARK    1  A    between atoms: C1_2  and  C2_3 
ROOT
ATOM      1  C2  UNL d   1      -0.005   3.909  -4.632  0.00  0.00    -0.081 A 
ATOM      2  C3  UNL d   1       0.774   4.068  -3.479  0.00  0.00     0.006 A 
ATOM      3  C4  UNL d   1       1.511   2.997  -2.969  0.00  0.00     0.002 A 
ATOM      4  C5  UNL d   1       1.488   1.752  -3.606  0.00  0.00    -0.080 A 
ATOM      5  C6  UNL d   1       2.298   0.602  -3.087  0.00  0.00     0.076 C 
ATOM      6  C7  UNL d   1       0.696   1.588  -4.748  0.00  0.00     0.002 A 
ATOM      7  C8  UNL d   1      -0.041   2.659  -5.258  0.00  0.00     0.006 A 
ENDROOT
BRANCH   1   8
ATOM      8  C1  UNL d   1      -0.750   5.080  -5.221  0.00  0.00     0.054 C 
ATOM      9  C   UNL d   1       0.186   5.999  -5.992  0.00  0.00     0.018 C 
ENDBRANCH   1   8
TORSDOF 1
ENDMDL
