MODEL 1
REMARK minimizedAffinity 2.52506828
REMARK minimizedRMSD -1
REMARK  1 active torsions:
REMARK  status: ('A' for Active; 'I' for Inactive)
REMARK    1  A    between atoms: C1_2  and  C2_3 
ROOT
ATOM      1  C2  UNL d   1      -0.529   4.158  -5.931  0.00  0.00    -0.081 A 
ATOM      2  C3  UNL d   1       0.029   2.874  -5.941  0.00  0.00     0.006 A 
ATOM      3  C4  UNL d   1       1.415   2.705  -5.976  0.00  0.00     0.002 A 
ATOM      4  C5  UNL d   1       2.266   3.815  -5.993  0.00  0.00    -0.080 A 
ATOM      5  C6  UNL d   1       3.756   3.647  -5.999  0.00  0.00     0.076 C 
ATOM      6  C7  UNL d   1       1.708   5.098  -6.000  0.00  0.00     0.002 A 
ATOM      7  C8  UNL d   1       0.322   5.268  -5.966  0.00  0.00     0.006 A 
ENDROOT
BRANCH   1   8
ATOM      8  C1  UNL d   1      -2.022   4.344  -5.828  0.00  0.00     0.054 C 
ATOM      9  C   UNL d   1      -2.409   5.808  -5.987  0.00  0.00     0.018 C 
ENDBRANCH   1   8
TORSDOF 1
ENDMDL
