MODEL 1
REMARK minimizedAffinity 39.8440819
REMARK minimizedRMSD -1
REMARK  1 active torsions:
REMARK  status: ('A' for Active; 'I' for Inactive)
REMARK    1  A    between atoms: C1_2  and  C2_3 
ROOT
ATOM      1  C2  UNL d   1       0.533   1.549  -0.662  0.00  0.00    -0.081 A 
ATOM      2  C3  UNL d   1       0.583   2.867  -1.130  0.00  0.00     0.006 A 
ATOM      3  C4  UNL d   1       1.406   3.205  -2.207  0.00  0.00     0.002 A 
ATOM      4  C5  UNL d   1       2.186   2.230  -2.838  0.00  0.00    -0.080 A 
ATOM      5  C6  UNL d   1       3.051   2.574  -4.014  0.00  0.00     0.076 C 
ATOM      6  C7  UNL d   1       2.150   0.917  -2.358  0.00  0.00     0.002 A 
ATOM      7  C8  UNL d   1       1.328   0.578  -1.281  0.00  0.00     0.006 A 
ENDROOT
BRANCH   1   8
ATOM      8  C1  UNL d   1      -0.402   1.168   0.458  0.00  0.00     0.054 C 
ATOM      9  C   UNL d   1      -0.047   1.894   1.747  0.00  0.00     0.018 C 
ENDBRANCH   1   8
TORSDOF 1
ENDMDL
