MODEL 1
REMARK minimizedAffinity 13.8169851
REMARK minimizedRMSD -1
REMARK  1 active torsions:
REMARK  status: ('A' for Active; 'I' for Inactive)
REMARK    1  A    between atoms: C1_2  and  C2_3 
ROOT
ATOM      1  C2  UNL d   1       3.025   2.810  -5.694  0.00  0.00    -0.081 A 
ATOM      2  C3  UNL d   1       4.388   2.490  -5.689  0.00  0.00     0.006 A 
ATOM      3  C4  UNL d   1       5.352   3.496  -5.786  0.00  0.00     0.002 A 
ATOM      4  C5  UNL d   1       4.970   4.838  -5.879  0.00  0.00    -0.080 A 
ATOM      5  C6  UNL d   1       5.995   5.931  -5.952  0.00  0.00     0.076 C 
ATOM      6  C7  UNL d   1       3.608   5.157  -5.901  0.00  0.00     0.002 A 
ATOM      7  C8  UNL d   1       2.643   4.151  -5.806  0.00  0.00     0.006 A 
ENDROOT
BRANCH   1   8
ATOM      8  C1  UNL d   1       1.984   1.732  -5.525  0.00  0.00     0.054 C 
ATOM      9  C   UNL d   1       2.129   1.028  -4.184  0.00  0.00     0.018 C 
ENDBRANCH   1   8
TORSDOF 1
ENDMDL
