MODEL 1
REMARK minimizedAffinity 6.70302868
REMARK minimizedRMSD -1
REMARK  1 active torsions:
REMARK  status: ('A' for Active; 'I' for Inactive)
REMARK    1  A    between atoms: C1_2  and  C2_3 
ROOT
ATOM      1  C2  UNL d   1       1.073   1.907  -4.494  0.00  0.00    -0.081 A 
ATOM      2  C3  UNL d   1       1.272   2.991  -5.357  0.00  0.00     0.006 A 
ATOM      3  C4  UNL d   1       0.181   3.708  -5.857  0.00  0.00     0.002 A 
ATOM      4  C5  UNL d   1      -1.124   3.357  -5.495  0.00  0.00    -0.080 A 
ATOM      5  C6  UNL d   1      -2.302   4.136  -6.000  0.00  0.00     0.076 C 
ATOM      6  C7  UNL d   1      -1.323   2.263  -4.647  0.00  0.00     0.002 A 
ATOM      7  C8  UNL d   1      -0.233   1.546  -4.148  0.00  0.00     0.006 A 
ENDROOT
BRANCH   1   8
ATOM      8  C1  UNL d   1       2.250   1.173  -3.903  0.00  0.00     0.054 C 
ATOM      9  C   UNL d   1       2.375   1.440  -2.410  0.00  0.00     0.018 C 
ENDBRANCH   1   8
TORSDOF 1
ENDMDL
