MODEL 1
REMARK minimizedAffinity 11.3184023
REMARK minimizedRMSD -1
REMARK  1 active torsions:
REMARK  status: ('A' for Active; 'I' for Inactive)
REMARK    1  A    between atoms: C1_2  and  C2_3 
ROOT
ATOM      1  C2  UNL d   1       4.615   4.899   3.491  0.00  0.00    -0.081 A 
ATOM      2  C3  UNL d   1       5.267   5.994   2.911  0.00  0.00     0.006 A 
ATOM      3  C4  UNL d   1       5.569   5.996   1.547  0.00  0.00     0.002 A 
ATOM      4  C5  UNL d   1       5.217   4.909   0.740  0.00  0.00    -0.080 A 
ATOM      5  C6  UNL d   1       5.508   4.912  -0.732  0.00  0.00     0.076 C 
ATOM      6  C7  UNL d   1       4.581   3.808   1.323  0.00  0.00     0.002 A 
ATOM      7  C8  UNL d   1       4.280   3.805   2.687  0.00  0.00     0.006 A 
ENDROOT
BRANCH   1   8
ATOM      8  C1  UNL d   1       4.230   4.921   4.949  0.00  0.00     0.054 C 
ATOM      9  C   UNL d   1       5.008   5.985   5.710  0.00  0.00     0.018 C 
ENDBRANCH   1   8
TORSDOF 1
ENDMDL
