MODEL 1
REMARK minimizedAffinity 11.1333027
REMARK minimizedRMSD -1
REMARK  1 active torsions:
REMARK  status: ('A' for Active; 'I' for Inactive)
REMARK    1  A    between atoms: C1_2  and  C2_3 
ROOT
ATOM      1  C2  UNL d   1       0.334   4.771  -5.925  0.00  0.00    -0.081 A 
ATOM      2  C3  UNL d   1      -0.782   5.615  -5.960  0.00  0.00     0.006 A 
ATOM      3  C4  UNL d   1      -2.073   5.088  -5.870  0.00  0.00     0.002 A 
ATOM      4  C5  UNL d   1      -2.268   3.709  -5.735  0.00  0.00    -0.080 A 
ATOM      5  C6  UNL d   1      -3.647   3.133  -5.607  0.00  0.00     0.076 C 
ATOM      6  C7  UNL d   1      -1.154   2.864  -5.718  0.00  0.00     0.002 A 
ATOM      7  C8  UNL d   1       0.137   3.390  -5.808  0.00  0.00     0.006 A 
ENDROOT
BRANCH   1   8
ATOM      8  C1  UNL d   1       1.728   5.342  -5.957  0.00  0.00     0.054 C 
ATOM      9  C   UNL d   1       2.777   4.239  -5.997  0.00  0.00     0.018 C 
ENDBRANCH   1   8
TORSDOF 1
ENDMDL
