MODEL 1
REMARK minimizedAffinity -0.268081218
REMARK minimizedRMSD -1
REMARK  0 active torsions:
REMARK  status: ('A' for Active; 'I' for Inactive)
ROOT
ATOM      1  C   UNL d   1      -0.362  -0.806  -5.043  0.00  0.00     0.172 C 
ATOM      2  N   UNL d   1       0.576   0.066  -4.377  0.00  0.00    -0.070 N 
ATOM      3  C1  UNL d   1       1.858   0.321  -4.785  0.00  0.00    -0.004 A 
ATOM      4  C2  UNL d   1       2.420   1.200  -3.885  0.00  0.00    -0.047 A 
ATOM      5  C3  UNL d   1       1.443   1.483  -2.902  0.00  0.00    -0.047 A 
ATOM      6  C4  UNL d   1       0.311   0.768  -3.230  0.00  0.00    -0.004 A 
ENDROOT
TORSDOF 0
ENDMDL
