MODEL 1
REMARK minimizedAffinity -1.18369806
REMARK minimizedRMSD -1
REMARK  0 active torsions:
REMARK  status: ('A' for Active; 'I' for Inactive)
ROOT
ATOM      1  C   UNL d   1       0.427  -0.467  -1.184  0.00  0.00     0.172 C 
ATOM      2  N   UNL d   1       1.130   0.017  -2.348  0.00  0.00    -0.070 N 
ATOM      3  C1  UNL d   1       0.570   0.268  -3.572  0.00  0.00    -0.004 A 
ATOM      4  C2  UNL d   1       1.570   0.714  -4.410  0.00  0.00    -0.047 A 
ATOM      5  C3  UNL d   1       2.772   0.730  -3.664  0.00  0.00    -0.047 A 
ATOM      6  C4  UNL d   1       2.471   0.294  -2.391  0.00  0.00    -0.004 A 
ENDROOT
TORSDOF 0
ENDMDL
