MODEL 1
REMARK minimizedAffinity -1.94646847
REMARK minimizedRMSD -1
REMARK  0 active torsions:
REMARK  status: ('A' for Active; 'I' for Inactive)
ROOT
ATOM      1  C   UNL d   1       0.482  -0.819  -1.295  0.00  0.00     0.172 C 
ATOM      2  N   UNL d   1       0.431  -0.143  -0.020  0.00  0.00    -0.070 N 
ATOM      3  C1  UNL d   1       1.378  -0.224   0.965  0.00  0.00    -0.004 A 
ATOM      4  C2  UNL d   1       0.963   0.563   2.017  0.00  0.00    -0.047 A 
ATOM      5  C3  UNL d   1      -0.278   1.138   1.651  0.00  0.00    -0.047 A 
ATOM      6  C4  UNL d   1      -0.583   0.684   0.386  0.00  0.00    -0.004 A 
ENDROOT
TORSDOF 0
ENDMDL
