MODEL 1
REMARK minimizedAffinity -3.13942862
REMARK minimizedRMSD -1
REMARK  0 active torsions:
REMARK  status: ('A' for Active; 'I' for Inactive)
ROOT
ATOM      1  C   UNL d   1       1.085  -0.346  -0.662  0.00  0.00     0.172 C 
ATOM      2  N   UNL d   1       0.619   0.451   0.448  0.00  0.00    -0.070 N 
ATOM      3  C1  UNL d   1       1.409   1.017   1.412  0.00  0.00    -0.004 A 
ATOM      4  C2  UNL d   1       0.587   1.694   2.287  0.00  0.00    -0.047 A 
ATOM      5  C3  UNL d   1      -0.743   1.528   1.834  0.00  0.00    -0.047 A 
ATOM      6  C4  UNL d   1      -0.694   0.755   0.694  0.00  0.00    -0.004 A 
ENDROOT
TORSDOF 0
ENDMDL
