MODEL 1
REMARK minimizedAffinity -2.68990326
REMARK minimizedRMSD -1
REMARK  0 active torsions:
REMARK  status: ('A' for Active; 'I' for Inactive)
ROOT
ATOM      1  C   UNL d   1       0.553  -0.521  -0.472  0.00  0.00     0.172 C 
ATOM      2  N   UNL d   1      -0.058   0.212   0.612  0.00  0.00    -0.070 N 
ATOM      3  C1  UNL d   1      -1.378   0.151   0.973  0.00  0.00    -0.004 A 
ATOM      4  C2  UNL d   1      -1.561   0.993   2.049  0.00  0.00    -0.047 A 
ATOM      5  C3  UNL d   1      -0.308   1.582   2.343  0.00  0.00    -0.047 A 
ATOM      6  C4  UNL d   1       0.604   1.081   1.439  0.00  0.00    -0.004 A 
ENDROOT
TORSDOF 0
ENDMDL
