MODEL 1
REMARK minimizedAffinity -3.91487312
REMARK minimizedRMSD -1
REMARK  0 active torsions:
REMARK  status: ('A' for Active; 'I' for Inactive)
ROOT
ATOM      1  C   UNL d   1      -0.018  -1.371   4.006  0.00  0.00     0.172 C 
ATOM      2  N   UNL d   1      -0.000  -0.234   3.115  0.00  0.00    -0.070 N 
ATOM      3  C1  UNL d   1      -0.220   1.068   3.478  0.00  0.00    -0.004 A 
ATOM      4  C2  UNL d   1      -0.117   1.845   2.345  0.00  0.00    -0.047 A 
ATOM      5  C3  UNL d   1       0.174   0.980   1.263  0.00  0.00    -0.047 A 
ATOM      6  C4  UNL d   1       0.241  -0.301   1.768  0.00  0.00    -0.004 A 
ENDROOT
TORSDOF 0
ENDMDL
