MODEL 1
REMARK minimizedAffinity -1.86362696
REMARK minimizedRMSD -1
REMARK  0 active torsions:
REMARK  status: ('A' for Active; 'I' for Inactive)
ROOT
ATOM      1  C   UNL d   1      -1.094  -1.377  -0.787  0.00  0.00     0.172 C 
ATOM      2  N   UNL d   1      -0.409  -0.365  -0.019  0.00  0.00    -0.070 N 
ATOM      3  C1  UNL d   1      -0.188   0.927  -0.417  0.00  0.00    -0.004 A 
ATOM      4  C2  UNL d   1       0.495   1.569   0.593  0.00  0.00    -0.047 A 
ATOM      5  C3  UNL d   1       0.692   0.631   1.634  0.00  0.00    -0.047 A 
ATOM      6  C4  UNL d   1       0.123  -0.557   1.229  0.00  0.00    -0.004 A 
ENDROOT
TORSDOF 0
ENDMDL
