MODEL 1
REMARK minimizedAffinity 4.21253729
REMARK minimizedRMSD -1
REMARK  0 active torsions:
REMARK  status: ('A' for Active; 'I' for Inactive)
ROOT
ATOM      1  O1  BZF d   1       2.587  -0.591  -3.861  0.00  0.00    -0.204 OA
ATOM      2  C2  BZF d   1       2.685  -1.887  -3.391  0.00  0.00     0.174 A 
ATOM      3  C3  BZF d   1       3.793  -2.487  -3.872  0.00  0.00    -0.012 A 
ATOM      4  C3A BZF d   1       4.475  -1.475  -4.619  0.00  0.00    -0.107 A 
ATOM      5  C4  BZF d   1       5.645  -1.456  -5.323  0.00  0.00     0.055 A 
ATOM      6  C5  BZF d   1       5.990  -0.329  -6.000  0.00  0.00    -0.016 A 
ATOM      7  C6  BZF d   1       5.188   0.793  -5.999  0.00  0.00     0.022 A 
ATOM      8  C7  BZF d   1       4.020   0.823  -5.311  0.00  0.00     0.029 A 
ATOM      9  C7A BZF d   1       3.685  -0.303  -4.600  0.00  0.00     0.058 A 
ENDROOT
TORSDOF 0
ENDMDL
