MODEL 1
REMARK minimizedAffinity 14.538702
REMARK minimizedRMSD -1
REMARK  0 active torsions:
REMARK  status: ('A' for Active; 'I' for Inactive)
ROOT
ATOM      1  O1  BZF d   1      -0.945   1.881   0.997  0.00  0.00    -0.204 OA
ATOM      2  C2  BZF d   1      -2.157   1.327   0.634  0.00  0.00     0.174 A 
ATOM      3  C3  BZF d   1      -2.067  -0.016   0.559  0.00  0.00    -0.012 A 
ATOM      4  C3A BZF d   1      -0.737  -0.328   0.986  0.00  0.00    -0.107 A 
ATOM      5  C4  BZF d   1      -0.052  -1.499   1.143  0.00  0.00     0.055 A 
ATOM      6  C5  BZF d   1       1.256  -1.455   1.507  0.00  0.00    -0.016 A 
ATOM      7  C6  BZF d   1       1.912  -0.259   1.717  0.00  0.00     0.022 A 
ATOM      8  C7  BZF d   1       1.272   0.928   1.579  0.00  0.00     0.029 A 
ATOM      9  C7A BZF d   1      -0.059   0.886   1.243  0.00  0.00     0.058 A 
ENDROOT
TORSDOF 0
ENDMDL
