MODEL 1
REMARK minimizedAffinity 1.67800748
REMARK minimizedRMSD -1
REMARK  0 active torsions:
REMARK  status: ('A' for Active; 'I' for Inactive)
ROOT
ATOM      1  O1  BZF d   1       4.772  -1.927   2.624  0.00  0.00    -0.204 OA
ATOM      2  C2  BZF d   1       5.219  -2.476   3.810  0.00  0.00     0.174 A 
ATOM      3  C3  BZF d   1       4.185  -2.741   4.634  0.00  0.00    -0.012 A 
ATOM      4  C3A BZF d   1       3.011  -2.418   3.882  0.00  0.00    -0.107 A 
ATOM      5  C4  BZF d   1       1.675  -2.483   4.153  0.00  0.00     0.055 A 
ATOM      6  C5  BZF d   1       0.790  -2.023   3.229  0.00  0.00    -0.016 A 
ATOM      7  C6  BZF d   1       1.207  -1.488   2.028  0.00  0.00     0.022 A 
ATOM      8  C7  BZF d   1       2.523  -1.407   1.712  0.00  0.00     0.029 A 
ATOM      9  C7A BZF d   1       3.417  -1.901   2.630  0.00  0.00     0.058 A 
ENDROOT
TORSDOF 0
ENDMDL
