MODEL 1
REMARK minimizedAffinity 16.7375088
REMARK minimizedRMSD -1
REMARK  0 active torsions:
REMARK  status: ('A' for Active; 'I' for Inactive)
ROOT
ATOM      1  O1  BZF d   1       2.925  -0.701   1.269  0.00  0.00    -0.204 OA
ATOM      2  C2  BZF d   1       1.591  -0.722   1.626  0.00  0.00     0.174 A 
ATOM      3  C3  BZF d   1       0.803  -0.748   0.532  0.00  0.00    -0.012 A 
ATOM      4  C3A BZF d   1       1.702  -0.837  -0.577  0.00  0.00    -0.107 A 
ATOM      5  C4  BZF d   1       1.521  -0.913  -1.929  0.00  0.00     0.055 A 
ATOM      6  C5  BZF d   1       2.610  -0.914  -2.742  0.00  0.00    -0.016 A 
ATOM      7  C6  BZF d   1       3.892  -0.835  -2.239  0.00  0.00     0.022 A 
ATOM      8  C7  BZF d   1       4.122  -0.763  -0.905  0.00  0.00     0.029 A 
ATOM      9  C7A BZF d   1       3.025  -0.795  -0.079  0.00  0.00     0.058 A 
ENDROOT
TORSDOF 0
ENDMDL
