MODEL 1
REMARK minimizedAffinity 1.69530356
REMARK minimizedRMSD -1
REMARK  0 active torsions:
REMARK  status: ('A' for Active; 'I' for Inactive)
ROOT
ATOM      1  O1  BZF d   1       2.732  -0.242  -3.735  0.00  0.00    -0.204 OA
ATOM      2  C2  BZF d   1       3.013  -1.503  -3.245  0.00  0.00     0.174 A 
ATOM      3  C3  BZF d   1       4.173  -1.966  -3.754  0.00  0.00    -0.012 A 
ATOM      4  C3A BZF d   1       4.693  -0.893  -4.544  0.00  0.00    -0.107 A 
ATOM      5  C4  BZF d   1       5.826  -0.739  -5.290  0.00  0.00     0.055 A 
ATOM      6  C5  BZF d   1       6.000   0.407  -6.000  0.00  0.00    -0.016 A 
ATOM      7  C6  BZF d   1       5.059   1.415  -5.991  0.00  0.00     0.022 A 
ATOM      8  C7  BZF d   1       3.921   1.311  -5.263  0.00  0.00     0.029 A 
ATOM      9  C7A BZF d   1       3.758   0.168  -4.519  0.00  0.00     0.058 A 
ENDROOT
TORSDOF 0
ENDMDL
