MODEL 1
REMARK minimizedAffinity 19.2552681
REMARK minimizedRMSD -1
REMARK  0 active torsions:
REMARK  status: ('A' for Active; 'I' for Inactive)
ROOT
ATOM      1  O1  BZF d   1      -2.603   1.180  -2.894  0.00  0.00    -0.204 OA
ATOM      2  C2  BZF d   1      -2.200   1.189  -1.572  0.00  0.00     0.174 A 
ATOM      3  C3  BZF d   1      -3.043   1.925  -0.820  0.00  0.00    -0.012 A 
ATOM      4  C3A BZF d   1      -4.087   2.330  -1.712  0.00  0.00    -0.107 A 
ATOM      5  C4  BZF d   1      -5.225   3.068  -1.552  0.00  0.00     0.055 A 
ATOM      6  C5  BZF d   1      -5.992   3.342  -2.639  0.00  0.00    -0.016 A 
ATOM      7  C6  BZF d   1      -5.650   2.900  -3.900  0.00  0.00     0.022 A 
ATOM      8  C7  BZF d   1      -4.533   2.160  -4.108  0.00  0.00     0.029 A 
ATOM      9  C7A BZF d   1      -3.773   1.853  -3.006  0.00  0.00     0.058 A 
ENDROOT
TORSDOF 0
ENDMDL
