MODEL 1
REMARK minimizedAffinity 8.70458603
REMARK minimizedRMSD -1
REMARK  0 active torsions:
REMARK  status: ('A' for Active; 'I' for Inactive)
ROOT
ATOM      1  O1  BZF d   1      -5.940  -4.930  -5.981  0.00  0.00    -0.204 OA
ATOM      2  C2  BZF d   1      -5.066  -5.999  -5.989  0.00  0.00     0.174 A 
ATOM      3  C3  BZF d   1      -3.807  -5.591  -5.731  0.00  0.00    -0.012 A 
ATOM      4  C3A BZF d   1      -3.914  -4.190  -5.458  0.00  0.00    -0.107 A 
ATOM      5  C4  BZF d   1      -3.007  -3.227  -5.120  0.00  0.00     0.055 A 
ATOM      6  C5  BZF d   1      -3.425  -1.940  -4.996  0.00  0.00    -0.016 A 
ATOM      7  C6  BZF d   1      -4.740  -1.580  -5.208  0.00  0.00     0.022 A 
ATOM      8  C7  BZF d   1      -5.677  -2.501  -5.541  0.00  0.00     0.029 A 
ATOM      9  C7A BZF d   1      -5.264  -3.808  -5.634  0.00  0.00     0.058 A 
ENDROOT
TORSDOF 0
ENDMDL
