MODEL 1
REMARK minimizedAffinity 20.5759659
REMARK minimizedRMSD -1
REMARK  0 active torsions:
REMARK  status: ('A' for Active; 'I' for Inactive)
ROOT
ATOM      1  C4' PXY d   1       5.027  -2.217  -0.250  0.00  0.00     0.077 C 
ATOM      2  C1' PXY d   1       2.432   2.780  -1.557  0.00  0.00     0.077 C 
ATOM      3  C1  PXY d   1       3.124   1.475  -1.215  0.00  0.00    -0.082 A 
ATOM      4  C2  PXY d   1       2.517   0.327  -1.466  0.00  0.00     0.003 A 
ATOM      5  C3  PXY d   1       3.115  -0.861  -1.134  0.00  0.00     0.003 A 
ATOM      6  C4  PXY d   1       4.370  -0.876  -0.588  0.00  0.00    -0.082 A 
ATOM      7  C5  PXY d   1       5.001   0.291  -0.338  0.00  0.00     0.003 A 
ATOM      8  C6  PXY d   1       4.360   1.487  -0.645  0.00  0.00     0.003 A 
ENDROOT
TORSDOF 0
ENDMDL
