MODEL 1
REMARK minimizedAffinity 3.01159191
REMARK minimizedRMSD -1
REMARK  0 active torsions:
REMARK  status: ('A' for Active; 'I' for Inactive)
ROOT
ATOM      1  C4' PXY d   1      -6.000  -5.253   1.071  0.00  0.00     0.077 C 
ATOM      2  C1' PXY d   1      -4.009  -2.294   5.620  0.00  0.00     0.077 C 
ATOM      3  C1  PXY d   1      -4.520  -3.076   4.426  0.00  0.00    -0.082 A 
ATOM      4  C2  PXY d   1      -5.503  -2.581   3.692  0.00  0.00     0.003 A 
ATOM      5  C3  PXY d   1      -5.998  -3.290   2.628  0.00  0.00     0.003 A 
ATOM      6  C4  PXY d   1      -5.446  -4.493   2.280  0.00  0.00    -0.082 A 
ATOM      7  C5  PXY d   1      -4.436  -5.001   3.018  0.00  0.00     0.003 A 
ATOM      8  C6  PXY d   1      -3.975  -4.285   4.119  0.00  0.00     0.003 A 
ENDROOT
TORSDOF 0
ENDMDL
