MODEL 1
REMARK minimizedAffinity 7.79674196
REMARK minimizedRMSD -1
REMARK  0 active torsions:
REMARK  status: ('A' for Active; 'I' for Inactive)
ROOT
ATOM      1  C4' PXY d   1       1.131   0.725  -3.479  0.00  0.00     0.077 C 
ATOM      2  C1' PXY d   1       3.684  -3.032   0.097  0.00  0.00     0.077 C 
ATOM      3  C1  PXY d   1       3.013  -2.038  -0.831  0.00  0.00    -0.082 A 
ATOM      4  C2  PXY d   1       2.454  -2.464  -1.952  0.00  0.00     0.003 A 
ATOM      5  C3  PXY d   1       1.871  -1.576  -2.818  0.00  0.00     0.003 A 
ATOM      6  C4  PXY d   1       1.812  -0.243  -2.508  0.00  0.00    -0.082 A 
ATOM      7  C5  PXY d   1       2.370   0.198  -1.361  0.00  0.00     0.003 A 
ATOM      8  C6  PXY d   1       2.994  -0.715  -0.515  0.00  0.00     0.003 A 
ENDROOT
TORSDOF 0
ENDMDL
