MODEL 1
REMARK minimizedAffinity 0.369476527
REMARK minimizedRMSD -1
REMARK  0 active torsions:
REMARK  status: ('A' for Active; 'I' for Inactive)
ROOT
ATOM      1  C4' PXY d   1       3.047  -2.515   0.220  0.00  0.00     0.077 C 
ATOM      2  C1' PXY d   1       2.898  -5.660  -4.628  0.00  0.00     0.077 C 
ATOM      3  C1  PXY d   1       2.933  -4.825  -3.363  0.00  0.00    -0.082 A 
ATOM      4  C2  PXY d   1       3.768  -5.147  -2.389  0.00  0.00     0.003 A 
ATOM      5  C3  PXY d   1       3.790  -4.422  -1.225  0.00  0.00     0.003 A 
ATOM      6  C4  PXY d   1       2.985  -3.324  -1.079  0.00  0.00    -0.082 A 
ATOM      7  C5  PXY d   1       2.138  -2.983  -2.072  0.00  0.00     0.003 A 
ATOM      8  C6  PXY d   1       2.102  -3.756  -3.229  0.00  0.00     0.003 A 
ENDROOT
TORSDOF 0
ENDMDL
