MODEL 1
REMARK minimizedAffinity 3.28052568
REMARK minimizedRMSD -1
REMARK  0 active torsions:
REMARK  status: ('A' for Active; 'I' for Inactive)
ROOT
ATOM      1  C4' PXY d   1       3.168  -4.854  -3.422  0.00  0.00     0.077 C 
ATOM      2  C1' PXY d   1       0.880  -1.156   0.386  0.00  0.00     0.077 C 
ATOM      3  C1  PXY d   1       1.470  -2.123  -0.621  0.00  0.00    -0.082 A 
ATOM      4  C2  PXY d   1       2.298  -3.070  -0.210  0.00  0.00     0.003 A 
ATOM      5  C3  PXY d   1       2.866  -3.934  -1.111  0.00  0.00     0.003 A 
ATOM      6  C4  PXY d   1       2.541  -3.861  -2.439  0.00  0.00    -0.082 A 
ATOM      7  C5  PXY d   1       1.688  -2.905  -2.865  0.00  0.00     0.003 A 
ATOM      8  C6  PXY d   1       1.155  -2.012  -1.940  0.00  0.00     0.003 A 
ENDROOT
TORSDOF 0
ENDMDL
