MODEL 1
REMARK minimizedAffinity 0.341551274
REMARK minimizedRMSD -1
REMARK  0 active torsions:
REMARK  status: ('A' for Active; 'I' for Inactive)
ROOT
ATOM      1  C4' PXY d   1      -4.863   2.963   5.144  0.00  0.00     0.077 C 
ATOM      2  C1' PXY d   1       0.744   1.723   4.486  0.00  0.00     0.077 C 
ATOM      3  C1  PXY d   1      -0.726   2.056   4.648  0.00  0.00    -0.082 A 
ATOM      4  C2  PXY d   1      -1.291   1.958   5.840  0.00  0.00     0.003 A 
ATOM      5  C3  PXY d   1      -2.627   2.224   5.999  0.00  0.00     0.003 A 
ATOM      6  C4  PXY d   1      -3.380   2.646   4.936  0.00  0.00    -0.082 A 
ATOM      7  C5  PXY d   1      -2.808   2.759   3.718  0.00  0.00     0.003 A 
ATOM      8  C6  PXY d   1      -1.460   2.444   3.570  0.00  0.00     0.003 A 
ENDROOT
TORSDOF 0
ENDMDL
