MODEL 1
REMARK minimizedAffinity 2.59365678
REMARK minimizedRMSD -1
REMARK  0 active torsions:
REMARK  status: ('A' for Active; 'I' for Inactive)
ROOT
ATOM      1  C4' PXY d   1       3.897  -4.018   0.372  0.00  0.00     0.077 C 
ATOM      2  C1' PXY d   1       2.034  -4.371  -5.089  0.00  0.00     0.077 C 
ATOM      3  C1  PXY d   1       2.521  -4.265  -3.657  0.00  0.00    -0.082 A 
ATOM      4  C2  PXY d   1       3.251  -5.240  -3.141  0.00  0.00     0.003 A 
ATOM      5  C3  PXY d   1       3.674  -5.176  -1.838  0.00  0.00     0.003 A 
ATOM      6  C4  PXY d   1       3.391  -4.077  -1.072  0.00  0.00    -0.082 A 
ATOM      7  C5  PXY d   1       2.656  -3.073  -1.594  0.00  0.00     0.003 A 
ATOM      8  C6  PXY d   1       2.201  -3.176  -2.906  0.00  0.00     0.003 A 
ENDROOT
TORSDOF 0
ENDMDL
