MODEL 1
REMARK minimizedAffinity -0.493346602
REMARK minimizedRMSD -1
REMARK  0 active torsions:
REMARK  status: ('A' for Active; 'I' for Inactive)
ROOT
ATOM      1  C4' PXY d   1       3.414  -4.380   0.073  0.00  0.00     0.077 C 
ATOM      2  C1' PXY d   1       2.421  -2.742  -5.381  0.00  0.00     0.077 C 
ATOM      3  C1  PXY d   1       2.675  -3.161  -3.947  0.00  0.00    -0.082 A 
ATOM      4  C2  PXY d   1       3.694  -3.958  -3.669  0.00  0.00     0.003 A 
ATOM      5  C3  PXY d   1       3.919  -4.373  -2.381  0.00  0.00     0.003 A 
ATOM      6  C4  PXY d   1       3.125  -3.924  -1.360  0.00  0.00    -0.082 A 
ATOM      7  C5  PXY d   1       2.090  -3.102  -1.634  0.00  0.00     0.003 A 
ATOM      8  C6  PXY d   1       1.854  -2.726  -2.953  0.00  0.00     0.003 A 
ENDROOT
TORSDOF 0
ENDMDL
