MODEL 1
REMARK minimizedAffinity 6.38489819
REMARK minimizedRMSD -1
REMARK  0 active torsions:
REMARK  status: ('A' for Active; 'I' for Inactive)
ROOT
ATOM      1  C4' PXY d   1       0.748   0.753   4.773  0.00  0.00     0.077 C 
ATOM      2  C1' PXY d   1      -4.713   2.647   4.828  0.00  0.00     0.077 C 
ATOM      3  C1  PXY d   1      -3.279   2.156   4.825  0.00  0.00    -0.082 A 
ATOM      4  C2  PXY d   1      -2.682   1.887   3.675  0.00  0.00     0.003 A 
ATOM      5  C3  PXY d   1      -1.396   1.412   3.656  0.00  0.00     0.003 A 
ATOM      6  C4  PXY d   1      -0.696   1.260   4.823  0.00  0.00    -0.082 A 
ATOM      7  C5  PXY d   1      -1.295   1.542   6.000  0.00  0.00     0.003 A 
ATOM      8  C6  PXY d   1      -2.614   1.984   6.000  0.00  0.00     0.003 A 
ENDROOT
TORSDOF 0
ENDMDL
