MODEL 1
REMARK minimizedAffinity 11.9699812
REMARK minimizedRMSD -1
REMARK  0 active torsions:
REMARK  status: ('A' for Active; 'I' for Inactive)
ROOT
ATOM      1  C4' PXY d   1      -4.093   2.542   4.867  0.00  0.00     0.077 C 
ATOM      2  C1' PXY d   1       0.887   0.944   2.406  0.00  0.00     0.077 C 
ATOM      3  C1  PXY d   1      -0.424   1.364   3.039  0.00  0.00    -0.082 A 
ATOM      4  C2  PXY d   1      -0.425   1.887   4.255  0.00  0.00     0.003 A 
ATOM      5  C3  PXY d   1      -1.605   2.243   4.855  0.00  0.00     0.003 A 
ATOM      6  C4  PXY d   1      -2.792   2.112   4.184  0.00  0.00    -0.082 A 
ATOM      7  C5  PXY d   1      -2.797   1.590   2.939  0.00  0.00     0.003 A 
ATOM      8  C6  PXY d   1      -1.593   1.197   2.363  0.00  0.00     0.003 A 
ENDROOT
TORSDOF 0
ENDMDL
