MODEL 1
REMARK minimizedAffinity 8.57238388
REMARK minimizedRMSD -1
REMARK  0 active torsions:
REMARK  status: ('A' for Active; 'I' for Inactive)
ROOT
ATOM      1  C4' PXY d   1       5.224  -5.051  -0.316  0.00  0.00     0.077 C 
ATOM      2  C1' PXY d   1       1.691  -3.854  -4.732  0.00  0.00     0.077 C 
ATOM      3  C1  PXY d   1       2.623  -4.178  -3.581  0.00  0.00    -0.082 A 
ATOM      4  C2  PXY d   1       2.287  -3.830  -2.350  0.00  0.00     0.003 A 
ATOM      5  C3  PXY d   1       3.132  -4.086  -1.301  0.00  0.00     0.003 A 
ATOM      6  C4  PXY d   1       4.310  -4.753  -1.508  0.00  0.00    -0.082 A 
ATOM      7  C5  PXY d   1       4.655  -5.121  -2.760  0.00  0.00     0.003 A 
ATOM      8  C6  PXY d   1       3.802  -4.815  -3.816  0.00  0.00     0.003 A 
ENDROOT
TORSDOF 0
ENDMDL
