MODEL 1
REMARK minimizedAffinity 13.8379002
REMARK minimizedRMSD -1
REMARK  0 active torsions:
REMARK  status: ('A' for Active; 'I' for Inactive)
ROOT
ATOM      1  C4' PXY d   1      -2.751   1.060   6.000  0.00  0.00     0.077 C 
ATOM      2  C1' PXY d   1      -5.094  -2.816   2.408  0.00  0.00     0.077 C 
ATOM      3  C1  PXY d   1      -4.476  -1.792   3.340  0.00  0.00    -0.082 A 
ATOM      4  C2  PXY d   1      -4.116  -2.152   4.561  0.00  0.00     0.003 A 
ATOM      5  C3  PXY d   1      -3.585  -1.232   5.427  0.00  0.00     0.003 A 
ATOM      6  C4  PXY d   1      -3.370   0.058   5.022  0.00  0.00    -0.082 A 
ATOM      7  C5  PXY d   1      -3.724   0.431   3.774  0.00  0.00     0.003 A 
ATOM      8  C6  PXY d   1      -4.300  -0.509   2.923  0.00  0.00     0.003 A 
ENDROOT
TORSDOF 0
ENDMDL
