MODEL 1
REMARK minimizedAffinity 16.1511822
REMARK minimizedRMSD -1
REMARK  0 active torsions:
REMARK  status: ('A' for Active; 'I' for Inactive)
ROOT
ATOM      1  C4' PXY d   1      -5.676   4.898  -5.982  0.00  0.00     0.077 C 
ATOM      2  C1' PXY d   1      -0.941   1.851  -4.677  0.00  0.00     0.077 C 
ATOM      3  C1  PXY d   1      -2.186   2.642  -5.029  0.00  0.00    -0.082 A 
ATOM      4  C2  PXY d   1      -2.260   3.922  -4.704  0.00  0.00     0.003 A 
ATOM      5  C3  PXY d   1      -3.391   4.644  -4.987  0.00  0.00     0.003 A 
ATOM      6  C4  PXY d   1      -4.435   4.063  -5.655  0.00  0.00    -0.082 A 
ATOM      7  C5  PXY d   1      -4.362   2.760  -5.999  0.00  0.00     0.003 A 
ATOM      8  C6  PXY d   1      -3.222   2.034  -5.667  0.00  0.00     0.003 A 
ENDROOT
TORSDOF 0
ENDMDL
