MODEL 1
REMARK minimizedAffinity 19.505209
REMARK minimizedRMSD -1
REMARK  0 active torsions:
REMARK  status: ('A' for Active; 'I' for Inactive)
ROOT
ATOM      1  C4' PXY d   1       1.422  -0.921  -4.449  0.00  0.00     0.077 C 
ATOM      2  C1' PXY d   1       3.546   1.388   0.407  0.00  0.00     0.077 C 
ATOM      3  C1  PXY d   1       2.980   0.792  -0.867  0.00  0.00    -0.082 A 
ATOM      4  C2  PXY d   1       3.139  -0.498  -1.113  0.00  0.00     0.003 A 
ATOM      5  C3  PXY d   1       2.662  -1.047  -2.275  0.00  0.00     0.003 A 
ATOM      6  C4  PXY d   1       1.968  -0.278  -3.171  0.00  0.00    -0.082 A 
ATOM      7  C5  PXY d   1       1.793   1.037  -2.923  0.00  0.00     0.003 A 
ATOM      8  C6  PXY d   1       2.321   1.584  -1.757  0.00  0.00     0.003 A 
ENDROOT
TORSDOF 0
ENDMDL
