MODEL 1
REMARK minimizedAffinity 16.6235237
REMARK minimizedRMSD -1
REMARK  0 active torsions:
REMARK  status: ('A' for Active; 'I' for Inactive)
ROOT
ATOM      1  C4' PXY d   1       1.804   0.839  -0.003  0.00  0.00     0.077 C 
ATOM      2  C1' PXY d   1       0.739   1.909   5.577  0.00  0.00     0.077 C 
ATOM      3  C1  PXY d   1       1.029   1.636   4.115  0.00  0.00    -0.082 A 
ATOM      4  C2  PXY d   1       0.041   1.288   3.306  0.00  0.00     0.003 A 
ATOM      5  C3  PXY d   1       0.291   1.007   1.987  0.00  0.00     0.003 A 
ATOM      6  C4  PXY d   1       1.556   1.134   1.479  0.00  0.00    -0.082 A 
ATOM      7  C5  PXY d   1       2.567   1.498   2.296  0.00  0.00     0.003 A 
ATOM      8  C6  PXY d   1       2.300   1.740   3.640  0.00  0.00     0.003 A 
ENDROOT
TORSDOF 0
ENDMDL
