MODEL 1
REMARK minimizedAffinity 15.8170462
REMARK minimizedRMSD -1
REMARK  0 active torsions:
REMARK  status: ('A' for Active; 'I' for Inactive)
ROOT
ATOM      1  C4' PXY d   1      -0.498   0.931   3.754  0.00  0.00     0.077 C 
ATOM      2  C1' PXY d   1      -5.999   2.470   4.639  0.00  0.00     0.077 C 
ATOM      3  C1  PXY d   1      -4.553   2.074   4.417  0.00  0.00    -0.082 A 
ATOM      4  C2  PXY d   1      -4.160   1.676   3.218  0.00  0.00     0.003 A 
ATOM      5  C3  PXY d   1      -2.863   1.283   3.007  0.00  0.00     0.003 A 
ATOM      6  C4  PXY d   1      -1.946   1.349   4.022  0.00  0.00    -0.082 A 
ATOM      7  C5  PXY d   1      -2.337   1.764   5.245  0.00  0.00     0.003 A 
ATOM      8  C6  PXY d   1      -3.667   2.119   5.449  0.00  0.00     0.003 A 
ENDROOT
TORSDOF 0
ENDMDL
