MODEL 1
REMARK minimizedAffinity 18.2351856
REMARK minimizedRMSD -1
REMARK  0 active torsions:
REMARK  status: ('A' for Active; 'I' for Inactive)
ROOT
ATOM      1  C4' PXY d   1      -4.503   4.677   6.000  0.00  0.00     0.077 C 
ATOM      2  C1' PXY d   1      -4.453  -0.785   4.108  0.00  0.00     0.077 C 
ATOM      3  C1  PXY d   1      -4.472   0.651   4.593  0.00  0.00    -0.082 A 
ATOM      4  C2  PXY d   1      -3.618   1.037   5.527  0.00  0.00     0.003 A 
ATOM      5  C3  PXY d   1      -3.642   2.324   6.000  0.00  0.00     0.003 A 
ATOM      6  C4  PXY d   1      -4.514   3.239   5.473  0.00  0.00    -0.082 A 
ATOM      7  C5  PXY d   1      -5.381   2.856   4.512  0.00  0.00     0.003 A 
ATOM      8  C6  PXY d   1      -5.368   1.535   4.075  0.00  0.00     0.003 A 
ENDROOT
TORSDOF 0
ENDMDL
