MODEL 1
REMARK minimizedAffinity 20.7194271
REMARK minimizedRMSD -1
REMARK  0 active torsions:
REMARK  status: ('A' for Active; 'I' for Inactive)
ROOT
ATOM      1  C4' PXY d   1       2.813   1.167   1.430  0.00  0.00     0.077 C 
ATOM      2  C1' PXY d   1      -0.482   2.462   5.999  0.00  0.00     0.077 C 
ATOM      3  C1  PXY d   1       0.371   2.121   4.794  0.00  0.00    -0.082 A 
ATOM      4  C2  PXY d   1       1.604   1.676   4.971  0.00  0.00     0.003 A 
ATOM      5  C3  PXY d   1       2.401   1.393   3.891  0.00  0.00     0.003 A 
ATOM      6  C4  PXY d   1       1.912   1.515   2.618  0.00  0.00    -0.082 A 
ATOM      7  C5  PXY d   1       0.651   1.958   2.430  0.00  0.00     0.003 A 
ATOM      8  C6  PXY d   1      -0.128   2.280   3.538  0.00  0.00     0.003 A 
ENDROOT
TORSDOF 0
ENDMDL
