MODEL 1
REMARK minimizedAffinity 11.8973284
REMARK minimizedRMSD -1
REMARK  0 active torsions:
REMARK  status: ('A' for Active; 'I' for Inactive)
ROOT
ATOM      1  C4' PXY d   1       2.997  -0.093  -0.038  0.00  0.00     0.077 C 
ATOM      2  C1' PXY d   1      -0.081  -4.170  -2.742  0.00  0.00     0.077 C 
ATOM      3  C1  PXY d   1       0.727  -3.109  -2.023  0.00  0.00    -0.082 A 
ATOM      4  C2  PXY d   1       0.602  -1.840  -2.376  0.00  0.00     0.003 A 
ATOM      5  C3  PXY d   1       1.349  -0.871  -1.758  0.00  0.00     0.003 A 
ATOM      6  C4  PXY d   1       2.194  -1.197  -0.731  0.00  0.00    -0.082 A 
ATOM      7  C5  PXY d   1       2.319  -2.488  -0.357  0.00  0.00     0.003 A 
ATOM      8  C6  PXY d   1       1.582  -3.462  -1.025  0.00  0.00     0.003 A 
ENDROOT
TORSDOF 0
ENDMDL
