MODEL 1
REMARK minimizedAffinity 19.2108212
REMARK minimizedRMSD -1
REMARK  0 active torsions:
REMARK  status: ('A' for Active; 'I' for Inactive)
ROOT
ATOM      1  C4' PXY d   1      -4.907   3.819   4.175  0.00  0.00     0.077 C 
ATOM      2  C1' PXY d   1      -3.516  -1.684   5.270  0.00  0.00     0.077 C 
ATOM      3  C1  PXY d   1      -3.884  -0.239   4.995  0.00  0.00    -0.082 A 
ATOM      4  C2  PXY d   1      -4.236   0.125   3.773  0.00  0.00     0.003 A 
ATOM      5  C3  PXY d   1      -4.541   1.434   3.500  0.00  0.00     0.003 A 
ATOM      6  C4  PXY d   1      -4.536   2.369   4.500  0.00  0.00    -0.082 A 
ATOM      7  C5  PXY d   1      -4.188   2.003   5.752  0.00  0.00     0.003 A 
ATOM      8  C6  PXY d   1      -3.843   0.678   6.000  0.00  0.00     0.003 A 
ENDROOT
TORSDOF 0
ENDMDL
