MODEL 1
REMARK minimizedAffinity -4.45500278
REMARK minimizedRMSD -1
REMARK  1 active torsions:
REMARK  status: ('A' for Active; 'I' for Inactive)
REMARK    1  A    between atoms: N_2  and  C1_3 
ROOT
ATOM      1  C1  UNL d   1      -0.603   0.143   0.639  0.00  0.00     0.143 A 
ATOM      2  C2  UNL d   1       0.203  -0.979   0.859  0.00  0.00    -0.057 A 
ATOM      3  C3  UNL d   1      -0.335  -2.174   1.350  0.00  0.00     0.033 A 
ATOM      4  C4  UNL d   1      -1.688  -2.259   1.660  0.00  0.00    -0.042 A 
ATOM      5  C5  UNL d   1      -2.503  -1.149   1.474  0.00  0.00     0.033 A 
ATOM      6  C6  UNL d   1      -1.961   0.040   0.976  0.00  0.00    -0.057 A 
ENDROOT
BRANCH   1   7
ATOM      7  N   UNL d   1      -0.110   1.390   0.246  0.00  0.00    -0.732 N 
ATOM      8  C   UNL d   1       0.765   1.508  -0.900  0.00  0.00     0.284 C 
ATOM      9  H3  UNL d   1      -0.812   2.123   0.310  0.00  0.00     0.395 HD
ENDBRANCH   1   7
TORSDOF 1
ENDMDL
