MODEL 1
REMARK minimizedAffinity -5.25064087
REMARK minimizedRMSD -1
REMARK  1 active torsions:
REMARK  status: ('A' for Active; 'I' for Inactive)
REMARK    1  A    between atoms: N_2  and  C1_3 
ROOT
ATOM      1  C1  UNL d   1      -0.666   0.145   0.125  0.00  0.00     0.143 A 
ATOM      2  C2  UNL d   1      -0.134  -1.135   0.315  0.00  0.00    -0.057 A 
ATOM      3  C3  UNL d   1      -0.918  -2.179   0.820  0.00  0.00     0.033 A 
ATOM      4  C4  UNL d   1      -2.244  -1.954   1.172  0.00  0.00    -0.042 A 
ATOM      5  C5  UNL d   1      -2.787  -0.683   1.015  0.00  0.00     0.033 A 
ATOM      6  C6  UNL d   1      -2.001   0.354   0.504  0.00  0.00    -0.057 A 
ENDROOT
BRANCH   1   7
ATOM      7  N   UNL d   1       0.089   1.248  -0.281  0.00  0.00    -0.732 N 
ATOM      8  C   UNL d   1       0.440   1.430  -1.673  0.00  0.00     0.284 C 
ATOM      9  H3  UNL d   1      -0.190   2.105   0.193  0.00  0.00     0.395 HD
ENDBRANCH   1   7
TORSDOF 1
ENDMDL
