MODEL 1
REMARK minimizedAffinity -1.80808342
REMARK minimizedRMSD -1
REMARK  1 active torsions:
REMARK  status: ('A' for Active; 'I' for Inactive)
REMARK    1  A    between atoms: N_2  and  C1_3 
ROOT
ATOM      1  C1  UNL d   1       0.255   0.031  -0.055  0.00  0.00     0.143 A 
ATOM      2  C2  UNL d   1       1.040  -1.127  -0.061  0.00  0.00    -0.057 A 
ATOM      3  C3  UNL d   1       0.556  -2.335   0.456  0.00  0.00     0.033 A 
ATOM      4  C4  UNL d   1      -0.715  -2.399   1.017  0.00  0.00    -0.042 A 
ATOM      5  C5  UNL d   1      -1.503  -1.254   1.057  0.00  0.00     0.033 A 
ATOM      6  C6  UNL d   1      -1.017  -0.053   0.532  0.00  0.00    -0.057 A 
ENDROOT
BRANCH   1   7
ATOM      7  N   UNL d   1       0.715   1.284  -0.465  0.00  0.00    -0.732 N 
ATOM      8  C   UNL d   1       1.034   1.535  -1.854  0.00  0.00     0.284 C 
ATOM      9  H3  UNL d   1       0.222   2.048  -0.007  0.00  0.00     0.395 HD
ENDBRANCH   1   7
TORSDOF 1
ENDMDL
