MODEL 1
REMARK minimizedAffinity -3.3794179
REMARK minimizedRMSD -1
REMARK  1 active torsions:
REMARK  status: ('A' for Active; 'I' for Inactive)
REMARK    1  A    between atoms: N_2  and  C1_3 
ROOT
ATOM      1  C1  UNL d   1      -0.277   0.240   0.347  0.00  0.00     0.143 A 
ATOM      2  C2  UNL d   1       0.538  -0.893   0.248  0.00  0.00    -0.057 A 
ATOM      3  C3  UNL d   1       0.129  -2.129   0.761  0.00  0.00     0.033 A 
ATOM      4  C4  UNL d   1      -1.095  -2.249   1.411  0.00  0.00    -0.042 A 
ATOM      5  C5  UNL d   1      -1.911  -1.131   1.544  0.00  0.00     0.033 A 
ATOM      6  C6  UNL d   1      -1.499   0.100   1.023  0.00  0.00    -0.057 A 
ENDROOT
BRANCH   1   7
ATOM      7  N   UNL d   1       0.116   1.519  -0.055  0.00  0.00    -0.732 N 
ATOM      8  C   UNL d   1       0.749   1.725  -1.340  0.00  0.00     0.284 C 
ATOM      9  H3  UNL d   1      -0.569   2.230   0.190  0.00  0.00     0.395 HD
ENDBRANCH   1   7
TORSDOF 1
ENDMDL
