MODEL 1
REMARK minimizedAffinity -4.60388231
REMARK minimizedRMSD -1
REMARK  1 active torsions:
REMARK  status: ('A' for Active; 'I' for Inactive)
REMARK    1  A    between atoms: N_2  and  C1_3 
ROOT
ATOM      1  C1  UNL d   1      -0.803  -0.893   0.719  0.00  0.00     0.143 A 
ATOM      2  C2  UNL d   1      -0.959  -2.280   0.819  0.00  0.00    -0.057 A 
ATOM      3  C3  UNL d   1      -2.098  -2.841   1.409  0.00  0.00     0.033 A 
ATOM      4  C4  UNL d   1      -3.092  -2.022   1.935  0.00  0.00    -0.042 A 
ATOM      5  C5  UNL d   1      -2.946  -0.641   1.869  0.00  0.00     0.033 A 
ATOM      6  C6  UNL d   1      -1.808  -0.086   1.273  0.00  0.00    -0.057 A 
ENDROOT
BRANCH   1   7
ATOM      7  N   UNL d   1       0.352  -0.274   0.233  0.00  0.00    -0.732 N 
ATOM      8  C   UNL d   1       0.357   1.140  -0.072  0.00  0.00     0.284 C 
ATOM      9  H3  UNL d   1       1.194  -0.602   0.700  0.00  0.00     0.395 HD
ENDBRANCH   1   7
TORSDOF 1
ENDMDL
