MODEL 1
REMARK minimizedAffinity -2.47809267
REMARK minimizedRMSD -1
REMARK  1 active torsions:
REMARK  status: ('A' for Active; 'I' for Inactive)
REMARK    1  A    between atoms: N_2  and  C1_3 
ROOT
ATOM      1  C1  UNL d   1       0.224   0.581  -0.223  0.00  0.00     0.143 A 
ATOM      2  C2  UNL d   1      -0.846   0.310   0.637  0.00  0.00    -0.057 A 
ATOM      3  C3  UNL d   1      -0.931  -0.905   1.328  0.00  0.00     0.033 A 
ATOM      4  C4  UNL d   1       0.039  -1.885   1.147  0.00  0.00    -0.042 A 
ATOM      5  C5  UNL d   1       1.098  -1.647   0.278  0.00  0.00     0.033 A 
ATOM      6  C6  UNL d   1       1.182  -0.429  -0.404  0.00  0.00    -0.057 A 
ENDROOT
BRANCH   1   7
ATOM      7  N   UNL d   1       0.314   1.729  -1.014  0.00  0.00    -0.732 N 
ATOM      8  C   UNL d   1       1.292   1.817  -2.077  0.00  0.00     0.284 C 
ATOM      9  H3  UNL d   1      -0.599   2.107  -1.256  0.00  0.00     0.395 HD
ENDBRANCH   1   7
TORSDOF 1
ENDMDL
