MODEL 1
REMARK minimizedAffinity -3.7102983
REMARK minimizedRMSD -1
REMARK  1 active torsions:
REMARK  status: ('A' for Active; 'I' for Inactive)
REMARK    1  A    between atoms: C1_2  and  C2_3 
ROOT
ATOM      1  C2  UNL d   1       0.079   1.371  -0.832  0.00  0.00    -0.081 A 
ATOM      2  C3  UNL d   1      -0.387   1.718   0.442  0.00  0.00     0.006 A 
ATOM      3  C4  UNL d   1      -0.115   0.901   1.543  0.00  0.00     0.002 A 
ATOM      4  C5  UNL d   1       0.633  -0.271   1.389  0.00  0.00    -0.080 A 
ATOM      5  C6  UNL d   1       0.958  -1.141   2.567  0.00  0.00     0.076 C 
ATOM      6  C7  UNL d   1       1.084  -0.627   0.113  0.00  0.00     0.002 A 
ATOM      7  C8  UNL d   1       0.811   0.189  -0.988  0.00  0.00     0.006 A 
ENDROOT
BRANCH   1   8
ATOM      8  C1  UNL d   1      -0.158   2.282  -2.009  0.00  0.00     0.054 C 
ATOM      9  C   UNL d   1      -0.812   3.586  -1.576  0.00  0.00     0.018 C 
ENDBRANCH   1   8
TORSDOF 1
ENDMDL
