MODEL 1
REMARK minimizedAffinity -4.15590668
REMARK minimizedRMSD -1
REMARK  1 active torsions:
REMARK  status: ('A' for Active; 'I' for Inactive)
REMARK    1  A    between atoms: C1_2  and  C2_3 
ROOT
ATOM      1  C2  UNL d   1       0.581   0.399  -0.881  0.00  0.00    -0.081 A 
ATOM      2  C3  UNL d   1      -0.449   0.155   0.036  0.00  0.00     0.006 A 
ATOM      3  C4  UNL d   1      -0.161  -0.337   1.311  0.00  0.00     0.002 A 
ATOM      4  C5  UNL d   1       1.162  -0.586   1.693  0.00  0.00    -0.080 A 
ATOM      5  C6  UNL d   1       1.487  -1.086   3.069  0.00  0.00     0.076 C 
ATOM      6  C7  UNL d   1       2.189  -0.359   0.772  0.00  0.00     0.002 A 
ATOM      7  C8  UNL d   1       1.902   0.132  -0.504  0.00  0.00     0.006 A 
ENDROOT
BRANCH   1   8
ATOM      8  C1  UNL d   1       0.279   0.990  -2.234  0.00  0.00     0.054 C 
ATOM      9  C   UNL d   1      -0.375   2.359  -2.106  0.00  0.00     0.018 C 
ENDBRANCH   1   8
TORSDOF 1
ENDMDL
