MODEL 1
REMARK minimizedAffinity -3.01589847
REMARK minimizedRMSD -1
REMARK  1 active torsions:
REMARK  status: ('A' for Active; 'I' for Inactive)
REMARK    1  A    between atoms: C1_2  and  C2_3 
ROOT
ATOM      1  C2  UNL d   1      -1.370  -0.667   0.216  0.00  0.00    -0.081 A 
ATOM      2  C3  UNL d   1      -0.538  -0.722  -0.909  0.00  0.00     0.006 A 
ATOM      3  C4  UNL d   1       0.850  -0.783  -0.761  0.00  0.00     0.002 A 
ATOM      4  C5  UNL d   1       1.428  -0.796   0.513  0.00  0.00    -0.080 A 
ATOM      5  C6  UNL d   1       2.915  -0.891   0.686  0.00  0.00     0.076 C 
ATOM      6  C7  UNL d   1       0.597  -0.723   1.636  0.00  0.00     0.002 A 
ATOM      7  C8  UNL d   1      -0.790  -0.662   1.489  0.00  0.00     0.006 A 
ENDROOT
BRANCH   1   8
ATOM      8  C1  UNL d   1      -2.869  -0.667   0.060  0.00  0.00     0.054 C 
ATOM      9  C   UNL d   1      -3.328  -1.770  -0.884  0.00  0.00     0.018 C 
ENDBRANCH   1   8
TORSDOF 1
ENDMDL
