MODEL 1
REMARK minimizedAffinity -0.612392664
REMARK minimizedRMSD -1
REMARK  1 active torsions:
REMARK  status: ('A' for Active; 'I' for Inactive)
REMARK    1  A    between atoms: C1_2  and  C2_3 
ROOT
ATOM      1  C2  UNL d   1      -1.532  -0.681   0.890  0.00  0.00    -0.081 A 
ATOM      2  C3  UNL d   1      -0.912  -0.075  -0.209  0.00  0.00     0.006 A 
ATOM      3  C4  UNL d   1       0.480   0.027  -0.270  0.00  0.00     0.002 A 
ATOM      4  C5  UNL d   1       1.275  -0.482   0.763  0.00  0.00    -0.080 A 
ATOM      5  C6  UNL d   1       2.771  -0.407   0.696  0.00  0.00     0.076 C 
ATOM      6  C7  UNL d   1       0.654  -1.073   1.869  0.00  0.00     0.002 A 
ATOM      7  C8  UNL d   1      -0.737  -1.174   1.931  0.00  0.00     0.006 A 
ENDROOT
BRANCH   1   8
ATOM      8  C1  UNL d   1      -3.029  -0.850   0.928  0.00  0.00     0.054 C 
ATOM      9  C   UNL d   1      -3.513  -1.752  -0.199  0.00  0.00     0.018 C 
ENDBRANCH   1   8
TORSDOF 1
ENDMDL
