MODEL 1
REMARK minimizedAffinity -3.53721476
REMARK minimizedRMSD -1
REMARK  1 active torsions:
REMARK  status: ('A' for Active; 'I' for Inactive)
REMARK    1  A    between atoms: C1_2  and  C2_3 
ROOT
ATOM      1  C2  UNL d   1      -0.007  -1.422   2.184  0.00  0.00    -0.081 A 
ATOM      2  C3  UNL d   1       1.154  -0.910   1.594  0.00  0.00     0.006 A 
ATOM      3  C4  UNL d   1       1.071   0.057   0.589  0.00  0.00     0.002 A 
ATOM      4  C5  UNL d   1      -0.174   0.532   0.163  0.00  0.00    -0.080 A 
ATOM      5  C6  UNL d   1      -0.276   1.592  -0.894  0.00  0.00     0.076 C 
ATOM      6  C7  UNL d   1      -1.335   0.008   0.740  0.00  0.00     0.002 A 
ATOM      7  C8  UNL d   1      -1.252  -0.959   1.745  0.00  0.00     0.006 A 
ENDROOT
BRANCH   1   8
ATOM      8  C1  UNL d   1       0.081  -2.417   3.313  0.00  0.00     0.054 C 
ATOM      9  C   UNL d   1      -1.122  -3.350   3.324  0.00  0.00     0.018 C 
ENDBRANCH   1   8
TORSDOF 1
ENDMDL
