MODEL 1
REMARK minimizedAffinity -3.80698943
REMARK minimizedRMSD -1
REMARK  1 active torsions:
REMARK  status: ('A' for Active; 'I' for Inactive)
REMARK    1  A    between atoms: C1_2  and  C2_3 
ROOT
ATOM      1  C2  UNL d   1      -0.487   0.445   0.895  0.00  0.00    -0.077 A 
ATOM      2  C3  UNL d   1      -0.702  -0.912   1.177  0.00  0.00     0.002 A 
ATOM      3  C4  UNL d   1      -1.020  -1.805   0.151  0.00  0.00     0.002 A 
ATOM      4  C5  UNL d   1      -1.121  -1.352  -1.162  0.00  0.00    -0.004 A 
ATOM      5  C6  UNL d   1      -0.911  -0.005  -1.453  0.00  0.00     0.002 A 
ATOM      6  C7  UNL d   1      -0.595   0.889  -0.429  0.00  0.00     0.002 A 
ENDROOT
BRANCH   1   7
ATOM      7  C1  UNL d   1      -0.096   1.400   1.992  0.00  0.00     0.055 C 
ATOM      8  C   UNL d   1       1.386   1.737   1.930  0.00  0.00     0.019 C 
ENDBRANCH   1   7
TORSDOF 1
ENDMDL
