MODEL 1
REMARK minimizedAffinity 1.52342415
REMARK minimizedRMSD -1
REMARK  1 active torsions:
REMARK  status: ('A' for Active; 'I' for Inactive)
REMARK    1  A    between atoms: C1_2  and  C2_3 
ROOT
ATOM      1  C2  UNL d   1       1.963   1.048   1.278  0.00  0.00    -0.077 A 
ATOM      2  C3  UNL d   1       1.371   0.318   0.237  0.00  0.00     0.002 A 
ATOM      3  C4  UNL d   1      -0.019   0.263   0.115  0.00  0.00     0.002 A 
ATOM      4  C5  UNL d   1      -0.827   0.937   1.027  0.00  0.00    -0.004 A 
ATOM      5  C6  UNL d   1      -0.248   1.664   2.067  0.00  0.00     0.002 A 
ATOM      6  C7  UNL d   1       1.141   1.720   2.191  0.00  0.00     0.002 A 
ENDROOT
BRANCH   1   7
ATOM      7  C1  UNL d   1       3.462   1.150   1.382  0.00  0.00     0.055 C 
ATOM      8  C   UNL d   1       4.146   0.483   0.197  0.00  0.00     0.019 C 
ENDBRANCH   1   7
TORSDOF 1
ENDMDL
