MODEL 1
REMARK minimizedAffinity -4.06302881
REMARK minimizedRMSD -1
REMARK  1 active torsions:
REMARK  status: ('A' for Active; 'I' for Inactive)
REMARK    1  A    between atoms: C1_2  and  C2_3 
ROOT
ATOM      1  C2  UNL d   1       0.466   0.878  -0.178  0.00  0.00    -0.077 A 
ATOM      2  C3  UNL d   1       1.019  -0.033  -1.089  0.00  0.00     0.002 A 
ATOM      3  C4  UNL d   1       0.429  -1.283  -1.283  0.00  0.00     0.002 A 
ATOM      4  C5  UNL d   1      -0.718  -1.632  -0.574  0.00  0.00    -0.004 A 
ATOM      5  C6  UNL d   1      -1.275  -0.734   0.336  0.00  0.00     0.002 A 
ATOM      6  C7  UNL d   1      -0.686   0.516   0.532  0.00  0.00     0.002 A 
ENDROOT
BRANCH   1   7
ATOM      7  C1  UNL d   1       1.073   2.246  -0.003  0.00  0.00     0.055 C 
ATOM      8  C   UNL d   1       1.003   2.701   1.448  0.00  0.00     0.019 C 
ENDBRANCH   1   7
TORSDOF 1
ENDMDL
