MODEL 1
REMARK minimizedAffinity -4.3908844
REMARK minimizedRMSD -1
REMARK  1 active torsions:
REMARK  status: ('A' for Active; 'I' for Inactive)
REMARK    1  A    between atoms: C1_2  and  C2_3 
ROOT
ATOM      1  C2  UNL d   1      -0.043   0.239   0.128  0.00  0.00    -0.077 A 
ATOM      2  C3  UNL d   1       0.556   1.485  -0.101  0.00  0.00     0.002 A 
ATOM      3  C4  UNL d   1       0.577   2.455   0.903  0.00  0.00     0.002 A 
ATOM      4  C5  UNL d   1       0.003   2.186   2.145  0.00  0.00    -0.004 A 
ATOM      5  C6  UNL d   1      -0.597   0.951   2.382  0.00  0.00     0.002 A 
ATOM      6  C7  UNL d   1      -0.619  -0.019   1.379  0.00  0.00     0.002 A 
ENDROOT
BRANCH   1   7
ATOM      7  C1  UNL d   1      -0.022  -0.826  -0.937  0.00  0.00     0.055 C 
ATOM      8  C   UNL d   1      -1.359  -0.913  -1.659  0.00  0.00     0.019 C 
ENDBRANCH   1   7
TORSDOF 1
ENDMDL
