MODEL 1
REMARK minimizedAffinity -4.92620897
REMARK minimizedRMSD -1
REMARK  1 active torsions:
REMARK  status: ('A' for Active; 'I' for Inactive)
REMARK    1  A    between atoms: C1_2  and  C2_3 
ROOT
ATOM      1  C2  UNL d   1      -4.082  -2.311  -1.717  0.00  0.00    -0.077 A 
ATOM      2  C3  UNL d   1      -2.930  -2.504  -0.943  0.00  0.00     0.002 A 
ATOM      3  C4  UNL d   1      -1.693  -2.036  -1.389  0.00  0.00     0.002 A 
ATOM      4  C5  UNL d   1      -1.597  -1.369  -2.608  0.00  0.00    -0.004 A 
ATOM      5  C6  UNL d   1      -2.737  -1.174  -3.387  0.00  0.00     0.002 A 
ATOM      6  C7  UNL d   1      -3.974  -1.642  -2.943  0.00  0.00     0.002 A 
ENDROOT
BRANCH   1   7
ATOM      7  C1  UNL d   1      -5.426  -2.772  -1.215  0.00  0.00     0.055 C 
ATOM      8  C   UNL d   1      -5.286  -3.949  -0.261  0.00  0.00     0.019 C 
ENDBRANCH   1   7
TORSDOF 1
ENDMDL
