MODEL 1
REMARK minimizedAffinity -2.813627
REMARK minimizedRMSD -1
REMARK  1 active torsions:
REMARK  status: ('A' for Active; 'I' for Inactive)
REMARK    1  A    between atoms: C1_2  and  C2_3 
ROOT
ATOM      1  C2  UNL d   1      -1.304  -1.290  -1.299  0.00  0.00    -0.077 A 
ATOM      2  C3  UNL d   1      -2.103  -2.426  -1.489  0.00  0.00     0.002 A 
ATOM      3  C4  UNL d   1      -2.834  -2.585  -2.668  0.00  0.00     0.002 A 
ATOM      4  C5  UNL d   1      -2.770  -1.616  -3.666  0.00  0.00    -0.004 A 
ATOM      5  C6  UNL d   1      -1.979  -0.481  -3.485  0.00  0.00     0.002 A 
ATOM      6  C7  UNL d   1      -1.249  -0.320  -2.307  0.00  0.00     0.002 A 
ENDROOT
BRANCH   1   7
ATOM      7  C1  UNL d   1      -0.476  -1.140  -0.049  0.00  0.00     0.055 C 
ATOM      8  C   UNL d   1      -0.332   0.323   0.348  0.00  0.00     0.019 C 
ENDBRANCH   1   7
TORSDOF 1
ENDMDL
