MODEL 1
REMARK minimizedAffinity -4.69665909
REMARK minimizedRMSD -1
REMARK  1 active torsions:
REMARK  status: ('A' for Active; 'I' for Inactive)
REMARK    1  A    between atoms: C1_2  and  C2_3 
ROOT
ATOM      1  C2  UNL d   1       0.821   0.598   0.070  0.00  0.00    -0.077 A 
ATOM      2  C3  UNL d   1      -0.181   0.721   1.043  0.00  0.00     0.002 A 
ATOM      3  C4  UNL d   1      -1.135  -0.285   1.205  0.00  0.00     0.002 A 
ATOM      4  C5  UNL d   1      -1.094  -1.423   0.401  0.00  0.00    -0.004 A 
ATOM      5  C6  UNL d   1      -0.102  -1.553  -0.570  0.00  0.00     0.002 A 
ATOM      6  C7  UNL d   1       0.852  -0.548  -0.734  0.00  0.00     0.002 A 
ENDROOT
BRANCH   1   7
ATOM      7  C1  UNL d   1       1.880   1.660  -0.073  0.00  0.00     0.055 C 
ATOM      8  C   UNL d   1       1.652   2.805   0.902  0.00  0.00     0.019 C 
ENDBRANCH   1   7
TORSDOF 1
ENDMDL
