MODEL 1
REMARK minimizedAffinity -4.38331938
REMARK minimizedRMSD -1
REMARK  1 active torsions:
REMARK  status: ('A' for Active; 'I' for Inactive)
REMARK    1  A    between atoms: C1_2  and  C2_3 
ROOT
ATOM      1  C2  UNL d   1       1.638   1.611   0.792  0.00  0.00    -0.077 A 
ATOM      2  C3  UNL d   1       1.033   2.148   1.937  0.00  0.00     0.002 A 
ATOM      3  C4  UNL d   1      -0.313   1.894   2.209  0.00  0.00     0.002 A 
ATOM      4  C5  UNL d   1      -1.062   1.099   1.345  0.00  0.00    -0.004 A 
ATOM      5  C6  UNL d   1      -0.470   0.562   0.203  0.00  0.00     0.002 A 
ATOM      6  C7  UNL d   1       0.875   0.816  -0.072  0.00  0.00     0.002 A 
ENDROOT
BRANCH   1   7
ATOM      7  C1  UNL d   1       3.102   1.843   0.522  0.00  0.00     0.055 C 
ATOM      8  C   UNL d   1       3.679   0.757  -0.374  0.00  0.00     0.019 C 
ENDBRANCH   1   7
TORSDOF 1
ENDMDL
