MODEL 1
REMARK minimizedAffinity -5.94894028
REMARK minimizedRMSD -1
REMARK  1 active torsions:
REMARK  status: ('A' for Active; 'I' for Inactive)
REMARK    1  A    between atoms: C1_2  and  C2_3 
ROOT
ATOM      1  C2  UNL d   1       0.552   0.568   0.316  0.00  0.00    -0.077 A 
ATOM      2  C3  UNL d   1       0.709   1.839   0.886  0.00  0.00     0.002 A 
ATOM      3  C4  UNL d   1       1.945   2.488   0.835  0.00  0.00     0.002 A 
ATOM      4  C5  UNL d   1       3.030   1.875   0.212  0.00  0.00    -0.004 A 
ATOM      5  C6  UNL d   1       2.884   0.610  -0.355  0.00  0.00     0.002 A 
ATOM      6  C7  UNL d   1       1.650  -0.040  -0.304  0.00  0.00     0.002 A 
ENDROOT
BRANCH   1   7
ATOM      7  C1  UNL d   1      -0.793  -0.112   0.327  0.00  0.00     0.055 C 
ATOM      8  C   UNL d   1      -0.800  -1.338  -0.574  0.00  0.00     0.019 C 
ENDBRANCH   1   7
TORSDOF 1
ENDMDL
