MODEL 1
REMARK minimizedAffinity -0.534317076
REMARK minimizedRMSD -1
REMARK  1 active torsions:
REMARK  status: ('A' for Active; 'I' for Inactive)
REMARK    1  A    between atoms: C1_2  and  C2_3 
ROOT
ATOM      1  C2  UNL d   1      -1.008  -0.883  -1.210  0.00  0.00    -0.077 A 
ATOM      2  C3  UNL d   1      -0.502  -0.325  -2.392  0.00  0.00     0.002 A 
ATOM      3  C4  UNL d   1      -1.209  -0.447  -3.590  0.00  0.00     0.002 A 
ATOM      4  C5  UNL d   1      -2.427  -1.122  -3.616  0.00  0.00    -0.004 A 
ATOM      5  C6  UNL d   1      -2.938  -1.683  -2.445  0.00  0.00     0.002 A 
ATOM      6  C7  UNL d   1      -2.232  -1.563  -1.248  0.00  0.00     0.002 A 
ENDROOT
BRANCH   1   7
ATOM      7  C1  UNL d   1      -0.270  -0.710   0.093  0.00  0.00     0.055 C 
ATOM      8  C   UNL d   1      -1.111   0.050   1.108  0.00  0.00     0.019 C 
ENDBRANCH   1   7
TORSDOF 1
ENDMDL
