MODEL 1
REMARK minimizedAffinity -4.50833321
REMARK minimizedRMSD -1
REMARK  1 active torsions:
REMARK  status: ('A' for Active; 'I' for Inactive)
REMARK    1  A    between atoms: C1_2  and  C2_3 
ROOT
ATOM      1  C2  UNL d   1       0.936   0.436   0.018  0.00  0.00    -0.077 A 
ATOM      2  C3  UNL d   1       1.639   1.560  -0.437  0.00  0.00     0.002 A 
ATOM      3  C4  UNL d   1       1.601   2.756   0.284  0.00  0.00     0.002 A 
ATOM      4  C5  UNL d   1       0.865   2.837   1.464  0.00  0.00    -0.004 A 
ATOM      5  C6  UNL d   1       0.161   1.725   1.923  0.00  0.00     0.002 A 
ATOM      6  C7  UNL d   1       0.196   0.529   1.204  0.00  0.00     0.002 A 
ENDROOT
BRANCH   1   7
ATOM      7  C1  UNL d   1       1.015  -0.869  -0.732  0.00  0.00     0.055 C 
ATOM      8  C   UNL d   1      -0.361  -1.495  -0.900  0.00  0.00     0.019 C 
ENDBRANCH   1   7
TORSDOF 1
ENDMDL
