MODEL 1
REMARK minimizedAffinity -4.17303467
REMARK minimizedRMSD -1
REMARK  1 active torsions:
REMARK  status: ('A' for Active; 'I' for Inactive)
REMARK    1  A    between atoms: C1_2  and  C2_3 
ROOT
ATOM      1  C2  UNL d   1       0.032  -0.010  -0.018  0.00  0.00    -0.077 A 
ATOM      2  C3  UNL d   1       0.986   1.018  -0.013  0.00  0.00     0.002 A 
ATOM      3  C4  UNL d   1       1.000   1.963   1.014  0.00  0.00     0.002 A 
ATOM      4  C5  UNL d   1       0.066   1.888   2.045  0.00  0.00    -0.004 A 
ATOM      5  C6  UNL d   1      -0.888   0.870   2.048  0.00  0.00     0.002 A 
ATOM      6  C7  UNL d   1      -0.904  -0.075   1.021  0.00  0.00     0.002 A 
ENDROOT
BRANCH   1   7
ATOM      7  C1  UNL d   1       0.047  -1.059  -1.099  0.00  0.00     0.055 C 
ATOM      8  C   UNL d   1      -1.328  -1.224  -1.730  0.00  0.00     0.019 C 
ENDBRANCH   1   7
TORSDOF 1
ENDMDL
