MODEL 1
REMARK minimizedAffinity 2.48784113
REMARK minimizedRMSD -1
REMARK  1 active torsions:
REMARK  status: ('A' for Active; 'I' for Inactive)
REMARK    1  A    between atoms: C3_4  and  O_7 
ROOT
ATOM      1  C   UNL d   1       1.670   0.237   0.382  0.00  0.00    -0.033 A 
ATOM      2  C1  UNL d   1       1.557   1.467   1.035  0.00  0.00     0.039 A 
ATOM      3  C2  UNL d   1       1.270   2.622   0.306  0.00  0.00    -0.080 A 
ATOM      4  C3  UNL d   1       1.097   2.535  -1.073  0.00  0.00     0.150 A 
ATOM      5  C4  UNL d   1       1.205   1.314  -1.729  0.00  0.00    -0.007 A 
ATOM      6  C5  UNL d   1       1.493   0.161  -1.000  0.00  0.00     0.039 A 
ENDROOT
BRANCH   4   7
ATOM      7  O   UNL d   1       0.820   3.637  -1.827  0.00  0.00    -0.526 OA
ATOM      8  H5  UNL d   1       0.804   4.413  -1.244  0.00  0.00     0.418 HD
ENDBRANCH   4   7
TORSDOF 1
ENDMDL
