MODEL 1
REMARK minimizedAffinity -4.12626028
REMARK minimizedRMSD -1
REMARK  1 active torsions:
REMARK  status: ('A' for Active; 'I' for Inactive)
REMARK    1  A    between atoms: C3_4  and  O_7 
ROOT
ATOM      1  C   UNL d   1       1.190   1.277  -0.205  0.00  0.00    -0.033 A 
ATOM      2  C1  UNL d   1       1.120   2.175   0.862  0.00  0.00     0.039 A 
ATOM      3  C2  UNL d   1       1.135   3.550   0.622  0.00  0.00    -0.080 A 
ATOM      4  C3  UNL d   1       1.219   4.014  -0.688  0.00  0.00     0.150 A 
ATOM      5  C4  UNL d   1       1.285   3.125  -1.756  0.00  0.00    -0.007 A 
ATOM      6  C5  UNL d   1       1.271   1.752  -1.514  0.00  0.00     0.039 A 
ENDROOT
BRANCH   4   7
ATOM      7  O   UNL d   1       1.242   5.347  -0.971  0.00  0.00    -0.526 OA
ATOM      8  H5  UNL d   1       1.219   5.840  -0.134  0.00  0.00     0.418 HD
ENDBRANCH   4   7
TORSDOF 1
ENDMDL
