MODEL 1
REMARK minimizedAffinity -3.51849818
REMARK minimizedRMSD -1
REMARK  1 active torsions:
REMARK  status: ('A' for Active; 'I' for Inactive)
REMARK    1  A    between atoms: C3_4  and  O_7 
ROOT
ATOM      1  C   UNL d   1       1.319   0.217  -0.218  0.00  0.00    -0.033 A 
ATOM      2  C1  UNL d   1       1.450   1.105   0.852  0.00  0.00     0.039 A 
ATOM      3  C2  UNL d   1       1.362   2.481   0.634  0.00  0.00    -0.080 A 
ATOM      4  C3  UNL d   1       1.140   2.956  -0.656  0.00  0.00     0.150 A 
ATOM      5  C4  UNL d   1       1.004   2.076  -1.726  0.00  0.00    -0.007 A 
ATOM      6  C5  UNL d   1       1.094   0.703  -1.506  0.00  0.00     0.039 A 
ENDROOT
BRANCH   4   7
ATOM      7  O   UNL d   1       1.051   4.290  -0.919  0.00  0.00    -0.526 OA
ATOM      8  H5  UNL d   1       1.193   4.777  -0.090  0.00  0.00     0.418 HD
ENDBRANCH   4   7
TORSDOF 1
ENDMDL
