MODEL 1
REMARK minimizedAffinity 1.06451797
REMARK minimizedRMSD -1
REMARK  1 active torsions:
REMARK  status: ('A' for Active; 'I' for Inactive)
REMARK    1  A    between atoms: C3_4  and  O_7 
ROOT
ATOM      1  C   UNL d   1      -2.144   1.498   4.883  0.00  0.00    -0.033 A 
ATOM      2  C1  UNL d   1      -2.123   2.384   5.962  0.00  0.00     0.039 A 
ATOM      3  C2  UNL d   1      -1.938   3.750   5.742  0.00  0.00    -0.080 A 
ATOM      4  C3  UNL d   1      -1.777   4.218   4.441  0.00  0.00     0.150 A 
ATOM      5  C4  UNL d   1      -1.801   3.342   3.361  0.00  0.00    -0.007 A 
ATOM      6  C5  UNL d   1      -1.985   1.977   3.582  0.00  0.00     0.039 A 
ENDROOT
BRANCH   4   7
ATOM      7  O   UNL d   1      -1.589   5.542   4.177  0.00  0.00    -0.526 OA
ATOM      8  H5  UNL d   1      -1.567   6.024   5.021  0.00  0.00     0.418 HD
ENDBRANCH   4   7
TORSDOF 1
ENDMDL
