MODEL 1
REMARK minimizedAffinity 0.39742738
REMARK minimizedRMSD -1
REMARK  1 active torsions:
REMARK  status: ('A' for Active; 'I' for Inactive)
REMARK    1  A    between atoms: C3_4  and  O_7 
ROOT
ATOM      1  C   UNL d   1       1.318   1.526  -0.213  0.00  0.00    -0.033 A 
ATOM      2  C1  UNL d   1       1.467   2.454   0.819  0.00  0.00     0.039 A 
ATOM      3  C2  UNL d   1       1.462   3.822   0.536  0.00  0.00    -0.080 A 
ATOM      4  C3  UNL d   1       1.306   4.247  -0.780  0.00  0.00     0.150 A 
ATOM      5  C4  UNL d   1       1.153   3.328  -1.813  0.00  0.00    -0.007 A 
ATOM      6  C5  UNL d   1       1.159   1.963  -1.529  0.00  0.00     0.039 A 
ENDROOT
BRANCH   4   7
ATOM      7  O   UNL d   1       1.300   5.571  -1.105  0.00  0.00    -0.526 OA
ATOM      8  H5  UNL d   1       1.444   6.087  -0.295  0.00  0.00     0.418 HD
ENDBRANCH   4   7
TORSDOF 1
ENDMDL
