MODEL 1
REMARK minimizedAffinity 2.8785944
REMARK minimizedRMSD -1
REMARK  1 active torsions:
REMARK  status: ('A' for Active; 'I' for Inactive)
REMARK    1  A    between atoms: C3_4  and  O_7 
ROOT
ATOM      1  C   UNL d   1       1.729  -0.888  -1.280  0.00  0.00    -0.033 A 
ATOM      2  C1  UNL d   1       2.229  -0.179  -0.186  0.00  0.00     0.039 A 
ATOM      3  C2  UNL d   1       2.074   1.207  -0.119  0.00  0.00    -0.080 A 
ATOM      4  C3  UNL d   1       1.418   1.871  -1.151  0.00  0.00     0.150 A 
ATOM      5  C4  UNL d   1       0.913   1.172  -2.242  0.00  0.00    -0.007 A 
ATOM      6  C5  UNL d   1       1.070  -0.212  -2.308  0.00  0.00     0.039 A 
ENDROOT
BRANCH   4   7
ATOM      7  O   UNL d   1       1.247   3.224  -1.132  0.00  0.00    -0.526 OA
ATOM      8  H5  UNL d   1       1.671   3.577  -0.332  0.00  0.00     0.418 HD
ENDBRANCH   4   7
TORSDOF 1
ENDMDL
