MODEL 1
REMARK minimizedAffinity -0.328245372
REMARK minimizedRMSD -1
REMARK  1 active torsions:
REMARK  status: ('A' for Active; 'I' for Inactive)
REMARK    1  A    between atoms: C3_4  and  O_7 
ROOT
ATOM      1  C   UNL d   1       1.663  -1.216  -0.934  0.00  0.00    -0.033 A 
ATOM      2  C1  UNL d   1       1.430  -0.270   0.065  0.00  0.00     0.039 A 
ATOM      3  C2  UNL d   1       1.355   1.086  -0.259  0.00  0.00    -0.080 A 
ATOM      4  C3  UNL d   1       1.514   1.482  -1.584  0.00  0.00     0.150 A 
ATOM      5  C4  UNL d   1       1.743   0.544  -2.586  0.00  0.00    -0.007 A 
ATOM      6  C5  UNL d   1       1.817  -0.810  -2.260  0.00  0.00     0.039 A 
ENDROOT
BRANCH   4   7
ATOM      7  O   UNL d   1       1.455   2.794  -1.948  0.00  0.00    -0.526 OA
ATOM      8  H5  UNL d   1       1.321   3.330  -1.149  0.00  0.00     0.418 HD
ENDBRANCH   4   7
TORSDOF 1
ENDMDL
