MODEL 1
REMARK minimizedAffinity 1.19748664
REMARK minimizedRMSD -1
REMARK  1 active torsions:
REMARK  status: ('A' for Active; 'I' for Inactive)
REMARK    1  A    between atoms: C3_4  and  O_7 
ROOT
ATOM      1  C   UNL d   1       1.422  -0.124   0.169  0.00  0.00    -0.033 A 
ATOM      2  C1  UNL d   1       1.384   1.069   0.894  0.00  0.00     0.039 A 
ATOM      3  C2  UNL d   1       1.069   2.268   0.252  0.00  0.00    -0.080 A 
ATOM      4  C3  UNL d   1       0.792   2.260  -1.113  0.00  0.00     0.150 A 
ATOM      5  C4  UNL d   1       0.824   1.075  -1.840  0.00  0.00    -0.007 A 
ATOM      6  C5  UNL d   1       1.140  -0.121  -1.197  0.00  0.00     0.039 A 
ENDROOT
BRANCH   4   7
ATOM      7  O   UNL d   1       0.484   3.406  -1.784  0.00  0.00    -0.526 OA
ATOM      8  H5  UNL d   1       0.528   4.150  -1.160  0.00  0.00     0.418 HD
ENDBRANCH   4   7
TORSDOF 1
ENDMDL
