MODEL 1
REMARK minimizedAffinity -2.226758
REMARK minimizedRMSD -1
REMARK  1 active torsions:
REMARK  status: ('A' for Active; 'I' for Inactive)
REMARK    1  A    between atoms: C3_4  and  O_7 
ROOT
ATOM      1  C   UNL d   1       1.133   2.230  -2.199  0.00  0.00    -0.033 A 
ATOM      2  C1  UNL d   1       1.182   3.341  -1.355  0.00  0.00     0.039 A 
ATOM      3  C2  UNL d   1       1.230   3.167   0.029  0.00  0.00    -0.080 A 
ATOM      4  C3  UNL d   1       1.231   1.879   0.556  0.00  0.00     0.150 A 
ATOM      5  C4  UNL d   1       1.187   0.767  -0.278  0.00  0.00    -0.007 A 
ATOM      6  C5  UNL d   1       1.137   0.943  -1.661  0.00  0.00     0.039 A 
ENDROOT
BRANCH   4   7
ATOM      7  O   UNL d   1       1.273   1.659   1.901  0.00  0.00    -0.526 OA
ATOM      8  H5  UNL d   1       1.271   2.519   2.354  0.00  0.00     0.418 HD
ENDBRANCH   4   7
TORSDOF 1
ENDMDL
