MODEL 1
REMARK minimizedAffinity 0.212222293
REMARK minimizedRMSD -1
REMARK  1 active torsions:
REMARK  status: ('A' for Active; 'I' for Inactive)
REMARK    1  A    between atoms: C3_4  and  O_7 
ROOT
ATOM      1  C   UNL d   1       1.050  -0.257  -0.205  0.00  0.00    -0.033 A 
ATOM      2  C1  UNL d   1       1.244   0.916   0.527  0.00  0.00     0.039 A 
ATOM      3  C2  UNL d   1       1.204   2.156  -0.115  0.00  0.00    -0.080 A 
ATOM      4  C3  UNL d   1       0.969   2.208  -1.486  0.00  0.00     0.150 A 
ATOM      5  C4  UNL d   1       0.771   1.043  -2.220  0.00  0.00    -0.007 A 
ATOM      6  C5  UNL d   1       0.812  -0.194  -1.578  0.00  0.00     0.039 A 
ENDROOT
BRANCH   4   7
ATOM      7  O   UNL d   1       0.926   3.394  -2.157  0.00  0.00    -0.526 OA
ATOM      8  H5  UNL d   1       1.108   4.111  -1.527  0.00  0.00     0.418 HD
ENDBRANCH   4   7
TORSDOF 1
ENDMDL
