MODEL 1
REMARK minimizedAffinity -3.75800967
REMARK minimizedRMSD -1
REMARK  1 active torsions:
REMARK  status: ('A' for Active; 'I' for Inactive)
REMARK    1  A    between atoms: C3_4  and  O_7 
ROOT
ATOM      1  C   UNL d   1       1.527   0.157  -0.170  0.00  0.00    -0.033 A 
ATOM      2  C1  UNL d   1       1.165   1.226   0.651  0.00  0.00     0.039 A 
ATOM      3  C2  UNL d   1       0.795   2.448   0.087  0.00  0.00    -0.080 A 
ATOM      4  C3  UNL d   1       0.789   2.587  -1.298  0.00  0.00     0.150 A 
ATOM      5  C4  UNL d   1       1.145   1.525  -2.123  0.00  0.00    -0.007 A 
ATOM      6  C5  UNL d   1       1.515   0.306  -1.558  0.00  0.00     0.039 A 
ENDROOT
BRANCH   4   7
ATOM      7  O   UNL d   1       0.440   3.762  -1.895  0.00  0.00    -0.526 OA
ATOM      8  H5  UNL d   1       0.247   4.414  -1.201  0.00  0.00     0.418 HD
ENDBRANCH   4   7
TORSDOF 1
ENDMDL
