MODEL 1
REMARK minimizedAffinity 3.58301616
REMARK minimizedRMSD -1
REMARK  1 active torsions:
REMARK  status: ('A' for Active; 'I' for Inactive)
REMARK    1  A    between atoms: C3_4  and  O_7 
ROOT
ATOM      1  C   UNL d   1       1.067  -0.363  -0.597  0.00  0.00    -0.033 A 
ATOM      2  C1  UNL d   1       2.212  -1.104  -0.299  0.00  0.00     0.039 A 
ATOM      3  C2  UNL d   1       3.271  -0.511   0.391  0.00  0.00    -0.080 A 
ATOM      4  C3  UNL d   1       3.172   0.823   0.777  0.00  0.00     0.150 A 
ATOM      5  C4  UNL d   1       2.033   1.567   0.487  0.00  0.00    -0.007 A 
ATOM      6  C5  UNL d   1       0.977   0.973  -0.203  0.00  0.00     0.039 A 
ENDROOT
BRANCH   4   7
ATOM      7  O   UNL d   1       4.181   1.447   1.449  0.00  0.00    -0.526 OA
ATOM      8  H5  UNL d   1       4.915   0.819   1.554  0.00  0.00     0.418 HD
ENDBRANCH   4   7
TORSDOF 1
ENDMDL
