MODEL 1
REMARK minimizedAffinity -0.28499186
REMARK minimizedRMSD -1
REMARK  1 active torsions:
REMARK  status: ('A' for Active; 'I' for Inactive)
REMARK    1  A    between atoms: C3_4  and  O_7 
ROOT
ATOM      1  C   UNL d   1       0.823   1.469  -1.296  0.00  0.00    -0.033 A 
ATOM      2  C1  UNL d   1       0.795   0.986   0.014  0.00  0.00     0.039 A 
ATOM      3  C2  UNL d   1       1.822   0.161   0.478  0.00  0.00    -0.080 A 
ATOM      4  C3  UNL d   1       2.870  -0.171  -0.376  0.00  0.00     0.150 A 
ATOM      5  C4  UNL d   1       2.906   0.310  -1.681  0.00  0.00    -0.007 A 
ATOM      6  C5  UNL d   1       1.879   1.132  -2.143  0.00  0.00     0.039 A 
ENDROOT
BRANCH   4   7
ATOM      7  O   UNL d   1       3.892  -0.976   0.030  0.00  0.00    -0.526 OA
ATOM      8  H5  UNL d   1       3.719  -1.256   0.944  0.00  0.00     0.418 HD
ENDBRANCH   4   7
TORSDOF 1
ENDMDL
