MODEL 1
REMARK minimizedAffinity -0.898142934
REMARK minimizedRMSD -1
REMARK  1 active torsions:
REMARK  status: ('A' for Active; 'I' for Inactive)
REMARK    1  A    between atoms: C3_4  and  O_7 
ROOT
ATOM      1  C   UNL d   1       1.983   0.579  -1.859  0.00  0.00    -0.033 A 
ATOM      2  C1  UNL d   1       1.916   0.195  -0.518  0.00  0.00     0.039 A 
ATOM      3  C2  UNL d   1       1.530   1.119   0.455  0.00  0.00    -0.080 A 
ATOM      4  C3  UNL d   1       1.214   2.420   0.075  0.00  0.00     0.150 A 
ATOM      5  C4  UNL d   1       1.275   2.808  -1.259  0.00  0.00    -0.007 A 
ATOM      6  C5  UNL d   1       1.661   1.884  -2.230  0.00  0.00     0.039 A 
ENDROOT
BRANCH   4   7
ATOM      7  O   UNL d   1       0.837   3.358   0.990  0.00  0.00    -0.526 OA
ATOM      8  H5  UNL d   1       0.868   2.956   1.874  0.00  0.00     0.418 HD
ENDBRANCH   4   7
TORSDOF 1
ENDMDL
