MODEL 1
REMARK minimizedAffinity 13.4281673
REMARK minimizedRMSD -1
REMARK  1 active torsions:
REMARK  status: ('A' for Active; 'I' for Inactive)
REMARK    1  A    between atoms: C1_2  and  C2_3 
ROOT
ATOM      1  C2  UNL d   1       0.092  -1.651   1.174  0.00  0.00    -0.081 A 
ATOM      2  C3  UNL d   1       1.331  -1.223   1.666  0.00  0.00     0.006 A 
ATOM      3  C4  UNL d   1       2.515  -1.806   1.206  0.00  0.00     0.002 A 
ATOM      4  C5  UNL d   1       2.479  -2.820   0.243  0.00  0.00    -0.080 A 
ATOM      5  C6  UNL d   1       3.744  -3.433  -0.281  0.00  0.00     0.076 C 
ATOM      6  C7  UNL d   1       1.240  -3.259  -0.236  0.00  0.00     0.002 A 
ATOM      7  C8  UNL d   1       0.056  -2.677   0.224  0.00  0.00     0.006 A 
ENDROOT
BRANCH   1   8
ATOM      8  C1  UNL d   1      -1.182  -0.980   1.620  0.00  0.00     0.054 C 
ATOM      9  C   UNL d   1      -1.418   0.319   0.862  0.00  0.00     0.018 C 
ENDBRANCH   1   8
TORSDOF 1
ENDMDL
