MODEL 1
REMARK minimizedAffinity 16.8276176
REMARK minimizedRMSD -1
REMARK  1 active torsions:
REMARK  status: ('A' for Active; 'I' for Inactive)
REMARK    1  A    between atoms: C1_2  and  C2_3 
ROOT
ATOM      1  C2  UNL d   1       4.235   4.482  -2.416  0.00  0.00    -0.081 A 
ATOM      2  C3  UNL d   1       3.093   5.268  -2.216  0.00  0.00     0.006 A 
ATOM      3  C4  UNL d   1       1.825   4.764  -2.516  0.00  0.00     0.002 A 
ATOM      4  C5  UNL d   1       1.677   3.465  -3.015  0.00  0.00    -0.080 A 
ATOM      5  C6  UNL d   1       0.320   2.902  -3.314  0.00  0.00     0.076 C 
ATOM      6  C7  UNL d   1       2.819   2.687  -3.232  0.00  0.00     0.002 A 
ATOM      7  C8  UNL d   1       4.087   3.190  -2.932  0.00  0.00     0.006 A 
ENDROOT
BRANCH   1   8
ATOM      8  C1  UNL d   1       5.598   4.999  -2.032  0.00  0.00     0.054 C 
ATOM      9  C   UNL d   1       5.600   5.553  -0.615  0.00  0.00     0.018 C 
ENDBRANCH   1   8
TORSDOF 1
ENDMDL
