MODEL 1
REMARK minimizedAffinity 11.2858915
REMARK minimizedRMSD -1
REMARK  1 active torsions:
REMARK  status: ('A' for Active; 'I' for Inactive)
REMARK    1  A    between atoms: C1_2  and  C2_3 
ROOT
ATOM      1  C2  UNL d   1      -4.042   0.375   4.999  0.00  0.00    -0.081 A 
ATOM      2  C3  UNL d   1      -4.688  -0.770   5.481  0.00  0.00     0.006 A 
ATOM      3  C4  UNL d   1      -5.250  -1.691   4.594  0.00  0.00     0.002 A 
ATOM      4  C5  UNL d   1      -5.169  -1.487   3.212  0.00  0.00    -0.080 A 
ATOM      5  C6  UNL d   1      -5.741  -2.484   2.248  0.00  0.00     0.076 C 
ATOM      6  C7  UNL d   1      -4.538  -0.334   2.732  0.00  0.00     0.002 A 
ATOM      7  C8  UNL d   1      -3.977   0.588   3.618  0.00  0.00     0.006 A 
ENDROOT
BRANCH   1   8
ATOM      8  C1  UNL d   1      -3.378   1.338   5.951  0.00  0.00     0.054 C 
ATOM      9  C   UNL d   1      -1.873   1.119   5.999  0.00  0.00     0.018 C 
ENDBRANCH   1   8
TORSDOF 1
ENDMDL
