MODEL 1
REMARK minimizedAffinity 3.69540882
REMARK minimizedRMSD -1
REMARK  1 active torsions:
REMARK  status: ('A' for Active; 'I' for Inactive)
REMARK    1  A    between atoms: C1_2  and  C2_3 
ROOT
ATOM      1  C2  UNL d   1      -3.715   0.111   4.048  0.00  0.00    -0.081 A 
ATOM      2  C3  UNL d   1      -4.496  -0.862   3.412  0.00  0.00     0.006 A 
ATOM      3  C4  UNL d   1      -4.017  -1.528   2.281  0.00  0.00     0.002 A 
ATOM      4  C5  UNL d   1      -2.746  -1.237   1.772  0.00  0.00    -0.080 A 
ATOM      5  C6  UNL d   1      -2.207  -1.966   0.577  0.00  0.00     0.076 C 
ATOM      6  C7  UNL d   1      -1.973  -0.253   2.397  0.00  0.00     0.002 A 
ATOM      7  C8  UNL d   1      -2.452   0.413   3.527  0.00  0.00     0.006 A 
ENDROOT
BRANCH   1   8
ATOM      8  C1  UNL d   1      -4.203   0.784   5.305  0.00  0.00     0.054 C 
ATOM      9  C   UNL d   1      -3.079   1.540   6.000  0.00  0.00     0.018 C 
ENDBRANCH   1   8
TORSDOF 1
ENDMDL
