MODEL 1
REMARK minimizedAffinity 10.7026711
REMARK minimizedRMSD -1
REMARK  1 active torsions:
REMARK  status: ('A' for Active; 'I' for Inactive)
REMARK    1  A    between atoms: C1_2  and  C2_3 
ROOT
ATOM      1  C2  UNL d   1       3.814  -3.574  -0.369  0.00  0.00    -0.081 A 
ATOM      2  C3  UNL d   1       4.418  -2.450  -0.946  0.00  0.00     0.006 A 
ATOM      3  C4  UNL d   1       4.206  -1.178  -0.409  0.00  0.00     0.002 A 
ATOM      4  C5  UNL d   1       3.395  -1.010   0.718  0.00  0.00    -0.080 A 
ATOM      5  C6  UNL d   1       3.184   0.347   1.323  0.00  0.00     0.076 C 
ATOM      6  C7  UNL d   1       2.777  -2.130   1.285  0.00  0.00     0.002 A 
ATOM      7  C8  UNL d   1       2.988  -3.402   0.747  0.00  0.00     0.006 A 
ENDROOT
BRANCH   1   8
ATOM      8  C1  UNL d   1       4.091  -4.955  -0.906  0.00  0.00     0.054 C 
ATOM      9  C   UNL d   1       4.042  -5.999   0.199  0.00  0.00     0.018 C 
ENDBRANCH   1   8
TORSDOF 1
ENDMDL
