MODEL 1
REMARK minimizedAffinity 0.924565732
REMARK minimizedRMSD -1
REMARK  1 active torsions:
REMARK  status: ('A' for Active; 'I' for Inactive)
REMARK    1  A    between atoms: C1_2  and  C2_3 
ROOT
ATOM      1  C2  UNL d   1       1.939  -5.272  -4.422  0.00  0.00    -0.081 A 
ATOM      2  C3  UNL d   1       1.559  -6.000  -5.556  0.00  0.00     0.006 A 
ATOM      3  C4  UNL d   1       0.235  -5.979  -6.000  0.00  0.00     0.002 A 
ATOM      4  C5  UNL d   1      -0.729  -5.225  -5.323  0.00  0.00    -0.080 A 
ATOM      5  C6  UNL d   1      -2.148  -5.170  -5.806  0.00  0.00     0.076 C 
ATOM      6  C7  UNL d   1      -0.354  -4.512  -4.179  0.00  0.00     0.002 A 
ATOM      7  C8  UNL d   1       0.970  -4.533  -3.734  0.00  0.00     0.006 A 
ENDROOT
BRANCH   1   8
ATOM      8  C1  UNL d   1       3.379  -5.240  -3.978  0.00  0.00     0.054 C 
ATOM      9  C   UNL d   1       3.515  -4.650  -2.582  0.00  0.00     0.018 C 
ENDBRANCH   1   8
TORSDOF 1
ENDMDL
