MODEL 1
REMARK minimizedAffinity 9.62514782
REMARK minimizedRMSD -1
REMARK  1 active torsions:
REMARK  status: ('A' for Active; 'I' for Inactive)
REMARK    1  A    between atoms: C1_2  and  C2_3 
ROOT
ATOM      1  C2  UNL d   1      -5.036   3.552   5.567  0.00  0.00    -0.081 A 
ATOM      2  C3  UNL d   1      -3.697   3.863   5.297  0.00  0.00     0.006 A 
ATOM      3  C4  UNL d   1      -2.820   2.876   4.839  0.00  0.00     0.002 A 
ATOM      4  C5  UNL d   1      -3.269   1.567   4.636  0.00  0.00    -0.080 A 
ATOM      5  C6  UNL d   1      -2.345   0.506   4.116  0.00  0.00     0.076 C 
ATOM      6  C7  UNL d   1      -4.602   1.253   4.922  0.00  0.00     0.002 A 
ATOM      7  C8  UNL d   1      -5.479   2.238   5.381  0.00  0.00     0.006 A 
ENDROOT
BRANCH   1   8
ATOM      8  C1  UNL d   1      -6.000   4.628   5.999  0.00  0.00     0.054 C 
ATOM      9  C   UNL d   1      -5.338   5.998   5.995  0.00  0.00     0.018 C 
ENDBRANCH   1   8
TORSDOF 1
ENDMDL
