MODEL 1
REMARK minimizedAffinity 23.2864704
REMARK minimizedRMSD -1
REMARK  1 active torsions:
REMARK  status: ('A' for Active; 'I' for Inactive)
REMARK    1  A    between atoms: C1_2  and  C2_3 
ROOT
ATOM      1  C2  UNL d   1      -4.988  -3.147   2.578  0.00  0.00    -0.081 A 
ATOM      2  C3  UNL d   1      -5.414  -4.474   2.444  0.00  0.00     0.006 A 
ATOM      3  C4  UNL d   1      -5.173  -5.401   3.461  0.00  0.00     0.002 A 
ATOM      4  C5  UNL d   1      -4.510  -5.016   4.631  0.00  0.00    -0.080 A 
ATOM      5  C6  UNL d   1      -4.272  -5.994   5.743  0.00  0.00     0.076 C 
ATOM      6  C7  UNL d   1      -4.069  -3.694   4.758  0.00  0.00     0.002 A 
ATOM      7  C8  UNL d   1      -4.309  -2.767   3.741  0.00  0.00     0.006 A 
ENDROOT
BRANCH   1   8
ATOM      8  C1  UNL d   1      -5.303  -2.130   1.512  0.00  0.00     0.054 C 
ATOM      9  C   UNL d   1      -5.015  -0.715   1.994  0.00  0.00     0.018 C 
ENDBRANCH   1   8
TORSDOF 1
ENDMDL
