MODEL 1
REMARK minimizedAffinity 22.3558445
REMARK minimizedRMSD -1
REMARK  1 active torsions:
REMARK  status: ('A' for Active; 'I' for Inactive)
REMARK    1  A    between atoms: C1_2  and  C2_3 
ROOT
ATOM      1  C2  UNL d   1      -3.466  -0.030   1.600  0.00  0.00    -0.081 A 
ATOM      2  C3  UNL d   1      -2.962  -1.265   1.175  0.00  0.00     0.006 A 
ATOM      3  C4  UNL d   1      -1.657  -1.645   1.496  0.00  0.00     0.002 A 
ATOM      4  C5  UNL d   1      -0.837  -0.801   2.253  0.00  0.00    -0.080 A 
ATOM      5  C6  UNL d   1       0.555  -1.210   2.631  0.00  0.00     0.076 C 
ATOM      6  C7  UNL d   1      -1.335   0.440   2.664  0.00  0.00     0.002 A 
ATOM      7  C8  UNL d   1      -2.640   0.821   2.342  0.00  0.00     0.006 A 
ENDROOT
BRANCH   1   8
ATOM      8  C1  UNL d   1      -4.895   0.355   1.311  0.00  0.00     0.054 C 
ATOM      9  C   UNL d   1      -5.025   1.013  -0.056  0.00  0.00     0.018 C 
ENDBRANCH   1   8
TORSDOF 1
ENDMDL
