MODEL 1
REMARK minimizedAffinity 7.06010962
REMARK minimizedRMSD -1
REMARK  1 active torsions:
REMARK  status: ('A' for Active; 'I' for Inactive)
REMARK    1  A    between atoms: C1_2  and  C2_3 
ROOT
ATOM      1  C2  UNL d   1       3.182  -0.426  -0.132  0.00  0.00    -0.081 A 
ATOM      2  C3  UNL d   1       3.861  -1.068  -1.174  0.00  0.00     0.006 A 
ATOM      3  C4  UNL d   1       3.988  -2.459  -1.185  0.00  0.00     0.002 A 
ATOM      4  C5  UNL d   1       3.433  -3.231  -0.159  0.00  0.00    -0.080 A 
ATOM      5  C6  UNL d   1       3.536  -4.727  -0.175  0.00  0.00     0.076 C 
ATOM      6  C7  UNL d   1       2.770  -2.588   0.892  0.00  0.00     0.002 A 
ATOM      7  C8  UNL d   1       2.643  -1.197   0.904  0.00  0.00     0.006 A 
ENDROOT
BRANCH   1   8
ATOM      8  C1  UNL d   1       2.987   1.069  -0.150  0.00  0.00     0.054 C 
ATOM      9  C   UNL d   1       2.129   1.500  -1.331  0.00  0.00     0.018 C 
ENDBRANCH   1   8
TORSDOF 1
ENDMDL
