MODEL 1
REMARK minimizedAffinity 10.7294207
REMARK minimizedRMSD -1
REMARK  1 active torsions:
REMARK  status: ('A' for Active; 'I' for Inactive)
REMARK    1  A    between atoms: C1_2  and  C2_3 
ROOT
ATOM      1  C2  UNL d   1       4.142  -1.709  -0.279  0.00  0.00    -0.081 A 
ATOM      2  C3  UNL d   1       4.189  -0.550  -1.063  0.00  0.00     0.006 A 
ATOM      3  C4  UNL d   1       3.942   0.701  -0.492  0.00  0.00     0.002 A 
ATOM      4  C5  UNL d   1       3.652   0.815   0.872  0.00  0.00    -0.080 A 
ATOM      5  C6  UNL d   1       3.414   2.154   1.503  0.00  0.00     0.076 C 
ATOM      6  C7  UNL d   1       3.588  -0.345   1.651  0.00  0.00     0.002 A 
ATOM      7  C8  UNL d   1       3.834  -1.596   1.081  0.00  0.00     0.006 A 
ENDROOT
BRANCH   1   8
ATOM      8  C1  UNL d   1       4.472  -3.053  -0.878  0.00  0.00     0.054 C 
ATOM      9  C   UNL d   1       3.269  -3.985  -0.841  0.00  0.00     0.018 C 
ENDBRANCH   1   8
TORSDOF 1
ENDMDL
