MODEL 1
REMARK minimizedAffinity 16.9896259
REMARK minimizedRMSD -1
REMARK  1 active torsions:
REMARK  status: ('A' for Active; 'I' for Inactive)
REMARK    1  A    between atoms: C1_2  and  C2_3 
ROOT
ATOM      1  C2  UNL d   1      -4.888   0.216  -0.189  0.00  0.00    -0.081 A 
ATOM      2  C3  UNL d   1      -5.449   0.580   1.041  0.00  0.00     0.006 A 
ATOM      3  C4  UNL d   1      -4.669   0.594   2.200  0.00  0.00     0.002 A 
ATOM      4  C5  UNL d   1      -3.313   0.252   2.146  0.00  0.00    -0.080 A 
ATOM      5  C6  UNL d   1      -2.457   0.292   3.377  0.00  0.00     0.076 C 
ATOM      6  C7  UNL d   1      -2.757  -0.129   0.921  0.00  0.00     0.002 A 
ATOM      7  C8  UNL d   1      -3.537  -0.144  -0.238  0.00  0.00     0.006 A 
ENDROOT
BRANCH   1   8
ATOM      8  C1  UNL d   1      -5.711   0.263  -1.451  0.00  0.00     0.054 C 
ATOM      9  C   UNL d   1      -5.308  -0.843  -2.415  0.00  0.00     0.018 C 
ENDBRANCH   1   8
TORSDOF 1
ENDMDL
