MODEL 1
REMARK minimizedAffinity 11.1548586
REMARK minimizedRMSD -1
REMARK  1 active torsions:
REMARK  status: ('A' for Active; 'I' for Inactive)
REMARK    1  A    between atoms: C1_2  and  C2_3 
ROOT
ATOM      1  C2  UNL d   1       0.744  -3.102   0.806  0.00  0.00    -0.081 A 
ATOM      2  C3  UNL d   1      -0.623  -3.269   0.550  0.00  0.00     0.006 A 
ATOM      3  C4  UNL d   1      -1.550  -2.336   1.019  0.00  0.00     0.002 A 
ATOM      4  C5  UNL d   1      -1.127  -1.216   1.742  0.00  0.00    -0.080 A 
ATOM      5  C6  UNL d   1      -2.109  -0.190   2.225  0.00  0.00     0.076 C 
ATOM      6  C7  UNL d   1       0.237  -1.057   2.013  0.00  0.00     0.002 A 
ATOM      7  C8  UNL d   1       1.165  -1.991   1.546  0.00  0.00     0.006 A 
ENDROOT
BRANCH   1   8
ATOM      8  C1  UNL d   1       1.753  -4.072   0.247  0.00  0.00     0.054 C 
ATOM      9  C   UNL d   1       3.017  -3.357  -0.207  0.00  0.00     0.018 C 
ENDBRANCH   1   8
TORSDOF 1
ENDMDL
