MODEL 1
REMARK minimizedAffinity 10.5157833
REMARK minimizedRMSD -1
REMARK  0 active torsions:
REMARK  status: ('A' for Active; 'I' for Inactive)
ROOT
ATOM      1  C2' OXE d   1      -2.261  -5.253   0.394  0.00  0.00     0.078 C 
ATOM      2  C1' OXE d   1      -0.845  -2.863   0.796  0.00  0.00     0.078 C 
ATOM      3  C1  OXE d   1      -0.298  -3.843  -0.211  0.00  0.00    -0.078 A 
ATOM      4  C2  OXE d   1      -0.972  -5.030  -0.368  0.00  0.00    -0.078 A 
ATOM      5  C3  OXE d   1      -0.542  -5.946  -1.324  0.00  0.00     0.003 A 
ATOM      6  C4  OXE d   1       0.656  -5.738  -2.017  0.00  0.00    -0.002 A 
ATOM      7  C5  OXE d   1       1.380  -4.553  -1.843  0.00  0.00    -0.002 A 
ATOM      8  C6  OXE d   1       0.894  -3.579  -0.977  0.00  0.00     0.003 A 
ENDROOT
TORSDOF 0
ENDMDL
