MODEL 1
REMARK minimizedAffinity 8.61256218
REMARK minimizedRMSD -1
REMARK  0 active torsions:
REMARK  status: ('A' for Active; 'I' for Inactive)
ROOT
ATOM      1  C2' OXE d   1       1.069  -1.228   2.272  0.00  0.00     0.078 C 
ATOM      2  C1' OXE d   1       2.099  -3.713   1.469  0.00  0.00     0.078 C 
ATOM      3  C1  OXE d   1       0.680  -3.381   1.080  0.00  0.00    -0.078 A 
ATOM      4  C2  OXE d   1       0.169  -2.183   1.517  0.00  0.00    -0.078 A 
ATOM      5  C3  OXE d   1      -1.116  -1.804   1.141  0.00  0.00     0.003 A 
ATOM      6  C4  OXE d   1      -1.945  -2.697   0.451  0.00  0.00    -0.002 A 
ATOM      7  C5  OXE d   1      -1.457  -3.938   0.031  0.00  0.00    -0.002 A 
ATOM      8  C6  OXE d   1      -0.136  -4.278   0.300  0.00  0.00     0.003 A 
ENDROOT
TORSDOF 0
ENDMDL
