MODEL 1
REMARK minimizedAffinity 7.63903475
REMARK minimizedRMSD -1
REMARK  0 active torsions:
REMARK  status: ('A' for Active; 'I' for Inactive)
ROOT
ATOM      1  C2' OXE d   1      -4.502   5.119  -4.304  0.00  0.00     0.078 C 
ATOM      2  C1' OXE d   1      -3.763   3.007  -6.000  0.00  0.00     0.078 C 
ATOM      3  C1  OXE d   1      -3.867   2.720  -4.523  0.00  0.00    -0.078 A 
ATOM      4  C2  OXE d   1      -4.183   3.770  -3.695  0.00  0.00    -0.078 A 
ATOM      5  C3  OXE d   1      -4.345   3.548  -2.331  0.00  0.00     0.003 A 
ATOM      6  C4  OXE d   1      -4.038   2.300  -1.774  0.00  0.00    -0.002 A 
ATOM      7  C5  OXE d   1      -3.675   1.227  -2.595  0.00  0.00    -0.002 A 
ATOM      8  C6  OXE d   1      -3.627   1.409  -3.973  0.00  0.00     0.003 A 
ENDROOT
TORSDOF 0
ENDMDL
