MODEL 1
REMARK minimizedAffinity 8.59686565
REMARK minimizedRMSD -1
REMARK  0 active torsions:
REMARK  status: ('A' for Active; 'I' for Inactive)
ROOT
ATOM      1  C2' OXE d   1      -3.415   1.483  -2.974  0.00  0.00     0.078 C 
ATOM      2  C1' OXE d   1      -4.840   3.485  -1.617  0.00  0.00     0.078 C 
ATOM      3  C1  OXE d   1      -4.338   3.796  -3.005  0.00  0.00    -0.078 A 
ATOM      4  C2  OXE d   1      -3.602   2.827  -3.643  0.00  0.00    -0.078 A 
ATOM      5  C3  OXE d   1      -3.162   3.042  -4.946  0.00  0.00     0.003 A 
ATOM      6  C4  OXE d   1      -3.330   4.293  -5.554  0.00  0.00    -0.002 A 
ATOM      7  C5  OXE d   1      -4.043   5.307  -4.905  0.00  0.00    -0.002 A 
ATOM      8  C6  OXE d   1      -4.589   5.061  -3.650  0.00  0.00     0.003 A 
ENDROOT
TORSDOF 0
ENDMDL
