MODEL 1
REMARK minimizedAffinity 15.5923262
REMARK minimizedRMSD -1
REMARK  0 active torsions:
REMARK  status: ('A' for Active; 'I' for Inactive)
ROOT
ATOM      1  C2' OXE d   1      -6.000   3.365  -2.023  0.00  0.00     0.078 C 
ATOM      2  C1' OXE d   1      -3.906   1.824  -3.082  0.00  0.00     0.078 C 
ATOM      3  C1  OXE d   1      -4.331   3.053  -3.846  0.00  0.00    -0.078 A 
ATOM      4  C2  OXE d   1      -5.387   3.775  -3.345  0.00  0.00    -0.078 A 
ATOM      5  C3  OXE d   1      -5.784   4.948  -3.981  0.00  0.00     0.003 A 
ATOM      6  C4  OXE d   1      -5.219   5.315  -5.209  0.00  0.00    -0.002 A 
ATOM      7  C5  OXE d   1      -4.169   4.571  -5.757  0.00  0.00    -0.002 A 
ATOM      8  C6  OXE d   1      -3.685   3.464  -5.069  0.00  0.00     0.003 A 
ENDROOT
TORSDOF 0
ENDMDL
