MODEL 1
REMARK minimizedAffinity 17.576498
REMARK minimizedRMSD -1
REMARK  0 active torsions:
REMARK  status: ('A' for Active; 'I' for Inactive)
ROOT
ATOM      1  C2' OXE d   1       2.083  -4.455  -1.496  0.00  0.00     0.078 C 
ATOM      2  C1' OXE d   1       2.300  -2.454   0.460  0.00  0.00     0.078 C 
ATOM      3  C1  OXE d   1       3.572  -3.102  -0.027  0.00  0.00    -0.078 A 
ATOM      4  C2  OXE d   1       3.453  -4.113  -0.950  0.00  0.00    -0.078 A 
ATOM      5  C3  OXE d   1       4.597  -4.707  -1.474  0.00  0.00     0.003 A 
ATOM      6  C4  OXE d   1       5.860  -4.392  -0.956  0.00  0.00    -0.002 A 
ATOM      7  C5  OXE d   1       6.000  -3.393   0.013  0.00  0.00    -0.002 A 
ATOM      8  C6  OXE d   1       4.873  -2.710   0.456  0.00  0.00     0.003 A 
ENDROOT
TORSDOF 0
ENDMDL
