MODEL 1
REMARK minimizedAffinity 11.6059246
REMARK minimizedRMSD -1
REMARK  0 active torsions:
REMARK  status: ('A' for Active; 'I' for Inactive)
ROOT
ATOM      1  C2' OXE d   1       1.812  -1.712   1.840  0.00  0.00     0.078 C 
ATOM      2  C1' OXE d   1      -0.192  -3.628   1.398  0.00  0.00     0.078 C 
ATOM      3  C1  OXE d   1       0.827  -3.410   0.307  0.00  0.00    -0.078 A 
ATOM      4  C2  OXE d   1       1.776  -2.438   0.512  0.00  0.00    -0.078 A 
ATOM      5  C3  OXE d   1       2.771  -2.235  -0.439  0.00  0.00     0.003 A 
ATOM      6  C4  OXE d   1       2.724  -2.903  -1.668  0.00  0.00    -0.002 A 
ATOM      7  C5  OXE d   1       1.743  -3.869  -1.914  0.00  0.00    -0.002 A 
ATOM      8  C6  OXE d   1       0.814  -4.164  -0.922  0.00  0.00     0.003 A 
ENDROOT
TORSDOF 0
ENDMDL
