MODEL 1
REMARK minimizedAffinity 13.1561766
REMARK minimizedRMSD -1
REMARK  0 active torsions:
REMARK  status: ('A' for Active; 'I' for Inactive)
ROOT
ATOM      1  C2' OXE d   1       1.900  -3.462   0.330  0.00  0.00     0.078 C 
ATOM      2  C1' OXE d   1       1.629  -5.162  -1.888  0.00  0.00     0.078 C 
ATOM      3  C1  OXE d   1       0.387  -4.834  -1.096  0.00  0.00    -0.078 A 
ATOM      4  C2  OXE d   1       0.537  -4.039   0.015  0.00  0.00    -0.078 A 
ATOM      5  C3  OXE d   1      -0.584  -3.662   0.749  0.00  0.00     0.003 A 
ATOM      6  C4  OXE d   1      -1.839  -4.209   0.456  0.00  0.00    -0.002 A 
ATOM      7  C5  OXE d   1      -2.007  -5.052  -0.647  0.00  0.00    -0.002 A 
ATOM      8  C6  OXE d   1      -0.914  -5.340  -1.457  0.00  0.00     0.003 A 
ENDROOT
TORSDOF 0
ENDMDL
