MODEL 1
REMARK minimizedAffinity 10.0231686
REMARK minimizedRMSD -1
REMARK  0 active torsions:
REMARK  status: ('A' for Active; 'I' for Inactive)
ROOT
ATOM      1  C2' OXE d   1       2.373  -3.201   0.471  0.00  0.00     0.078 C 
ATOM      2  C1' OXE d   1       2.081  -4.695  -1.887  0.00  0.00     0.078 C 
ATOM      3  C1  OXE d   1       3.469  -4.544  -1.318  0.00  0.00    -0.078 A 
ATOM      4  C2  OXE d   1       3.609  -3.772  -0.189  0.00  0.00    -0.078 A 
ATOM      5  C3  OXE d   1       4.860  -3.644   0.408  0.00  0.00     0.003 A 
ATOM      6  C4  OXE d   1       6.000  -4.167  -0.215  0.00  0.00    -0.002 A 
ATOM      7  C5  OXE d   1       5.885  -4.923  -1.386  0.00  0.00    -0.002 A 
ATOM      8  C6  OXE d   1       4.625  -5.156  -1.926  0.00  0.00     0.003 A 
ENDROOT
TORSDOF 0
ENDMDL
