MODEL 1
REMARK minimizedAffinity 1.45225298
REMARK minimizedRMSD -1
REMARK  0 active torsions:
REMARK  status: ('A' for Active; 'I' for Inactive)
ROOT
ATOM      1  C2' OXE d   1      -3.853   1.254  -3.343  0.00  0.00     0.078 C 
ATOM      2  C1' OXE d   1      -3.351   2.621  -5.743  0.00  0.00     0.078 C 
ATOM      3  C1  OXE d   1      -3.752   3.437  -4.539  0.00  0.00    -0.078 A 
ATOM      4  C2  OXE d   1      -4.041   2.755  -3.381  0.00  0.00    -0.078 A 
ATOM      5  C3  OXE d   1      -4.362   3.463  -2.226  0.00  0.00     0.003 A 
ATOM      6  C4  OXE d   1      -4.543   4.850  -2.273  0.00  0.00    -0.002 A 
ATOM      7  C5  OXE d   1      -4.293   5.560  -3.452  0.00  0.00    -0.002 A 
ATOM      8  C6  OXE d   1      -3.856   4.874  -4.580  0.00  0.00     0.003 A 
ENDROOT
TORSDOF 0
ENDMDL
