MODEL 1
REMARK minimizedAffinity 17.4770164
REMARK minimizedRMSD -1
REMARK  0 active torsions:
REMARK  status: ('A' for Active; 'I' for Inactive)
ROOT
ATOM      1  C2' OXE d   1       1.107  -1.158   2.270  0.00  0.00     0.078 C 
ATOM      2  C1' OXE d   1       2.372  -3.663   2.209  0.00  0.00     0.078 C 
ATOM      3  C1  OXE d   1       1.998  -3.097   3.555  0.00  0.00    -0.078 A 
ATOM      4  C2  OXE d   1       1.421  -1.850   3.579  0.00  0.00    -0.078 A 
ATOM      5  C3  OXE d   1       1.007  -1.305   4.790  0.00  0.00     0.003 A 
ATOM      6  C4  OXE d   1       1.310  -1.946   5.997  0.00  0.00    -0.002 A 
ATOM      7  C5  OXE d   1       1.932  -3.199   5.998  0.00  0.00    -0.002 A 
ATOM      8  C6  OXE d   1       2.244  -3.806   4.787  0.00  0.00     0.003 A 
ENDROOT
TORSDOF 0
ENDMDL
