MODEL 1
REMARK minimizedAffinity 1.18307841
REMARK minimizedRMSD -1
REMARK  0 active torsions:
REMARK  status: ('A' for Active; 'I' for Inactive)
ROOT
ATOM      1  C   UNL d   1       2.374  -4.303  -3.368  0.00  0.00     0.020 A 
ATOM      2  C1  UNL d   1       3.408  -5.228  -3.505  0.00  0.00     0.020 A 
ATOM      3  C2  UNL d   1       4.354  -5.373  -2.488  0.00  0.00     0.034 A 
ATOM      4  C3  UNL d   1       4.268  -4.592  -1.330  0.00  0.00     0.017 A 
ATOM      5  C4  UNL d   1       3.230  -3.663  -1.194  0.00  0.00     0.017 A 
ATOM      6  C5  UNL d   1       2.285  -3.523  -2.215  0.00  0.00     0.034 A 
ATOM      7 Cl   UNL d   1       3.058  -2.664   0.206  0.00  0.00    -0.070 Cl
ATOM      8 Cl1  UNL d   1       5.472  -4.824  -0.113  0.00  0.00    -0.070 Cl
ENDROOT
TORSDOF 0
ENDMDL
