MODEL 1
REMARK minimizedAffinity 2.11199689
REMARK minimizedRMSD -1
REMARK  0 active torsions:
REMARK  status: ('A' for Active; 'I' for Inactive)
ROOT
ATOM      1  C   UNL d   1       2.553  -4.148  -1.670  0.00  0.00     0.020 A 
ATOM      2  C1  UNL d   1       3.676  -4.903  -1.333  0.00  0.00     0.020 A 
ATOM      3  C2  UNL d   1       4.686  -5.110  -2.274  0.00  0.00     0.034 A 
ATOM      4  C3  UNL d   1       4.576  -4.561  -3.557  0.00  0.00     0.017 A 
ATOM      5  C4  UNL d   1       3.449  -3.803  -3.894  0.00  0.00     0.017 A 
ATOM      6  C5  UNL d   1       2.440  -3.599  -2.948  0.00  0.00     0.034 A 
ATOM      7 Cl   UNL d   1       3.242  -3.095  -5.457  0.00  0.00    -0.070 Cl
ATOM      8 Cl1  UNL d   1       5.864  -4.857  -4.671  0.00  0.00    -0.070 Cl
ENDROOT
TORSDOF 0
ENDMDL
