MODEL 1
REMARK minimizedAffinity 1.69528902
REMARK minimizedRMSD -1
REMARK  0 active torsions:
REMARK  status: ('A' for Active; 'I' for Inactive)
ROOT
ATOM      1  C   UNL d   1       3.248  -3.809  -0.179  0.00  0.00     0.020 A 
ATOM      2  C1  UNL d   1       3.801  -4.745  -1.052  0.00  0.00     0.020 A 
ATOM      3  C2  UNL d   1       3.730  -4.540  -2.432  0.00  0.00     0.034 A 
ATOM      4  C3  UNL d   1       3.106  -3.396  -2.942  0.00  0.00     0.017 A 
ATOM      5  C4  UNL d   1       2.552  -2.457  -2.065  0.00  0.00     0.017 A 
ATOM      6  C5  UNL d   1       2.625  -2.667  -0.685  0.00  0.00     0.034 A 
ATOM      7 Cl   UNL d   1       1.766  -1.021  -2.620  0.00  0.00    -0.070 Cl
ATOM      8 Cl1  UNL d   1       3.056  -3.207  -4.659  0.00  0.00    -0.070 Cl
ENDROOT
TORSDOF 0
ENDMDL
