MODEL 1
REMARK minimizedAffinity 12.9477625
REMARK minimizedRMSD -1
REMARK  0 active torsions:
REMARK  status: ('A' for Active; 'I' for Inactive)
ROOT
ATOM      1  C   UNL d   1       1.928  -3.895  -3.863  0.00  0.00     0.020 A 
ATOM      2  C1  UNL d   1       2.930  -4.846  -4.053  0.00  0.00     0.020 A 
ATOM      3  C2  UNL d   1       3.779  -5.186  -2.998  0.00  0.00     0.034 A 
ATOM      4  C3  UNL d   1       3.627  -4.575  -1.747  0.00  0.00     0.017 A 
ATOM      5  C4  UNL d   1       2.621  -3.621  -1.558  0.00  0.00     0.017 A 
ATOM      6  C5  UNL d   1       1.774  -3.285  -2.618  0.00  0.00     0.034 A 
ATOM      7 Cl   UNL d   1       2.372  -2.825  -0.044  0.00  0.00    -0.070 Cl
ATOM      8 Cl1  UNL d   1       4.712  -5.045  -0.487  0.00  0.00    -0.070 Cl
ENDROOT
TORSDOF 0
ENDMDL
