MODEL 1
REMARK minimizedAffinity 4.10033655
REMARK minimizedRMSD -1
REMARK  0 active torsions:
REMARK  status: ('A' for Active; 'I' for Inactive)
ROOT
ATOM      1  C   UNL d   1       3.913  -4.875  -0.183  0.00  0.00     0.020 A 
ATOM      2  C1  UNL d   1       2.779  -4.064  -0.163  0.00  0.00     0.020 A 
ATOM      3  C2  UNL d   1       2.286  -3.523  -1.352  0.00  0.00     0.034 A 
ATOM      4  C3  UNL d   1       2.928  -3.791  -2.567  0.00  0.00     0.017 A 
ATOM      5  C4  UNL d   1       4.067  -4.605  -2.586  0.00  0.00     0.017 A 
ATOM      6  C5  UNL d   1       4.555  -5.145  -1.393  0.00  0.00     0.034 A 
ATOM      7 Cl   UNL d   1       4.912  -4.981  -4.046  0.00  0.00    -0.070 Cl
ATOM      8 Cl1  UNL d   1       2.264  -3.088  -3.999  0.00  0.00    -0.070 Cl
ENDROOT
TORSDOF 0
ENDMDL
