MODEL 1
REMARK minimizedAffinity 5.39043093
REMARK minimizedRMSD -1
REMARK  0 active torsions:
REMARK  status: ('A' for Active; 'I' for Inactive)
ROOT
ATOM      1  C   UNL d   1       2.129  -3.838  -4.193  0.00  0.00     0.020 A 
ATOM      2  C1  UNL d   1       1.673  -4.101  -2.902  0.00  0.00     0.020 A 
ATOM      3  C2  UNL d   1       2.553  -4.594  -1.936  0.00  0.00     0.034 A 
ATOM      4  C3  UNL d   1       3.895  -4.825  -2.260  0.00  0.00     0.017 A 
ATOM      5  C4  UNL d   1       4.353  -4.561  -3.556  0.00  0.00     0.017 A 
ATOM      6  C5  UNL d   1       3.467  -4.068  -4.519  0.00  0.00     0.034 A 
ATOM      7 Cl   UNL d   1       5.994  -4.821  -4.031  0.00  0.00    -0.070 Cl
ATOM      8 Cl1  UNL d   1       4.928  -5.435  -1.017  0.00  0.00    -0.070 Cl
ENDROOT
TORSDOF 0
ENDMDL
