MODEL 1
REMARK minimizedAffinity 6.77153444
REMARK minimizedRMSD -1
REMARK  0 active torsions:
REMARK  status: ('A' for Active; 'I' for Inactive)
ROOT
ATOM      1  C   UNL d   1       2.432  -4.207  -3.672  0.00  0.00     0.020 A 
ATOM      2  C1  UNL d   1       3.440  -5.167  -3.591  0.00  0.00     0.020 A 
ATOM      3  C2  UNL d   1       4.149  -5.336  -2.399  0.00  0.00     0.034 A 
ATOM      4  C3  UNL d   1       3.850  -4.545  -1.284  0.00  0.00     0.017 A 
ATOM      5  C4  UNL d   1       2.837  -3.582  -1.366  0.00  0.00     0.017 A 
ATOM      6  C5  UNL d   1       2.131  -3.417  -2.562  0.00  0.00     0.034 A 
ATOM      7 Cl   UNL d   1       2.411  -2.569  -0.032  0.00  0.00    -0.070 Cl
ATOM      8 Cl1  UNL d   1       4.765  -4.809   0.157  0.00  0.00    -0.070 Cl
ENDROOT
TORSDOF 0
ENDMDL
