MODEL 1
REMARK minimizedAffinity 0.708565593
REMARK minimizedRMSD -1
REMARK  0 active torsions:
REMARK  status: ('A' for Active; 'I' for Inactive)
ROOT
ATOM      1  C   UNL d   1       2.989  -3.206  -4.014  0.00  0.00     0.020 A 
ATOM      2  C1  UNL d   1       3.983  -4.176  -3.883  0.00  0.00     0.020 A 
ATOM      3  C2  UNL d   1       4.409  -4.572  -2.614  0.00  0.00     0.034 A 
ATOM      4  C3  UNL d   1       3.842  -3.998  -1.470  0.00  0.00     0.017 A 
ATOM      5  C4  UNL d   1       2.845  -3.025  -1.602  0.00  0.00     0.017 A 
ATOM      6  C5  UNL d   1       2.421  -2.633  -2.876  0.00  0.00     0.034 A 
ATOM      7 Cl   UNL d   1       2.098  -2.272  -0.237  0.00  0.00    -0.070 Cl
ATOM      8 Cl1  UNL d   1       4.417  -4.536   0.068  0.00  0.00    -0.070 Cl
ENDROOT
TORSDOF 0
ENDMDL
