MODEL 1
REMARK minimizedAffinity 2.09094381
REMARK minimizedRMSD -1
REMARK  0 active torsions:
REMARK  status: ('A' for Active; 'I' for Inactive)
ROOT
ATOM      1  C   UNL d   1       1.933  -3.771  -3.595  0.00  0.00     0.020 A 
ATOM      2  C1  UNL d   1       2.766  -4.818  -3.205  0.00  0.00     0.020 A 
ATOM      3  C2  UNL d   1       3.466  -4.741  -1.999  0.00  0.00     0.034 A 
ATOM      4  C3  UNL d   1       3.334  -3.615  -1.179  0.00  0.00     0.017 A 
ATOM      5  C4  UNL d   1       2.496  -2.564  -1.571  0.00  0.00     0.017 A 
ATOM      6  C5  UNL d   1       1.798  -2.646  -2.780  0.00  0.00     0.034 A 
ATOM      7 Cl   UNL d   1       2.282  -1.142  -0.612  0.00  0.00    -0.070 Cl
ATOM      8 Cl1  UNL d   1       4.228  -3.587   0.299  0.00  0.00    -0.070 Cl
ENDROOT
TORSDOF 0
ENDMDL
