MODEL 1
REMARK minimizedAffinity 8.9250946
REMARK minimizedRMSD -1
REMARK  0 active torsions:
REMARK  status: ('A' for Active; 'I' for Inactive)
ROOT
ATOM      1  C   UNL d   1       2.416  -4.080  -3.707  0.00  0.00     0.020 A 
ATOM      2  C1  UNL d   1       3.390  -5.063  -3.878  0.00  0.00     0.020 A 
ATOM      3  C2  UNL d   1       4.122  -5.519  -2.779  0.00  0.00     0.034 A 
ATOM      4  C3  UNL d   1       3.881  -4.992  -1.505  0.00  0.00     0.017 A 
ATOM      5  C4  UNL d   1       2.903  -4.005  -1.335  0.00  0.00     0.017 A 
ATOM      6  C5  UNL d   1       2.173  -3.553  -2.438  0.00  0.00     0.034 A 
ATOM      7 Cl   UNL d   1       2.550  -3.307   0.206  0.00  0.00    -0.070 Cl
ATOM      8 Cl1  UNL d   1       4.824  -5.602  -0.192  0.00  0.00    -0.070 Cl
ENDROOT
TORSDOF 0
ENDMDL
