MODEL 1
REMARK minimizedAffinity 7.65432882
REMARK minimizedRMSD -1
REMARK  0 active torsions:
REMARK  status: ('A' for Active; 'I' for Inactive)
ROOT
ATOM      1  C   UNL d   1       0.046   1.993   5.991  0.00  0.00     0.020 A 
ATOM      2  C1  UNL d   1       0.701   1.522   4.854  0.00  0.00     0.020 A 
ATOM      3  C2  UNL d   1      -0.035   1.160   3.724  0.00  0.00     0.034 A 
ATOM      4  C3  UNL d   1      -1.431   1.267   3.729  0.00  0.00     0.017 A 
ATOM      5  C4  UNL d   1      -2.087   1.739   4.871  0.00  0.00     0.017 A 
ATOM      6  C5  UNL d   1      -1.345   2.101   6.000  0.00  0.00     0.034 A 
ATOM      7 Cl   UNL d   1      -3.806   1.898   4.953  0.00  0.00    -0.070 Cl
ATOM      8 Cl1  UNL d   1      -2.278   0.801   2.297  0.00  0.00    -0.070 Cl
ENDROOT
TORSDOF 0
ENDMDL
