MODEL 1
REMARK minimizedAffinity 10.4421501
REMARK minimizedRMSD -1
REMARK  0 active torsions:
REMARK  status: ('A' for Active; 'I' for Inactive)
ROOT
ATOM      1  C   UNL d   1       4.775  -3.984  -0.090  0.00  0.00     0.020 A 
ATOM      2  C1  UNL d   1       3.806  -4.695   0.616  0.00  0.00     0.020 A 
ATOM      3  C2  UNL d   1       2.755  -5.310  -0.067  0.00  0.00     0.034 A 
ATOM      4  C3  UNL d   1       2.669  -5.214  -1.461  0.00  0.00     0.017 A 
ATOM      5  C4  UNL d   1       3.642  -4.500  -2.169  0.00  0.00     0.017 A 
ATOM      6  C5  UNL d   1       4.693  -3.887  -1.480  0.00  0.00     0.034 A 
ATOM      7 Cl   UNL d   1       3.605  -4.338  -3.889  0.00  0.00    -0.070 Cl
ATOM      8 Cl1  UNL d   1       1.342  -5.999  -2.240  0.00  0.00    -0.070 Cl
ENDROOT
TORSDOF 0
ENDMDL
