MODEL 1
REMARK minimizedAffinity 3.54926467
REMARK minimizedRMSD -1
REMARK  0 active torsions:
REMARK  status: ('A' for Active; 'I' for Inactive)
ROOT
ATOM      1  C   UNL d   1      -4.140  -4.479   4.899  0.00  0.00     0.020 A 
ATOM      2  C1  UNL d   1      -4.141  -5.655   4.149  0.00  0.00     0.020 A 
ATOM      3  C2  UNL d   1      -4.720  -5.673   2.879  0.00  0.00     0.034 A 
ATOM      4  C3  UNL d   1      -5.302  -4.513   2.354  0.00  0.00     0.017 A 
ATOM      5  C4  UNL d   1      -5.301  -3.334   3.107  0.00  0.00     0.017 A 
ATOM      6  C5  UNL d   1      -4.719  -3.321   4.379  0.00  0.00     0.034 A 
ATOM      7 Cl   UNL d   1      -6.000  -1.863   2.527  0.00  0.00    -0.070 Cl
ATOM      8 Cl1  UNL d   1      -6.000  -4.608   0.776  0.00  0.00    -0.070 Cl
ENDROOT
TORSDOF 0
ENDMDL
