MODEL 1
REMARK minimizedAffinity 6.03560114
REMARK minimizedRMSD -1
REMARK  0 active torsions:
REMARK  status: ('A' for Active; 'I' for Inactive)
ROOT
ATOM      1  C   UNL d   1       2.073  -4.254  -4.044  0.00  0.00     0.020 A 
ATOM      2  C1  UNL d   1       1.481  -4.328  -2.784  0.00  0.00     0.020 A 
ATOM      3  C2  UNL d   1       2.260  -4.625  -1.663  0.00  0.00     0.034 A 
ATOM      4  C3  UNL d   1       3.635  -4.848  -1.800  0.00  0.00     0.017 A 
ATOM      5  C4  UNL d   1       4.228  -4.773  -3.066  0.00  0.00     0.017 A 
ATOM      6  C5  UNL d   1       3.443  -4.476  -4.185  0.00  0.00     0.034 A 
ATOM      7 Cl   UNL d   1       5.918  -5.036  -3.314  0.00  0.00    -0.070 Cl
ATOM      8 Cl1  UNL d   1       4.537  -5.209  -0.372  0.00  0.00    -0.070 Cl
ENDROOT
TORSDOF 0
ENDMDL
