MODEL 1
REMARK minimizedAffinity 2.79011822
REMARK minimizedRMSD -1
REMARK  0 active torsions:
REMARK  status: ('A' for Active; 'I' for Inactive)
ROOT
ATOM      1  C   UNL d   1       4.026  -4.803  -1.511  0.00  0.00     0.020 A 
ATOM      2  C1  UNL d   1       3.376  -6.000  -1.808  0.00  0.00     0.020 A 
ATOM      3  C2  UNL d   1       2.220  -5.990  -2.592  0.00  0.00     0.034 A 
ATOM      4  C3  UNL d   1       1.711  -4.782  -3.081  0.00  0.00     0.017 A 
ATOM      5  C4  UNL d   1       2.365  -3.581  -2.782  0.00  0.00     0.017 A 
ATOM      6  C5  UNL d   1       3.522  -3.596  -1.997  0.00  0.00     0.034 A 
ATOM      7 Cl   UNL d   1       1.797  -2.050  -3.350  0.00  0.00    -0.070 Cl
ATOM      8 Cl1  UNL d   1       0.277  -4.845  -4.044  0.00  0.00    -0.070 Cl
ENDROOT
TORSDOF 0
ENDMDL
