MODEL 1
REMARK minimizedAffinity -1.73790443
REMARK minimizedRMSD -1
REMARK  0 active torsions:
REMARK  status: ('A' for Active; 'I' for Inactive)
ROOT
ATOM      1  C   UNL d   1       2.109  -3.327  -3.662  0.00  0.00     0.020 A 
ATOM      2  C1  UNL d   1       1.568  -3.310  -2.377  0.00  0.00     0.020 A 
ATOM      3  C2  UNL d   1       2.344  -3.713  -1.288  0.00  0.00     0.034 A 
ATOM      4  C3  UNL d   1       3.665  -4.134  -1.482  0.00  0.00     0.017 A 
ATOM      5  C4  UNL d   1       4.207  -4.151  -2.773  0.00  0.00     0.017 A 
ATOM      6  C5  UNL d   1       3.425  -3.746  -3.859  0.00  0.00     0.034 A 
ATOM      7 Cl   UNL d   1       5.828  -4.657  -3.091  0.00  0.00    -0.070 Cl
ATOM      8 Cl1  UNL d   1       4.567  -4.619  -0.090  0.00  0.00    -0.070 Cl
ENDROOT
TORSDOF 0
ENDMDL
