MODEL 1
REMARK minimizedAffinity 7.81415272
REMARK minimizedRMSD -1
REMARK  0 active torsions:
REMARK  status: ('A' for Active; 'I' for Inactive)
ROOT
ATOM      1  C   UNL d   1      -3.891  -5.503  -5.851  0.00  0.00     0.020 A 
ATOM      2  C1  UNL d   1      -2.635  -5.289  -5.286  0.00  0.00     0.020 A 
ATOM      3  C2  UNL d   1      -2.266  -4.009  -4.868  0.00  0.00     0.034 A 
ATOM      4  C3  UNL d   1      -3.154  -2.937  -5.015  0.00  0.00     0.017 A 
ATOM      5  C4  UNL d   1      -4.415  -3.153  -5.583  0.00  0.00     0.017 A 
ATOM      6  C5  UNL d   1      -4.779  -4.437  -6.000  0.00  0.00     0.034 A 
ATOM      7 Cl   UNL d   1      -5.564  -1.880  -5.797  0.00  0.00    -0.070 Cl
ATOM      8 Cl1  UNL d   1      -2.631  -1.381  -4.476  0.00  0.00    -0.070 Cl
ENDROOT
TORSDOF 0
ENDMDL
