MODEL 1
REMARK minimizedAffinity 17.2441273
REMARK minimizedRMSD -1
REMARK  0 active torsions:
REMARK  status: ('A' for Active; 'I' for Inactive)
ROOT
ATOM      1  C   UNL d   1       2.454   2.399  -0.929  0.00  0.00     0.020 A 
ATOM      2  C1  UNL d   1       2.165   2.235   0.425  0.00  0.00     0.020 A 
ATOM      3  C2  UNL d   1       1.492   3.240   1.123  0.00  0.00     0.034 A 
ATOM      4  C3  UNL d   1       1.106   4.415   0.466  0.00  0.00     0.017 A 
ATOM      5  C4  UNL d   1       1.397   4.579  -0.893  0.00  0.00     0.017 A 
ATOM      6  C5  UNL d   1       2.071   3.568  -1.586  0.00  0.00     0.034 A 
ATOM      7 Cl   UNL d   1       0.953   6.000  -1.771  0.00  0.00    -0.070 Cl
ATOM      8 Cl1  UNL d   1       0.277   5.617   1.390  0.00  0.00    -0.070 Cl
ENDROOT
TORSDOF 0
ENDMDL
