MODEL 1
REMARK minimizedAffinity 18.8332558
REMARK minimizedRMSD -1
REMARK  0 active torsions:
REMARK  status: ('A' for Active; 'I' for Inactive)
ROOT
ATOM      1  C   UNL d   1      -4.544  -4.701  -5.575  0.00  0.00     0.020 A 
ATOM      2  C1  UNL d   1      -4.868  -3.413  -6.000  0.00  0.00     0.020 A 
ATOM      3  C2  UNL d   1      -4.091  -2.327  -5.593  0.00  0.00     0.034 A 
ATOM      4  C3  UNL d   1      -2.985  -2.526  -4.758  0.00  0.00     0.017 A 
ATOM      5  C4  UNL d   1      -2.661  -3.819  -4.332  0.00  0.00     0.017 A 
ATOM      6  C5  UNL d   1      -3.442  -4.903  -4.743  0.00  0.00     0.034 A 
ATOM      7 Cl   UNL d   1      -1.311  -4.144  -3.302  0.00  0.00    -0.070 Cl
ATOM      8 Cl1  UNL d   1      -2.068  -1.137  -4.294  0.00  0.00    -0.070 Cl
ENDROOT
TORSDOF 0
ENDMDL
