MODEL 1
REMARK minimizedAffinity 23.1220207
REMARK minimizedRMSD -1
REMARK  0 active torsions:
REMARK  status: ('A' for Active; 'I' for Inactive)
ROOT
ATOM      1  C   UNL d   1      -1.235   1.461   2.279  0.00  0.00     0.020 A 
ATOM      2  C1  UNL d   1      -1.343   1.333   3.663  0.00  0.00     0.020 A 
ATOM      3  C2  UNL d   1      -0.193   1.317   4.455  0.00  0.00     0.034 A 
ATOM      4  C3  UNL d   1       1.070   1.427   3.864  0.00  0.00     0.017 A 
ATOM      5  C4  UNL d   1       1.178   1.555   2.474  0.00  0.00     0.017 A 
ATOM      6  C5  UNL d   1       0.024   1.571   1.686  0.00  0.00     0.034 A 
ATOM      7 Cl   UNL d   1       2.703   1.696   1.672  0.00  0.00    -0.070 Cl
ATOM      8 Cl1  UNL d   1       2.449   1.399   4.904  0.00  0.00    -0.070 Cl
ENDROOT
TORSDOF 0
ENDMDL
