MODEL 1
REMARK minimizedAffinity -1.07971454
REMARK minimizedRMSD -1
REMARK  1 active torsions:
REMARK  status: ('A' for Active; 'I' for Inactive)
REMARK    1  A    between atoms: C1_2  and  C2_3 
ROOT
ATOM      1  C2  UNL d   1      -0.802  -3.764   2.250  0.00  0.00    -0.081 A 
ATOM      2  C3  UNL d   1      -1.262  -4.921   1.610  0.00  0.00     0.006 A 
ATOM      3  C4  UNL d   1      -1.566  -4.903   0.247  0.00  0.00     0.002 A 
ATOM      4  C5  UNL d   1      -1.407  -3.731  -0.501  0.00  0.00    -0.080 A 
ATOM      5  C6  UNL d   1      -1.701  -3.707  -1.971  0.00  0.00     0.076 C 
ATOM      6  C7  UNL d   1      -0.965  -2.570   0.142  0.00  0.00     0.002 A 
ATOM      7  C8  UNL d   1      -0.661  -2.587   1.506  0.00  0.00     0.006 A 
ENDROOT
BRANCH   1   8
ATOM      8  C1  UNL d   1      -0.412  -3.796   3.706  0.00  0.00     0.054 C 
ATOM      9  C   UNL d   1       0.014  -5.194   4.133  0.00  0.00     0.018 C 
ENDBRANCH   1   8
TORSDOF 1
ENDMDL
