MODEL 1
REMARK minimizedAffinity 1.14925671
REMARK minimizedRMSD -1
REMARK  1 active torsions:
REMARK  status: ('A' for Active; 'I' for Inactive)
REMARK    1  A    between atoms: C1_2  and  C2_3 
ROOT
ATOM      1  C2  UNL d   1      -0.761  -4.183   0.782  0.00  0.00    -0.081 A 
ATOM      2  C3  UNL d   1       0.032  -3.444   1.668  0.00  0.00     0.006 A 
ATOM      3  C4  UNL d   1       0.404  -3.982   2.903  0.00  0.00     0.002 A 
ATOM      4  C5  UNL d   1      -0.004  -5.269   3.268  0.00  0.00    -0.080 A 
ATOM      5  C6  UNL d   1       0.413  -5.869   4.578  0.00  0.00     0.076 C 
ATOM      6  C7  UNL d   1      -0.812  -6.000   2.391  0.00  0.00     0.002 A 
ATOM      7  C8  UNL d   1      -1.184  -5.463   1.157  0.00  0.00     0.006 A 
ENDROOT
BRANCH   1   8
ATOM      8  C1  UNL d   1      -1.110  -3.631  -0.577  0.00  0.00     0.054 C 
ATOM      9  C   UNL d   1      -2.293  -4.369  -1.187  0.00  0.00     0.018 C 
ENDBRANCH   1   8
TORSDOF 1
ENDMDL
