MODEL 1
REMARK minimizedAffinity 8.76256371
REMARK minimizedRMSD -1
REMARK  1 active torsions:
REMARK  status: ('A' for Active; 'I' for Inactive)
REMARK    1  A    between atoms: C1_2  and  C2_3 
ROOT
ATOM      1  C2  UNL d   1      -0.044  -4.155   0.698  0.00  0.00    -0.081 A 
ATOM      2  C3  UNL d   1       0.119  -5.526   0.929  0.00  0.00     0.006 A 
ATOM      3  C4  UNL d   1       0.392  -6.000   2.215  0.00  0.00     0.002 A 
ATOM      4  C5  UNL d   1       0.498  -5.112   3.291  0.00  0.00    -0.080 A 
ATOM      5  C6  UNL d   1       0.761  -5.610   4.681  0.00  0.00     0.076 C 
ATOM      6  C7  UNL d   1       0.352  -3.741   3.057  0.00  0.00     0.002 A 
ATOM      7  C8  UNL d   1       0.080  -3.266   1.772  0.00  0.00     0.006 A 
ENDROOT
BRANCH   1   8
ATOM      8  C1  UNL d   1      -0.403  -3.647  -0.675  0.00  0.00     0.054 C 
ATOM      9  C   UNL d   1      -1.500  -4.491  -1.308  0.00  0.00     0.018 C 
ENDBRANCH   1   8
TORSDOF 1
ENDMDL
