MODEL 1
REMARK minimizedAffinity 5.98549843
REMARK minimizedRMSD -1
REMARK  1 active torsions:
REMARK  status: ('A' for Active; 'I' for Inactive)
REMARK    1  A    between atoms: C1_2  and  C2_3 
ROOT
ATOM      1  C2  UNL d   1       1.251  -2.687   0.055  0.00  0.00    -0.081 A 
ATOM      2  C3  UNL d   1       1.130  -3.264  -1.215  0.00  0.00     0.006 A 
ATOM      3  C4  UNL d   1      -0.069  -3.860  -1.610  0.00  0.00     0.002 A 
ATOM      4  C5  UNL d   1      -1.169  -3.883  -0.747  0.00  0.00    -0.080 A 
ATOM      5  C6  UNL d   1      -2.472  -4.493  -1.170  0.00  0.00     0.076 C 
ATOM      6  C7  UNL d   1      -1.043  -3.322   0.529  0.00  0.00     0.002 A 
ATOM      7  C8  UNL d   1       0.156  -2.726   0.925  0.00  0.00     0.006 A 
ENDROOT
BRANCH   1   8
ATOM      8  C1  UNL d   1       2.522  -1.985   0.461  0.00  0.00     0.054 C 
ATOM      9  C   UNL d   1       2.413  -0.481   0.259  0.00  0.00     0.018 C 
ENDBRANCH   1   8
TORSDOF 1
ENDMDL
