MODEL 1
REMARK minimizedAffinity 4.0098877
REMARK minimizedRMSD -1
REMARK  1 active torsions:
REMARK  status: ('A' for Active; 'I' for Inactive)
REMARK    1  A    between atoms: C1_2  and  C2_3 
ROOT
ATOM      1  C2  UNL d   1       0.006  -3.110   0.573  0.00  0.00    -0.081 A 
ATOM      2  C3  UNL d   1      -0.887  -3.243   1.644  0.00  0.00     0.006 A 
ATOM      3  C4  UNL d   1      -2.122  -3.870   1.462  0.00  0.00     0.002 A 
ATOM      4  C5  UNL d   1      -2.481  -4.383   0.211  0.00  0.00    -0.080 A 
ATOM      5  C6  UNL d   1      -3.790  -5.085   0.010  0.00  0.00     0.076 C 
ATOM      6  C7  UNL d   1      -1.596  -4.235  -0.863  0.00  0.00     0.002 A 
ATOM      7  C8  UNL d   1      -0.362  -3.607  -0.682  0.00  0.00     0.006 A 
ENDROOT
BRANCH   1   8
ATOM      8  C1  UNL d   1       1.365  -2.492   0.781  0.00  0.00     0.054 C 
ATOM      9  C   UNL d   1       2.349  -2.946  -0.288  0.00  0.00     0.018 C 
ENDBRANCH   1   8
TORSDOF 1
ENDMDL
