MODEL 1
REMARK minimizedAffinity 0.928042114
REMARK minimizedRMSD -1
REMARK  1 active torsions:
REMARK  status: ('A' for Active; 'I' for Inactive)
REMARK    1  A    between atoms: C1_2  and  C2_3 
ROOT
ATOM      1  C2  UNL d   1      -0.285   2.727  -4.903  0.00  0.00    -0.081 A 
ATOM      2  C3  UNL d   1      -0.317   2.461  -3.528  0.00  0.00     0.006 A 
ATOM      3  C4  UNL d   1      -1.533   2.243  -2.877  0.00  0.00     0.002 A 
ATOM      4  C5  UNL d   1      -2.736   2.278  -3.591  0.00  0.00    -0.080 A 
ATOM      5  C6  UNL d   1      -4.046   2.016  -2.910  0.00  0.00     0.076 C 
ATOM      6  C7  UNL d   1      -2.706   2.561  -4.960  0.00  0.00     0.002 A 
ATOM      7  C8  UNL d   1      -1.490   2.780  -5.612  0.00  0.00     0.006 A 
ENDROOT
BRANCH   1   8
ATOM      8  C1  UNL d   1       1.030   2.899  -5.619  0.00  0.00     0.054 C 
ATOM      9  C   UNL d   1       2.142   2.119  -4.932  0.00  0.00     0.018 C 
ENDBRANCH   1   8
TORSDOF 1
ENDMDL
