MODEL 1
REMARK minimizedAffinity 5.58929205
REMARK minimizedRMSD -1
REMARK  1 active torsions:
REMARK  status: ('A' for Active; 'I' for Inactive)
REMARK    1  A    between atoms: C1_2  and  C2_3 
ROOT
ATOM      1  C2  UNL d   1      -0.157   2.631   1.954  0.00  0.00    -0.081 A 
ATOM      2  C3  UNL d   1       0.446   3.362   0.923  0.00  0.00     0.006 A 
ATOM      3  C4  UNL d   1       1.730   3.035   0.480  0.00  0.00     0.002 A 
ATOM      4  C5  UNL d   1       2.428   1.967   1.053  0.00  0.00    -0.080 A 
ATOM      5  C6  UNL d   1       3.794   1.586   0.566  0.00  0.00     0.076 C 
ATOM      6  C7  UNL d   1       1.833   1.247   2.095  0.00  0.00     0.002 A 
ATOM      7  C8  UNL d   1       0.550   1.575   2.539  0.00  0.00     0.006 A 
ENDROOT
BRANCH   1   8
ATOM      8  C1  UNL d   1      -1.566   2.940   2.390  0.00  0.00     0.054 C 
ATOM      9  C   UNL d   1      -2.025   1.993   3.489  0.00  0.00     0.018 C 
ENDBRANCH   1   8
TORSDOF 1
ENDMDL
