MODEL 1
REMARK minimizedAffinity 5.68011475
REMARK minimizedRMSD -1
REMARK  1 active torsions:
REMARK  status: ('A' for Active; 'I' for Inactive)
REMARK    1  A    between atoms: C1_2  and  C2_3 
ROOT
ATOM      1  C2  UNL d   1       0.006   1.908  -4.506  0.00  0.00    -0.081 A 
ATOM      2  C3  UNL d   1      -0.540   2.379  -3.306  0.00  0.00     0.006 A 
ATOM      3  C4  UNL d   1      -1.915   2.294  -3.073  0.00  0.00     0.002 A 
ATOM      4  C5  UNL d   1      -2.764   1.729  -4.031  0.00  0.00    -0.080 A 
ATOM      5  C6  UNL d   1      -4.238   1.605  -3.780  0.00  0.00     0.076 C 
ATOM      6  C7  UNL d   1      -2.221   1.275  -5.237  0.00  0.00     0.002 A 
ATOM      7  C8  UNL d   1      -0.847   1.360  -5.471  0.00  0.00     0.006 A 
ENDROOT
BRANCH   1   8
ATOM      8  C1  UNL d   1       1.496   1.939  -4.734  0.00  0.00     0.054 C 
ATOM      9  C   UNL d   1       2.247   1.306  -3.572  0.00  0.00     0.018 C 
ENDBRANCH   1   8
TORSDOF 1
ENDMDL
