MODEL 1
REMARK minimizedAffinity 5.3145628
REMARK minimizedRMSD -1
REMARK  1 active torsions:
REMARK  status: ('A' for Active; 'I' for Inactive)
REMARK    1  A    between atoms: C1_2  and  C2_3 
ROOT
ATOM      1  C2  UNL d   1      -0.206   2.443  -4.939  0.00  0.00    -0.081 A 
ATOM      2  C3  UNL d   1      -0.276   3.651  -5.644  0.00  0.00     0.006 A 
ATOM      3  C4  UNL d   1      -1.513   4.193  -6.000  0.00  0.00     0.002 A 
ATOM      4  C5  UNL d   1      -2.700   3.541  -5.650  0.00  0.00    -0.080 A 
ATOM      5  C6  UNL d   1      -4.036   4.127  -6.000  0.00  0.00     0.076 C 
ATOM      6  C7  UNL d   1      -2.630   2.325  -4.961  0.00  0.00     0.002 A 
ATOM      7  C8  UNL d   1      -1.394   1.783  -4.605  0.00  0.00     0.006 A 
ENDROOT
BRANCH   1   8
ATOM      8  C1  UNL d   1       1.125   1.889  -4.497  0.00  0.00     0.054 C 
ATOM      9  C   UNL d   1       2.247   2.347  -5.417  0.00  0.00     0.018 C 
ENDBRANCH   1   8
TORSDOF 1
ENDMDL
