MODEL 1
REMARK minimizedAffinity 8.48535442
REMARK minimizedRMSD -1
REMARK  1 active torsions:
REMARK  status: ('A' for Active; 'I' for Inactive)
REMARK    1  A    between atoms: C1_2  and  C2_3 
ROOT
ATOM      1  C2  UNL d   1      -3.359   3.233  -5.629  0.00  0.00    -0.081 A 
ATOM      2  C3  UNL d   1      -3.091   2.074  -4.890  0.00  0.00     0.006 A 
ATOM      3  C4  UNL d   1      -1.782   1.757  -4.521  0.00  0.00     0.002 A 
ATOM      4  C5  UNL d   1      -0.721   2.596  -4.877  0.00  0.00    -0.080 A 
ATOM      5  C6  UNL d   1       0.686   2.283  -4.460  0.00  0.00     0.076 C 
ATOM      6  C7  UNL d   1      -0.986   3.745  -5.629  0.00  0.00     0.002 A 
ATOM      7  C8  UNL d   1      -2.295   4.063  -6.000  0.00  0.00     0.006 A 
ENDROOT
BRANCH   1   8
ATOM      8  C1  UNL d   1      -4.777   3.612  -5.973  0.00  0.00     0.054 C 
ATOM      9  C   UNL d   1      -4.955   5.123  -6.000  0.00  0.00     0.018 C 
ENDBRANCH   1   8
TORSDOF 1
ENDMDL
