MODEL 1
REMARK minimizedAffinity 10.349371
REMARK minimizedRMSD -1
REMARK  1 active torsions:
REMARK  status: ('A' for Active; 'I' for Inactive)
REMARK    1  A    between atoms: C1_2  and  C2_3 
ROOT
ATOM      1  C2  UNL d   1       2.097  -1.505   0.591  0.00  0.00    -0.081 A 
ATOM      2  C3  UNL d   1       2.094  -2.661   1.379  0.00  0.00     0.006 A 
ATOM      3  C4  UNL d   1       2.878  -3.762   1.025  0.00  0.00     0.002 A 
ATOM      4  C5  UNL d   1       3.683  -3.722  -0.118  0.00  0.00    -0.080 A 
ATOM      5  C6  UNL d   1       4.552  -4.885  -0.493  0.00  0.00     0.076 C 
ATOM      6  C7  UNL d   1       3.673  -2.573  -0.916  0.00  0.00     0.002 A 
ATOM      7  C8  UNL d   1       2.889  -1.472  -0.563  0.00  0.00     0.006 A 
ENDROOT
BRANCH   1   8
ATOM      8  C1  UNL d   1       1.303  -0.292   1.005  0.00  0.00     0.054 C 
ATOM      9  C   UNL d   1       2.207   0.911   1.229  0.00  0.00     0.018 C 
ENDBRANCH   1   8
TORSDOF 1
ENDMDL
