MODEL 1
REMARK minimizedAffinity 0.893414021
REMARK minimizedRMSD -1
REMARK  1 active torsions:
REMARK  status: ('A' for Active; 'I' for Inactive)
REMARK    1  A    between atoms: C1_2  and  C2_3 
ROOT
ATOM      1  C2  UNL d   1      -0.831   1.113   1.639  0.00  0.00    -0.081 A 
ATOM      2  C3  UNL d   1      -1.155   2.472   1.539  0.00  0.00     0.006 A 
ATOM      3  C4  UNL d   1      -0.159   3.422   1.298  0.00  0.00     0.002 A 
ATOM      4  C5  UNL d   1       1.174   3.028   1.145  0.00  0.00    -0.080 A 
ATOM      5  C6  UNL d   1       2.249   4.034   0.856  0.00  0.00     0.076 C 
ATOM      6  C7  UNL d   1       1.501   1.673   1.262  0.00  0.00     0.002 A 
ATOM      7  C8  UNL d   1       0.505   0.723   1.504  0.00  0.00     0.006 A 
ENDROOT
BRANCH   1   8
ATOM      8  C1  UNL d   1      -1.912   0.080   1.834  0.00  0.00     0.054 C 
ATOM      9  C   UNL d   1      -1.544  -1.238   1.168  0.00  0.00     0.018 C 
ENDBRANCH   1   8
TORSDOF 1
ENDMDL
