MODEL 1
REMARK minimizedAffinity 8.2954855
REMARK minimizedRMSD -1
REMARK  1 active torsions:
REMARK  status: ('A' for Active; 'I' for Inactive)
REMARK    1  A    between atoms: C1_2  and  C2_3 
ROOT
ATOM      1  C2  UNL d   1       0.555   3.053  -5.245  0.00  0.00    -0.081 A 
ATOM      2  C3  UNL d   1       0.498   4.362  -5.739  0.00  0.00     0.006 A 
ATOM      3  C4  UNL d   1      -0.734   4.968  -5.996  0.00  0.00     0.002 A 
ATOM      4  C5  UNL d   1      -1.928   4.279  -5.757  0.00  0.00    -0.080 A 
ATOM      5  C6  UNL d   1      -3.258   4.930  -6.000  0.00  0.00     0.076 C 
ATOM      6  C7  UNL d   1      -1.871   2.965  -5.280  0.00  0.00     0.002 A 
ATOM      7  C8  UNL d   1      -0.639   2.359  -5.023  0.00  0.00     0.006 A 
ENDROOT
BRANCH   1   8
ATOM      8  C1  UNL d   1       1.880   2.419  -4.905  0.00  0.00     0.054 C 
ATOM      9  C   UNL d   1       2.996   2.967  -5.783  0.00  0.00     0.018 C 
ENDBRANCH   1   8
TORSDOF 1
ENDMDL
