MODEL 1
REMARK minimizedAffinity 4.7504077
REMARK minimizedRMSD -1
REMARK  1 active torsions:
REMARK  status: ('A' for Active; 'I' for Inactive)
REMARK    1  A    between atoms: C1_2  and  C2_3 
ROOT
ATOM      1  C2  UNL d   1      -2.365   1.975  -4.000  0.00  0.00    -0.081 A 
ATOM      2  C3  UNL d   1      -2.211   1.988  -5.392  0.00  0.00     0.006 A 
ATOM      3  C4  UNL d   1      -0.938   2.070  -5.962  0.00  0.00     0.002 A 
ATOM      4  C5  UNL d   1       0.200   2.131  -5.151  0.00  0.00    -0.080 A 
ATOM      5  C6  UNL d   1       1.574   2.189  -5.750  0.00  0.00     0.076 C 
ATOM      6  C7  UNL d   1       0.045   2.135  -3.760  0.00  0.00     0.002 A 
ATOM      7  C8  UNL d   1      -1.227   2.054  -3.190  0.00  0.00     0.006 A 
ENDROOT
BRANCH   1   8
ATOM      8  C1  UNL d   1      -3.732   1.822  -3.382  0.00  0.00     0.054 C 
ATOM      9  C   UNL d   1      -3.654   1.813  -1.862  0.00  0.00     0.018 C 
ENDBRANCH   1   8
TORSDOF 1
ENDMDL
