MODEL 1
REMARK minimizedAffinity -5.58916903
REMARK minimizedRMSD -1
REMARK  0 active torsions:
REMARK  status: ('A' for Active; 'I' for Inactive)
ROOT
ATOM      1  C2' OXE d   1      -1.024   0.157   1.439  0.00  0.00     0.078 C 
ATOM      2  C1' OXE d   1       0.312   0.133  -1.029  0.00  0.00     0.078 C 
ATOM      3  C1  OXE d   1       1.026  -0.454   0.163  0.00  0.00    -0.078 A 
ATOM      4  C2  OXE d   1       0.383  -0.396   1.376  0.00  0.00    -0.078 A 
ATOM      5  C3  OXE d   1       0.974  -0.971   2.497  0.00  0.00     0.003 A 
ATOM      6  C4  OXE d   1       2.280  -1.471   2.433  0.00  0.00    -0.002 A 
ATOM      7  C5  OXE d   1       2.968  -1.504   1.215  0.00  0.00    -0.002 A 
ATOM      8  C6  OXE d   1       2.340  -1.039   0.065  0.00  0.00     0.003 A 
ENDROOT
TORSDOF 0
ENDMDL
