MODEL 1
REMARK minimizedAffinity -4.44536638
REMARK minimizedRMSD -1
REMARK  0 active torsions:
REMARK  status: ('A' for Active; 'I' for Inactive)
ROOT
ATOM      1  C2' OXE d   1       1.701  -0.386   2.239  0.00  0.00     0.078 C 
ATOM      2  C1' OXE d   1       2.947  -1.272  -0.116  0.00  0.00     0.078 C 
ATOM      3  C1  OXE d   1       1.564  -0.680  -0.231  0.00  0.00    -0.078 A 
ATOM      4  C2  OXE d   1       0.944  -0.292   0.932  0.00  0.00    -0.078 A 
ATOM      5  C3  OXE d   1      -0.310   0.311   0.876  0.00  0.00     0.003 A 
ATOM      6  C4  OXE d   1      -1.008   0.385  -0.336  0.00  0.00    -0.002 A 
ATOM      7  C5  OXE d   1      -0.410  -0.041  -1.526  0.00  0.00    -0.002 A 
ATOM      8  C6  OXE d   1       0.890  -0.536  -1.498  0.00  0.00     0.003 A 
ENDROOT
TORSDOF 0
ENDMDL
