MODEL 1
REMARK minimizedAffinity -1.87290561
REMARK minimizedRMSD -1
REMARK  0 active torsions:
REMARK  status: ('A' for Active; 'I' for Inactive)
ROOT
ATOM      1  C2' OXE d   1       1.692   0.365   2.268  0.00  0.00     0.078 C 
ATOM      2  C1' OXE d   1      -0.706  -1.043   2.653  0.00  0.00     0.078 C 
ATOM      3  C1  OXE d   1      -0.500  -0.355   1.327  0.00  0.00    -0.078 A 
ATOM      4  C2  OXE d   1       0.656   0.370   1.164  0.00  0.00    -0.078 A 
ATOM      5  C3  OXE d   1       0.922   0.978  -0.059  0.00  0.00     0.003 A 
ATOM      6  C4  OXE d   1      -0.046   0.987  -1.071  0.00  0.00    -0.002 A 
ATOM      7  C5  OXE d   1      -1.246   0.288  -0.911  0.00  0.00    -0.002 A 
ATOM      8  C6  OXE d   1      -1.470  -0.423   0.263  0.00  0.00     0.003 A 
ENDROOT
TORSDOF 0
ENDMDL
