MODEL 1
REMARK minimizedAffinity -4.99398184
REMARK minimizedRMSD -1
REMARK  0 active torsions:
REMARK  status: ('A' for Active; 'I' for Inactive)
ROOT
ATOM      1  C2' OXE d   1       1.363   0.010   3.170  0.00  0.00     0.078 C 
ATOM      2  C1' OXE d   1      -1.389   0.299   2.698  0.00  0.00     0.078 C 
ATOM      3  C1  OXE d   1      -0.505  -0.032   1.522  0.00  0.00    -0.078 A 
ATOM      4  C2  OXE d   1       0.846  -0.126   1.754  0.00  0.00    -0.078 A 
ATOM      5  C3  OXE d   1       1.701  -0.483   0.714  0.00  0.00     0.003 A 
ATOM      6  C4  OXE d   1       1.217  -0.596  -0.594  0.00  0.00    -0.002 A 
ATOM      7  C5  OXE d   1      -0.151  -0.466  -0.859  0.00  0.00    -0.002 A 
ATOM      8  C6  OXE d   1      -1.029  -0.227   0.193  0.00  0.00     0.003 A 
ENDROOT
TORSDOF 0
ENDMDL
