MODEL 1
REMARK minimizedAffinity -4.58054781
REMARK minimizedRMSD -1
REMARK  0 active torsions:
REMARK  status: ('A' for Active; 'I' for Inactive)
ROOT
ATOM      1  C2' OXE d   1      -2.303  -0.402   1.120  0.00  0.00     0.078 C 
ATOM      2  C1' OXE d   1      -0.691   0.313  -1.065  0.00  0.00     0.078 C 
ATOM      3  C1  OXE d   1      -0.003  -0.081   0.218  0.00  0.00    -0.078 A 
ATOM      4  C2  OXE d   1      -0.799  -0.385   1.296  0.00  0.00    -0.078 A 
ATOM      5  C3  OXE d   1      -0.216  -0.808   2.487  0.00  0.00     0.003 A 
ATOM      6  C4  OXE d   1       1.175  -0.779   2.644  0.00  0.00    -0.002 A 
ATOM      7  C5  OXE d   1       2.004  -0.435   1.571  0.00  0.00    -0.002 A 
ATOM      8  C6  OXE d   1       1.433  -0.125   0.341  0.00  0.00     0.003 A 
ENDROOT
TORSDOF 0
ENDMDL
