MODEL 1
REMARK minimizedAffinity -2.37580466
REMARK minimizedRMSD -1
REMARK  0 active torsions:
REMARK  status: ('A' for Active; 'I' for Inactive)
ROOT
ATOM      1  C2' OXE d   1       1.317  -0.392   2.874  0.00  0.00     0.078 C 
ATOM      2  C1' OXE d   1      -1.459  -0.177   2.515  0.00  0.00     0.078 C 
ATOM      3  C1  OXE d   1      -0.599  -0.323   1.284  0.00  0.00    -0.078 A 
ATOM      4  C2  OXE d   1       0.761  -0.380   1.466  0.00  0.00    -0.078 A 
ATOM      5  C3  OXE d   1       1.597  -0.569   0.369  0.00  0.00     0.003 A 
ATOM      6  C4  OXE d   1       1.076  -0.547  -0.930  0.00  0.00    -0.002 A 
ATOM      7  C5  OXE d   1      -0.304  -0.449  -1.141  0.00  0.00    -0.002 A 
ATOM      8  C6  OXE d   1      -1.157  -0.380  -0.045  0.00  0.00     0.003 A 
ENDROOT
TORSDOF 0
ENDMDL
