MODEL 1
REMARK minimizedAffinity -5.49210548
REMARK minimizedRMSD -1
REMARK  0 active torsions:
REMARK  status: ('A' for Active; 'I' for Inactive)
ROOT
ATOM      1  C2' OXE d   1      -0.700   0.155  -0.439  0.00  0.00     0.078 C 
ATOM      2  C1' OXE d   1       1.193  -1.562  -1.600  0.00  0.00     0.078 C 
ATOM      3  C1  OXE d   1       1.201  -1.419  -0.099  0.00  0.00    -0.078 A 
ATOM      4  C2  OXE d   1       0.301  -0.541   0.457  0.00  0.00    -0.078 A 
ATOM      5  C3  OXE d   1       0.230  -0.413   1.842  0.00  0.00     0.003 A 
ATOM      6  C4  OXE d   1       1.166  -1.052   2.662  0.00  0.00    -0.002 A 
ATOM      7  C5  OXE d   1       2.116  -1.920   2.113  0.00  0.00    -0.002 A 
ATOM      8  C6  OXE d   1       2.119  -2.147   0.741  0.00  0.00     0.003 A 
ENDROOT
TORSDOF 0
ENDMDL
