MODEL 1
REMARK minimizedAffinity -2.87471128
REMARK minimizedRMSD -1
REMARK  0 active torsions:
REMARK  status: ('A' for Active; 'I' for Inactive)
ROOT
ATOM      1  C2' OXE d   1      -1.943  -1.184   0.647  0.00  0.00     0.078 C 
ATOM      2  C1' OXE d   1      -0.319   0.254  -1.134  0.00  0.00     0.078 C 
ATOM      3  C1  OXE d   1       0.255  -0.093   0.217  0.00  0.00    -0.078 A 
ATOM      4  C2  OXE d   1      -0.564  -0.757   1.100  0.00  0.00    -0.078 A 
ATOM      5  C3  OXE d   1      -0.067  -1.149   2.339  0.00  0.00     0.003 A 
ATOM      6  C4  OXE d   1       1.207  -0.741   2.754  0.00  0.00    -0.002 A 
ATOM      7  C5  OXE d   1       2.042  -0.031   1.885  0.00  0.00    -0.002 A 
ATOM      8  C6  OXE d   1       1.598   0.263   0.601  0.00  0.00     0.003 A 
ENDROOT
TORSDOF 0
ENDMDL
