MODEL 1
REMARK minimizedAffinity -3.95818996
REMARK minimizedRMSD -1
REMARK  0 active torsions:
REMARK  status: ('A' for Active; 'I' for Inactive)
ROOT
ATOM      1  C2' OXE d   1      -2.270  -0.212   0.723  0.00  0.00     0.078 C 
ATOM      2  C1' OXE d   1      -0.446  -0.045  -1.404  0.00  0.00     0.078 C 
ATOM      3  C1  OXE d   1       0.105  -0.307  -0.024  0.00  0.00    -0.078 A 
ATOM      4  C2  OXE d   1      -0.791  -0.340   1.018  0.00  0.00    -0.078 A 
ATOM      5  C3  OXE d   1      -0.342  -0.632   2.303  0.00  0.00     0.003 A 
ATOM      6  C4  OXE d   1       1.028  -0.739   2.568  0.00  0.00    -0.002 A 
ATOM      7  C5  OXE d   1       1.960  -0.668   1.528  0.00  0.00    -0.002 A 
ATOM      8  C6  OXE d   1       1.513  -0.496   0.222  0.00  0.00     0.003 A 
ENDROOT
TORSDOF 0
ENDMDL
