MODEL 1
REMARK minimizedAffinity -5.09136868
REMARK minimizedRMSD -1
REMARK  0 active torsions:
REMARK  status: ('A' for Active; 'I' for Inactive)
ROOT
ATOM      1  C2' OXE d   1      -1.818   0.231   1.207  0.00  0.00     0.078 C 
ATOM      2  C1' OXE d   1      -0.362   0.261  -1.193  0.00  0.00     0.078 C 
ATOM      3  C1  OXE d   1       0.362  -0.154   0.063  0.00  0.00    -0.078 A 
ATOM      4  C2  OXE d   1      -0.346  -0.121   1.241  0.00  0.00    -0.078 A 
ATOM      5  C3  OXE d   1       0.258  -0.546   2.421  0.00  0.00     0.003 A 
ATOM      6  C4  OXE d   1       1.622  -0.860   2.445  0.00  0.00    -0.002 A 
ATOM      7  C5  OXE d   1       2.371  -0.862   1.264  0.00  0.00    -0.002 A 
ATOM      8  C6  OXE d   1       1.747  -0.553   0.060  0.00  0.00     0.003 A 
ENDROOT
TORSDOF 0
ENDMDL
