MODEL 1
REMARK minimizedAffinity -2.38128829
REMARK minimizedRMSD -1
REMARK  1 active torsions:
REMARK  status: ('A' for Active; 'I' for Inactive)
REMARK    1  A    between atoms: C1_2  and  C2_3 
ROOT
ATOM      1  C2  UNL d   1       0.762   0.934   0.678  0.00  0.00    -0.081 A 
ATOM      2  C3  UNL d   1       0.052  -0.271   0.608  0.00  0.00     0.006 A 
ATOM      3  C4  UNL d   1       0.604  -1.448   1.118  0.00  0.00     0.002 A 
ATOM      4  C5  UNL d   1       1.869  -1.439   1.714  0.00  0.00    -0.080 A 
ATOM      5  C6  UNL d   1       2.460  -2.690   2.293  0.00  0.00     0.076 C 
ATOM      6  C7  UNL d   1       2.586  -0.239   1.769  0.00  0.00     0.002 A 
ATOM      7  C8  UNL d   1       2.035   0.939   1.258  0.00  0.00     0.006 A 
ENDROOT
BRANCH   1   8
ATOM      8  C1  UNL d   1       0.143   2.218   0.187  0.00  0.00     0.054 C 
ATOM      9  C   UNL d   1      -1.064   2.607   1.028  0.00  0.00     0.018 C 
ENDBRANCH   1   8
TORSDOF 1
ENDMDL
