MODEL 1
REMARK minimizedAffinity -1.37291396
REMARK minimizedRMSD -1
REMARK  1 active torsions:
REMARK  status: ('A' for Active; 'I' for Inactive)
REMARK    1  A    between atoms: C1_2  and  C2_3 
ROOT
ATOM      1  C2  UNL d   1      -1.407   1.114   1.094  0.00  0.00    -0.081 A 
ATOM      2  C3  UNL d   1      -0.087   1.491   0.817  0.00  0.00     0.006 A 
ATOM      3  C4  UNL d   1       0.901   0.522   0.627  0.00  0.00     0.002 A 
ATOM      4  C5  UNL d   1       0.585  -0.838   0.704  0.00  0.00    -0.080 A 
ATOM      5  C6  UNL d   1       1.630  -1.889   0.473  0.00  0.00     0.076 C 
ATOM      6  C7  UNL d   1      -0.730  -1.215   0.998  0.00  0.00     0.002 A 
ATOM      7  C8  UNL d   1      -1.718  -0.247   1.189  0.00  0.00     0.006 A 
ENDROOT
BRANCH   1   8
ATOM      8  C1  UNL d   1      -2.488   2.155   1.235  0.00  0.00     0.054 C 
ATOM      9  C   UNL d   1      -1.905   3.512   1.601  0.00  0.00     0.018 C 
ENDBRANCH   1   8
TORSDOF 1
ENDMDL
