MODEL 1
REMARK minimizedAffinity -6.18861961
REMARK minimizedRMSD -1
REMARK  1 active torsions:
REMARK  status: ('A' for Active; 'I' for Inactive)
REMARK    1  A    between atoms: C1_2  and  C2_3 
ROOT
ATOM      1  C2  UNL d   1      -0.329   1.617   0.783  0.00  0.00    -0.081 A 
ATOM      2  C3  UNL d   1      -0.363   0.255   0.460  0.00  0.00     0.006 A 
ATOM      3  C4  UNL d   1       0.822  -0.478   0.358  0.00  0.00     0.002 A 
ATOM      4  C5  UNL d   1       2.058   0.136   0.584  0.00  0.00    -0.080 A 
ATOM      5  C6  UNL d   1       3.336  -0.646   0.508  0.00  0.00     0.076 C 
ATOM      6  C7  UNL d   1       2.093   1.501   0.890  0.00  0.00     0.002 A 
ATOM      7  C8  UNL d   1       0.909   2.235   0.992  0.00  0.00     0.006 A 
ENDROOT
BRANCH   1   8
ATOM      8  C1  UNL d   1      -1.609   2.395   0.958  0.00  0.00     0.054 C 
ATOM      9  C   UNL d   1      -1.329   3.850   1.307  0.00  0.00     0.018 C 
ENDBRANCH   1   8
TORSDOF 1
ENDMDL
