MODEL 1
REMARK minimizedAffinity -3.29621887
REMARK minimizedRMSD -1
REMARK  1 active torsions:
REMARK  status: ('A' for Active; 'I' for Inactive)
REMARK    1  A    between atoms: C1_2  and  C2_3 
ROOT
ATOM      1  C2  UNL d   1      -0.577  -0.625   0.086  0.00  0.00    -0.081 A 
ATOM      2  C3  UNL d   1       0.261   0.456  -0.211  0.00  0.00     0.006 A 
ATOM      3  C4  UNL d   1       1.607   0.432   0.160  0.00  0.00     0.002 A 
ATOM      4  C5  UNL d   1       2.140  -0.677   0.826  0.00  0.00    -0.080 A 
ATOM      5  C6  UNL d   1       3.591  -0.728   1.203  0.00  0.00     0.076 C 
ATOM      6  C7  UNL d   1       1.299  -1.750   1.139  0.00  0.00     0.002 A 
ATOM      7  C8  UNL d   1      -0.048  -1.726   0.769  0.00  0.00     0.006 A 
ENDROOT
BRANCH   1   8
ATOM      8  C1  UNL d   1      -2.014  -0.630  -0.370  0.00  0.00     0.054 C 
ATOM      9  C   UNL d   1      -2.143  -0.118  -1.797  0.00  0.00     0.018 C 
ENDBRANCH   1   8
TORSDOF 1
ENDMDL
