MODEL 1
REMARK minimizedAffinity -2.11924863
REMARK minimizedRMSD -1
REMARK  1 active torsions:
REMARK  status: ('A' for Active; 'I' for Inactive)
REMARK    1  A    between atoms: C1_2  and  C2_3 
ROOT
ATOM      1  C2  UNL d   1      -1.228   2.167   0.620  0.00  0.00    -0.081 A 
ATOM      2  C3  UNL d   1      -1.731   0.864   0.528  0.00  0.00     0.006 A 
ATOM      3  C4  UNL d   1      -0.864  -0.222   0.388  0.00  0.00     0.002 A 
ATOM      4  C5  UNL d   1       0.520  -0.024   0.344  0.00  0.00    -0.080 A 
ATOM      5  C6  UNL d   1       1.463  -1.184   0.224  0.00  0.00     0.076 C 
ATOM      6  C7  UNL d   1       1.022   1.279   0.418  0.00  0.00     0.002 A 
ATOM      7  C8  UNL d   1       0.156   2.365   0.558  0.00  0.00     0.006 A 
ENDROOT
BRANCH   1   8
ATOM      8  C1  UNL d   1      -2.157   3.334   0.836  0.00  0.00     0.054 C 
ATOM      9  C   UNL d   1      -2.546   3.467   2.302  0.00  0.00     0.018 C 
ENDBRANCH   1   8
TORSDOF 1
ENDMDL
