MODEL 1
REMARK minimizedAffinity 7.90734291
REMARK minimizedRMSD -1
REMARK  0 active torsions:
REMARK  status: ('A' for Active; 'I' for Inactive)
ROOT
ATOM      1  C   UNL d   1       2.904  -0.774  -3.747  0.00  0.00     0.172 C 
ATOM      2  N   UNL d   1       3.985  -0.496  -4.664  0.00  0.00    -0.070 N 
ATOM      3  C1  UNL d   1       4.310   0.736  -5.165  0.00  0.00    -0.004 A 
ATOM      4  C2  UNL d   1       5.396   0.579  -5.999  0.00  0.00    -0.047 A 
ATOM      5  C3  UNL d   1       5.735  -0.795  -5.999  0.00  0.00    -0.047 A 
ATOM      6  C4  UNL d   1       4.846  -1.437  -5.164  0.00  0.00    -0.004 A 
ENDROOT
TORSDOF 0
ENDMDL
