MODEL 1
REMARK minimizedAffinity -0.261487514
REMARK minimizedRMSD -1
REMARK  0 active torsions:
REMARK  status: ('A' for Active; 'I' for Inactive)
ROOT
ATOM      1  C   UNL d   1      -4.366  -5.931  -2.875  0.00  0.00     0.172 C 
ATOM      2  N   UNL d   1      -4.901  -5.340  -4.079  0.00  0.00    -0.070 N 
ATOM      3  C1  UNL d   1      -4.715  -4.045  -4.483  0.00  0.00    -0.004 A 
ATOM      4  C2  UNL d   1      -5.384  -3.874  -5.676  0.00  0.00    -0.047 A 
ATOM      5  C3  UNL d   1      -5.995  -5.109  -5.999  0.00  0.00    -0.047 A 
ATOM      6  C4  UNL d   1      -5.680  -5.999  -4.993  0.00  0.00    -0.004 A 
ENDROOT
TORSDOF 0
ENDMDL
