MODEL 1
REMARK minimizedAffinity 3.63336897
REMARK minimizedRMSD -1
REMARK  0 active torsions:
REMARK  status: ('A' for Active; 'I' for Inactive)
ROOT
ATOM      1  C   UNL d   1       0.487  -3.432  -0.297  0.00  0.00     0.172 C 
ATOM      2  N   UNL d   1       0.972  -2.559   0.746  0.00  0.00    -0.070 N 
ATOM      3  C1  UNL d   1       2.236  -2.036   0.827  0.00  0.00    -0.004 A 
ATOM      4  C2  UNL d   1       2.299  -1.257   1.962  0.00  0.00    -0.047 A 
ATOM      5  C3  UNL d   1       1.030  -1.314   2.585  0.00  0.00    -0.047 A 
ATOM      6  C4  UNL d   1       0.228  -2.127   1.812  0.00  0.00    -0.004 A 
ENDROOT
TORSDOF 0
ENDMDL
