MODEL 1
REMARK minimizedAffinity -3.54421091
REMARK minimizedRMSD -1
REMARK  0 active torsions:
REMARK  status: ('A' for Active; 'I' for Inactive)
ROOT
ATOM      1  C   UNL d   1      -4.873  -5.983  -5.439  0.00  0.00     0.172 C 
ATOM      2  N   UNL d   1      -4.969  -5.364  -4.138  0.00  0.00    -0.070 N 
ATOM      3  C1  UNL d   1      -4.795  -5.999  -2.937  0.00  0.00    -0.004 A 
ATOM      4  C2  UNL d   1      -4.967  -5.066  -1.938  0.00  0.00    -0.047 A 
ATOM      5  C3  UNL d   1      -5.255  -3.827  -2.560  0.00  0.00    -0.047 A 
ATOM      6  C4  UNL d   1      -5.250  -4.041  -3.922  0.00  0.00    -0.004 A 
ENDROOT
TORSDOF 0
ENDMDL
