MODEL 1
REMARK minimizedAffinity 4.35394812
REMARK minimizedRMSD -1
REMARK  0 active torsions:
REMARK  status: ('A' for Active; 'I' for Inactive)
ROOT
ATOM      1  C   UNL d   1      -3.892  -5.953  -3.128  0.00  0.00     0.172 C 
ATOM      2  N   UNL d   1      -4.597  -5.336  -4.227  0.00  0.00    -0.070 N 
ATOM      3  C1  UNL d   1      -4.541  -4.011  -4.567  0.00  0.00    -0.004 A 
ATOM      4  C2  UNL d   1      -5.350  -3.824  -5.667  0.00  0.00    -0.047 A 
ATOM      5  C3  UNL d   1      -5.912  -5.080  -5.998  0.00  0.00    -0.047 A 
ATOM      6  C4  UNL d   1      -5.429  -5.998  -5.090  0.00  0.00    -0.004 A 
ENDROOT
TORSDOF 0
ENDMDL
