MODEL 1
REMARK minimizedAffinity 1.43272853
REMARK minimizedRMSD -1
REMARK  0 active torsions:
REMARK  status: ('A' for Active; 'I' for Inactive)
ROOT
ATOM      1  C   UNL d   1       5.325  -3.290   2.908  0.00  0.00     0.172 C 
ATOM      2  N   UNL d   1       3.892  -3.459   2.839  0.00  0.00    -0.070 N 
ATOM      3  C1  UNL d   1       2.960  -2.499   3.129  0.00  0.00    -0.004 A 
ATOM      4  C2  UNL d   1       1.712  -3.053   2.941  0.00  0.00    -0.047 A 
ATOM      5  C3  UNL d   1       1.901  -4.392   2.524  0.00  0.00    -0.047 A 
ATOM      6  C4  UNL d   1       3.260  -4.617   2.469  0.00  0.00    -0.004 A 
ENDROOT
TORSDOF 0
ENDMDL
