MODEL 1
REMARK minimizedAffinity 3.744946
REMARK minimizedRMSD -1
REMARK  0 active torsions:
REMARK  status: ('A' for Active; 'I' for Inactive)
ROOT
ATOM      1  C   UNL d   1       2.199  -4.125   2.477  0.00  0.00     0.172 C 
ATOM      2  N   UNL d   1       1.594  -2.848   2.772  0.00  0.00    -0.070 N 
ATOM      3  C1  UNL d   1       1.103  -2.460   3.990  0.00  0.00    -0.004 A 
ATOM      4  C2  UNL d   1       0.612  -1.178   3.858  0.00  0.00    -0.047 A 
ATOM      5  C3  UNL d   1       0.815  -0.783   2.515  0.00  0.00    -0.047 A 
ATOM      6  C4  UNL d   1       1.424  -1.835   1.865  0.00  0.00    -0.004 A 
ENDROOT
TORSDOF 0
ENDMDL
