MODEL 1
REMARK minimizedAffinity 4.03420353
REMARK minimizedRMSD -1
REMARK  0 active torsions:
REMARK  status: ('A' for Active; 'I' for Inactive)
ROOT
ATOM      1  C   UNL d   1       2.098  -4.171   2.048  0.00  0.00     0.172 C 
ATOM      2  N   UNL d   1       1.642  -2.840   2.376  0.00  0.00    -0.070 N 
ATOM      3  C1  UNL d   1       1.947  -1.699   1.684  0.00  0.00    -0.004 A 
ATOM      4  C2  UNL d   1       1.321  -0.644   2.312  0.00  0.00    -0.047 A 
ATOM      5  C3  UNL d   1       0.617  -1.170   3.421  0.00  0.00    -0.047 A 
ATOM      6  C4  UNL d   1       0.832  -2.531   3.437  0.00  0.00    -0.004 A 
ENDROOT
TORSDOF 0
ENDMDL
