MODEL 1
REMARK minimizedAffinity 2.89409328
REMARK minimizedRMSD -1
REMARK  0 active torsions:
REMARK  status: ('A' for Active; 'I' for Inactive)
ROOT
ATOM      1  C   UNL d   1       5.772  -5.957  -6.000  0.00  0.00     0.172 C 
ATOM      2  N   UNL d   1       4.578  -5.970  -5.187  0.00  0.00    -0.070 N 
ATOM      3  C1  UNL d   1       4.544  -5.962  -3.818  0.00  0.00    -0.004 A 
ATOM      4  C2  UNL d   1       3.222  -5.979  -3.429  0.00  0.00    -0.047 A 
ATOM      5  C3  UNL d   1       2.434  -6.000  -4.605  0.00  0.00    -0.047 A 
ATOM      6  C4  UNL d   1       3.299  -5.994  -5.678  0.00  0.00    -0.004 A 
ENDROOT
TORSDOF 0
ENDMDL
