MODEL 1
REMARK minimizedAffinity 1.90510857
REMARK minimizedRMSD -1
REMARK  0 active torsions:
REMARK  status: ('A' for Active; 'I' for Inactive)
ROOT
ATOM      1  C   UNL d   1       4.637  -2.113   2.660  0.00  0.00     0.172 C 
ATOM      2  N   UNL d   1       3.282  -1.800   3.049  0.00  0.00    -0.070 N 
ATOM      3  C1  UNL d   1       2.319  -1.271   2.233  0.00  0.00    -0.004 A 
ATOM      4  C2  UNL d   1       1.169  -1.123   2.978  0.00  0.00    -0.047 A 
ATOM      5  C3  UNL d   1       1.451  -1.578   4.288  0.00  0.00    -0.047 A 
ATOM      6  C4  UNL d   1       2.766  -1.992   4.304  0.00  0.00    -0.004 A 
ENDROOT
TORSDOF 0
ENDMDL
