MODEL 1
REMARK minimizedAffinity -2.79432487
REMARK minimizedRMSD -1
REMARK  0 active torsions:
REMARK  status: ('A' for Active; 'I' for Inactive)
ROOT
ATOM      1  C   UNL d   1      -4.931  -4.529  -5.119  0.00  0.00     0.172 C 
ATOM      2  N   UNL d   1      -4.705  -4.888  -3.738  0.00  0.00    -0.070 N 
ATOM      3  C1  UNL d   1      -5.138  -4.180  -2.649  0.00  0.00    -0.004 A 
ATOM      4  C2  UNL d   1      -4.721  -4.849  -1.518  0.00  0.00    -0.047 A 
ATOM      5  C3  UNL d   1      -4.013  -5.998  -1.943  0.00  0.00    -0.047 A 
ATOM      6  C4  UNL d   1      -4.018  -5.997  -3.322  0.00  0.00    -0.004 A 
ENDROOT
TORSDOF 0
ENDMDL
