MODEL 1
REMARK minimizedAffinity 0.809433043
REMARK minimizedRMSD -1
REMARK  0 active torsions:
REMARK  status: ('A' for Active; 'I' for Inactive)
ROOT
ATOM      1  C4' PXY d   1       0.764   0.532   1.759  0.00  0.00     0.077 C 
ATOM      2  C1' PXY d   1       0.343   5.202  -1.622  0.00  0.00     0.077 C 
ATOM      3  C1  PXY d   1       0.447   3.970  -0.745  0.00  0.00    -0.082 A 
ATOM      4  C2  PXY d   1       0.590   4.110   0.563  0.00  0.00     0.003 A 
ATOM      5  C3  PXY d   1       0.718   3.007   1.368  0.00  0.00     0.003 A 
ATOM      6  C4  PXY d   1       0.646   1.748   0.835  0.00  0.00    -0.082 A 
ATOM      7  C5  PXY d   1       0.489   1.597  -0.497  0.00  0.00     0.003 A 
ATOM      8  C6  PXY d   1       0.403   2.730  -1.302  0.00  0.00     0.003 A 
ENDROOT
TORSDOF 0
ENDMDL
