MODEL 1
REMARK minimizedAffinity 0.122107506
REMARK minimizedRMSD -1
REMARK  0 active torsions:
REMARK  status: ('A' for Active; 'I' for Inactive)
ROOT
ATOM      1  C4' PXY d   1       0.252   4.403  -0.744  0.00  0.00     0.077 C 
ATOM      2  C1' PXY d   1       0.477  -0.701   1.960  0.00  0.00     0.077 C 
ATOM      3  C1  PXY d   1       0.422   0.632   1.240  0.00  0.00    -0.082 A 
ATOM      4  C2  PXY d   1       0.476   1.755   1.937  0.00  0.00     0.003 A 
ATOM      5  C3  PXY d   1       0.396   2.969   1.305  0.00  0.00     0.003 A 
ATOM      6  C4  PXY d   1       0.313   3.034  -0.060  0.00  0.00    -0.082 A 
ATOM      7  C5  PXY d   1       0.268   1.893  -0.780  0.00  0.00     0.003 A 
ATOM      8  C6  PXY d   1       0.309   0.671  -0.116  0.00  0.00     0.003 A 
ENDROOT
TORSDOF 0
ENDMDL
