MODEL 1
REMARK minimizedAffinity -3.11981297
REMARK minimizedRMSD -1
REMARK  0 active torsions:
REMARK  status: ('A' for Active; 'I' for Inactive)
ROOT
ATOM      1  C4' PXY d   1      -2.579   0.021  -2.897  0.00  0.00     0.077 C 
ATOM      2  C1' PXY d   1       1.505  -0.421   1.170  0.00  0.00     0.077 C 
ATOM      3  C1  PXY d   1       0.437  -0.292   0.102  0.00  0.00    -0.082 A 
ATOM      4  C2  PXY d   1      -0.561  -1.160   0.067  0.00  0.00     0.003 A 
ATOM      5  C3  PXY d   1      -1.518  -1.078  -0.911  0.00  0.00     0.003 A 
ATOM      6  C4  PXY d   1      -1.483  -0.064  -1.831  0.00  0.00    -0.082 A 
ATOM      7  C5  PXY d   1      -0.474   0.832  -1.795  0.00  0.00     0.003 A 
ATOM      8  C6  PXY d   1       0.511   0.706  -0.819  0.00  0.00     0.003 A 
ENDROOT
TORSDOF 0
ENDMDL
