MODEL 1
REMARK minimizedAffinity 2.46032953
REMARK minimizedRMSD -1
REMARK  0 active torsions:
REMARK  status: ('A' for Active; 'I' for Inactive)
ROOT
ATOM      1  C4' PXY d   1       0.227   1.262   2.212  0.00  0.00     0.077 C 
ATOM      2  C1' PXY d   1       0.514   4.737  -2.399  0.00  0.00     0.077 C 
ATOM      3  C1  PXY d   1       0.430   3.818  -1.196  0.00  0.00    -0.082 A 
ATOM      4  C2  PXY d   1       0.725   4.286   0.006  0.00  0.00     0.003 A 
ATOM      5  C3  PXY d   1       0.685   3.460   1.100  0.00  0.00     0.003 A 
ATOM      6  C4  PXY d   1       0.288   2.156   0.970  0.00  0.00    -0.082 A 
ATOM      7  C5  PXY d   1      -0.024   1.675  -0.251  0.00  0.00     0.003 A 
ATOM      8  C6  PXY d   1       0.062   2.518  -1.355  0.00  0.00     0.003 A 
ENDROOT
TORSDOF 0
ENDMDL
