MODEL 1
REMARK minimizedAffinity 1.72767079
REMARK minimizedRMSD -1
REMARK  0 active torsions:
REMARK  status: ('A' for Active; 'I' for Inactive)
ROOT
ATOM      1  C4' PXY d   1       0.243   4.145  -1.233  0.00  0.00     0.077 C 
ATOM      2  C1' PXY d   1       0.675  -0.079   2.689  0.00  0.00     0.077 C 
ATOM      3  C1  PXY d   1       0.566   1.020   1.651  0.00  0.00    -0.082 A 
ATOM      4  C2  PXY d   1       0.654   2.286   2.027  0.00  0.00     0.003 A 
ATOM      5  C3  PXY d   1       0.525   3.293   1.106  0.00  0.00     0.003 A 
ATOM      6  C4  PXY d   1       0.357   3.002  -0.221  0.00  0.00    -0.082 A 
ATOM      7  C5  PXY d   1       0.277   1.713  -0.614  0.00  0.00     0.003 A 
ATOM      8  C6  PXY d   1       0.369   0.705   0.342  0.00  0.00     0.003 A 
ENDROOT
TORSDOF 0
ENDMDL
