MODEL 1
REMARK minimizedAffinity -1.05404806
REMARK minimizedRMSD -1
REMARK  0 active torsions:
REMARK  status: ('A' for Active; 'I' for Inactive)
ROOT
ATOM      1  C4' PXY d   1       0.278   5.464  -2.151  0.00  0.00     0.077 C 
ATOM      2  C1' PXY d   1      -2.581   0.441  -2.270  0.00  0.00     0.077 C 
ATOM      3  C1  PXY d   1      -1.837   1.762  -2.250  0.00  0.00    -0.082 A 
ATOM      4  C2  PXY d   1      -0.699   1.861  -1.583  0.00  0.00     0.003 A 
ATOM      5  C3  PXY d   1      -0.029   3.057  -1.528  0.00  0.00     0.003 A 
ATOM      6  C4  PXY d   1      -0.502   4.148  -2.207  0.00  0.00    -0.082 A 
ATOM      7  C5  PXY d   1      -1.658   4.052  -2.898  0.00  0.00     0.003 A 
ATOM      8  C6  PXY d   1      -2.344   2.840  -2.908  0.00  0.00     0.003 A 
ENDROOT
TORSDOF 0
ENDMDL
