MODEL 1
REMARK minimizedAffinity -2.46736979
REMARK minimizedRMSD -1
REMARK  0 active torsions:
REMARK  status: ('A' for Active; 'I' for Inactive)
ROOT
ATOM      1  C4' PXY d   1       0.337   4.232  -1.160  0.00  0.00     0.077 C 
ATOM      2  C1' PXY d   1       0.641  -0.222   2.512  0.00  0.00     0.077 C 
ATOM      3  C1  PXY d   1       0.566   0.939   1.540  0.00  0.00    -0.082 A 
ATOM      4  C2  PXY d   1       0.559   2.179   2.001  0.00  0.00     0.003 A 
ATOM      5  C3  PXY d   1       0.459   3.239   1.137  0.00  0.00     0.003 A 
ATOM      6  C4  PXY d   1       0.421   3.030  -0.215  0.00  0.00    -0.082 A 
ATOM      7  C5  PXY d   1       0.439   1.768  -0.694  0.00  0.00     0.003 A 
ATOM      8  C6  PXY d   1       0.499   0.704   0.201  0.00  0.00     0.003 A 
ENDROOT
TORSDOF 0
ENDMDL
