MODEL 1
REMARK minimizedAffinity 5.59838438
REMARK minimizedRMSD -1
REMARK  0 active torsions:
REMARK  status: ('A' for Active; 'I' for Inactive)
ROOT
ATOM      1  C4' PXY d   1       0.112   4.126  -1.734  0.00  0.00     0.077 C 
ATOM      2  C1' PXY d   1       2.267   3.027   3.516  0.00  0.00     0.077 C 
ATOM      3  C1  PXY d   1       1.703   3.328   2.141  0.00  0.00    -0.082 A 
ATOM      4  C2  PXY d   1       0.934   2.435   1.540  0.00  0.00     0.003 A 
ATOM      5  C3  PXY d   1       0.442   2.678   0.283  0.00  0.00     0.003 A 
ATOM      6  C4  PXY d   1       0.696   3.869  -0.342  0.00  0.00    -0.082 A 
ATOM      7  C5  PXY d   1       1.471   4.790   0.269  0.00  0.00     0.003 A 
ATOM      8  C6  PXY d   1       1.995   4.507   1.528  0.00  0.00     0.003 A 
ENDROOT
TORSDOF 0
ENDMDL
