MODEL 1
REMARK minimizedAffinity -5.82914162
REMARK minimizedRMSD -1
REMARK  0 active torsions:
REMARK  status: ('A' for Active; 'I' for Inactive)
ROOT
ATOM      1  C4' PXY d   1      -0.963   4.128  -2.937  0.00  0.00     0.077 C 
ATOM      2  C1' PXY d   1      -0.029   1.714   2.232  0.00  0.00     0.077 C 
ATOM      3  C1  PXY d   1      -0.271   2.336   0.871  0.00  0.00    -0.082 A 
ATOM      4  C2  PXY d   1      -0.171   3.647   0.724  0.00  0.00     0.003 A 
ATOM      5  C3  PXY d   1      -0.418   4.229  -0.493  0.00  0.00     0.003 A 
ATOM      6  C4  PXY d   1      -0.718   3.456  -1.583  0.00  0.00    -0.082 A 
ATOM      7  C5  PXY d   1      -0.811   2.116  -1.443  0.00  0.00     0.003 A 
ATOM      8  C6  PXY d   1      -0.598   1.549  -0.190  0.00  0.00     0.003 A 
ENDROOT
TORSDOF 0
ENDMDL
