MODEL 1
REMARK minimizedAffinity 9.51075935
REMARK minimizedRMSD -1
REMARK  2 active torsions:
REMARK  status: ('A' for Active; 'I' for Inactive)
REMARK    1  A    between atoms: C1_2  and  C2_3 
REMARK    2  A    between atoms: C2_3  and  C3_4 
ROOT
ATOM      1  C3  UNL d   1       3.699   1.615  -1.207  0.00  0.00    -0.075 A 
ATOM      2  C4  UNL d   1       3.775   0.637  -0.205  0.00  0.00     0.002 A 
ATOM      3  C5  UNL d   1       3.312   0.906   1.084  0.00  0.00     0.002 A 
ATOM      4  C6  UNL d   1       2.777   2.156   1.389  0.00  0.00    -0.004 A 
ATOM      5  C7  UNL d   1       2.712   3.140   0.405  0.00  0.00     0.002 A 
ATOM      6  C8  UNL d   1       3.171   2.873  -0.886  0.00  0.00     0.002 A 
ENDROOT
BRANCH   1   7
ATOM      7  C2  UNL d   1       4.171   1.322  -2.611  0.00  0.00     0.056 C 
BRANCH   7   8
ATOM      8  C1  UNL d   1       5.528   1.944  -2.955  0.00  0.00     0.007 C 
ATOM      9  C   UNL d   1       5.998   1.617  -4.366  0.00  0.00     0.009 C 
ENDBRANCH   7   8
ENDBRANCH   1   7
TORSDOF 2
ENDMDL
