MODEL 1
REMARK minimizedAffinity 11.1571655
REMARK minimizedRMSD -1
REMARK  2 active torsions:
REMARK  status: ('A' for Active; 'I' for Inactive)
REMARK    1  A    between atoms: C1_2  and  C2_3 
REMARK    2  A    between atoms: C2_3  and  C3_4 
ROOT
ATOM      1  C3  UNL d   1       2.569   0.551   0.575  0.00  0.00    -0.075 A 
ATOM      2  C4  UNL d   1       2.044   1.041   1.780  0.00  0.00     0.002 A 
ATOM      3  C5  UNL d   1       2.016   2.412   2.034  0.00  0.00     0.002 A 
ATOM      4  C6  UNL d   1       2.521   3.309   1.094  0.00  0.00    -0.004 A 
ATOM      5  C7  UNL d   1       3.060   2.832  -0.098  0.00  0.00     0.002 A 
ATOM      6  C8  UNL d   1       3.085   1.460  -0.358  0.00  0.00     0.002 A 
ENDROOT
BRANCH   1   7
ATOM      7  C2  UNL d   1       2.575  -0.930   0.281  0.00  0.00     0.056 C 
BRANCH   7   8
ATOM      8  C1  UNL d   1       2.179  -1.283  -1.157  0.00  0.00     0.007 C 
ATOM      9  C   UNL d   1       2.220  -2.778  -1.442  0.00  0.00     0.009 C 
ENDBRANCH   7   8
ENDBRANCH   1   7
TORSDOF 2
ENDMDL
