MODEL 1
REMARK minimizedAffinity -2.44876122
REMARK minimizedRMSD -1
REMARK  2 active torsions:
REMARK  status: ('A' for Active; 'I' for Inactive)
REMARK    1  A    between atoms: C1_2  and  C2_3 
REMARK    2  A    between atoms: C2_3  and  C3_4 
ROOT
ATOM      1  C3  UNL d   1       0.657  -2.948   4.880  0.00  0.00    -0.075 A 
ATOM      2  C4  UNL d   1       1.569  -3.843   5.457  0.00  0.00     0.002 A 
ATOM      3  C5  UNL d   1       1.129  -5.050   6.000  0.00  0.00     0.002 A 
ATOM      4  C6  UNL d   1      -0.226  -5.373   5.981  0.00  0.00    -0.004 A 
ATOM      5  C7  UNL d   1      -1.143  -4.484   5.425  0.00  0.00     0.002 A 
ATOM      6  C8  UNL d   1      -0.705  -3.277   4.877  0.00  0.00     0.002 A 
ENDROOT
BRANCH   1   7
ATOM      7  C2  UNL d   1       1.130  -1.652   4.264  0.00  0.00     0.056 C 
BRANCH   7   8
ATOM      8  C1  UNL d   1       0.365  -0.416   4.747  0.00  0.00     0.007 C 
ATOM      9  C   UNL d   1       1.275   0.693   5.258  0.00  0.00     0.009 C 
ENDBRANCH   7   8
ENDBRANCH   1   7
TORSDOF 2
ENDMDL
