MODEL 1
REMARK minimizedAffinity 9.27981186
REMARK minimizedRMSD -1
REMARK  2 active torsions:
REMARK  status: ('A' for Active; 'I' for Inactive)
REMARK    1  A    between atoms: C1_2  and  C2_3 
REMARK    2  A    between atoms: C2_3  and  C3_4 
ROOT
ATOM      1  C3  UNL d   1       0.758  -3.444   4.081  0.00  0.00    -0.075 A 
ATOM      2  C4  UNL d   1       1.538  -3.822   5.183  0.00  0.00     0.002 A 
ATOM      3  C5  UNL d   1       1.146  -4.886   5.996  0.00  0.00     0.002 A 
ATOM      4  C6  UNL d   1      -0.033  -5.577   5.725  0.00  0.00    -0.004 A 
ATOM      5  C7  UNL d   1      -0.824  -5.198   4.642  0.00  0.00     0.002 A 
ATOM      6  C8  UNL d   1      -0.432  -4.137   3.824  0.00  0.00     0.002 A 
ENDROOT
BRANCH   1   7
ATOM      7  C2  UNL d   1       1.193  -2.313   3.179  0.00  0.00     0.056 C 
BRANCH   7   8
ATOM      8  C1  UNL d   1       2.124  -2.744   2.042  0.00  0.00     0.007 C 
ATOM      9  C   UNL d   1       2.209  -1.723   0.916  0.00  0.00     0.009 C 
ENDBRANCH   7   8
ENDBRANCH   1   7
TORSDOF 2
ENDMDL
