MODEL 1
REMARK minimizedAffinity 1.73769462
REMARK minimizedRMSD -1
REMARK  2 active torsions:
REMARK  status: ('A' for Active; 'I' for Inactive)
REMARK    1  A    between atoms: C1_2  and  C2_3 
REMARK    2  A    between atoms: C2_3  and  C3_4 
ROOT
ATOM      1  C3  UNL d   1      -4.308   5.541   2.747  0.00  0.00    -0.075 A 
ATOM      2  C4  UNL d   1      -5.517   4.872   2.983  0.00  0.00     0.002 A 
ATOM      3  C5  UNL d   1      -5.981   4.686   4.286  0.00  0.00     0.002 A 
ATOM      4  C6  UNL d   1      -5.239   5.156   5.367  0.00  0.00    -0.004 A 
ATOM      5  C7  UNL d   1      -4.028   5.808   5.145  0.00  0.00     0.002 A 
ATOM      6  C8  UNL d   1      -3.563   6.000   3.842  0.00  0.00     0.002 A 
ENDROOT
BRANCH   1   7
ATOM      7  C2  UNL d   1      -3.814   5.772   1.339  0.00  0.00     0.056 C 
BRANCH   7   8
ATOM      8  C1  UNL d   1      -4.580   4.982   0.272  0.00  0.00     0.007 C 
ATOM      9  C   UNL d   1      -5.743   5.759  -0.331  0.00  0.00     0.009 C 
ENDBRANCH   7   8
ENDBRANCH   1   7
TORSDOF 2
ENDMDL
