MODEL 1
REMARK minimizedAffinity 0.174295887
REMARK minimizedRMSD -1
REMARK  2 active torsions:
REMARK  status: ('A' for Active; 'I' for Inactive)
REMARK    1  A    between atoms: C1_2  and  C2_3 
REMARK    2  A    between atoms: C2_3  and  C3_4 
ROOT
ATOM      1  C3  UNL d   1      -4.094   5.967   3.276  0.00  0.00    -0.075 A 
ATOM      2  C4  UNL d   1      -5.479   5.913   3.486  0.00  0.00     0.002 A 
ATOM      3  C5  UNL d   1      -5.999   5.911   4.781  0.00  0.00     0.002 A 
ATOM      4  C6  UNL d   1      -5.143   5.951   5.879  0.00  0.00    -0.004 A 
ATOM      5  C7  UNL d   1      -3.765   5.988   5.682  0.00  0.00     0.002 A 
ATOM      6  C8  UNL d   1      -3.241   5.995   4.388  0.00  0.00     0.002 A 
ENDROOT
BRANCH   1   7
ATOM      7  C2  UNL d   1      -3.525   6.000   1.877  0.00  0.00     0.056 C 
BRANCH   7   8
ATOM      8  C1  UNL d   1      -4.587   5.993   0.772  0.00  0.00     0.007 C 
ATOM      9  C   UNL d   1      -4.237   5.073  -0.390  0.00  0.00     0.009 C 
ENDBRANCH   7   8
ENDBRANCH   1   7
TORSDOF 2
ENDMDL
