MODEL 1
REMARK minimizedAffinity -0.293607801
REMARK minimizedRMSD -1
REMARK  2 active torsions:
REMARK  status: ('A' for Active; 'I' for Inactive)
REMARK    1  A    between atoms: C1_2  and  C2_3 
REMARK    2  A    between atoms: C2_3  and  C3_4 
ROOT
ATOM      1  C3  UNL d   1      -4.371   5.848   2.827  0.00  0.00    -0.075 A 
ATOM      2  C4  UNL d   1      -3.345   5.938   3.779  0.00  0.00     0.002 A 
ATOM      3  C5  UNL d   1      -3.644   5.999   5.140  0.00  0.00     0.002 A 
ATOM      4  C6  UNL d   1      -4.971   5.982   5.566  0.00  0.00    -0.004 A 
ATOM      5  C7  UNL d   1      -5.999   5.910   4.628  0.00  0.00     0.002 A 
ATOM      6  C8  UNL d   1      -5.702   5.844   3.266  0.00  0.00     0.002 A 
ENDROOT
BRANCH   1   7
ATOM      7  C2  UNL d   1      -4.052   5.752   1.354  0.00  0.00     0.056 C 
BRANCH   7   8
ATOM      8  C1  UNL d   1      -3.362   4.445   0.950  0.00  0.00     0.007 C 
ATOM      9  C   UNL d   1      -4.049   3.206   1.507  0.00  0.00     0.009 C 
ENDBRANCH   7   8
ENDBRANCH   1   7
TORSDOF 2
ENDMDL
