MODEL 1
REMARK minimizedAffinity 5.09864855
REMARK minimizedRMSD -1
REMARK  2 active torsions:
REMARK  status: ('A' for Active; 'I' for Inactive)
REMARK    1  A    between atoms: C1_2  and  C2_3 
REMARK    2  A    between atoms: C2_3  and  C3_4 
ROOT
ATOM      1  C3  UNL d   1      -4.949   5.973   2.183  0.00  0.00    -0.075 A 
ATOM      2  C4  UNL d   1      -5.997   5.930   3.114  0.00  0.00     0.002 A 
ATOM      3  C5  UNL d   1      -5.729   5.936   4.483  0.00  0.00     0.002 A 
ATOM      4  C6  UNL d   1      -4.413   5.973   4.939  0.00  0.00    -0.004 A 
ATOM      5  C7  UNL d   1      -3.363   5.999   4.023  0.00  0.00     0.002 A 
ATOM      6  C8  UNL d   1      -3.629   5.999   2.652  0.00  0.00     0.002 A 
ENDROOT
BRANCH   1   7
ATOM      7  C2  UNL d   1      -5.233   5.998   0.700  0.00  0.00     0.056 C 
BRANCH   7   8
ATOM      8  C1  UNL d   1      -4.696   4.779  -0.058  0.00  0.00     0.007 C 
ATOM      9  C   UNL d   1      -5.391   3.479   0.326  0.00  0.00     0.009 C 
ENDBRANCH   7   8
ENDBRANCH   1   7
TORSDOF 2
ENDMDL
