MODEL 1
REMARK minimizedAffinity 5.62903166
REMARK minimizedRMSD -1
REMARK  3 active torsions:
REMARK  status: ('A' for Active; 'I' for Inactive)
REMARK    1  A    between atoms: C3'_2  and  C2'_3 
REMARK    2  A    between atoms: C2'_3  and  C1'_4 
REMARK    3  A    between atoms: C1'_4  and  C1_5 
ROOT
ATOM      1  C1  N4B d   1       0.532  -1.399   3.265  0.00  0.00    -0.075 A 
ATOM      2  C2  N4B d   1      -0.876  -1.421   3.367  0.00  0.00     0.002 A 
ATOM      3  C3  N4B d   1      -1.491  -0.934   4.494  0.00  0.00     0.002 A 
ATOM      4  C4  N4B d   1      -0.720  -0.440   5.536  0.00  0.00    -0.004 A 
ATOM      5  C5  N4B d   1       0.638  -0.399   5.420  0.00  0.00     0.002 A 
ATOM      6  C6  N4B d   1       1.269  -0.881   4.290  0.00  0.00     0.002 A 
ENDROOT
BRANCH   1   7
ATOM      7  C1' N4B d   1       1.253  -1.998   2.088  0.00  0.00     0.057 C 
BRANCH   7   8
ATOM      8  C2' N4B d   1       0.843  -3.460   1.941  0.00  0.00     0.009 C 
BRANCH   8   9
ATOM      9  C3' N4B d   1       1.998  -4.405   2.224  0.00  0.00     0.004 C 
ATOM     10  C4' N4B d   1       1.569  -5.647   2.948  0.00  0.00     0.003 C 
ENDBRANCH   8   9
ENDBRANCH   7   8
ENDBRANCH   1   7
TORSDOF 3
ENDMDL
