MODEL 1
REMARK minimizedAffinity 17.7223053
REMARK minimizedRMSD -1
REMARK  3 active torsions:
REMARK  status: ('A' for Active; 'I' for Inactive)
REMARK    1  A    between atoms: C3'_2  and  C2'_3 
REMARK    2  A    between atoms: C2'_3  and  C1'_4 
REMARK    3  A    between atoms: C1'_4  and  C1_5 
ROOT
ATOM      1  C1  N4B d   1      -1.477  -2.534   3.365  0.00  0.00    -0.075 A 
ATOM      2  C2  N4B d   1      -0.476  -2.384   2.379  0.00  0.00     0.002 A 
ATOM      3  C3  N4B d   1       0.462  -1.389   2.499  0.00  0.00     0.002 A 
ATOM      4  C4  N4B d   1       0.409  -0.523   3.581  0.00  0.00    -0.004 A 
ATOM      5  C5  N4B d   1      -0.546  -0.690   4.542  0.00  0.00     0.002 A 
ATOM      6  C6  N4B d   1      -1.493  -1.688   4.436  0.00  0.00     0.002 A 
ENDROOT
BRANCH   1   7
ATOM      7  C1' N4B d   1      -2.575  -3.553   3.233  0.00  0.00     0.057 C 
BRANCH   7   8
ATOM      8  C2' N4B d   1      -3.221  -3.418   1.857  0.00  0.00     0.009 C 
BRANCH   8   9
ATOM      9  C3' N4B d   1      -3.740  -4.749   1.340  0.00  0.00     0.004 C 
ATOM     10  C4' N4B d   1      -3.486  -4.942  -0.125  0.00  0.00     0.003 C 
ENDBRANCH   8   9
ENDBRANCH   7   8
ENDBRANCH   1   7
TORSDOF 3
ENDMDL
