MODEL 1
REMARK minimizedAffinity 6.14096212
REMARK minimizedRMSD -1
REMARK  3 active torsions:
REMARK  status: ('A' for Active; 'I' for Inactive)
REMARK    1  A    between atoms: C3'_2  and  C2'_3 
REMARK    2  A    between atoms: C2'_3  and  C1'_4 
REMARK    3  A    between atoms: C1'_4  and  C1_5 
ROOT
ATOM      1  C1  N4B d   1      -0.717  -1.642   4.436  0.00  0.00    -0.075 A 
ATOM      2  C2  N4B d   1      -1.243  -2.502   3.446  0.00  0.00     0.002 A 
ATOM      3  C3  N4B d   1      -2.260  -3.369   3.760  0.00  0.00     0.002 A 
ATOM      4  C4  N4B d   1      -2.753  -3.408   5.056  0.00  0.00    -0.004 A 
ATOM      5  C5  N4B d   1      -2.257  -2.556   6.000  0.00  0.00     0.002 A 
ATOM      6  C6  N4B d   1      -1.238  -1.676   5.697  0.00  0.00     0.002 A 
ENDROOT
BRANCH   1   7
ATOM      7  C1' N4B d   1       0.453  -0.737   4.162  0.00  0.00     0.057 C 
BRANCH   7   8
ATOM      8  C2' N4B d   1       0.473  -0.379   2.679  0.00  0.00     0.009 C 
BRANCH   8   9
ATOM      9  C3' N4B d   1       1.541  -1.149   1.922  0.00  0.00     0.004 C 
ATOM     10  C4' N4B d   1       1.082  -2.510   1.492  0.00  0.00     0.003 C 
ENDBRANCH   8   9
ENDBRANCH   7   8
ENDBRANCH   1   7
TORSDOF 3
ENDMDL
