MODEL 1
REMARK minimizedAffinity 9.0164175
REMARK minimizedRMSD -1
REMARK  3 active torsions:
REMARK  status: ('A' for Active; 'I' for Inactive)
REMARK    1  A    between atoms: C3'_2  and  C2'_3 
REMARK    2  A    between atoms: C2'_3  and  C1'_4 
REMARK    3  A    between atoms: C1'_4  and  C1_5 
ROOT
ATOM      1  C1  N4B d   1      -1.138  -2.461   3.384  0.00  0.00    -0.075 A 
ATOM      2  C2  N4B d   1      -0.406  -2.741   2.209  0.00  0.00     0.002 A 
ATOM      3  C3  N4B d   1       0.643  -1.933   1.844  0.00  0.00     0.002 A 
ATOM      4  C4  N4B d   1       0.964  -0.832   2.624  0.00  0.00    -0.004 A 
ATOM      5  C5  N4B d   1       0.268  -0.583   3.771  0.00  0.00     0.002 A 
ATOM      6  C6  N4B d   1      -0.786  -1.389   4.152  0.00  0.00     0.002 A 
ENDROOT
BRANCH   1   7
ATOM      7  C1' N4B d   1      -2.346  -3.266   3.777  0.00  0.00     0.057 C 
BRANCH   7   8
ATOM      8  C2' N4B d   1      -3.063  -3.742   2.517  0.00  0.00     0.009 C 
BRANCH   8   9
ATOM      9  C3' N4B d   1      -4.429  -3.095   2.362  0.00  0.00     0.004 C 
ATOM     10  C4' N4B d   1      -5.362  -3.431   3.486  0.00  0.00     0.003 C 
ENDBRANCH   8   9
ENDBRANCH   7   8
ENDBRANCH   1   7
TORSDOF 3
ENDMDL
