MODEL 1
REMARK minimizedAffinity 3.46161294
REMARK minimizedRMSD -1
REMARK  3 active torsions:
REMARK  status: ('A' for Active; 'I' for Inactive)
REMARK    1  A    between atoms: C3'_2  and  C2'_3 
REMARK    2  A    between atoms: C2'_3  and  C1'_4 
REMARK    3  A    between atoms: C1'_4  and  C1_5 
ROOT
ATOM      1  C1  N4B d   1      -0.631  -2.059   3.603  0.00  0.00    -0.075 A 
ATOM      2  C2  N4B d   1      -0.108  -2.831   2.543  0.00  0.00     0.002 A 
ATOM      3  C3  N4B d   1       0.766  -2.265   1.647  0.00  0.00     0.002 A 
ATOM      4  C4  N4B d   1       1.115  -0.929   1.780  0.00  0.00    -0.004 A 
ATOM      5  C5  N4B d   1       0.625  -0.197   2.822  0.00  0.00     0.002 A 
ATOM      6  C6  N4B d   1      -0.251  -0.754   3.732  0.00  0.00     0.002 A 
ENDROOT
BRANCH   1   7
ATOM      7  C1' N4B d   1      -1.656  -2.610   4.557  0.00  0.00     0.057 C 
BRANCH   7   8
ATOM      8  C2' N4B d   1      -2.672  -3.439   3.776  0.00  0.00     0.009 C 
BRANCH   8   9
ATOM      9  C3' N4B d   1      -3.770  -3.984   4.673  0.00  0.00     0.004 C 
ATOM     10  C4' N4B d   1      -3.913  -3.212   5.950  0.00  0.00     0.003 C 
ENDBRANCH   8   9
ENDBRANCH   7   8
ENDBRANCH   1   7
TORSDOF 3
ENDMDL
