MODEL 1
REMARK minimizedAffinity 13.2590256
REMARK minimizedRMSD -1
REMARK  3 active torsions:
REMARK  status: ('A' for Active; 'I' for Inactive)
REMARK    1  A    between atoms: C3'_2  and  C2'_3 
REMARK    2  A    between atoms: C2'_3  and  C1'_4 
REMARK    3  A    between atoms: C1'_4  and  C1_5 
ROOT
ATOM      1  C1  N4B d   1       0.310  -0.362   4.055  0.00  0.00    -0.075 A 
ATOM      2  C2  N4B d   1       0.936  -0.383   2.790  0.00  0.00     0.002 A 
ATOM      3  C3  N4B d   1       2.251  -0.008   2.668  0.00  0.00     0.002 A 
ATOM      4  C4  N4B d   1       2.952   0.410   3.790  0.00  0.00    -0.004 A 
ATOM      5  C5  N4B d   1       2.347   0.404   5.013  0.00  0.00     0.002 A 
ATOM      6  C6  N4B d   1       1.027   0.025   5.150  0.00  0.00     0.002 A 
ENDROOT
BRANCH   1   7
ATOM      7  C1' N4B d   1      -1.150  -0.681   4.224  0.00  0.00     0.057 C 
BRANCH   7   8
ATOM      8  C2' N4B d   1      -1.477  -0.760   5.713  0.00  0.00     0.009 C 
BRANCH   8   9
ATOM      9  C3' N4B d   1      -2.606  -1.735   5.996  0.00  0.00     0.004 C 
ATOM     10  C4' N4B d   1      -2.894  -2.643   4.838  0.00  0.00     0.003 C 
ENDBRANCH   8   9
ENDBRANCH   7   8
ENDBRANCH   1   7
TORSDOF 3
ENDMDL
