MODEL 1
REMARK minimizedAffinity 14.4400196
REMARK minimizedRMSD -1
REMARK  3 active torsions:
REMARK  status: ('A' for Active; 'I' for Inactive)
REMARK    1  A    between atoms: C3'_2  and  C2'_3 
REMARK    2  A    between atoms: C2'_3  and  C1'_4 
REMARK    3  A    between atoms: C1'_4  and  C1_5 
ROOT
ATOM      1  C1  N4B d   1      -3.014  -3.196   1.853  0.00  0.00    -0.075 A 
ATOM      2  C2  N4B d   1      -3.699  -3.423   0.639  0.00  0.00     0.002 A 
ATOM      3  C3  N4B d   1      -4.356  -4.612   0.434  0.00  0.00     0.002 A 
ATOM      4  C4  N4B d   1      -4.326  -5.591   1.415  0.00  0.00    -0.004 A 
ATOM      5  C5  N4B d   1      -3.683  -5.354   2.595  0.00  0.00     0.002 A 
ATOM      6  C6  N4B d   1      -3.022  -4.162   2.817  0.00  0.00     0.002 A 
ENDROOT
BRANCH   1   7
ATOM      7  C1' N4B d   1      -2.210  -1.947   2.090  0.00  0.00     0.057 C 
BRANCH   7   8
ATOM      8  C2' N4B d   1      -0.980  -1.965   1.187  0.00  0.00     0.009 C 
BRANCH   8   9
ATOM      9  C3' N4B d   1       0.172  -1.173   1.781  0.00  0.00     0.004 C 
ATOM     10  C4' N4B d   1       1.491  -1.872   1.641  0.00  0.00     0.003 C 
ENDBRANCH   8   9
ENDBRANCH   7   8
ENDBRANCH   1   7
TORSDOF 3
ENDMDL
