MODEL 1
REMARK minimizedAffinity 8.24471283
REMARK minimizedRMSD -1
REMARK  3 active torsions:
REMARK  status: ('A' for Active; 'I' for Inactive)
REMARK    1  A    between atoms: C3'_2  and  C2'_3 
REMARK    2  A    between atoms: C2'_3  and  C1'_4 
REMARK    3  A    between atoms: C1'_4  and  C1_5 
ROOT
ATOM      1  C1  N4B d   1      -4.160  -4.250   1.804  0.00  0.00    -0.075 A 
ATOM      2  C2  N4B d   1      -3.759  -4.228   0.450  0.00  0.00     0.002 A 
ATOM      3  C3  N4B d   1      -4.331  -5.094  -0.449  0.00  0.00     0.002 A 
ATOM      4  C4  N4B d   1      -5.288  -6.000  -0.016  0.00  0.00    -0.004 A 
ATOM      5  C5  N4B d   1      -5.688  -5.997   1.288  0.00  0.00     0.002 A 
ATOM      6  C6  N4B d   1      -5.125  -5.130   2.202  0.00  0.00     0.002 A 
ENDROOT
BRANCH   1   7
ATOM      7  C1' N4B d   1      -3.503  -3.381   2.841  0.00  0.00     0.057 C 
BRANCH   7   8
ATOM      8  C2' N4B d   1      -2.047  -3.810   3.003  0.00  0.00     0.009 C 
BRANCH   8   9
ATOM      9  C3' N4B d   1      -1.097  -2.891   2.255  0.00  0.00     0.004 C 
ATOM     10  C4' N4B d   1       0.329  -3.349   2.324  0.00  0.00     0.003 C 
ENDBRANCH   8   9
ENDBRANCH   7   8
ENDBRANCH   1   7
TORSDOF 3
ENDMDL
