MODEL 1
REMARK minimizedAffinity 20.5775337
REMARK minimizedRMSD -1
REMARK  3 active torsions:
REMARK  status: ('A' for Active; 'I' for Inactive)
REMARK    1  A    between atoms: C3'_2  and  C2'_3 
REMARK    2  A    between atoms: C2'_3  and  C1'_4 
REMARK    3  A    between atoms: C1'_4  and  C1_5 
ROOT
ATOM      1  C1  N4B d   1      -1.880   3.889  -3.380  0.00  0.00    -0.075 A 
ATOM      2  C2  N4B d   1      -1.454   5.228  -3.235  0.00  0.00     0.002 A 
ATOM      3  C3  N4B d   1      -1.228   6.000  -4.348  0.00  0.00     0.002 A 
ATOM      4  C4  N4B d   1      -1.402   5.452  -5.610  0.00  0.00    -0.004 A 
ATOM      5  C5  N4B d   1      -1.837   4.165  -5.741  0.00  0.00     0.002 A 
ATOM      6  C6  N4B d   1      -2.072   3.379  -4.631  0.00  0.00     0.002 A 
ENDROOT
BRANCH   1   7
ATOM      7  C1' N4B d   1      -2.057   2.980  -2.194  0.00  0.00     0.057 C 
BRANCH   7   8
ATOM      8  C2' N4B d   1      -0.872   2.021  -2.117  0.00  0.00     0.009 C 
BRANCH   8   9
ATOM      9  C3' N4B d   1       0.295   2.622  -1.352  0.00  0.00     0.004 C 
ATOM     10  C4' N4B d   1      -0.078   3.049   0.036  0.00  0.00     0.003 C 
ENDBRANCH   8   9
ENDBRANCH   7   8
ENDBRANCH   1   7
TORSDOF 3
ENDMDL
