MODEL 1
REMARK minimizedAffinity 11.0757961
REMARK minimizedRMSD -1
REMARK  3 active torsions:
REMARK  status: ('A' for Active; 'I' for Inactive)
REMARK    1  A    between atoms: C3'_2  and  C2'_3 
REMARK    2  A    between atoms: C2'_3  and  C1'_4 
REMARK    3  A    between atoms: C1'_4  and  C1_5 
ROOT
ATOM      1  C1  N4B d   1       1.213  -1.967   1.721  0.00  0.00    -0.075 A 
ATOM      2  C2  N4B d   1       1.761  -3.262   1.851  0.00  0.00     0.002 A 
ATOM      3  C3  N4B d   1       0.944  -4.364   1.785  0.00  0.00     0.002 A 
ATOM      4  C4  N4B d   1      -0.421  -4.195   1.611  0.00  0.00    -0.004 A 
ATOM      5  C5  N4B d   1      -0.940  -2.943   1.461  0.00  0.00     0.002 A 
ATOM      6  C6  N4B d   1      -0.130  -1.826   1.521  0.00  0.00     0.002 A 
ENDROOT
BRANCH   1   7
ATOM      7  C1' N4B d   1       2.054  -0.729   1.872  0.00  0.00     0.057 C 
BRANCH   7   8
ATOM      8  C2' N4B d   1       3.476  -1.031   1.407  0.00  0.00     0.009 C 
BRANCH   8   9
ATOM      9  C3' N4B d   1       4.506  -0.208   2.161  0.00  0.00     0.004 C 
ATOM     10  C4' N4B d   1       3.892   0.906   2.955  0.00  0.00     0.003 C 
ENDBRANCH   8   9
ENDBRANCH   7   8
ENDBRANCH   1   7
TORSDOF 3
ENDMDL
