MODEL 1
REMARK minimizedAffinity 4.49954987
REMARK minimizedRMSD -1
REMARK  3 active torsions:
REMARK  status: ('A' for Active; 'I' for Inactive)
REMARK    1  A    between atoms: C3'_2  and  C2'_3 
REMARK    2  A    between atoms: C2'_3  and  C1'_4 
REMARK    3  A    between atoms: C1'_4  and  C1_5 
ROOT
ATOM      1  C1  N4B d   1       2.014  -1.011   1.291  0.00  0.00    -0.075 A 
ATOM      2  C2  N4B d   1       1.268  -2.030   1.925  0.00  0.00     0.002 A 
ATOM      3  C3  N4B d   1       1.506  -3.347   1.618  0.00  0.00     0.002 A 
ATOM      4  C4  N4B d   1       2.467  -3.668   0.671  0.00  0.00    -0.004 A 
ATOM      5  C5  N4B d   1       3.201  -2.680   0.082  0.00  0.00     0.002 A 
ATOM      6  C6  N4B d   1       2.975  -1.352   0.384  0.00  0.00     0.002 A 
ENDROOT
BRANCH   1   7
ATOM      7  C1' N4B d   1       1.731   0.446   1.531  0.00  0.00     0.057 C 
BRANCH   7   8
ATOM      8  C2' N4B d   1       1.939   1.217   0.231  0.00  0.00     0.009 C 
BRANCH   8   9
ATOM      9  C3' N4B d   1       0.860   2.264   0.012  0.00  0.00     0.004 C 
ATOM     10  C4' N4B d   1       0.351   2.287  -1.399  0.00  0.00     0.003 C 
ENDBRANCH   8   9
ENDBRANCH   7   8
ENDBRANCH   1   7
TORSDOF 3
ENDMDL
