MODEL 1
REMARK minimizedAffinity -3.65973735
REMARK minimizedRMSD -1
REMARK  1 active torsions:
REMARK  status: ('A' for Active; 'I' for Inactive)
REMARK    1  A    between atoms: C3_4  and  O_7 
ROOT
ATOM      1  C   UNL d   1       0.669   0.382  -0.179  0.00  0.00    -0.033 A 
ATOM      2  C1  UNL d   1       1.361  -0.818  -0.003  0.00  0.00     0.039 A 
ATOM      3  C2  UNL d   1       0.671  -1.977   0.358  0.00  0.00    -0.080 A 
ATOM      4  C3  UNL d   1      -0.708  -1.923   0.537  0.00  0.00     0.150 A 
ATOM      5  C4  UNL d   1      -1.404  -0.732   0.360  0.00  0.00    -0.007 A 
ATOM      6  C5  UNL d   1      -0.714   0.425   0.001  0.00  0.00     0.039 A 
ENDROOT
BRANCH   4   7
ATOM      7  O   UNL d   1      -1.424  -3.027   0.894  0.00  0.00    -0.526 OA
ATOM      8  H5  UNL d   1      -0.808  -3.770   1.009  0.00  0.00     0.418 HD
ENDBRANCH   4   7
TORSDOF 1
ENDMDL
