MODEL 1
REMARK minimizedAffinity -2.97810173
REMARK minimizedRMSD -1
REMARK  1 active torsions:
REMARK  status: ('A' for Active; 'I' for Inactive)
REMARK    1  A    between atoms: C3_4  and  O_7 
ROOT
ATOM      1  C   UNL d   1       0.593   0.779  -0.186  0.00  0.00    -0.033 A 
ATOM      2  C1  UNL d   1      -0.789   0.761   0.009  0.00  0.00     0.039 A 
ATOM      3  C2  UNL d   1      -1.416  -0.397   0.471  0.00  0.00    -0.080 A 
ATOM      4  C3  UNL d   1      -0.650  -1.529   0.736  0.00  0.00     0.150 A 
ATOM      5  C4  UNL d   1       0.728  -1.517   0.549  0.00  0.00    -0.007 A 
ATOM      6  C5  UNL d   1       1.352  -0.360   0.086  0.00  0.00     0.039 A 
ENDROOT
BRANCH   4   7
ATOM      7  O   UNL d   1      -1.218  -2.685   1.185  0.00  0.00    -0.526 OA
ATOM      8  H5  UNL d   1      -2.179  -2.554   1.240  0.00  0.00     0.418 HD
ENDBRANCH   4   7
TORSDOF 1
ENDMDL
