MODEL 1
REMARK minimizedAffinity -4.75836706
REMARK minimizedRMSD -1
REMARK  1 active torsions:
REMARK  status: ('A' for Active; 'I' for Inactive)
REMARK    1  A    between atoms: C3_4  and  O_7 
ROOT
ATOM      1  C   UNL d   1       0.728   0.083   0.239  0.00  0.00    -0.033 A 
ATOM      2  C1  UNL d   1      -0.654   0.266   0.166  0.00  0.00     0.039 A 
ATOM      3  C2  UNL d   1      -1.515  -0.814   0.366  0.00  0.00    -0.080 A 
ATOM      4  C3  UNL d   1      -0.982  -2.072   0.638  0.00  0.00     0.150 A 
ATOM      5  C4  UNL d   1       0.393  -2.261   0.715  0.00  0.00    -0.007 A 
ATOM      6  C5  UNL d   1       1.252  -1.181   0.515  0.00  0.00     0.039 A 
ENDROOT
BRANCH   4   7
ATOM      7  O   UNL d   1      -1.783  -3.157   0.835  0.00  0.00    -0.526 OA
ATOM      8  H5  UNL d   1      -2.708  -2.882   0.723  0.00  0.00     0.418 HD
ENDBRANCH   4   7
TORSDOF 1
ENDMDL
