MODEL 1
REMARK minimizedAffinity -5.25743771
REMARK minimizedRMSD -1
REMARK  1 active torsions:
REMARK  status: ('A' for Active; 'I' for Inactive)
REMARK    1  A    between atoms: C3_4  and  O_7 
ROOT
ATOM      1  C   UNL d   1      -1.360  -2.371   0.951  0.00  0.00    -0.033 A 
ATOM      2  C1  UNL d   1       0.005  -2.498   0.683  0.00  0.00     0.039 A 
ATOM      3  C2  UNL d   1       0.712  -1.431   0.127  0.00  0.00    -0.080 A 
ATOM      4  C3  UNL d   1       0.044  -0.242  -0.156  0.00  0.00     0.150 A 
ATOM      5  C4  UNL d   1      -1.314  -0.107   0.112  0.00  0.00    -0.007 A 
ATOM      6  C5  UNL d   1      -2.019  -1.174   0.666  0.00  0.00     0.039 A 
ENDROOT
BRANCH   4   7
ATOM      7  O   UNL d   1       0.691   0.825  -0.704  0.00  0.00    -0.526 OA
ATOM      8  H5  UNL d   1       1.618   0.577  -0.860  0.00  0.00     0.418 HD
ENDBRANCH   4   7
TORSDOF 1
ENDMDL
