MODEL 1
REMARK minimizedAffinity -2.72129846
REMARK minimizedRMSD -1
REMARK  1 active torsions:
REMARK  status: ('A' for Active; 'I' for Inactive)
REMARK    1  A    between atoms: C3_4  and  O_7 
ROOT
ATOM      1  C   UNL d   1       0.211   0.803  -0.549  0.00  0.00    -0.033 A 
ATOM      2  C1  UNL d   1      -1.111   0.847  -0.103  0.00  0.00     0.039 A 
ATOM      3  C2  UNL d   1      -1.695  -0.286   0.468  0.00  0.00    -0.080 A 
ATOM      4  C3  UNL d   1      -0.948  -1.454   0.586  0.00  0.00     0.150 A 
ATOM      5  C4  UNL d   1       0.371  -1.504   0.146  0.00  0.00    -0.007 A 
ATOM      6  C5  UNL d   1       0.953  -0.372  -0.424  0.00  0.00     0.039 A 
ENDROOT
BRANCH   4   7
ATOM      7  O   UNL d   1      -1.477  -2.586   1.131  0.00  0.00    -0.526 OA
ATOM      8  H5  UNL d   1      -2.404  -2.412   1.363  0.00  0.00     0.418 HD
ENDBRANCH   4   7
TORSDOF 1
ENDMDL
