MODEL 1
REMARK minimizedAffinity -2.39254785
REMARK minimizedRMSD -1
REMARK  1 active torsions:
REMARK  status: ('A' for Active; 'I' for Inactive)
REMARK    1  A    between atoms: C3_4  and  O_7 
ROOT
ATOM      1  C   UNL d   1       0.670   0.532  -0.276  0.00  0.00    -0.033 A 
ATOM      2  C1  UNL d   1      -0.664   0.474   0.129  0.00  0.00     0.039 A 
ATOM      3  C2  UNL d   1      -1.178  -0.702   0.681  0.00  0.00    -0.080 A 
ATOM      4  C3  UNL d   1      -0.347  -1.810   0.822  0.00  0.00     0.150 A 
ATOM      5  C4  UNL d   1       0.985  -1.758   0.424  0.00  0.00    -0.007 A 
ATOM      6  C5  UNL d   1       1.495  -0.583  -0.127  0.00  0.00     0.039 A 
ENDROOT
BRANCH   4   7
ATOM      7  O   UNL d   1      -0.804  -2.981   1.350  0.00  0.00    -0.526 OA
ATOM      8  H5  UNL d   1      -1.749  -2.878   1.553  0.00  0.00     0.418 HD
ENDBRANCH   4   7
TORSDOF 1
ENDMDL
