MODEL 1
REMARK minimizedAffinity -2.38472843
REMARK minimizedRMSD -1
REMARK  1 active torsions:
REMARK  status: ('A' for Active; 'I' for Inactive)
REMARK    1  A    between atoms: C3_4  and  O_7 
ROOT
ATOM      1  C   UNL d   1       1.134   2.205  -3.772  0.00  0.00    -0.033 A 
ATOM      2  C1  UNL d   1      -0.086   1.530  -3.700  0.00  0.00     0.039 A 
ATOM      3  C2  UNL d   1      -0.512   0.982  -2.488  0.00  0.00    -0.080 A 
ATOM      4  C3  UNL d   1       0.290   1.115  -1.358  0.00  0.00     0.150 A 
ATOM      5  C4  UNL d   1       1.505   1.789  -1.423  0.00  0.00    -0.007 A 
ATOM      6  C5  UNL d   1       1.929   2.335  -2.633  0.00  0.00     0.039 A 
ENDROOT
BRANCH   4   7
ATOM      7  O   UNL d   1      -0.081   0.593  -0.155  0.00  0.00    -0.526 OA
ATOM      8  H5  UNL d   1      -0.929   0.131  -0.269  0.00  0.00     0.418 HD
ENDBRANCH   4   7
TORSDOF 1
ENDMDL
