MODEL 1
REMARK minimizedAffinity -4.54245424
REMARK minimizedRMSD -1
REMARK  1 active torsions:
REMARK  status: ('A' for Active; 'I' for Inactive)
REMARK    1  A    between atoms: C3_4  and  O_7 
ROOT
ATOM      1  C   UNL d   1       0.658   0.611   0.172  0.00  0.00    -0.033 A 
ATOM      2  C1  UNL d   1      -0.737   0.598   0.113  0.00  0.00     0.039 A 
ATOM      3  C2  UNL d   1      -1.435  -0.593   0.323  0.00  0.00    -0.080 A 
ATOM      4  C3  UNL d   1      -0.728  -1.761   0.591  0.00  0.00     0.150 A 
ATOM      5  C4  UNL d   1       0.662  -1.755   0.655  0.00  0.00    -0.007 A 
ATOM      6  C5  UNL d   1       1.357  -0.565   0.444  0.00  0.00     0.039 A 
ENDROOT
BRANCH   4   7
ATOM      7  O   UNL d   1      -1.365  -2.949   0.798  0.00  0.00    -0.526 OA
ATOM      8  H5  UNL d   1      -2.321  -2.807   0.695  0.00  0.00     0.418 HD
ENDBRANCH   4   7
TORSDOF 1
ENDMDL
