MODEL 1
REMARK minimizedAffinity -4.33398962
REMARK minimizedRMSD -1
REMARK  1 active torsions:
REMARK  status: ('A' for Active; 'I' for Inactive)
REMARK    1  A    between atoms: C3_4  and  O_7 
ROOT
ATOM      1  C   UNL d   1      -0.172   0.870  -0.099  0.00  0.00    -0.033 A 
ATOM      2  C1  UNL d   1       0.780  -0.149  -0.026  0.00  0.00     0.039 A 
ATOM      3  C2  UNL d   1       0.401  -1.434   0.367  0.00  0.00    -0.080 A 
ATOM      4  C3  UNL d   1      -0.931  -1.687   0.683  0.00  0.00     0.150 A 
ATOM      5  C4  UNL d   1      -1.885  -0.677   0.608  0.00  0.00    -0.007 A 
ATOM      6  C5  UNL d   1      -1.505   0.605   0.216  0.00  0.00     0.039 A 
ENDROOT
BRANCH   4   7
ATOM      7  O   UNL d   1      -1.348  -2.924   1.076  0.00  0.00    -0.526 OA
ATOM      8  H5  UNL d   1      -0.575  -3.512   1.109  0.00  0.00     0.418 HD
ENDBRANCH   4   7
TORSDOF 1
ENDMDL
