MODEL 1
REMARK minimizedAffinity -5.31564903
REMARK minimizedRMSD -1
REMARK  1 active torsions:
REMARK  status: ('A' for Active; 'I' for Inactive)
REMARK    1  A    between atoms: C3_4  and  O_7 
ROOT
ATOM      1  C   UNL d   1       0.658   0.404   0.423  0.00  0.00    -0.033 A 
ATOM      2  C1  UNL d   1      -0.718   0.645   0.434  0.00  0.00     0.039 A 
ATOM      3  C2  UNL d   1      -1.614  -0.419   0.543  0.00  0.00    -0.080 A 
ATOM      4  C3  UNL d   1      -1.124  -1.718   0.641  0.00  0.00     0.150 A 
ATOM      5  C4  UNL d   1       0.245  -1.966   0.635  0.00  0.00    -0.007 A 
ATOM      6  C5  UNL d   1       1.139  -0.901   0.525  0.00  0.00     0.039 A 
ENDROOT
BRANCH   4   7
ATOM      7  O   UNL d   1      -1.960  -2.790   0.744  0.00  0.00    -0.526 OA
ATOM      8  H5  UNL d   1      -2.877  -2.470   0.706  0.00  0.00     0.418 HD
ENDBRANCH   4   7
TORSDOF 1
ENDMDL
