MODEL 1
REMARK minimizedAffinity -4.80538321
REMARK minimizedRMSD -1
REMARK  1 active torsions:
REMARK  status: ('A' for Active; 'I' for Inactive)
REMARK    1  A    between atoms: C3_4  and  O_7 
ROOT
ATOM      1  C   UNL d   1       0.150  -0.032   0.036  0.00  0.00    -0.033 A 
ATOM      2  C1  UNL d   1      -1.241  -0.076  -0.075  0.00  0.00     0.039 A 
ATOM      3  C2  UNL d   1      -1.943  -1.200   0.365  0.00  0.00    -0.080 A 
ATOM      4  C3  UNL d   1      -1.243  -2.271   0.914  0.00  0.00     0.150 A 
ATOM      5  C4  UNL d   1       0.142  -2.232   1.031  0.00  0.00    -0.007 A 
ATOM      6  C5  UNL d   1       0.842  -1.109   0.591  0.00  0.00     0.039 A 
ENDROOT
BRANCH   4   7
ATOM      7  O   UNL d   1      -1.884  -3.391   1.352  0.00  0.00    -0.526 OA
ATOM      8  H5  UNL d   1      -2.835  -3.289   1.182  0.00  0.00     0.418 HD
ENDBRANCH   4   7
TORSDOF 1
ENDMDL
