MODEL 1
REMARK minimizedAffinity -4.42499447
REMARK minimizedRMSD -1
REMARK  1 active torsions:
REMARK  status: ('A' for Active; 'I' for Inactive)
REMARK    1  A    between atoms: C3_4  and  O_7 
ROOT
ATOM      1  C   UNL d   1      -0.247   0.051   0.065  0.00  0.00    -0.033 A 
ATOM      2  C1  UNL d   1      -1.571  -0.115  -0.347  0.00  0.00     0.039 A 
ATOM      3  C2  UNL d   1      -2.293  -1.241   0.055  0.00  0.00    -0.080 A 
ATOM      4  C3  UNL d   1      -1.680  -2.191   0.868  0.00  0.00     0.150 A 
ATOM      5  C4  UNL d   1      -0.363  -2.030   1.285  0.00  0.00    -0.007 A 
ATOM      6  C5  UNL d   1       0.356  -0.906   0.882  0.00  0.00     0.039 A 
ENDROOT
BRANCH   4   7
ATOM      7  O   UNL d   1      -2.343  -3.308   1.282  0.00  0.00    -0.526 OA
ATOM      8  H5  UNL d   1      -3.233  -3.300   0.893  0.00  0.00     0.418 HD
ENDBRANCH   4   7
TORSDOF 1
ENDMDL
