MODEL 1
REMARK minimizedAffinity -5.08867311
REMARK minimizedRMSD -1
REMARK  1 active torsions:
REMARK  status: ('A' for Active; 'I' for Inactive)
REMARK    1  A    between atoms: C3_4  and  O_7 
ROOT
ATOM      1  C   UNL d   1      -0.045   0.721   0.103  0.00  0.00    -0.033 A 
ATOM      2  C1  UNL d   1       0.946  -0.263   0.096  0.00  0.00     0.039 A 
ATOM      3  C2  UNL d   1       0.597  -1.609   0.216  0.00  0.00    -0.080 A 
ATOM      4  C3  UNL d   1      -0.745  -1.958   0.342  0.00  0.00     0.150 A 
ATOM      5  C4  UNL d   1      -1.738  -0.984   0.346  0.00  0.00    -0.007 A 
ATOM      6  C5  UNL d   1      -1.387   0.360   0.227  0.00  0.00     0.039 A 
ENDROOT
BRANCH   4   7
ATOM      7  O   UNL d   1      -1.134  -3.259   0.467  0.00  0.00    -0.526 OA
ATOM      8  H5  UNL d   1      -0.340  -3.818   0.476  0.00  0.00     0.418 HD
ENDBRANCH   4   7
TORSDOF 1
ENDMDL
