MODEL 1
REMARK minimizedAffinity -3.96365023
REMARK minimizedRMSD -1
REMARK  1 active torsions:
REMARK  status: ('A' for Active; 'I' for Inactive)
REMARK    1  A    between atoms: C3_4  and  O_7 
ROOT
ATOM      1  C   UNL d   1      -5.774  -1.997  -4.324  0.00  0.00    -0.033 A 
ATOM      2  C1  UNL d   1      -5.152  -1.860  -5.566  0.00  0.00     0.039 A 
ATOM      3  C2  UNL d   1      -4.013  -2.611  -5.865  0.00  0.00    -0.080 A 
ATOM      4  C3  UNL d   1      -3.508  -3.494  -4.915  0.00  0.00     0.150 A 
ATOM      5  C4  UNL d   1      -4.126  -3.639  -3.677  0.00  0.00    -0.007 A 
ATOM      6  C5  UNL d   1      -5.262  -2.888  -3.380  0.00  0.00     0.039 A 
ENDROOT
BRANCH   4   7
ATOM      7  O   UNL d   1      -2.397  -4.245  -5.159  0.00  0.00    -0.526 OA
ATOM      8  H5  UNL d   1      -2.061  -4.019  -6.043  0.00  0.00     0.418 HD
ENDBRANCH   4   7
TORSDOF 1
ENDMDL
