MODEL 1
REMARK minimizedAffinity -6.41745424
REMARK minimizedRMSD -1
REMARK  2 active torsions:
REMARK  status: ('A' for Active; 'I' for Inactive)
REMARK    1  A    between atoms: C2'_3  and  C1'_4 
REMARK    2  A    between atoms: C1'_4  and  C1_5 
ROOT
ATOM      1  C1  I4B d   1       0.087   0.416  -0.312  0.00  0.00    -0.075 A 
ATOM      2  C2  I4B d   1      -0.613  -0.515   0.414  0.00  0.00     0.003 A 
ATOM      3  C3  I4B d   1       0.052  -1.637   0.966  0.00  0.00     0.002 A 
ATOM      4  C4  I4B d   1       1.400  -1.813   0.726  0.00  0.00    -0.004 A 
ATOM      5  C5  I4B d   1       2.113  -0.856   0.010  0.00  0.00     0.002 A 
ATOM      6  C6  I4B d   1       1.455   0.272  -0.503  0.00  0.00     0.003 A 
ENDROOT
BRANCH   1   7
ATOM      7  C1' I4B d   1      -0.653   1.570  -0.909  0.00  0.00     0.060 C 
BRANCH   7   8
ATOM      8  C2' I4B d   1      -1.670   1.018  -1.887  0.00  0.00    -0.013 C 
ATOM      9  C4' I4B d   1      -3.069   1.430  -1.511  0.00  0.00     0.013 C 
ATOM     10  C3' I4B d   1      -1.310   1.511  -3.257  0.00  0.00     0.013 C 
ENDBRANCH   7   8
ENDBRANCH   1   7
TORSDOF 2
ENDMDL
