MODEL 1
REMARK minimizedAffinity -4.0888176
REMARK minimizedRMSD -1
REMARK  2 active torsions:
REMARK  status: ('A' for Active; 'I' for Inactive)
REMARK    1  A    between atoms: C2'_3  and  C1'_4 
REMARK    2  A    between atoms: C1'_4  and  C1_5 
ROOT
ATOM      1  C1  I4B d   1      -0.128   0.393   0.199  0.00  0.00    -0.075 A 
ATOM      2  C2  I4B d   1       1.165   0.638  -0.191  0.00  0.00     0.003 A 
ATOM      3  C3  I4B d   1       2.187  -0.297   0.104  0.00  0.00     0.002 A 
ATOM      4  C4  I4B d   1       1.884  -1.430   0.829  0.00  0.00    -0.004 A 
ATOM      5  C5  I4B d   1       0.568  -1.688   1.204  0.00  0.00     0.002 A 
ATOM      6  C6  I4B d   1      -0.447  -0.777   0.876  0.00  0.00     0.003 A 
ENDROOT
BRANCH   1   7
ATOM      7  C1' I4B d   1      -1.177   1.416  -0.100  0.00  0.00     0.060 C 
BRANCH   7   8
ATOM      8  C2' I4B d   1      -1.486   1.349  -1.582  0.00  0.00    -0.013 C 
ATOM      9  C4' I4B d   1      -2.888   0.856  -1.825  0.00  0.00     0.013 C 
ATOM     10  C3' I4B d   1      -1.287   2.719  -2.159  0.00  0.00     0.013 C 
ENDBRANCH   7   8
ENDBRANCH   1   7
TORSDOF 2
ENDMDL
