MODEL 1
REMARK minimizedAffinity -6.10864401
REMARK minimizedRMSD -1
REMARK  2 active torsions:
REMARK  status: ('A' for Active; 'I' for Inactive)
REMARK    1  A    between atoms: C2'_3  and  C1'_4 
REMARK    2  A    between atoms: C1'_4  and  C1_5 
ROOT
ATOM      1  C1  I4B d   1      -0.041   0.242  -0.079  0.00  0.00    -0.075 A 
ATOM      2  C2  I4B d   1       1.251   0.360  -0.527  0.00  0.00     0.003 A 
ATOM      3  C3  I4B d   1       2.174  -0.695  -0.327  0.00  0.00     0.002 A 
ATOM      4  C4  I4B d   1       1.779  -1.821   0.366  0.00  0.00    -0.004 A 
ATOM      5  C5  I4B d   1       0.463  -1.949   0.800  0.00  0.00     0.002 A 
ATOM      6  C6  I4B d   1      -0.457  -0.916   0.566  0.00  0.00     0.003 A 
ENDROOT
BRANCH   1   7
ATOM      7  C1' I4B d   1      -0.981   1.389  -0.278  0.00  0.00     0.060 C 
BRANCH   7   8
ATOM      8  C2' I4B d   1      -1.158   1.593  -1.769  0.00  0.00    -0.013 C 
ATOM      9  C4' I4B d   1      -2.413   0.926  -2.265  0.00  0.00     0.013 C 
ATOM     10  C3' I4B d   1      -1.189   3.069  -2.033  0.00  0.00     0.013 C 
ENDBRANCH   7   8
ENDBRANCH   1   7
TORSDOF 2
ENDMDL
