MODEL 1
REMARK minimizedAffinity -6.21620607
REMARK minimizedRMSD -1
REMARK  2 active torsions:
REMARK  status: ('A' for Active; 'I' for Inactive)
REMARK    1  A    between atoms: C2'_3  and  C1'_4 
REMARK    2  A    between atoms: C1'_4  and  C1_5 
ROOT
ATOM      1  C1  I4B d   1       0.238   0.240  -0.162  0.00  0.00    -0.075 A 
ATOM      2  C2  I4B d   1       0.096  -0.842   0.672  0.00  0.00     0.003 A 
ATOM      3  C3  I4B d   1       1.132  -1.802   0.776  0.00  0.00     0.002 A 
ATOM      4  C4  I4B d   1       2.263  -1.669  -0.004  0.00  0.00    -0.004 A 
ATOM      5  C5  I4B d   1       2.414  -0.560  -0.831  0.00  0.00     0.002 A 
ATOM      6  C6  I4B d   1       1.401   0.407  -0.902  0.00  0.00     0.003 A 
ENDROOT
BRANCH   1   7
ATOM      7  C1' I4B d   1      -0.889   1.217  -0.272  0.00  0.00     0.060 C 
BRANCH   7   8
ATOM      8  C2' I4B d   1      -1.196   1.411  -1.743  0.00  0.00    -0.013 C 
ATOM      9  C4' I4B d   1      -2.602   0.979  -2.068  0.00  0.00     0.013 C 
ATOM     10  C3' I4B d   1      -0.984   2.858  -2.074  0.00  0.00     0.013 C 
ENDBRANCH   7   8
ENDBRANCH   1   7
TORSDOF 2
ENDMDL
