MODEL 1
REMARK minimizedAffinity -3.96587706
REMARK minimizedRMSD -1
REMARK  2 active torsions:
REMARK  status: ('A' for Active; 'I' for Inactive)
REMARK    1  A    between atoms: C2'_3  and  C1'_4 
REMARK    2  A    between atoms: C1'_4  and  C1_5 
ROOT
ATOM      1  C1  I4B d   1      -0.408   0.126   0.007  0.00  0.00    -0.075 A 
ATOM      2  C2  I4B d   1       0.824   0.255  -0.585  0.00  0.00     0.003 A 
ATOM      3  C3  I4B d   1       1.816  -0.735  -0.388  0.00  0.00     0.002 A 
ATOM      4  C4  I4B d   1       1.553  -1.805   0.443  0.00  0.00    -0.004 A 
ATOM      5  C5  I4B d   1       0.296  -1.946   1.023  0.00  0.00     0.002 A 
ATOM      6  C6  I4B d   1      -0.695  -0.981   0.794  0.00  0.00     0.003 A 
ENDROOT
BRANCH   1   7
ATOM      7  C1' I4B d   1      -1.422   1.208  -0.196  0.00  0.00     0.060 C 
BRANCH   7   8
ATOM      8  C2' I4B d   1      -1.769   1.251  -1.670  0.00  0.00    -0.013 C 
ATOM      9  C4' I4B d   1      -3.244   1.036  -1.889  0.00  0.00     0.013 C 
ATOM     10  C3' I4B d   1      -1.330   2.579  -2.210  0.00  0.00     0.013 C 
ENDBRANCH   7   8
ENDBRANCH   1   7
TORSDOF 2
ENDMDL
