MODEL 1
REMARK minimizedAffinity -4.42247486
REMARK minimizedRMSD -1
REMARK  2 active torsions:
REMARK  status: ('A' for Active; 'I' for Inactive)
REMARK    1  A    between atoms: C2'_3  and  C1'_4 
REMARK    2  A    between atoms: C1'_4  and  C1_5 
ROOT
ATOM      1  C1  I4B d   1      -0.246   0.356  -0.071  0.00  0.00    -0.075 A 
ATOM      2  C2  I4B d   1      -0.533  -0.827   0.562  0.00  0.00     0.003 A 
ATOM      3  C3  I4B d   1       0.498  -1.758   0.835  0.00  0.00     0.002 A 
ATOM      4  C4  I4B d   1       1.785  -1.490   0.416  0.00  0.00    -0.004 A 
ATOM      5  C5  I4B d   1       2.079  -0.279  -0.206  0.00  0.00     0.002 A 
ATOM      6  C6  I4B d   1       1.059   0.655  -0.440  0.00  0.00     0.003 A 
ENDROOT
BRANCH   1   7
ATOM      7  C1' I4B d   1      -1.364   1.302  -0.374  0.00  0.00     0.060 C 
BRANCH   7   8
ATOM      8  C2' I4B d   1      -1.448   1.460  -1.878  0.00  0.00    -0.013 C 
ATOM      9  C4' I4B d   1      -2.831   1.142  -2.383  0.00  0.00     0.013 C 
ATOM     10  C3' I4B d   1      -1.057   2.867  -2.219  0.00  0.00     0.013 C 
ENDBRANCH   7   8
ENDBRANCH   1   7
TORSDOF 2
ENDMDL
