MODEL 1
REMARK minimizedAffinity -4.77416086
REMARK minimizedRMSD -1
REMARK  2 active torsions:
REMARK  status: ('A' for Active; 'I' for Inactive)
REMARK    1  A    between atoms: C2'_3  and  C1'_4 
REMARK    2  A    between atoms: C1'_4  and  C1_5 
ROOT
ATOM      1  C1  I4B d   1       0.669  -0.285  -0.475  0.00  0.00    -0.075 A 
ATOM      2  C2  I4B d   1       1.938  -0.211   0.044  0.00  0.00     0.003 A 
ATOM      3  C3  I4B d   1       2.403  -1.207   0.937  0.00  0.00     0.002 A 
ATOM      4  C4  I4B d   1       1.554  -2.226   1.320  0.00  0.00    -0.004 A 
ATOM      5  C5  I4B d   1       0.277  -2.313   0.775  0.00  0.00     0.002 A 
ATOM      6  C6  I4B d   1      -0.165  -1.343  -0.138  0.00  0.00     0.003 A 
ENDROOT
BRANCH   1   7
ATOM      7  C1' I4B d   1       0.199   0.802  -1.388  0.00  0.00     0.060 C 
BRANCH   7   8
ATOM      8  C2' I4B d   1      -1.233   1.134  -1.021  0.00  0.00    -0.013 C 
ATOM      9  C4' I4B d   1      -1.332   1.615   0.403  0.00  0.00     0.013 C 
ATOM     10  C3' I4B d   1      -1.728   2.174  -1.980  0.00  0.00     0.013 C 
ENDBRANCH   7   8
ENDBRANCH   1   7
TORSDOF 2
ENDMDL
