MODEL 1
REMARK minimizedAffinity -4.31260681
REMARK minimizedRMSD -1
REMARK  2 active torsions:
REMARK  status: ('A' for Active; 'I' for Inactive)
REMARK    1  A    between atoms: C2'_3  and  C1'_4 
REMARK    2  A    between atoms: C1'_4  and  C1_5 
ROOT
ATOM      1  C1  I4B d   1      -0.028   0.340  -0.091  0.00  0.00    -0.075 A 
ATOM      2  C2  I4B d   1      -0.482  -0.777   0.563  0.00  0.00     0.003 A 
ATOM      3  C3  I4B d   1       0.394  -1.859   0.819  0.00  0.00     0.002 A 
ATOM      4  C4  I4B d   1       1.695  -1.803   0.362  0.00  0.00    -0.004 A 
ATOM      5  C5  I4B d   1       2.160  -0.660  -0.281  0.00  0.00     0.002 A 
ATOM      6  C6  I4B d   1       1.298   0.424  -0.499  0.00  0.00     0.003 A 
ENDROOT
BRANCH   1   7
ATOM      7  C1' I4B d   1      -0.989   1.451  -0.375  0.00  0.00     0.060 C 
BRANCH   7   8
ATOM      8  C2' I4B d   1      -1.251   1.472  -1.867  0.00  0.00    -0.013 C 
ATOM      9  C4' I4B d   1      -2.602   0.892  -2.192  0.00  0.00     0.013 C 
ATOM     10  C3' I4B d   1      -1.144   2.893  -2.335  0.00  0.00     0.013 C 
ENDBRANCH   7   8
ENDBRANCH   1   7
TORSDOF 2
ENDMDL
