MODEL 1
REMARK minimizedAffinity -6.90795231
REMARK minimizedRMSD -1
REMARK  2 active torsions:
REMARK  status: ('A' for Active; 'I' for Inactive)
REMARK    1  A    between atoms: C2'_3  and  C1'_4 
REMARK    2  A    between atoms: C1'_4  and  C1_5 
ROOT
ATOM      1  C1  I4B d   1      -0.114  -1.215   1.529  0.00  0.00    -0.075 A 
ATOM      2  C2  I4B d   1       0.906  -2.096   1.266  0.00  0.00     0.003 A 
ATOM      3  C3  I4B d   1       0.995  -3.317   1.978  0.00  0.00     0.002 A 
ATOM      4  C4  I4B d   1       0.080  -3.591   2.974  0.00  0.00    -0.004 A 
ATOM      5  C5  I4B d   1      -0.966  -2.708   3.224  0.00  0.00     0.002 A 
ATOM      6  C6  I4B d   1      -1.071  -1.518   2.489  0.00  0.00     0.003 A 
ENDROOT
BRANCH   1   7
ATOM      7  C1' I4B d   1      -0.159   0.079   0.781  0.00  0.00     0.060 C 
BRANCH   7   8
ATOM      8  C2' I4B d   1      -0.175  -0.238  -0.700  0.00  0.00    -0.013 C 
ATOM      9  C4' I4B d   1      -1.031   0.742  -1.458  0.00  0.00     0.013 C 
ATOM     10  C3' I4B d   1       1.241  -0.215  -1.194  0.00  0.00     0.013 C 
ENDBRANCH   7   8
ENDBRANCH   1   7
TORSDOF 2
ENDMDL
