MODEL 1
REMARK minimizedAffinity -5.42763805
REMARK minimizedRMSD -1
REMARK  2 active torsions:
REMARK  status: ('A' for Active; 'I' for Inactive)
REMARK    1  A    between atoms: C2'_3  and  C1'_4 
REMARK    2  A    between atoms: C1'_4  and  C1_5 
ROOT
ATOM      1  C1  I4B d   1      -0.230   0.248  -0.079  0.00  0.00    -0.075 A 
ATOM      2  C2  I4B d   1       1.106   0.408  -0.352  0.00  0.00     0.003 A 
ATOM      3  C3  I4B d   1       2.013  -0.654  -0.119  0.00  0.00     0.002 A 
ATOM      4  C4  I4B d   1       1.552  -1.833   0.431  0.00  0.00    -0.004 A 
ATOM      5  C5  I4B d   1       0.194  -2.001   0.686  0.00  0.00     0.002 A 
ATOM      6  C6  I4B d   1      -0.705  -0.959   0.418  0.00  0.00     0.003 A 
ENDROOT
BRANCH   1   7
ATOM      7  C1' I4B d   1      -1.155   1.402  -0.306  0.00  0.00     0.060 C 
BRANCH   7   8
ATOM      8  C2' I4B d   1      -1.504   1.437  -1.779  0.00  0.00    -0.013 C 
ATOM      9  C4' I4B d   1      -2.854   0.820  -2.035  0.00  0.00     0.013 C 
ATOM     10  C3' I4B d   1      -1.469   2.867  -2.229  0.00  0.00     0.013 C 
ENDBRANCH   7   8
ENDBRANCH   1   7
TORSDOF 2
ENDMDL
