MODEL 1
REMARK minimizedAffinity 2.97014308
REMARK minimizedRMSD -1
REMARK  0 active torsions:
REMARK  status: ('A' for Active; 'I' for Inactive)
ROOT
ATOM      1  C4' PXY d   1      -1.159   2.316   1.870  0.00  0.00     0.077 C 
ATOM      2  C1' PXY d   1       2.216  -1.762  -0.455  0.00  0.00     0.077 C 
ATOM      3  C1  PXY d   1       1.333  -0.697   0.167  0.00  0.00    -0.082 A 
ATOM      4  C2  PXY d   1       0.373  -0.141  -0.554  0.00  0.00     0.003 A 
ATOM      5  C3  PXY d   1      -0.413   0.846  -0.018  0.00  0.00     0.003 A 
ATOM      6  C4  PXY d   1      -0.250   1.230   1.286  0.00  0.00    -0.082 A 
ATOM      7  C5  PXY d   1       0.720   0.660   2.031  0.00  0.00     0.003 A 
ATOM      8  C6  PXY d   1       1.535  -0.311   1.456  0.00  0.00     0.003 A 
ENDROOT
TORSDOF 0
ENDMDL
