MODEL 1
REMARK minimizedAffinity 1.1318841
REMARK minimizedRMSD -1
REMARK  0 active torsions:
REMARK  status: ('A' for Active; 'I' for Inactive)
ROOT
ATOM      1  C4' PXY d   1       0.707   5.998  -0.778  0.00  0.00     0.077 C 
ATOM      2  C1' PXY d   1      -2.784   1.825   1.174  0.00  0.00     0.077 C 
ATOM      3  C1  PXY d   1      -1.859   2.911   0.661  0.00  0.00    -0.082 A 
ATOM      4  C2  PXY d   1      -2.092   4.173   0.980  0.00  0.00     0.003 A 
ATOM      5  C3  PXY d   1      -1.284   5.171   0.498  0.00  0.00     0.003 A 
ATOM      6  C4  PXY d   1      -0.195   4.868  -0.275  0.00  0.00    -0.082 A 
ATOM      7  C5  PXY d   1       0.056   3.581  -0.595  0.00  0.00     0.003 A 
ATOM      8  C6  PXY d   1      -0.800   2.587  -0.130  0.00  0.00     0.003 A 
ENDROOT
TORSDOF 0
ENDMDL
