MODEL 1
REMARK minimizedAffinity 1.51472259
REMARK minimizedRMSD -1
REMARK  0 active torsions:
REMARK  status: ('A' for Active; 'I' for Inactive)
ROOT
ATOM      1  C4' PXY d   1      -1.600  -0.545  -2.579  0.00  0.00     0.077 C 
ATOM      2  C1' PXY d   1       3.429  -0.801   0.260  0.00  0.00     0.077 C 
ATOM      3  C1  PXY d   1       2.108  -0.722  -0.479  0.00  0.00    -0.082 A 
ATOM      4  C2  PXY d   1       1.502  -1.836  -0.857  0.00  0.00     0.003 A 
ATOM      5  C3  PXY d   1       0.323  -1.782  -1.555  0.00  0.00     0.003 A 
ATOM      6  C4  PXY d   1      -0.270  -0.577  -1.821  0.00  0.00    -0.082 A 
ATOM      7  C5  PXY d   1       0.336   0.564  -1.430  0.00  0.00     0.003 A 
ATOM      8  C6  PXY d   1       1.554   0.489  -0.759  0.00  0.00     0.003 A 
ENDROOT
TORSDOF 0
ENDMDL
