MODEL 1
REMARK minimizedAffinity 11.9372368
REMARK minimizedRMSD -1
REMARK  0 active torsions:
REMARK  status: ('A' for Active; 'I' for Inactive)
ROOT
ATOM      1  C4' PXY d   1      -0.247   0.320  -1.823  0.00  0.00     0.077 C 
ATOM      2  C1' PXY d   1       1.127   2.176   3.476  0.00  0.00     0.077 C 
ATOM      3  C1  PXY d   1       0.754   1.693   2.089  0.00  0.00    -0.082 A 
ATOM      4  C2  PXY d   1       1.494   0.769   1.497  0.00  0.00     0.003 A 
ATOM      5  C3  PXY d   1       1.190   0.344   0.229  0.00  0.00     0.003 A 
ATOM      6  C4  PXY d   1       0.086   0.831  -0.418  0.00  0.00    -0.082 A 
ATOM      7  C5  PXY d   1      -0.680   1.766   0.183  0.00  0.00     0.003 A 
ATOM      8  C6  PXY d   1      -0.330   2.214   1.453  0.00  0.00     0.003 A 
ENDROOT
TORSDOF 0
ENDMDL
