MODEL 1
REMARK minimizedAffinity 8.64658356
REMARK minimizedRMSD -1
REMARK  0 active torsions:
REMARK  status: ('A' for Active; 'I' for Inactive)
ROOT
ATOM      1  C4' PXY d   1       0.267   4.380  -2.161  0.00  0.00     0.077 C 
ATOM      2  C1' PXY d   1      -2.059   1.576   2.326  0.00  0.00     0.077 C 
ATOM      3  C1  PXY d   1      -1.441   2.301   1.147  0.00  0.00    -0.082 A 
ATOM      4  C2  PXY d   1      -1.536   3.618   1.067  0.00  0.00     0.003 A 
ATOM      5  C3  PXY d   1      -1.010   4.288  -0.008  0.00  0.00     0.003 A 
ATOM      6  C4  PXY d   1      -0.334   3.607  -0.985  0.00  0.00    -0.082 A 
ATOM      7  C5  PXY d   1      -0.223   2.264  -0.905  0.00  0.00     0.003 A 
ATOM      8  C6  PXY d   1      -0.800   1.599   0.174  0.00  0.00     0.003 A 
ENDROOT
TORSDOF 0
ENDMDL
