MODEL 1
REMARK minimizedAffinity 5.21341562
REMARK minimizedRMSD -1
REMARK  0 active torsions:
REMARK  status: ('A' for Active; 'I' for Inactive)
ROOT
ATOM      1  C4' PXY d   1       0.532   4.178  -1.557  0.00  0.00     0.077 C 
ATOM      2  C1' PXY d   1      -1.974   1.733   3.043  0.00  0.00     0.077 C 
ATOM      3  C1  PXY d   1      -1.325   2.368   1.829  0.00  0.00    -0.082 A 
ATOM      4  C2  PXY d   1      -0.069   2.780   1.898  0.00  0.00     0.003 A 
ATOM      5  C3  PXY d   1       0.522   3.385   0.820  0.00  0.00     0.003 A 
ATOM      6  C4  PXY d   1      -0.161   3.523  -0.359  0.00  0.00    -0.082 A 
ATOM      7  C5  PXY d   1      -1.439   3.095  -0.441  0.00  0.00     0.003 A 
ATOM      8  C6  PXY d   1      -2.035   2.521   0.678  0.00  0.00     0.003 A 
ENDROOT
TORSDOF 0
ENDMDL
