MODEL 1
REMARK minimizedAffinity 6.12607574
REMARK minimizedRMSD -1
REMARK  0 active torsions:
REMARK  status: ('A' for Active; 'I' for Inactive)
ROOT
ATOM      1  C4' PXY d   1       6.000  -1.493   1.084  0.00  0.00     0.077 C 
ATOM      2  C1' PXY d   1       1.373  -4.535  -0.576  0.00  0.00     0.077 C 
ATOM      3  C1  PXY d   1       2.584  -3.729  -0.150  0.00  0.00    -0.082 A 
ATOM      4  C2  PXY d   1       3.570  -4.324   0.501  0.00  0.00     0.003 A 
ATOM      5  C3  PXY d   1       4.658  -3.603   0.922  0.00  0.00     0.003 A 
ATOM      6  C4  PXY d   1       4.762  -2.270   0.626  0.00  0.00    -0.082 A 
ATOM      7  C5  PXY d   1       3.766  -1.658  -0.048  0.00  0.00     0.003 A 
ATOM      8  C6  PXY d   1       2.651  -2.399  -0.430  0.00  0.00     0.003 A 
ENDROOT
TORSDOF 0
ENDMDL
