MODEL 1
REMARK minimizedAffinity 6.19425535
REMARK minimizedRMSD -1
REMARK  0 active torsions:
REMARK  status: ('A' for Active; 'I' for Inactive)
ROOT
ATOM      1  C4' PXY d   1      -1.151   2.111   1.330  0.00  0.00     0.077 C 
ATOM      2  C1' PXY d   1       3.631  -1.077   0.709  0.00  0.00     0.077 C 
ATOM      3  C1  PXY d   1       2.378  -0.236   0.860  0.00  0.00    -0.082 A 
ATOM      4  C2  PXY d   1       1.939   0.071   2.069  0.00  0.00     0.003 A 
ATOM      5  C3  PXY d   1       0.790   0.804   2.224  0.00  0.00     0.003 A 
ATOM      6  C4  PXY d   1       0.114   1.272   1.130  0.00  0.00    -0.082 A 
ATOM      7  C5  PXY d   1       0.562   0.971  -0.108  0.00  0.00     0.003 A 
ATOM      8  C6  PXY d   1       1.707   0.192  -0.244  0.00  0.00     0.003 A 
ENDROOT
TORSDOF 0
ENDMDL
