MODEL 1
REMARK minimizedAffinity 7.3973465
REMARK minimizedRMSD -1
REMARK  0 active torsions:
REMARK  status: ('A' for Active; 'I' for Inactive)
ROOT
ATOM      1  C4' PXY d   1       1.178  -4.808  -0.876  0.00  0.00     0.077 C 
ATOM      2  C1' PXY d   1       5.963  -2.115   0.930  0.00  0.00     0.077 C 
ATOM      3  C1  PXY d   1       4.701  -2.813   0.463  0.00  0.00    -0.082 A 
ATOM      4  C2  PXY d   1       4.767  -4.060   0.025  0.00  0.00     0.003 A 
ATOM      5  C3  PXY d   1       3.640  -4.696  -0.430  0.00  0.00     0.003 A 
ATOM      6  C4  PXY d   1       2.425  -4.067  -0.387  0.00  0.00    -0.082 A 
ATOM      7  C5  PXY d   1       2.348  -2.799   0.069  0.00  0.00     0.003 A 
ATOM      8  C6  PXY d   1       3.509  -2.157   0.488  0.00  0.00     0.003 A 
ENDROOT
TORSDOF 0
ENDMDL
