MODEL 1
REMARK minimizedAffinity 6.23397493
REMARK minimizedRMSD -1
REMARK  0 active torsions:
REMARK  status: ('A' for Active; 'I' for Inactive)
ROOT
ATOM      1  C4' PXY d   1      -0.586   0.518  -1.783  0.00  0.00     0.077 C 
ATOM      2  C1' PXY d   1       0.739   5.620   0.590  0.00  0.00     0.077 C 
ATOM      3  C1  PXY d   1       0.391   4.277  -0.020  0.00  0.00    -0.082 A 
ATOM      4  C2  PXY d   1       0.787   3.995  -1.251  0.00  0.00     0.003 A 
ATOM      5  C3  PXY d   1       0.453   2.798  -1.830  0.00  0.00     0.003 A 
ATOM      6  C4  PXY d   1      -0.249   1.858  -1.123  0.00  0.00    -0.082 A 
ATOM      7  C5  PXY d   1      -0.647   2.134   0.137  0.00  0.00     0.003 A 
ATOM      8  C6  PXY d   1      -0.333   3.371   0.692  0.00  0.00     0.003 A 
ENDROOT
TORSDOF 0
ENDMDL
