MODEL 1
REMARK minimizedAffinity 1.58670783
REMARK minimizedRMSD -1
REMARK  0 active torsions:
REMARK  status: ('A' for Active; 'I' for Inactive)
ROOT
ATOM      1  C4' PXY d   1      -2.281  -0.928   3.302  0.00  0.00     0.077 C 
ATOM      2  C1' PXY d   1      -2.393   4.244   0.723  0.00  0.00     0.077 C 
ATOM      3  C1  PXY d   1      -2.377   2.888   1.401  0.00  0.00    -0.082 A 
ATOM      4  C2  PXY d   1      -1.250   2.433   1.924  0.00  0.00     0.003 A 
ATOM      5  C3  PXY d   1      -1.209   1.195   2.513  0.00  0.00     0.003 A 
ATOM      6  C4  PXY d   1      -2.346   0.439   2.615  0.00  0.00    -0.082 A 
ATOM      7  C5  PXY d   1      -3.502   0.902   2.093  0.00  0.00     0.003 A 
ATOM      8  C6  PXY d   1      -3.513   2.142   1.463  0.00  0.00     0.003 A 
ENDROOT
TORSDOF 0
ENDMDL
