MODEL 1
REMARK minimizedAffinity 3.63324142
REMARK minimizedRMSD -1
REMARK  0 active torsions:
REMARK  status: ('A' for Active; 'I' for Inactive)
ROOT
ATOM      1  C4' PXY d   1      -1.551   0.095   3.453  0.00  0.00     0.077 C 
ATOM      2  C1' PXY d   1      -2.178   3.891  -0.862  0.00  0.00     0.077 C 
ATOM      3  C1  PXY d   1      -2.002   2.892   0.265  0.00  0.00    -0.082 A 
ATOM      4  C2  PXY d   1      -3.068   2.379   0.858  0.00  0.00     0.003 A 
ATOM      5  C3  PXY d   1      -2.927   1.499   1.900  0.00  0.00     0.003 A 
ATOM      6  C4  PXY d   1      -1.682   1.099   2.304  0.00  0.00    -0.082 A 
ATOM      7  C5  PXY d   1      -0.589   1.609   1.698  0.00  0.00     0.003 A 
ATOM      8  C6  PXY d   1      -0.753   2.533   0.670  0.00  0.00     0.003 A 
ENDROOT
TORSDOF 0
ENDMDL
