MODEL 1
REMARK minimizedAffinity 6.90641117
REMARK minimizedRMSD -1
REMARK  0 active torsions:
REMARK  status: ('A' for Active; 'I' for Inactive)
ROOT
ATOM      1  C4' PXY d   1      -1.193   1.690   2.683  0.00  0.00     0.077 C 
ATOM      2  C1' PXY d   1       0.421   3.293  -2.631  0.00  0.00     0.077 C 
ATOM      3  C1  PXY d   1       0.002   2.884  -1.233  0.00  0.00    -0.082 A 
ATOM      4  C2  PXY d   1      -0.101   1.600  -0.930  0.00  0.00     0.003 A 
ATOM      5  C3  PXY d   1      -0.510   1.213   0.321  0.00  0.00     0.003 A 
ATOM      6  C4  PXY d   1      -0.764   2.149   1.287  0.00  0.00    -0.082 A 
ATOM      7  C5  PXY d   1      -0.651   3.461   0.989  0.00  0.00     0.003 A 
ATOM      8  C6  PXY d   1      -0.274   3.834  -0.298  0.00  0.00     0.003 A 
ENDROOT
TORSDOF 0
ENDMDL
