MODEL 1
REMARK minimizedAffinity 6.88665915
REMARK minimizedRMSD -1
REMARK  0 active torsions:
REMARK  status: ('A' for Active; 'I' for Inactive)
ROOT
ATOM      1  C4' PXY d   1      -0.492   4.615  -0.069  0.00  0.00     0.077 C 
ATOM      2  C1' PXY d   1       0.600  -0.669  -2.142  0.00  0.00     0.077 C 
ATOM      3  C1  PXY d   1       0.323   0.721  -1.606  0.00  0.00    -0.082 A 
ATOM      4  C2  PXY d   1      -0.260   0.863  -0.427  0.00  0.00     0.003 A 
ATOM      5  C3  PXY d   1      -0.547   2.113   0.059  0.00  0.00     0.003 A 
ATOM      6  C4  PXY d   1      -0.184   3.230  -0.645  0.00  0.00    -0.082 A 
ATOM      7  C5  PXY d   1       0.421   3.093  -1.844  0.00  0.00     0.003 A 
ATOM      8  C6  PXY d   1       0.665   1.816  -2.338  0.00  0.00     0.003 A 
ENDROOT
TORSDOF 0
ENDMDL
