MODEL 1
REMARK minimizedAffinity 11.9663181
REMARK minimizedRMSD -1
REMARK  0 active torsions:
REMARK  status: ('A' for Active; 'I' for Inactive)
ROOT
ATOM      1  C4' PXY d   1       0.758  -0.037  -3.504  0.00  0.00     0.077 C 
ATOM      2  C1' PXY d   1      -4.200   0.158  -0.538  0.00  0.00     0.077 C 
ATOM      3  C1  PXY d   1      -2.897   0.119  -1.312  0.00  0.00    -0.082 A 
ATOM      4  C2  PXY d   1      -2.787  -0.669  -2.369  0.00  0.00     0.003 A 
ATOM      5  C3  PXY d   1      -1.606  -0.740  -3.061  0.00  0.00     0.003 A 
ATOM      6  C4  PXY d   1      -0.542   0.042  -2.699  0.00  0.00    -0.082 A 
ATOM      7  C5  PXY d   1      -0.650   0.856  -1.628  0.00  0.00     0.003 A 
ATOM      8  C6  PXY d   1      -1.844   0.884  -0.914  0.00  0.00     0.003 A 
ENDROOT
TORSDOF 0
ENDMDL
