MODEL 1
REMARK minimizedAffinity 8.68573952
REMARK minimizedRMSD -1
REMARK  0 active torsions:
REMARK  status: ('A' for Active; 'I' for Inactive)
ROOT
ATOM      1  C4' PXY d   1      -4.390   0.856  -2.624  0.00  0.00     0.077 C 
ATOM      2  C1' PXY d   1       1.145  -0.133  -1.285  0.00  0.00     0.077 C 
ATOM      3  C1  PXY d   1      -0.307   0.115  -1.643  0.00  0.00    -0.082 A 
ATOM      4  C2  PXY d   1      -0.790   1.346  -1.598  0.00  0.00     0.003 A 
ATOM      5  C3  PXY d   1      -2.109   1.584  -1.888  0.00  0.00     0.003 A 
ATOM      6  C4  PXY d   1      -2.928   0.560  -2.280  0.00  0.00    -0.082 A 
ATOM      7  C5  PXY d   1      -2.440  -0.697  -2.339  0.00  0.00     0.003 A 
ATOM      8  C6  PXY d   1      -1.109  -0.924  -2.001  0.00  0.00     0.003 A 
ENDROOT
TORSDOF 0
ENDMDL
