MODEL 1
REMARK minimizedAffinity 9.7432642
REMARK minimizedRMSD -1
REMARK  0 active torsions:
REMARK  status: ('A' for Active; 'I' for Inactive)
ROOT
ATOM      1  C4' PXY d   1       1.252   5.774   1.990  0.00  0.00     0.077 C 
ATOM      2  C1' PXY d   1      -2.305   1.239   2.422  0.00  0.00     0.077 C 
ATOM      3  C1  PXY d   1      -1.379   2.432   2.298  0.00  0.00    -0.082 A 
ATOM      4  C2  PXY d   1      -0.165   2.375   2.822  0.00  0.00     0.003 A 
ATOM      5  C3  PXY d   1       0.674   3.457   2.747  0.00  0.00     0.003 A 
ATOM      6  C4  PXY d   1       0.287   4.590   2.083  0.00  0.00    -0.082 A 
ATOM      7  C5  PXY d   1      -0.946   4.652   1.537  0.00  0.00     0.003 A 
ATOM      8  C6  PXY d   1      -1.798   3.558   1.660  0.00  0.00     0.003 A 
ENDROOT
TORSDOF 0
ENDMDL
