MODEL 1
REMARK minimizedAffinity 3.50745749
REMARK minimizedRMSD -1
REMARK  0 active torsions:
REMARK  status: ('A' for Active; 'I' for Inactive)
ROOT
ATOM      1  C4' PXY d   1       0.069   3.805  -0.315  0.00  0.00     0.077 C 
ATOM      2  C1' PXY d   1      -1.313  -0.899  -3.377  0.00  0.00     0.077 C 
ATOM      3  C1  PXY d   1      -0.942   0.327  -2.566  0.00  0.00    -0.082 A 
ATOM      4  C2  PXY d   1      -1.772   1.357  -2.522  0.00  0.00     0.003 A 
ATOM      5  C3  PXY d   1      -1.439   2.487  -1.820  0.00  0.00     0.003 A 
ATOM      6  C4  PXY d   1      -0.268   2.542  -1.113  0.00  0.00    -0.082 A 
ATOM      7  C5  PXY d   1       0.580   1.492  -1.144  0.00  0.00     0.003 A 
ATOM      8  C6  PXY d   1       0.241   0.371  -1.896  0.00  0.00     0.003 A 
ENDROOT
TORSDOF 0
ENDMDL
