MODEL 1
REMARK minimizedAffinity 10.7300844
REMARK minimizedRMSD -1
REMARK  0 active torsions:
REMARK  status: ('A' for Active; 'I' for Inactive)
ROOT
ATOM      1  C4' PXY d   1       2.259  -0.671   1.128  0.00  0.00     0.077 C 
ATOM      2  C1' PXY d   1       4.549  -5.978   1.119  0.00  0.00     0.077 C 
ATOM      3  C1  PXY d   1       3.960  -4.582   1.127  0.00  0.00    -0.082 A 
ATOM      4  C2  PXY d   1       2.646  -4.426   1.089  0.00  0.00     0.003 A 
ATOM      5  C3  PXY d   1       2.097  -3.170   1.063  0.00  0.00     0.003 A 
ATOM      6  C4  PXY d   1       2.898  -2.062   1.131  0.00  0.00    -0.082 A 
ATOM      7  C5  PXY d   1       4.239  -2.213   1.182  0.00  0.00     0.003 A 
ATOM      8  C6  PXY d   1       4.778  -3.496   1.165  0.00  0.00     0.003 A 
ENDROOT
TORSDOF 0
ENDMDL
