MODEL 1
REMARK minimizedAffinity -0.811085701
REMARK minimizedRMSD -1
REMARK  0 active torsions:
REMARK  status: ('A' for Active; 'I' for Inactive)
ROOT
ATOM      1  C4' PXY d   1      -2.754   5.918   0.735  0.00  0.00     0.077 C 
ATOM      2  C1' PXY d   1       0.149   1.333  -1.256  0.00  0.00     0.077 C 
ATOM      3  C1  PXY d   1      -0.603   2.544  -0.739  0.00  0.00    -0.082 A 
ATOM      4  C2  PXY d   1      -1.457   2.404   0.262  0.00  0.00     0.003 A 
ATOM      5  C3  PXY d   1      -2.169   3.482   0.721  0.00  0.00     0.003 A 
ATOM      6  C4  PXY d   1      -1.966   4.726   0.187  0.00  0.00    -0.082 A 
ATOM      7  C5  PXY d   1      -1.088   4.878  -0.827  0.00  0.00     0.003 A 
ATOM      8  C6  PXY d   1      -0.405   3.764  -1.307  0.00  0.00     0.003 A 
ENDROOT
TORSDOF 0
ENDMDL
