MODEL 1
REMARK minimizedAffinity 0.232587606
REMARK minimizedRMSD -1
REMARK  1 active torsions:
REMARK  status: ('A' for Active; 'I' for Inactive)
REMARK    1  A    between atoms: C1_2  and  C2_3 
ROOT
ATOM      1  C2  UNL d   1      -0.475  -1.738  -0.743  0.00  0.00    -0.081 A 
ATOM      2  C3  UNL d   1      -0.984  -0.529  -0.253  0.00  0.00     0.006 A 
ATOM      3  C4  UNL d   1      -1.325  -0.398   1.095  0.00  0.00     0.002 A 
ATOM      4  C5  UNL d   1      -1.155  -1.471   1.977  0.00  0.00    -0.080 A 
ATOM      5  C6  UNL d   1      -1.488  -1.335   3.433  0.00  0.00     0.076 C 
ATOM      6  C7  UNL d   1      -0.663  -2.685   1.484  0.00  0.00     0.002 A 
ATOM      7  C8  UNL d   1      -0.323  -2.816   0.136  0.00  0.00     0.006 A 
ENDROOT
BRANCH   1   8
ATOM      8  C1  UNL d   1      -0.046  -1.862  -2.183  0.00  0.00     0.054 C 
ATOM      9  C   UNL d   1      -0.445  -3.210  -2.765  0.00  0.00     0.018 C 
ENDBRANCH   1   8
TORSDOF 1
ENDMDL
