MODEL 1
REMARK minimizedAffinity -0.0603208169
REMARK minimizedRMSD -1
REMARK  1 active torsions:
REMARK  status: ('A' for Active; 'I' for Inactive)
REMARK    1  A    between atoms: C1_2  and  C2_3 
ROOT
ATOM      1  C2  UNL d   1      -0.306  -2.433  -0.363  0.00  0.00    -0.081 A 
ATOM      2  C3  UNL d   1      -0.115  -1.290  -1.148  0.00  0.00     0.006 A 
ATOM      3  C4  UNL d   1       0.407  -1.397  -2.439  0.00  0.00     0.002 A 
ATOM      4  C5  UNL d   1       0.738  -2.649  -2.969  0.00  0.00    -0.080 A 
ATOM      5  C6  UNL d   1       1.271  -2.781  -4.365  0.00  0.00     0.076 C 
ATOM      6  C7  UNL d   1       0.564  -3.789  -2.178  0.00  0.00     0.002 A 
ATOM      7  C8  UNL d   1       0.043  -3.683  -0.887  0.00  0.00     0.006 A 
ENDROOT
BRANCH   1   8
ATOM      8  C1  UNL d   1      -0.929  -2.327   1.006  0.00  0.00     0.054 C 
ATOM      9  C   UNL d   1      -2.423  -2.617   0.958  0.00  0.00     0.018 C 
ENDBRANCH   1   8
TORSDOF 1
ENDMDL
