MODEL 1
REMARK minimizedAffinity 5.41582346
REMARK minimizedRMSD -1
REMARK  1 active torsions:
REMARK  status: ('A' for Active; 'I' for Inactive)
REMARK    1  A    between atoms: C1_2  and  C2_3 
ROOT
ATOM      1  C2  UNL d   1      -0.354   2.210  -0.969  0.00  0.00    -0.081 A 
ATOM      2  C3  UNL d   1      -1.557   1.916  -1.622  0.00  0.00     0.006 A 
ATOM      3  C4  UNL d   1      -2.636   2.801  -1.550  0.00  0.00     0.002 A 
ATOM      4  C5  UNL d   1      -2.527   3.996  -0.831  0.00  0.00    -0.080 A 
ATOM      5  C6  UNL d   1      -3.668   4.968  -0.771  0.00  0.00     0.076 C 
ATOM      6  C7  UNL d   1      -1.331   4.281  -0.164  0.00  0.00     0.002 A 
ATOM      7  C8  UNL d   1      -0.252   3.397  -0.235  0.00  0.00     0.006 A 
ENDROOT
BRANCH   1   8
ATOM      8  C1  UNL d   1       0.832   1.289  -1.098  0.00  0.00     0.054 C 
ATOM      9  C   UNL d   1       0.573   0.192  -2.120  0.00  0.00     0.018 C 
ENDBRANCH   1   8
TORSDOF 1
ENDMDL
