MODEL 1
REMARK minimizedAffinity -0.6147964
REMARK minimizedRMSD -1
REMARK  1 active torsions:
REMARK  status: ('A' for Active; 'I' for Inactive)
REMARK    1  A    between atoms: C1_2  and  C2_3 
ROOT
ATOM      1  C2  UNL d   1       0.053  -3.411  -0.325  0.00  0.00    -0.081 A 
ATOM      2  C3  UNL d   1      -0.949  -2.442  -0.186  0.00  0.00     0.006 A 
ATOM      3  C4  UNL d   1      -1.279  -1.941   1.075  0.00  0.00     0.002 A 
ATOM      4  C5  UNL d   1      -0.608  -2.393   2.217  0.00  0.00    -0.080 A 
ATOM      5  C6  UNL d   1      -0.932  -1.841   3.573  0.00  0.00     0.076 C 
ATOM      6  C7  UNL d   1       0.380  -3.373   2.080  0.00  0.00     0.002 A 
ATOM      7  C8  UNL d   1       0.710  -3.875   0.819  0.00  0.00     0.006 A 
ENDROOT
BRANCH   1   8
ATOM      8  C1  UNL d   1       0.456  -3.906  -1.691  0.00  0.00     0.054 C 
ATOM      9  C   UNL d   1       0.697  -2.749  -2.650  0.00  0.00     0.018 C 
ENDBRANCH   1   8
TORSDOF 1
ENDMDL
