MODEL 1
REMARK minimizedAffinity -4.41777992
REMARK minimizedRMSD -1
REMARK  1 active torsions:
REMARK  status: ('A' for Active; 'I' for Inactive)
REMARK    1  A    between atoms: C1_2  and  C2_3 
ROOT
ATOM      1  C2  UNL d   1       0.102  -2.943  -0.280  0.00  0.00    -0.081 A 
ATOM      2  C3  UNL d   1       0.614  -3.520   0.889  0.00  0.00     0.006 A 
ATOM      3  C4  UNL d   1       0.204  -3.061   2.143  0.00  0.00     0.002 A 
ATOM      4  C5  UNL d   1      -0.729  -2.025   2.250  0.00  0.00    -0.080 A 
ATOM      5  C6  UNL d   1      -1.200  -1.544   3.590  0.00  0.00     0.076 C 
ATOM      6  C7  UNL d   1      -1.228  -1.437   1.083  0.00  0.00     0.002 A 
ATOM      7  C8  UNL d   1      -0.818  -1.894  -0.172  0.00  0.00     0.006 A 
ENDROOT
BRANCH   1   8
ATOM      8  C1  UNL d   1       0.493  -3.478  -1.634  0.00  0.00     0.054 C 
ATOM      9  C   UNL d   1       0.353  -2.412  -2.711  0.00  0.00     0.018 C 
ENDBRANCH   1   8
TORSDOF 1
ENDMDL
