MODEL 1
REMARK minimizedAffinity 2.5006094
REMARK minimizedRMSD -1
REMARK  1 active torsions:
REMARK  status: ('A' for Active; 'I' for Inactive)
REMARK    1  A    between atoms: C1_2  and  C2_3 
ROOT
ATOM      1  C2  UNL d   1       0.678  -2.562  -2.779  0.00  0.00    -0.081 A 
ATOM      2  C3  UNL d   1       0.658  -3.847  -2.224  0.00  0.00     0.006 A 
ATOM      3  C4  UNL d   1       0.327  -4.032  -0.879  0.00  0.00     0.002 A 
ATOM      4  C5  UNL d   1       0.003  -2.938  -0.071  0.00  0.00    -0.080 A 
ATOM      5  C6  UNL d   1      -0.383  -3.126   1.366  0.00  0.00     0.076 C 
ATOM      6  C7  UNL d   1       0.040  -1.652  -0.621  0.00  0.00     0.002 A 
ATOM      7  C8  UNL d   1       0.371  -1.466  -1.965  0.00  0.00     0.006 A 
ENDROOT
BRANCH   1   8
ATOM      8  C1  UNL d   1       0.971  -2.364  -4.245  0.00  0.00     0.054 C 
ATOM      9  C   UNL d   1       2.212  -3.137  -4.670  0.00  0.00     0.018 C 
ENDBRANCH   1   8
TORSDOF 1
ENDMDL
