MODEL 1
REMARK minimizedAffinity 8.11392593
REMARK minimizedRMSD -1
REMARK  1 active torsions:
REMARK  status: ('A' for Active; 'I' for Inactive)
REMARK    1  A    between atoms: C1_2  and  C2_3 
ROOT
ATOM      1  C2  UNL d   1       0.887  -1.732  -1.982  0.00  0.00    -0.081 A 
ATOM      2  C3  UNL d   1       1.596  -1.500  -3.167  0.00  0.00     0.006 A 
ATOM      3  C4  UNL d   1       2.496  -0.435  -3.258  0.00  0.00     0.002 A 
ATOM      4  C5  UNL d   1       2.707   0.410  -2.163  0.00  0.00    -0.080 A 
ATOM      5  C6  UNL d   1       3.693   1.539  -2.238  0.00  0.00     0.076 C 
ATOM      6  C7  UNL d   1       1.987   0.189  -0.985  0.00  0.00     0.002 A 
ATOM      7  C8  UNL d   1       1.086  -0.875  -0.894  0.00  0.00     0.006 A 
ENDROOT
BRANCH   1   8
ATOM      8  C1  UNL d   1      -0.035  -2.918  -1.860  0.00  0.00     0.054 C 
ATOM      9  C   UNL d   1      -0.250  -3.304  -0.404  0.00  0.00     0.018 C 
ENDBRANCH   1   8
TORSDOF 1
ENDMDL
