MODEL 1
REMARK minimizedAffinity 9.83516693
REMARK minimizedRMSD -1
REMARK  1 active torsions:
REMARK  status: ('A' for Active; 'I' for Inactive)
REMARK    1  A    between atoms: C1_2  and  C2_3 
ROOT
ATOM      1  C2  UNL d   1       1.323  -0.373  -1.803  0.00  0.00    -0.081 A 
ATOM      2  C3  UNL d   1       1.284  -0.571  -3.188  0.00  0.00     0.006 A 
ATOM      3  C4  UNL d   1       0.492  -1.583  -3.737  0.00  0.00     0.002 A 
ATOM      4  C5  UNL d   1      -0.278  -2.408  -2.910  0.00  0.00    -0.080 A 
ATOM      5  C6  UNL d   1      -1.155  -3.479  -3.488  0.00  0.00     0.076 C 
ATOM      6  C7  UNL d   1      -0.225  -2.221  -1.525  0.00  0.00     0.002 A 
ATOM      7  C8  UNL d   1       0.566  -1.210  -0.976  0.00  0.00     0.006 A 
ENDROOT
BRANCH   1   8
ATOM      8  C1  UNL d   1       2.125   0.759  -1.213  0.00  0.00     0.054 C 
ATOM      9  C   UNL d   1       3.261   0.239  -0.345  0.00  0.00     0.018 C 
ENDBRANCH   1   8
TORSDOF 1
ENDMDL
