MODEL 1
REMARK minimizedAffinity 2.54167199
REMARK minimizedRMSD -1
REMARK  1 active torsions:
REMARK  status: ('A' for Active; 'I' for Inactive)
REMARK    1  A    between atoms: C1_2  and  C2_3 
ROOT
ATOM      1  C2  UNL d   1      -1.906  -3.045  -0.531  0.00  0.00    -0.081 A 
ATOM      2  C3  UNL d   1      -1.285  -3.843   0.438  0.00  0.00     0.006 A 
ATOM      3  C4  UNL d   1      -0.826  -3.279   1.631  0.00  0.00     0.002 A 
ATOM      4  C5  UNL d   1      -0.988  -1.912   1.878  0.00  0.00    -0.080 A 
ATOM      5  C6  UNL d   1      -0.528  -1.300   3.168  0.00  0.00     0.076 C 
ATOM      6  C7  UNL d   1      -1.593  -1.112   0.903  0.00  0.00     0.002 A 
ATOM      7  C8  UNL d   1      -2.051  -1.674  -0.291  0.00  0.00     0.006 A 
ENDROOT
BRANCH   1   8
ATOM      8  C1  UNL d   1      -2.459  -3.661  -1.791  0.00  0.00     0.054 C 
ATOM      9  C   UNL d   1      -1.355  -4.287  -2.632  0.00  0.00     0.018 C 
ENDBRANCH   1   8
TORSDOF 1
ENDMDL
