MODEL 1
REMARK minimizedAffinity 17.8225365
REMARK minimizedRMSD -1
REMARK  1 active torsions:
REMARK  status: ('A' for Active; 'I' for Inactive)
REMARK    1  A    between atoms: C1_2  and  C2_3 
ROOT
ATOM      1  C2  UNL d   1       3.728  -3.191   2.778  0.00  0.00    -0.081 A 
ATOM      2  C3  UNL d   1       3.277  -1.938   3.212  0.00  0.00     0.006 A 
ATOM      3  C4  UNL d   1       3.247  -0.853   2.334  0.00  0.00     0.002 A 
ATOM      4  C5  UNL d   1       3.659  -1.004   1.005  0.00  0.00    -0.080 A 
ATOM      5  C6  UNL d   1       3.603   0.146   0.043  0.00  0.00     0.076 C 
ATOM      6  C7  UNL d   1       4.126  -2.251   0.576  0.00  0.00     0.002 A 
ATOM      7  C8  UNL d   1       4.157  -3.336   1.454  0.00  0.00     0.006 A 
ENDROOT
BRANCH   1   8
ATOM      8  C1  UNL d   1       3.701  -4.379   3.705  0.00  0.00     0.054 C 
ATOM      9  C   UNL d   1       4.385  -4.065   5.028  0.00  0.00     0.018 C 
ENDBRANCH   1   8
TORSDOF 1
ENDMDL
