MODEL 1
REMARK minimizedAffinity 3.13569736
REMARK minimizedRMSD -1
REMARK  1 active torsions:
REMARK  status: ('A' for Active; 'I' for Inactive)
REMARK    1  A    between atoms: C1_2  and  C2_3 
ROOT
ATOM      1  C2  UNL d   1      -1.941   4.265   0.711  0.00  0.00    -0.081 A 
ATOM      2  C3  UNL d   1      -2.256   3.637  -0.499  0.00  0.00     0.006 A 
ATOM      3  C4  UNL d   1      -3.212   4.188  -1.356  0.00  0.00     0.002 A 
ATOM      4  C5  UNL d   1      -3.862   5.381  -1.020  0.00  0.00    -0.080 A 
ATOM      5  C6  UNL d   1      -4.868   5.999  -1.945  0.00  0.00     0.076 C 
ATOM      6  C7  UNL d   1      -3.560   6.000   0.198  0.00  0.00     0.002 A 
ATOM      7  C8  UNL d   1      -2.605   5.448   1.055  0.00  0.00     0.006 A 
ENDROOT
BRANCH   1   8
ATOM      8  C1  UNL d   1      -0.864   3.708   1.607  0.00  0.00     0.054 C 
ATOM      9  C   UNL d   1       0.520   4.142   1.145  0.00  0.00     0.018 C 
ENDBRANCH   1   8
TORSDOF 1
ENDMDL
