MODEL 1
REMARK minimizedAffinity -5.59139872
REMARK minimizedRMSD -1
REMARK  1 active torsions:
REMARK  status: ('A' for Active; 'I' for Inactive)
REMARK    1  A    between atoms: C3_4  and  O_7 
ROOT
ATOM      1  C   UNL d   1      -0.082   0.345   0.307  0.00  0.00    -0.033 A 
ATOM      2  C1  UNL d   1       0.851   1.365   0.498  0.00  0.00     0.039 A 
ATOM      3  C2  UNL d   1       2.216   1.069   0.533  0.00  0.00    -0.080 A 
ATOM      4  C3  UNL d   1       2.633  -0.249   0.374  0.00  0.00     0.150 A 
ATOM      5  C4  UNL d   1       1.709  -1.271   0.179  0.00  0.00    -0.007 A 
ATOM      6  C5  UNL d   1       0.347  -0.973   0.145  0.00  0.00     0.039 A 
ENDROOT
BRANCH   4   7
ATOM      7  O   UNL d   1       3.953  -0.588   0.406  0.00  0.00    -0.526 OA
ATOM      8  H5  UNL d   1       4.473   0.216   0.577  0.00  0.00     0.418 HD
ENDBRANCH   4   7
TORSDOF 1
ENDMDL
