MODEL 1
REMARK minimizedAffinity -5.67150497
REMARK minimizedRMSD -1
REMARK  1 active torsions:
REMARK  status: ('A' for Active; 'I' for Inactive)
REMARK    1  A    between atoms: C3_4  and  O_7 
ROOT
ATOM      1  C   UNL d   1      -0.248   0.356  -0.037  0.00  0.00    -0.033 A 
ATOM      2  C1  UNL d   1       0.062  -0.975   0.250  0.00  0.00     0.039 A 
ATOM      3  C2  UNL d   1       1.376  -1.339   0.551  0.00  0.00    -0.080 A 
ATOM      4  C3  UNL d   1       2.369  -0.364   0.563  0.00  0.00     0.150 A 
ATOM      5  C4  UNL d   1       2.067   0.965   0.282  0.00  0.00    -0.007 A 
ATOM      6  C5  UNL d   1       0.755   1.326  -0.019  0.00  0.00     0.039 A 
ENDROOT
BRANCH   4   7
ATOM      7  O   UNL d   1       3.667  -0.672   0.847  0.00  0.00    -0.526 OA
ATOM      8  H5  UNL d   1       3.731  -1.631   0.992  0.00  0.00     0.418 HD
ENDBRANCH   4   7
TORSDOF 1
ENDMDL
