MODEL 1
REMARK minimizedAffinity -3.61339331
REMARK minimizedRMSD -1
REMARK  1 active torsions:
REMARK  status: ('A' for Active; 'I' for Inactive)
REMARK    1  A    between atoms: C3_4  and  O_7 
ROOT
ATOM      1  C   UNL d   1      -3.779  -0.746  -3.591  0.00  0.00    -0.033 A 
ATOM      2  C1  UNL d   1      -3.761   0.516  -2.994  0.00  0.00     0.039 A 
ATOM      3  C2  UNL d   1      -3.086   0.710  -1.788  0.00  0.00    -0.080 A 
ATOM      4  C3  UNL d   1      -2.433  -0.365  -1.190  0.00  0.00     0.150 A 
ATOM      5  C4  UNL d   1      -2.444  -1.624  -1.781  0.00  0.00    -0.007 A 
ATOM      6  C5  UNL d   1      -3.120  -1.816  -2.985  0.00  0.00     0.039 A 
ENDROOT
BRANCH   4   7
ATOM      7  O   UNL d   1      -1.765  -0.226  -0.010  0.00  0.00    -0.526 OA
ATOM      8  H5  UNL d   1      -1.867   0.691   0.295  0.00  0.00     0.418 HD
ENDBRANCH   4   7
TORSDOF 1
ENDMDL
