MODEL 1
REMARK minimizedAffinity -5.30287886
REMARK minimizedRMSD -1
REMARK  1 active torsions:
REMARK  status: ('A' for Active; 'I' for Inactive)
REMARK    1  A    between atoms: C3_4  and  O_7 
ROOT
ATOM      1  C   UNL d   1       3.116  -0.445   1.389  0.00  0.00    -0.033 A 
ATOM      2  C1  UNL d   1       2.271  -1.557   1.386  0.00  0.00     0.039 A 
ATOM      3  C2  UNL d   1       0.983  -1.456   0.855  0.00  0.00    -0.080 A 
ATOM      4  C3  UNL d   1       0.554  -0.240   0.330  0.00  0.00     0.150 A 
ATOM      5  C4  UNL d   1       1.392   0.870   0.326  0.00  0.00    -0.007 A 
ATOM      6  C5  UNL d   1       2.677   0.768   0.858  0.00  0.00     0.039 A 
ENDROOT
BRANCH   4   7
ATOM      7  O   UNL d   1      -0.695  -0.092  -0.195  0.00  0.00    -0.526 OA
ATOM      8  H5  UNL d   1      -1.171  -0.934  -0.099  0.00  0.00     0.418 HD
ENDBRANCH   4   7
TORSDOF 1
ENDMDL
