MODEL 1
REMARK minimizedAffinity -3.75831532
REMARK minimizedRMSD -1
REMARK  1 active torsions:
REMARK  status: ('A' for Active; 'I' for Inactive)
REMARK    1  A    between atoms: C3_4  and  O_7 
ROOT
ATOM      1  C   UNL d   1       0.956   1.001   0.146  0.00  0.00    -0.033 A 
ATOM      2  C1  UNL d   1      -0.033   0.018   0.214  0.00  0.00     0.039 A 
ATOM      3  C2  UNL d   1       0.172  -1.129   0.983  0.00  0.00    -0.080 A 
ATOM      4  C3  UNL d   1       1.369  -1.280   1.678  0.00  0.00     0.150 A 
ATOM      5  C4  UNL d   1       2.357  -0.303   1.618  0.00  0.00    -0.007 A 
ATOM      6  C5  UNL d   1       2.150   0.841   0.849  0.00  0.00     0.039 A 
ENDROOT
BRANCH   4   7
ATOM      7  O   UNL d   1       1.617  -2.385   2.438  0.00  0.00    -0.526 OA
ATOM      8  H5  UNL d   1       0.858  -2.987   2.363  0.00  0.00     0.418 HD
ENDBRANCH   4   7
TORSDOF 1
ENDMDL
