MODEL 1
REMARK minimizedAffinity -3.31552601
REMARK minimizedRMSD -1
REMARK  1 active torsions:
REMARK  status: ('A' for Active; 'I' for Inactive)
REMARK    1  A    between atoms: C3_4  and  O_7 
ROOT
ATOM      1  C   UNL d   1      -0.182  -0.467   0.277  0.00  0.00    -0.033 A 
ATOM      2  C1  UNL d   1       0.532  -1.651   0.082  0.00  0.00     0.039 A 
ATOM      3  C2  UNL d   1       1.899  -1.697   0.361  0.00  0.00    -0.080 A 
ATOM      4  C3  UNL d   1       2.539  -0.554   0.835  0.00  0.00     0.150 A 
ATOM      5  C4  UNL d   1       1.832   0.627   1.035  0.00  0.00    -0.007 A 
ATOM      6  C5  UNL d   1       0.467   0.671   0.754  0.00  0.00     0.039 A 
ENDROOT
BRANCH   4   7
ATOM      7  O   UNL d   1       3.873  -0.550   1.117  0.00  0.00    -0.526 OA
ATOM      8  H5  UNL d   1       4.236  -1.426   0.903  0.00  0.00     0.418 HD
ENDBRANCH   4   7
TORSDOF 1
ENDMDL
