MODEL 1
REMARK minimizedAffinity -5.13523054
REMARK minimizedRMSD -1
REMARK  1 active torsions:
REMARK  status: ('A' for Active; 'I' for Inactive)
REMARK    1  A    between atoms: C3_4  and  O_7 
ROOT
ATOM      1  C   UNL d   1      -0.320   0.160   0.356  0.00  0.00    -0.033 A 
ATOM      2  C1  UNL d   1       0.122  -1.160   0.468  0.00  0.00     0.039 A 
ATOM      3  C2  UNL d   1       1.484  -1.432   0.608  0.00  0.00    -0.080 A 
ATOM      4  C3  UNL d   1       2.392  -0.377   0.634  0.00  0.00     0.150 A 
ATOM      5  C4  UNL d   1       1.959   0.940   0.527  0.00  0.00    -0.007 A 
ATOM      6  C5  UNL d   1       0.598   1.210   0.387  0.00  0.00     0.039 A 
ENDROOT
BRANCH   4   7
ATOM      7  O   UNL d   1       3.732  -0.594   0.764  0.00  0.00    -0.526 OA
ATOM      8  H5  UNL d   1       3.887  -1.553   0.798  0.00  0.00     0.418 HD
ENDBRANCH   4   7
TORSDOF 1
ENDMDL
