MODEL 1
REMARK minimizedAffinity -2.86868477
REMARK minimizedRMSD -1
REMARK  2 active torsions:
REMARK  status: ('A' for Active; 'I' for Inactive)
REMARK    1  A    between atoms: C2'_3  and  C1'_4 
REMARK    2  A    between atoms: C1'_4  and  C1_5 
ROOT
ATOM      1  C1  I4B d   1      -3.824  -3.725  -4.538  0.00  0.00    -0.075 A 
ATOM      2  C2  I4B d   1      -2.888  -3.553  -5.527  0.00  0.00     0.003 A 
ATOM      3  C3  I4B d   1      -2.033  -4.621  -5.893  0.00  0.00     0.002 A 
ATOM      4  C4  I4B d   1      -2.114  -5.820  -5.214  0.00  0.00    -0.004 A 
ATOM      5  C5  I4B d   1      -3.079  -6.000  -4.227  0.00  0.00     0.002 A 
ATOM      6  C6  I4B d   1      -3.948  -4.950  -3.895  0.00  0.00     0.003 A 
ENDROOT
BRANCH   1   7
ATOM      7  C1' I4B d   1      -4.688  -2.566  -4.154  0.00  0.00     0.060 C 
BRANCH   7   8
ATOM      8  C2' I4B d   1      -5.953  -2.631  -4.986  0.00  0.00    -0.013 C 
ATOM      9  C4' I4B d   1      -5.997  -1.517  -5.998  0.00  0.00     0.013 C 
ATOM     10  C3' I4B d   1      -5.999  -3.973  -5.654  0.00  0.00     0.013 C 
ENDBRANCH   7   8
ENDBRANCH   1   7
TORSDOF 2
ENDMDL
