MODEL 1
REMARK minimizedAffinity -2.44630337
REMARK minimizedRMSD -1
REMARK  2 active torsions:
REMARK  status: ('A' for Active; 'I' for Inactive)
REMARK    1  A    between atoms: C2'_3  and  C1'_4 
REMARK    2  A    between atoms: C1'_4  and  C1_5 
ROOT
ATOM      1  C1  I4B d   1      -5.940  -2.609  -4.535  0.00  0.00    -0.075 A 
ATOM      2  C2  I4B d   1      -5.951  -3.063  -3.240  0.00  0.00     0.003 A 
ATOM      3  C3  I4B d   1      -6.000  -2.145  -2.163  0.00  0.00     0.002 A 
ATOM      4  C4  I4B d   1      -5.986  -0.790  -2.424  0.00  0.00    -0.004 A 
ATOM      5  C5  I4B d   1      -5.998  -0.332  -3.738  0.00  0.00     0.002 A 
ATOM      6  C6  I4B d   1      -5.988  -1.247  -4.801  0.00  0.00     0.003 A 
ENDROOT
BRANCH   1   7
ATOM      7  C1' I4B d   1      -5.855  -3.606  -5.648  0.00  0.00     0.060 C 
BRANCH   7   8
ATOM      8  C2' I4B d   1      -4.827  -4.650  -5.261  0.00  0.00    -0.013 C 
ATOM      9  C4' I4B d   1      -5.179  -5.999  -5.831  0.00  0.00     0.013 C 
ATOM     10  C3' I4B d   1      -3.489  -4.187  -5.755  0.00  0.00     0.013 C 
ENDBRANCH   7   8
ENDBRANCH   1   7
TORSDOF 2
ENDMDL
