MODEL 1
REMARK minimizedAffinity 0.331603229
REMARK minimizedRMSD -1
REMARK  2 active torsions:
REMARK  status: ('A' for Active; 'I' for Inactive)
REMARK    1  A    between atoms: C2'_3  and  C1'_4 
REMARK    2  A    between atoms: C1'_4  and  C1_5 
ROOT
ATOM      1  C1  I4B d   1      -3.906  -4.420  -5.258  0.00  0.00    -0.075 A 
ATOM      2  C2  I4B d   1      -3.925  -4.395  -3.886  0.00  0.00     0.003 A 
ATOM      3  C3  I4B d   1      -2.725  -4.563  -3.154  0.00  0.00     0.002 A 
ATOM      4  C4  I4B d   1      -1.545  -4.803  -3.828  0.00  0.00    -0.004 A 
ATOM      5  C5  I4B d   1      -1.524  -4.805  -5.220  0.00  0.00     0.002 A 
ATOM      6  C6  I4B d   1      -2.710  -4.601  -5.940  0.00  0.00     0.003 A 
ENDROOT
BRANCH   1   7
ATOM      7  C1' I4B d   1      -5.197  -4.272  -5.999  0.00  0.00     0.060 C 
BRANCH   7   8
ATOM      8  C2' I4B d   1      -5.890  -3.026  -5.486  0.00  0.00    -0.013 C 
ATOM      9  C4' I4B d   1      -5.997  -3.042  -3.984  0.00  0.00     0.013 C 
ATOM     10  C3' I4B d   1      -5.113  -1.835  -5.961  0.00  0.00     0.013 C 
ENDBRANCH   7   8
ENDBRANCH   1   7
TORSDOF 2
ENDMDL
