MODEL 1
REMARK minimizedAffinity -1.08167779
REMARK minimizedRMSD -1
REMARK  2 active torsions:
REMARK  status: ('A' for Active; 'I' for Inactive)
REMARK    1  A    between atoms: C2'_3  and  C1'_4 
REMARK    2  A    between atoms: C1'_4  and  C1_5 
ROOT
ATOM      1  C1  I4B d   1      -4.152  -4.746  -4.783  0.00  0.00    -0.075 A 
ATOM      2  C2  I4B d   1      -3.200  -4.104  -4.030  0.00  0.00     0.003 A 
ATOM      3  C3  I4B d   1      -1.825  -4.364  -4.248  0.00  0.00     0.002 A 
ATOM      4  C4  I4B d   1      -1.451  -5.303  -5.187  0.00  0.00    -0.004 A 
ATOM      5  C5  I4B d   1      -2.416  -5.936  -5.965  0.00  0.00     0.002 A 
ATOM      6  C6  I4B d   1      -3.775  -5.647  -5.770  0.00  0.00     0.003 A 
ENDROOT
BRANCH   1   7
ATOM      7  C1' I4B d   1      -5.596  -4.472  -4.504  0.00  0.00     0.060 C 
BRANCH   7   8
ATOM      8  C2' I4B d   1      -5.905  -3.067  -4.980  0.00  0.00    -0.013 C 
ATOM      9  C4' I4B d   1      -5.939  -2.097  -3.828  0.00  0.00     0.013 C 
ATOM     10  C3' I4B d   1      -4.862  -2.679  -5.984  0.00  0.00     0.013 C 
ENDBRANCH   7   8
ENDBRANCH   1   7
TORSDOF 2
ENDMDL
