MODEL 1
REMARK minimizedAffinity -2.54708457
REMARK minimizedRMSD -1
REMARK  2 active torsions:
REMARK  status: ('A' for Active; 'I' for Inactive)
REMARK    1  A    between atoms: C2'_3  and  C1'_4 
REMARK    2  A    between atoms: C1'_4  and  C1_5 
ROOT
ATOM      1  C1  I4B d   1      -4.291  -3.993  -5.865  0.00  0.00    -0.075 A 
ATOM      2  C2  I4B d   1      -3.154  -3.231  -5.766  0.00  0.00     0.003 A 
ATOM      3  C3  I4B d   1      -1.883  -3.851  -5.708  0.00  0.00     0.002 A 
ATOM      4  C4  I4B d   1      -1.798  -5.229  -5.701  0.00  0.00    -0.004 A 
ATOM      5  C5  I4B d   1      -2.951  -6.000  -5.825  0.00  0.00     0.002 A 
ATOM      6  C6  I4B d   1      -4.205  -5.378  -5.919  0.00  0.00     0.003 A 
ENDROOT
BRANCH   1   7
ATOM      7  C1' I4B d   1      -5.620  -3.306  -5.891  0.00  0.00     0.060 C 
BRANCH   7   8
ATOM      8  C2' I4B d   1      -5.955  -2.885  -4.475  0.00  0.00    -0.013 C 
ATOM      9  C4' I4B d   1      -6.000  -4.071  -3.549  0.00  0.00     0.013 C 
ATOM     10  C3' I4B d   1      -4.923  -1.891  -4.031  0.00  0.00     0.013 C 
ENDBRANCH   7   8
ENDBRANCH   1   7
TORSDOF 2
ENDMDL
