MODEL 1
REMARK minimizedAffinity -2.64844036
REMARK minimizedRMSD -1
REMARK  2 active torsions:
REMARK  status: ('A' for Active; 'I' for Inactive)
REMARK    1  A    between atoms: C2'_3  and  C1'_4 
REMARK    2  A    between atoms: C1'_4  and  C1_5 
ROOT
ATOM      1  C1  I4B d   1      -4.442  -4.344  -5.452  0.00  0.00    -0.075 A 
ATOM      2  C2  I4B d   1      -4.160  -5.535  -4.831  0.00  0.00     0.003 A 
ATOM      3  C3  I4B d   1      -2.825  -6.000  -4.752  0.00  0.00     0.002 A 
ATOM      4  C4  I4B d   1      -1.816  -5.272  -5.348  0.00  0.00    -0.004 A 
ATOM      5  C5  I4B d   1      -2.100  -4.054  -5.958  0.00  0.00     0.002 A 
ATOM      6  C6  I4B d   1      -3.419  -3.580  -6.000  0.00  0.00     0.003 A 
ENDROOT
BRANCH   1   7
ATOM      7  C1' I4B d   1      -5.867  -3.899  -5.546  0.00  0.00     0.060 C 
BRANCH   7   8
ATOM      8  C2' I4B d   1      -5.994  -2.583  -4.807  0.00  0.00    -0.013 C 
ATOM      9  C4' I4B d   1      -4.892  -2.417  -3.795  0.00  0.00     0.013 C 
ATOM     10  C3' I4B d   1      -5.969  -1.478  -5.822  0.00  0.00     0.013 C 
ENDBRANCH   7   8
ENDBRANCH   1   7
TORSDOF 2
ENDMDL
