MODEL 1
REMARK minimizedAffinity -1.13005364
REMARK minimizedRMSD -1
REMARK  2 active torsions:
REMARK  status: ('A' for Active; 'I' for Inactive)
REMARK    1  A    between atoms: C2'_3  and  C1'_4 
REMARK    2  A    between atoms: C1'_4  and  C1_5 
ROOT
ATOM      1  C1  I4B d   1      -5.303  -3.884  -5.012  0.00  0.00    -0.075 A 
ATOM      2  C2  I4B d   1      -4.610  -2.820  -5.533  0.00  0.00     0.003 A 
ATOM      3  C3  I4B d   1      -4.590  -1.580  -4.850  0.00  0.00     0.002 A 
ATOM      4  C4  I4B d   1      -5.313  -1.434  -3.684  0.00  0.00    -0.004 A 
ATOM      5  C5  I4B d   1      -5.997  -2.520  -3.146  0.00  0.00     0.002 A 
ATOM      6  C6  I4B d   1      -5.982  -3.757  -3.807  0.00  0.00     0.003 A 
ENDROOT
BRANCH   1   7
ATOM      7  C1' I4B d   1      -5.330  -5.170  -5.776  0.00  0.00     0.060 C 
BRANCH   7   8
ATOM      8  C2' I4B d   1      -4.099  -5.967  -5.392  0.00  0.00    -0.013 C 
ATOM      9  C4' I4B d   1      -2.855  -5.376  -6.000  0.00  0.00     0.013 C 
ATOM     10  C3' I4B d   1      -4.012  -5.991  -3.895  0.00  0.00     0.013 C 
ENDBRANCH   7   8
ENDBRANCH   1   7
TORSDOF 2
ENDMDL
