MODEL 1
REMARK minimizedAffinity 7.11327362
REMARK minimizedRMSD -1
REMARK  2 active torsions:
REMARK  status: ('A' for Active; 'I' for Inactive)
REMARK    1  A    between atoms: C2'_3  and  C1'_4 
REMARK    2  A    between atoms: C1'_4  and  C1_5 
ROOT
ATOM      1  C1  I4B d   1      -0.814   0.201   0.789  0.00  0.00    -0.075 A 
ATOM      2  C2  I4B d   1       0.080  -0.466  -0.011  0.00  0.00     0.003 A 
ATOM      3  C3  I4B d   1       0.575  -1.735   0.377  0.00  0.00     0.002 A 
ATOM      4  C4  I4B d   1       0.191  -2.273   1.588  0.00  0.00    -0.004 A 
ATOM      5  C5  I4B d   1      -0.732  -1.605   2.388  0.00  0.00     0.002 A 
ATOM      6  C6  I4B d   1      -1.248  -0.366   1.980  0.00  0.00     0.003 A 
ENDROOT
BRANCH   1   7
ATOM      7  C1' I4B d   1      -1.291   1.554   0.365  0.00  0.00     0.060 C 
BRANCH   7   8
ATOM      8  C2' I4B d   1      -2.131   1.381  -0.885  0.00  0.00    -0.013 C 
ATOM      9  C4' I4B d   1      -3.392   0.613  -0.593  0.00  0.00     0.013 C 
ATOM     10  C3' I4B d   1      -2.441   2.745  -1.426  0.00  0.00     0.013 C 
ENDBRANCH   7   8
ENDBRANCH   1   7
TORSDOF 2
ENDMDL
