MODEL 1
REMARK minimizedAffinity -2.69793534
REMARK minimizedRMSD -1
REMARK  2 active torsions:
REMARK  status: ('A' for Active; 'I' for Inactive)
REMARK    1  A    between atoms: C2'_3  and  C1'_4 
REMARK    2  A    between atoms: C1'_4  and  C1_5 
ROOT
ATOM      1  C1  I4B d   1      -4.054  -4.955  -4.794  0.00  0.00    -0.075 A 
ATOM      2  C2  I4B d   1      -4.657  -4.579  -3.620  0.00  0.00     0.003 A 
ATOM      3  C3  I4B d   1      -5.663  -3.582  -3.622  0.00  0.00     0.002 A 
ATOM      4  C4  I4B d   1      -5.997  -2.957  -4.806  0.00  0.00    -0.004 A 
ATOM      5  C5  I4B d   1      -5.401  -3.355  -5.999  0.00  0.00     0.002 A 
ATOM      6  C6  I4B d   1      -4.432  -4.369  -5.995  0.00  0.00     0.003 A 
ENDROOT
BRANCH   1   7
ATOM      7  C1' I4B d   1      -2.972  -5.987  -4.750  0.00  0.00     0.060 C 
BRANCH   7   8
ATOM      8  C2' I4B d   1      -1.879  -5.558  -5.709  0.00  0.00    -0.013 C 
ATOM      9  C4' I4B d   1      -1.904  -4.069  -5.934  0.00  0.00     0.013 C 
ATOM     10  C3' I4B d   1      -0.564  -5.998  -5.138  0.00  0.00     0.013 C 
ENDBRANCH   7   8
ENDBRANCH   1   7
TORSDOF 2
ENDMDL
