MODEL 1
REMARK minimizedAffinity -2.34601736
REMARK minimizedRMSD -1
REMARK  2 active torsions:
REMARK  status: ('A' for Active; 'I' for Inactive)
REMARK    1  A    between atoms: C2'_3  and  C1'_4 
REMARK    2  A    between atoms: C1'_4  and  C1_5 
ROOT
ATOM      1  C1  I4B d   1      -4.307  -4.536  -4.689  0.00  0.00    -0.075 A 
ATOM      2  C2  I4B d   1      -5.138  -3.960  -5.618  0.00  0.00     0.003 A 
ATOM      3  C3  I4B d   1      -5.981  -2.884  -5.250  0.00  0.00     0.002 A 
ATOM      4  C4  I4B d   1      -5.999  -2.452  -3.940  0.00  0.00    -0.004 A 
ATOM      5  C5  I4B d   1      -5.140  -3.022  -3.005  0.00  0.00     0.002 A 
ATOM      6  C6  I4B d   1      -4.280  -4.062  -3.384  0.00  0.00     0.003 A 
ENDROOT
BRANCH   1   7
ATOM      7  C1' I4B d   1      -3.454  -5.692  -5.105  0.00  0.00     0.060 C 
BRANCH   7   8
ATOM      8  C2' I4B d   1      -2.178  -5.138  -5.706  0.00  0.00    -0.013 C 
ATOM      9  C4' I4B d   1      -1.968  -3.701  -5.309  0.00  0.00     0.013 C 
ATOM     10  C3' I4B d   1      -1.039  -5.999  -5.249  0.00  0.00     0.013 C 
ENDBRANCH   7   8
ENDBRANCH   1   7
TORSDOF 2
ENDMDL
