MODEL 1
REMARK minimizedAffinity -3.47130585
REMARK minimizedRMSD -1
REMARK  2 active torsions:
REMARK  status: ('A' for Active; 'I' for Inactive)
REMARK    1  A    between atoms: C2'_3  and  C1'_4 
REMARK    2  A    between atoms: C1'_4  and  C1_5 
ROOT
ATOM      1  C1  I4B d   1      -3.290  -4.980  -4.325  0.00  0.00    -0.075 A 
ATOM      2  C2  I4B d   1      -3.151  -5.588  -5.547  0.00  0.00     0.003 A 
ATOM      3  C3  I4B d   1      -1.873  -5.995  -6.000  0.00  0.00     0.002 A 
ATOM      4  C4  I4B d   1      -0.762  -5.731  -5.225  0.00  0.00    -0.004 A 
ATOM      5  C5  I4B d   1      -0.907  -5.135  -3.976  0.00  0.00     0.002 A 
ATOM      6  C6  I4B d   1      -2.181  -4.768  -3.517  0.00  0.00     0.003 A 
ENDROOT
BRANCH   1   7
ATOM      7  C1' I4B d   1      -4.651  -4.533  -3.892  0.00  0.00     0.060 C 
BRANCH   7   8
ATOM      8  C2' I4B d   1      -5.149  -3.514  -4.897  0.00  0.00    -0.013 C 
ATOM      9  C4' I4B d   1      -5.999  -4.163  -5.957  0.00  0.00     0.013 C 
ATOM     10  C3' I4B d   1      -5.920  -2.467  -4.150  0.00  0.00     0.013 C 
ENDBRANCH   7   8
ENDBRANCH   1   7
TORSDOF 2
ENDMDL
