MODEL 1
REMARK minimizedAffinity -0.778577924
REMARK minimizedRMSD -1
REMARK  2 active torsions:
REMARK  status: ('A' for Active; 'I' for Inactive)
REMARK    1  A    between atoms: C2'_3  and  C1'_4 
REMARK    2  A    between atoms: C1'_4  and  C1_5 
ROOT
ATOM      1  C1  I4B d   1      -4.210  -4.818  -4.937  0.00  0.00    -0.075 A 
ATOM      2  C2  I4B d   1      -5.098  -4.550  -5.948  0.00  0.00     0.003 A 
ATOM      3  C3  I4B d   1      -5.993  -3.458  -5.840  0.00  0.00     0.002 A 
ATOM      4  C4  I4B d   1      -6.000  -2.696  -4.689  0.00  0.00    -0.004 A 
ATOM      5  C5  I4B d   1      -5.083  -2.956  -3.674  0.00  0.00     0.002 A 
ATOM      6  C6  I4B d   1      -4.174  -4.016  -3.804  0.00  0.00     0.003 A 
ENDROOT
BRANCH   1   7
ATOM      7  C1' I4B d   1      -3.302  -5.999  -5.070  0.00  0.00     0.060 C 
BRANCH   7   8
ATOM      8  C2' I4B d   1      -2.039  -5.540  -5.770  0.00  0.00    -0.013 C 
ATOM      9  C4' I4B d   1      -2.053  -4.052  -5.999  0.00  0.00     0.013 C 
ATOM     10  C3' I4B d   1      -0.868  -5.947  -4.926  0.00  0.00     0.013 C 
ENDBRANCH   7   8
ENDBRANCH   1   7
TORSDOF 2
ENDMDL
