MODEL 1
REMARK minimizedAffinity -2.44652867
REMARK minimizedRMSD -1
REMARK  2 active torsions:
REMARK  status: ('A' for Active; 'I' for Inactive)
REMARK    1  A    between atoms: C2'_3  and  C1'_4 
REMARK    2  A    between atoms: C1'_4  and  C1_5 
ROOT
ATOM      1  C1  I4B d   1      -4.800  -4.409  -4.460  0.00  0.00    -0.075 A 
ATOM      2  C2  I4B d   1      -3.564  -4.140  -3.926  0.00  0.00     0.003 A 
ATOM      3  C3  I4B d   1      -2.411  -4.784  -4.438  0.00  0.00     0.002 A 
ATOM      4  C4  I4B d   1      -2.545  -5.720  -5.442  0.00  0.00    -0.004 A 
ATOM      5  C5  I4B d   1      -3.796  -5.975  -5.998  0.00  0.00     0.002 A 
ATOM      6  C6  I4B d   1      -4.929  -5.306  -5.512  0.00  0.00     0.003 A 
ENDROOT
BRANCH   1   7
ATOM      7  C1' I4B d   1      -6.000  -3.736  -3.874  0.00  0.00     0.060 C 
BRANCH   7   8
ATOM      8  C2' I4B d   1      -5.999  -2.293  -4.337  0.00  0.00    -0.013 C 
ATOM      9  C4' I4B d   1      -5.418  -1.384  -3.286  0.00  0.00     0.013 C 
ATOM     10  C3' I4B d   1      -5.214  -2.217  -5.612  0.00  0.00     0.013 C 
ENDBRANCH   7   8
ENDBRANCH   1   7
TORSDOF 2
ENDMDL
