MODEL 1
REMARK minimizedAffinity -3.5482018
REMARK minimizedRMSD -1
REMARK  2 active torsions:
REMARK  status: ('A' for Active; 'I' for Inactive)
REMARK    1  A    between atoms: C2'_3  and  C1'_4 
REMARK    2  A    between atoms: C1'_4  and  C1_5 
ROOT
ATOM      1  C1  I4B d   1      -3.833  -4.062  -3.972  0.00  0.00    -0.075 A 
ATOM      2  C2  I4B d   1      -5.142  -4.163  -3.574  0.00  0.00     0.003 A 
ATOM      3  C3  I4B d   1      -6.000  -3.039  -3.651  0.00  0.00     0.002 A 
ATOM      4  C4  I4B d   1      -5.496  -1.828  -4.081  0.00  0.00    -0.004 A 
ATOM      5  C5  I4B d   1      -4.174  -1.733  -4.506  0.00  0.00     0.002 A 
ATOM      6  C6  I4B d   1      -3.340  -2.860  -4.463  0.00  0.00     0.003 A 
ENDROOT
BRANCH   1   7
ATOM      7  C1' I4B d   1      -2.947  -5.260  -3.846  0.00  0.00     0.060 C 
BRANCH   7   8
ATOM      8  C2' I4B d   1      -2.942  -5.980  -5.180  0.00  0.00    -0.013 C 
ATOM      9  C4' I4B d   1      -4.152  -5.615  -6.000  0.00  0.00     0.013 C 
ATOM     10  C3' I4B d   1      -1.675  -5.620  -5.896  0.00  0.00     0.013 C 
ENDBRANCH   7   8
ENDBRANCH   1   7
TORSDOF 2
ENDMDL
