MODEL 1
REMARK minimizedAffinity -0.96290493
REMARK minimizedRMSD -1
REMARK  2 active torsions:
REMARK  status: ('A' for Active; 'I' for Inactive)
REMARK    1  A    between atoms: C2'_3  and  C1'_4 
REMARK    2  A    between atoms: C1'_4  and  C1_5 
ROOT
ATOM      1  C1  I4B d   1      -5.485  -4.366  -4.613  0.00  0.00    -0.075 A 
ATOM      2  C2  I4B d   1      -5.595  -3.687  -3.425  0.00  0.00     0.003 A 
ATOM      3  C3  I4B d   1      -5.865  -2.297  -3.421  0.00  0.00     0.002 A 
ATOM      4  C4  I4B d   1      -5.966  -1.621  -4.620  0.00  0.00    -0.004 A 
ATOM      5  C5  I4B d   1      -5.876  -2.315  -5.823  0.00  0.00     0.002 A 
ATOM      6  C6  I4B d   1      -5.647  -3.698  -5.820  0.00  0.00     0.003 A 
ENDROOT
BRANCH   1   7
ATOM      7  C1' I4B d   1      -5.167  -5.828  -4.581  0.00  0.00     0.060 C 
BRANCH   7   8
ATOM      8  C2' I4B d   1      -3.659  -5.978  -4.582  0.00  0.00    -0.013 C 
ATOM      9  C4' I4B d   1      -3.084  -5.691  -5.943  0.00  0.00     0.013 C 
ATOM     10  C3' I4B d   1      -3.101  -5.043  -3.550  0.00  0.00     0.013 C 
ENDBRANCH   7   8
ENDBRANCH   1   7
TORSDOF 2
ENDMDL
