MODEL 1
REMARK minimizedAffinity -0.335166484
REMARK minimizedRMSD -1
REMARK  0 active torsions:
REMARK  status: ('A' for Active; 'I' for Inactive)
ROOT
ATOM      1  C   UNL d   1       5.730  -1.123   0.312  0.00  0.00     0.078 C 
ATOM      2  C1  UNL d   1       4.622  -0.122   0.168  0.00  0.00    -0.077 A 
ATOM      3  C2  UNL d   1       4.569   0.741  -0.933  0.00  0.00    -0.001 A 
ATOM      4  C3  UNL d   1       3.537   1.674  -1.049  0.00  0.00     0.003 A 
ATOM      5  C4  UNL d   1       2.552   1.754  -0.067  0.00  0.00    -0.005 A 
ATOM      6  C5  UNL d   1       2.599   0.901   1.034  0.00  0.00     0.003 A 
ATOM      7  C6  UNL d   1       3.629  -0.033   1.152  0.00  0.00    -0.001 A 
ENDROOT
TORSDOF 0
ENDMDL
