MODEL 1
REMARK minimizedAffinity 5.8509388
REMARK minimizedRMSD -1
REMARK  0 active torsions:
REMARK  status: ('A' for Active; 'I' for Inactive)
ROOT
ATOM      1  C   UNL d   1       5.966  -0.725   0.699  0.00  0.00     0.078 C 
ATOM      2  C1  UNL d   1       4.664  -0.353   1.342  0.00  0.00    -0.077 A 
ATOM      3  C2  UNL d   1       4.388  -0.704   2.670  0.00  0.00    -0.001 A 
ATOM      4  C3  UNL d   1       3.167  -0.360   3.252  0.00  0.00     0.003 A 
ATOM      5  C4  UNL d   1       2.212   0.336   2.514  0.00  0.00    -0.005 A 
ATOM      6  C5  UNL d   1       2.475   0.687   1.192  0.00  0.00     0.003 A 
ATOM      7  C6  UNL d   1       3.696   0.343   0.608  0.00  0.00    -0.001 A 
ENDROOT
TORSDOF 0
ENDMDL
