MODEL 1
REMARK minimizedAffinity 6.07617855
REMARK minimizedRMSD -1
REMARK  0 active torsions:
REMARK  status: ('A' for Active; 'I' for Inactive)
ROOT
ATOM      1  C   UNL d   1       5.336  -1.170   0.900  0.00  0.00     0.078 C 
ATOM      2  C1  UNL d   1       4.302  -0.089   0.790  0.00  0.00    -0.077 A 
ATOM      3  C2  UNL d   1       4.348   0.850  -0.248  0.00  0.00    -0.001 A 
ATOM      4  C3  UNL d   1       3.385   1.856  -0.332  0.00  0.00     0.003 A 
ATOM      5  C4  UNL d   1       2.370   1.935   0.619  0.00  0.00    -0.005 A 
ATOM      6  C5  UNL d   1       2.317   1.006   1.657  0.00  0.00     0.003 A 
ATOM      7  C6  UNL d   1       3.279  -0.001   1.743  0.00  0.00    -0.001 A 
ENDROOT
TORSDOF 0
ENDMDL
