MODEL 1
REMARK minimizedAffinity 12.9597797
REMARK minimizedRMSD -1
REMARK  0 active torsions:
REMARK  status: ('A' for Active; 'I' for Inactive)
ROOT
ATOM      1  C   UNL d   1      -2.314  -2.413  -1.979  0.00  0.00     0.078 C 
ATOM      2  C1  UNL d   1      -3.359  -2.631  -3.032  0.00  0.00    -0.077 A 
ATOM      3  C2  UNL d   1      -4.715  -2.715  -2.696  0.00  0.00    -0.001 A 
ATOM      4  C3  UNL d   1      -5.676  -2.928  -3.686  0.00  0.00     0.003 A 
ATOM      5  C4  UNL d   1      -5.290  -3.059  -5.018  0.00  0.00    -0.005 A 
ATOM      6  C5  UNL d   1      -3.943  -2.979  -5.362  0.00  0.00     0.003 A 
ATOM      7  C6  UNL d   1      -2.981  -2.766  -4.374  0.00  0.00    -0.001 A 
ENDROOT
TORSDOF 0
ENDMDL
