MODEL 1
REMARK minimizedAffinity 5.04269743
REMARK minimizedRMSD -1
REMARK  0 active torsions:
REMARK  status: ('A' for Active; 'I' for Inactive)
ROOT
ATOM      1  C   UNL d   1      -4.889   3.892   5.997  0.00  0.00     0.078 C 
ATOM      2  C1  UNL d   1      -4.875   2.520   5.392  0.00  0.00    -0.077 A 
ATOM      3  C2  UNL d   1      -4.165   2.258   4.214  0.00  0.00    -0.001 A 
ATOM      4  C3  UNL d   1      -4.169   0.978   3.657  0.00  0.00     0.003 A 
ATOM      5  C4  UNL d   1      -4.883  -0.049   4.270  0.00  0.00    -0.005 A 
ATOM      6  C5  UNL d   1      -5.595   0.202   5.441  0.00  0.00     0.003 A 
ATOM      7  C6  UNL d   1      -5.592   1.481   6.000  0.00  0.00    -0.001 A 
ENDROOT
TORSDOF 0
ENDMDL
