MODEL 1
REMARK minimizedAffinity 8.63964748
REMARK minimizedRMSD -1
REMARK  0 active torsions:
REMARK  status: ('A' for Active; 'I' for Inactive)
ROOT
ATOM      1  C   UNL d   1       5.610  -0.736   5.130  0.00  0.00     0.078 C 
ATOM      2  C1  UNL d   1       5.069  -0.849   3.736  0.00  0.00    -0.077 A 
ATOM      3  C2  UNL d   1       5.928  -0.885   2.631  0.00  0.00    -0.001 A 
ATOM      4  C3  UNL d   1       5.411  -0.981   1.338  0.00  0.00     0.003 A 
ATOM      5  C4  UNL d   1       4.033  -1.040   1.138  0.00  0.00    -0.005 A 
ATOM      6  C5  UNL d   1       3.171  -1.003   2.232  0.00  0.00     0.003 A 
ATOM      7  C6  UNL d   1       3.686  -0.907   3.526  0.00  0.00    -0.001 A 
ENDROOT
TORSDOF 0
ENDMDL
