MODEL 1
REMARK minimizedAffinity 12.9782381
REMARK minimizedRMSD -1
REMARK  0 active torsions:
REMARK  status: ('A' for Active; 'I' for Inactive)
ROOT
ATOM      1  C   UNL d   1       4.952  -0.793   1.358  0.00  0.00     0.078 C 
ATOM      2  C1  UNL d   1       3.697   0.019   1.239  0.00  0.00    -0.077 A 
ATOM      3  C2  UNL d   1       3.706   1.272   0.612  0.00  0.00    -0.001 A 
ATOM      4  C3  UNL d   1       2.533   2.021   0.516  0.00  0.00     0.003 A 
ATOM      5  C4  UNL d   1       1.342   1.528   1.046  0.00  0.00    -0.005 A 
ATOM      6  C5  UNL d   1       1.324   0.284   1.673  0.00  0.00     0.003 A 
ATOM      7  C6  UNL d   1       2.497  -0.467   1.770  0.00  0.00    -0.001 A 
ENDROOT
TORSDOF 0
ENDMDL
