MODEL 1
REMARK minimizedAffinity 6.71901894
REMARK minimizedRMSD -1
REMARK  0 active torsions:
REMARK  status: ('A' for Active; 'I' for Inactive)
ROOT
ATOM      1  C   UNL d   1       3.988   1.389  -1.250  0.00  0.00     0.078 C 
ATOM      2  C1  UNL d   1       4.223   0.474  -0.085  0.00  0.00    -0.077 A 
ATOM      3  C2  UNL d   1       5.466  -0.140   0.110  0.00  0.00    -0.001 A 
ATOM      4  C3  UNL d   1       5.667  -0.998   1.193  0.00  0.00     0.003 A 
ATOM      5  C4  UNL d   1       4.630  -1.250   2.088  0.00  0.00    -0.005 A 
ATOM      6  C5  UNL d   1       3.389  -0.645   1.901  0.00  0.00     0.003 A 
ATOM      7  C6  UNL d   1       3.185   0.213   0.819  0.00  0.00    -0.001 A 
ENDROOT
TORSDOF 0
ENDMDL
