MODEL 1
REMARK minimizedAffinity 13.342761
REMARK minimizedRMSD -1
REMARK  0 active torsions:
REMARK  status: ('A' for Active; 'I' for Inactive)
ROOT
ATOM      1  C   UNL d   1      -4.597  -3.609  -2.729  0.00  0.00     0.078 C 
ATOM      2  C1  UNL d   1      -3.276  -2.933  -2.511  0.00  0.00    -0.077 A 
ATOM      3  C2  UNL d   1      -2.986  -2.290  -1.302  0.00  0.00    -0.001 A 
ATOM      4  C3  UNL d   1      -1.756  -1.657  -1.116  0.00  0.00     0.003 A 
ATOM      5  C4  UNL d   1      -0.807  -1.660  -2.137  0.00  0.00    -0.005 A 
ATOM      6  C5  UNL d   1      -1.087  -2.296  -3.344  0.00  0.00     0.003 A 
ATOM      7  C6  UNL d   1      -2.317  -2.929  -3.532  0.00  0.00    -0.001 A 
ENDROOT
TORSDOF 0
ENDMDL
