MODEL 1
REMARK minimizedAffinity 2.02019572
REMARK minimizedRMSD -1
REMARK  0 active torsions:
REMARK  status: ('A' for Active; 'I' for Inactive)
ROOT
ATOM      1  C   UNL d   1      -4.658  -0.203   2.741  0.00  0.00     0.078 C 
ATOM      2  C1  UNL d   1      -4.868   0.744   3.884  0.00  0.00    -0.077 A 
ATOM      3  C2  UNL d   1      -5.719   0.415   4.946  0.00  0.00    -0.001 A 
ATOM      4  C3  UNL d   1      -5.913   1.310   5.999  0.00  0.00     0.003 A 
ATOM      5  C4  UNL d   1      -5.260   2.541   6.000  0.00  0.00    -0.005 A 
ATOM      6  C5  UNL d   1      -4.413   2.879   4.947  0.00  0.00     0.003 A 
ATOM      7  C6  UNL d   1      -4.217   1.985   3.893  0.00  0.00    -0.001 A 
ENDROOT
TORSDOF 0
ENDMDL
