MODEL 1
REMARK minimizedAffinity -0.632525265
REMARK minimizedRMSD -1
REMARK  0 active torsions:
REMARK  status: ('A' for Active; 'I' for Inactive)
ROOT
ATOM      1  C   UNL d   1      -4.443   4.193   5.999  0.00  0.00     0.078 C 
ATOM      2  C1  UNL d   1      -4.780   2.865   5.390  0.00  0.00    -0.077 A 
ATOM      3  C2  UNL d   1      -5.701   2.005   6.000  0.00  0.00    -0.001 A 
ATOM      4  C3  UNL d   1      -5.997   0.767   5.427  0.00  0.00     0.003 A 
ATOM      5  C4  UNL d   1      -5.375   0.377   4.243  0.00  0.00    -0.005 A 
ATOM      6  C5  UNL d   1      -4.455   1.225   3.630  0.00  0.00     0.003 A 
ATOM      7  C6  UNL d   1      -4.158   2.463   4.201  0.00  0.00    -0.001 A 
ENDROOT
TORSDOF 0
ENDMDL
