MODEL 1
REMARK minimizedAffinity 8.86381721
REMARK minimizedRMSD -1
REMARK  0 active torsions:
REMARK  status: ('A' for Active; 'I' for Inactive)
ROOT
ATOM      1  C   UNL d   1       4.045  -0.857   3.333  0.00  0.00     0.078 C 
ATOM      2  C1  UNL d   1       2.777  -0.139   2.979  0.00  0.00    -0.077 A 
ATOM      3  C2  UNL d   1       2.720   0.726   1.878  0.00  0.00    -0.001 A 
ATOM      4  C3  UNL d   1       1.536   1.395   1.566  0.00  0.00     0.003 A 
ATOM      5  C4  UNL d   1       0.399   1.207   2.350  0.00  0.00    -0.005 A 
ATOM      6  C5  UNL d   1       0.446   0.351   3.448  0.00  0.00     0.003 A 
ATOM      7  C6  UNL d   1       1.630  -0.319   3.762  0.00  0.00    -0.001 A 
ENDROOT
TORSDOF 0
ENDMDL
