MODEL 1
REMARK minimizedAffinity 6.08177376
REMARK minimizedRMSD -1
REMARK  0 active torsions:
REMARK  status: ('A' for Active; 'I' for Inactive)
ROOT
ATOM      1  C   UNL d   1      -2.596  -1.986  -2.149  0.00  0.00     0.078 C 
ATOM      2  C1  UNL d   1      -3.729  -2.960  -2.270  0.00  0.00    -0.077 A 
ATOM      3  C2  UNL d   1      -3.638  -4.244  -1.718  0.00  0.00    -0.001 A 
ATOM      4  C3  UNL d   1      -4.697  -5.144  -1.846  0.00  0.00     0.003 A 
ATOM      5  C4  UNL d   1      -5.855  -4.770  -2.526  0.00  0.00    -0.005 A 
ATOM      6  C5  UNL d   1      -5.954  -3.495  -3.081  0.00  0.00     0.003 A 
ATOM      7  C6  UNL d   1      -4.895  -2.594  -2.953  0.00  0.00    -0.001 A 
ENDROOT
TORSDOF 0
ENDMDL
