MODEL 1
REMARK minimizedAffinity 17.3573456
REMARK minimizedRMSD -1
REMARK  0 active torsions:
REMARK  status: ('A' for Active; 'I' for Inactive)
ROOT
ATOM      1  C   UNL d   1       0.122  -5.437  -4.827  0.00  0.00     0.078 C 
ATOM      2  C1  UNL d   1      -0.692  -4.318  -4.248  0.00  0.00    -0.077 A 
ATOM      3  C2  UNL d   1      -1.455  -4.507  -3.088  0.00  0.00    -0.001 A 
ATOM      4  C3  UNL d   1      -2.215  -3.459  -2.566  0.00  0.00     0.003 A 
ATOM      5  C4  UNL d   1      -2.221  -2.217  -3.196  0.00  0.00    -0.005 A 
ATOM      6  C5  UNL d   1      -1.467  -2.020  -4.351  0.00  0.00     0.003 A 
ATOM      7  C6  UNL d   1      -0.706  -3.067  -4.876  0.00  0.00    -0.001 A 
ENDROOT
TORSDOF 0
ENDMDL
