MODEL 1
REMARK minimizedAffinity -0.0282937475
REMARK minimizedRMSD -1
REMARK  0 active torsions:
REMARK  status: ('A' for Active; 'I' for Inactive)
ROOT
ATOM      1  C   UNL d   1      -6.000   5.531   1.039  0.00  0.00     0.078 C 
ATOM      2  C1  UNL d   1      -4.924   5.684   0.006  0.00  0.00    -0.077 A 
ATOM      3  C2  UNL d   1      -5.242   5.869  -1.345  0.00  0.00    -0.001 A 
ATOM      4  C3  UNL d   1      -4.231   6.000  -2.298  0.00  0.00     0.003 A 
ATOM      5  C4  UNL d   1      -2.893   5.947  -1.910  0.00  0.00    -0.005 A 
ATOM      6  C5  UNL d   1      -2.566   5.761  -0.568  0.00  0.00     0.003 A 
ATOM      7  C6  UNL d   1      -3.577   5.629   0.386  0.00  0.00    -0.001 A 
ENDROOT
TORSDOF 0
ENDMDL
