MODEL 1
REMARK minimizedAffinity 6.63743401
REMARK minimizedRMSD -1
REMARK  0 active torsions:
REMARK  status: ('A' for Active; 'I' for Inactive)
ROOT
ATOM      1  C   UNL d   1      -6.000  -0.133   5.997  0.00  0.00     0.078 C 
ATOM      2  C1  UNL d   1      -5.194   0.946   5.337  0.00  0.00    -0.077 A 
ATOM      3  C2  UNL d   1      -4.614   0.746   4.079  0.00  0.00    -0.001 A 
ATOM      4  C3  UNL d   1      -3.858   1.756   3.481  0.00  0.00     0.003 A 
ATOM      5  C4  UNL d   1      -3.673   2.972   4.136  0.00  0.00    -0.005 A 
ATOM      6  C5  UNL d   1      -4.244   3.179   5.390  0.00  0.00     0.003 A 
ATOM      7  C6  UNL d   1      -5.001   2.171   5.989  0.00  0.00    -0.001 A 
ENDROOT
TORSDOF 0
ENDMDL
