MODEL 1
REMARK minimizedAffinity 14.9391813
REMARK minimizedRMSD -1
REMARK  0 active torsions:
REMARK  status: ('A' for Active; 'I' for Inactive)
ROOT
ATOM      1  C   UNL d   1      -0.180  -2.244   0.774  0.00  0.00     0.078 C 
ATOM      2  C1  UNL d   1       0.236  -1.075   1.616  0.00  0.00    -0.077 A 
ATOM      3  C2  UNL d   1      -0.314  -0.869   2.887  0.00  0.00    -0.001 A 
ATOM      4  C3  UNL d   1       0.076   0.230   3.655  0.00  0.00     0.003 A 
ATOM      5  C4  UNL d   1       1.016   1.131   3.160  0.00  0.00    -0.005 A 
ATOM      6  C5  UNL d   1       1.568   0.935   1.896  0.00  0.00     0.003 A 
ATOM      7  C6  UNL d   1       1.179  -0.162   1.126  0.00  0.00    -0.001 A 
ENDROOT
TORSDOF 0
ENDMDL
