MODEL 1
REMARK minimizedAffinity 4.92693567
REMARK minimizedRMSD -1
REMARK  0 active torsions:
REMARK  status: ('A' for Active; 'I' for Inactive)
ROOT
ATOM      1  C   UNL d   1       3.588   3.238  -2.414  0.00  0.00     0.078 C 
ATOM      2  C1  UNL d   1       3.129   3.945  -3.654  0.00  0.00    -0.077 A 
ATOM      3  C2  UNL d   1       2.928   3.245  -4.850  0.00  0.00    -0.001 A 
ATOM      4  C3  UNL d   1       2.509   3.918  -6.000  0.00  0.00     0.003 A 
ATOM      5  C4  UNL d   1       2.289   5.293  -5.965  0.00  0.00    -0.005 A 
ATOM      6  C5  UNL d   1       2.489   5.998  -4.780  0.00  0.00     0.003 A 
ATOM      7  C6  UNL d   1       2.908   5.328  -3.629  0.00  0.00    -0.001 A 
ENDROOT
TORSDOF 0
ENDMDL
