MODEL 1
REMARK minimizedAffinity 0.403810143
REMARK minimizedRMSD -1
REMARK  0 active torsions:
REMARK  status: ('A' for Active; 'I' for Inactive)
ROOT
ATOM      1  C   UNL d   1       2.602   5.248  -1.719  0.00  0.00    -0.002 A 
ATOM      2  C1  UNL d   1       3.821   5.827  -2.043  0.00  0.00     0.010 A 
ATOM      3  C2  UNL d   1       4.806   6.000  -1.069  0.00  0.00     0.041 A 
ATOM      4  C3  UNL d   1       4.543   5.576   0.249  0.00  0.00    -0.075 A 
ATOM      5  S   UNL d   1       5.601   5.686   1.606  0.00  0.00     0.015 SA
ATOM      6  C4  UNL d   1       4.459   4.967   2.648  0.00  0.00     0.022 A 
ATOM      7  C5  UNL d   1       3.294   4.645   1.993  0.00  0.00     0.026 A 
ATOM      8  C6  UNL d   1       3.324   4.990   0.599  0.00  0.00    -0.082 A 
ATOM      9  C7  UNL d   1       2.345   4.829  -0.411  0.00  0.00     0.045 A 
ENDROOT
TORSDOF 0
ENDMDL
