MODEL 1
REMARK minimizedAffinity -0.502515674
REMARK minimizedRMSD -1
REMARK  0 active torsions:
REMARK  status: ('A' for Active; 'I' for Inactive)
ROOT
ATOM      1  C   UNL d   1      -4.603   5.991   1.517  0.00  0.00    -0.002 A 
ATOM      2  C1  UNL d   1      -5.760   5.997   2.284  0.00  0.00     0.010 A 
ATOM      3  C2  UNL d   1      -5.686   5.998   3.679  0.00  0.00     0.041 A 
ATOM      4  C3  UNL d   1      -4.419   5.997   4.295  0.00  0.00    -0.075 A 
ATOM      5  S   UNL d   1      -4.086   5.999   5.986  0.00  0.00     0.015 SA
ATOM      6  C4  UNL d   1      -2.401   5.994   5.730  0.00  0.00     0.022 A 
ATOM      7  C5  UNL d   1      -2.083   5.990   4.392  0.00  0.00     0.026 A 
ATOM      8  C6  UNL d   1      -3.241   5.992   3.543  0.00  0.00    -0.082 A 
ATOM      9  C7  UNL d   1      -3.348   5.989   2.131  0.00  0.00     0.045 A 
ENDROOT
TORSDOF 0
ENDMDL
