MODEL 1
REMARK minimizedAffinity 4.02665472
REMARK minimizedRMSD -1
REMARK  0 active torsions:
REMARK  status: ('A' for Active; 'I' for Inactive)
ROOT
ATOM      1  C   UNL d   1       4.967   0.359  -5.376  0.00  0.00    -0.002 A 
ATOM      2  C1  UNL d   1       6.000   1.226  -5.704  0.00  0.00     0.010 A 
ATOM      3  C2  UNL d   1       5.997   2.543  -5.240  0.00  0.00     0.041 A 
ATOM      4  C3  UNL d   1       4.929   2.978  -4.430  0.00  0.00    -0.075 A 
ATOM      5  S   UNL d   1       4.714   4.545  -3.746  0.00  0.00     0.015 SA
ATOM      6  C4  UNL d   1       3.247   4.101  -3.001  0.00  0.00     0.022 A 
ATOM      7  C5  UNL d   1       2.914   2.793  -3.258  0.00  0.00     0.026 A 
ATOM      8  C6  UNL d   1       3.878   2.123  -4.085  0.00  0.00    -0.082 A 
ATOM      9  C7  UNL d   1       3.909   0.794  -4.573  0.00  0.00     0.045 A 
ENDROOT
TORSDOF 0
ENDMDL
