MODEL 1
REMARK minimizedAffinity 6.20116806
REMARK minimizedRMSD -1
REMARK  0 active torsions:
REMARK  status: ('A' for Active; 'I' for Inactive)
ROOT
ATOM      1  C   UNL d   1       1.936   0.670  -2.851  0.00  0.00    -0.002 A 
ATOM      2  C1  UNL d   1       0.870   1.546  -3.003  0.00  0.00     0.010 A 
ATOM      3  C2  UNL d   1       0.278   2.144  -1.889  0.00  0.00     0.041 A 
ATOM      4  C3  UNL d   1       0.782   1.847  -0.607  0.00  0.00    -0.075 A 
ATOM      5  S   UNL d   1       0.216   2.462   0.901  0.00  0.00     0.015 SA
ATOM      6  C4  UNL d   1       1.377   1.579   1.782  0.00  0.00     0.022 A 
ATOM      7  C5  UNL d   1       2.184   0.827   0.962  0.00  0.00     0.026 A 
ATOM      8  C6  UNL d   1       1.855   0.969  -0.429  0.00  0.00    -0.082 A 
ATOM      9  C7  UNL d   1       2.433   0.378  -1.578  0.00  0.00     0.045 A 
ENDROOT
TORSDOF 0
ENDMDL
