MODEL 1
REMARK minimizedAffinity 0.795379758
REMARK minimizedRMSD -1
REMARK  0 active torsions:
REMARK  status: ('A' for Active; 'I' for Inactive)
ROOT
ATOM      1  C   UNL d   1       2.994  -2.675  -1.117  0.00  0.00    -0.002 A 
ATOM      2  C1  UNL d   1       2.073  -3.002  -0.132  0.00  0.00     0.010 A 
ATOM      3  C2  UNL d   1       1.002  -2.151   0.150  0.00  0.00     0.041 A 
ATOM      4  C3  UNL d   1       0.870  -0.956  -0.584  0.00  0.00    -0.075 A 
ATOM      5  S   UNL d   1      -0.362   0.238  -0.412  0.00  0.00     0.015 SA
ATOM      6  C4  UNL d   1       0.304   1.209  -1.644  0.00  0.00     0.022 A 
ATOM      7  C5  UNL d   1       1.439   0.652  -2.183  0.00  0.00     0.026 A 
ATOM      8  C6  UNL d   1       1.784  -0.605  -1.581  0.00  0.00    -0.082 A 
ATOM      9  C7  UNL d   1       2.859  -1.488  -1.843  0.00  0.00     0.045 A 
ENDROOT
TORSDOF 0
ENDMDL
