MODEL 1
REMARK minimizedAffinity 10.6577177
REMARK minimizedRMSD -1
REMARK  0 active torsions:
REMARK  status: ('A' for Active; 'I' for Inactive)
ROOT
ATOM      1  C   UNL d   1       1.916  -3.496   0.122  0.00  0.00    -0.002 A 
ATOM      2  C1  UNL d   1       3.066  -4.084  -0.387  0.00  0.00     0.010 A 
ATOM      3  C2  UNL d   1       4.301  -3.878   0.231  0.00  0.00     0.041 A 
ATOM      4  C3  UNL d   1       4.362  -3.066   1.381  0.00  0.00    -0.075 A 
ATOM      5  S   UNL d   1       5.764  -2.674   2.304  0.00  0.00     0.015 SA
ATOM      6  C4  UNL d   1       4.870  -1.719   3.396  0.00  0.00     0.022 A 
ATOM      7  C5  UNL d   1       3.532  -1.688   3.078  0.00  0.00     0.026 A 
ATOM      8  C6  UNL d   1       3.218  -2.464   1.912  0.00  0.00    -0.082 A 
ATOM      9  C7  UNL d   1       1.980  -2.691   1.262  0.00  0.00     0.045 A 
ENDROOT
TORSDOF 0
ENDMDL
