MODEL 1
REMARK minimizedAffinity 13.3234911
REMARK minimizedRMSD -1
REMARK  0 active torsions:
REMARK  status: ('A' for Active; 'I' for Inactive)
ROOT
ATOM      1  C   UNL d   1      -0.352  -1.826  -2.150  0.00  0.00    -0.002 A 
ATOM      2  C1  UNL d   1      -1.441  -1.318  -1.457  0.00  0.00     0.010 A 
ATOM      3  C2  UNL d   1      -1.339  -0.115  -0.756  0.00  0.00     0.041 A 
ATOM      4  C3  UNL d   1      -0.112   0.577  -0.766  0.00  0.00    -0.075 A 
ATOM      5  S   UNL d   1       0.247   2.069   0.021  0.00  0.00     0.015 SA
ATOM      6  C4  UNL d   1       1.854   2.069  -0.547  0.00  0.00     0.022 A 
ATOM      7  C5  UNL d   1       2.128   0.964  -1.318  0.00  0.00     0.026 A 
ATOM      8  C6  UNL d   1       0.999   0.087  -1.458  0.00  0.00    -0.082 A 
ATOM      9  C7  UNL d   1       0.864  -1.136  -2.158  0.00  0.00     0.045 A 
ENDROOT
TORSDOF 0
ENDMDL
