MODEL 1
REMARK minimizedAffinity 15.8400068
REMARK minimizedRMSD -1
REMARK  0 active torsions:
REMARK  status: ('A' for Active; 'I' for Inactive)
ROOT
ATOM      1  C   UNL d   1       1.999  -1.440  -1.531  0.00  0.00    -0.002 A 
ATOM      2  C1  UNL d   1       2.313  -0.091  -1.443  0.00  0.00     0.010 A 
ATOM      3  C2  UNL d   1       1.324   0.851  -1.150  0.00  0.00     0.041 A 
ATOM      4  C3  UNL d   1       0.002   0.409  -0.943  0.00  0.00    -0.075 A 
ATOM      5  S   UNL d   1      -1.372   1.382  -0.571  0.00  0.00     0.015 SA
ATOM      6  C4  UNL d   1      -2.408   0.029  -0.519  0.00  0.00     0.022 A 
ATOM      7  C5  UNL d   1      -1.738  -1.144  -0.777  0.00  0.00     0.026 A 
ATOM      8  C6  UNL d   1      -0.338  -0.944  -1.025  0.00  0.00    -0.082 A 
ATOM      9  C7  UNL d   1       0.687  -1.874  -1.324  0.00  0.00     0.045 A 
ENDROOT
TORSDOF 0
ENDMDL
