MODEL 1
REMARK minimizedAffinity 14.9945812
REMARK minimizedRMSD -1
REMARK  0 active torsions:
REMARK  status: ('A' for Active; 'I' for Inactive)
ROOT
ATOM      1  C   UNL d   1      -1.416   2.622  -0.131  0.00  0.00    -0.002 A 
ATOM      2  C1  UNL d   1      -0.745   2.406  -1.327  0.00  0.00     0.010 A 
ATOM      3  C2  UNL d   1       0.641   2.236  -1.342  0.00  0.00     0.041 A 
ATOM      4  C3  UNL d   1       1.347   2.285  -0.125  0.00  0.00    -0.075 A 
ATOM      5  S   UNL d   1       3.047   2.103   0.099  0.00  0.00     0.015 SA
ATOM      6  C4  UNL d   1       2.922   2.305   1.787  0.00  0.00     0.022 A 
ATOM      7  C5  UNL d   1       1.623   2.509   2.187  0.00  0.00     0.026 A 
ATOM      8  C6  UNL d   1       0.694   2.500   1.092  0.00  0.00    -0.082 A 
ATOM      9  C7  UNL d   1      -0.712   2.669   1.075  0.00  0.00     0.045 A 
ENDROOT
TORSDOF 0
ENDMDL
