MODEL 1
REMARK minimizedAffinity 12.8494177
REMARK minimizedRMSD -1
REMARK  0 active torsions:
REMARK  status: ('A' for Active; 'I' for Inactive)
ROOT
ATOM      1  C   UNL d   1       2.174  -2.092  -1.231  0.00  0.00    -0.002 A 
ATOM      2  C1  UNL d   1       2.826  -0.879  -1.406  0.00  0.00     0.010 A 
ATOM      3  C2  UNL d   1       2.108   0.319  -1.407  0.00  0.00     0.041 A 
ATOM      4  C3  UNL d   1       0.712   0.277  -1.225  0.00  0.00    -0.075 A 
ATOM      5  S   UNL d   1      -0.372   1.617  -1.188  0.00  0.00     0.015 SA
ATOM      6  C4  UNL d   1      -1.725   0.612  -0.939  0.00  0.00     0.022 A 
ATOM      7  C5  UNL d   1      -1.377  -0.717  -0.882  0.00  0.00     0.026 A 
ATOM      8  C6  UNL d   1       0.034  -0.932  -1.046  0.00  0.00    -0.082 A 
ATOM      9  C7  UNL d   1       0.789  -2.129  -1.051  0.00  0.00     0.045 A 
ENDROOT
TORSDOF 0
ENDMDL
