MODEL 1
REMARK minimizedAffinity 10.9392633
REMARK minimizedRMSD -1
REMARK  0 active torsions:
REMARK  status: ('A' for Active; 'I' for Inactive)
ROOT
ATOM      1  C   UNL d   1       2.877  -3.611   0.598  0.00  0.00    -0.002 A 
ATOM      2  C1  UNL d   1       1.596  -4.117   0.432  0.00  0.00     0.010 A 
ATOM      3  C2  UNL d   1       0.739  -3.580  -0.531  0.00  0.00     0.041 A 
ATOM      4  C3  UNL d   1       1.197  -2.517  -1.333  0.00  0.00    -0.075 A 
ATOM      5  S   UNL d   1       0.323  -1.702  -2.577  0.00  0.00     0.015 SA
ATOM      6  C4  UNL d   1       1.631  -0.664  -2.918  0.00  0.00     0.022 A 
ATOM      7  C5  UNL d   1       2.715  -0.918  -2.112  0.00  0.00     0.026 A 
ATOM      8  C6  UNL d   1       2.483  -1.991  -1.186  0.00  0.00    -0.082 A 
ATOM      9  C7  UNL d   1       3.327  -2.556  -0.200  0.00  0.00     0.045 A 
ENDROOT
TORSDOF 0
ENDMDL
