MODEL 1
REMARK minimizedAffinity 9.15025997
REMARK minimizedRMSD -1
REMARK  0 active torsions:
REMARK  status: ('A' for Active; 'I' for Inactive)
ROOT
ATOM      1  C   UNL d   1       2.496   1.310  -2.886  0.00  0.00    -0.002 A 
ATOM      2  C1  UNL d   1       1.432   1.579  -2.036  0.00  0.00     0.010 A 
ATOM      3  C2  UNL d   1       0.935   0.590  -1.185  0.00  0.00     0.041 A 
ATOM      4  C3  UNL d   1       1.532  -0.686  -1.202  0.00  0.00    -0.075 A 
ATOM      5  S   UNL d   1       1.091  -2.053  -0.248  0.00  0.00     0.015 SA
ATOM      6  C4  UNL d   1       2.304  -3.025  -0.945  0.00  0.00     0.022 A 
ATOM      7  C5  UNL d   1       3.037  -2.340  -1.885  0.00  0.00     0.026 A 
ATOM      8  C6  UNL d   1       2.604  -0.981  -2.048  0.00  0.00    -0.082 A 
ATOM      9  C7  UNL d   1       3.085   0.043  -2.899  0.00  0.00     0.045 A 
ENDROOT
TORSDOF 0
ENDMDL
