MODEL 1
REMARK minimizedAffinity 0.582900763
REMARK minimizedRMSD -1
REMARK  0 active torsions:
REMARK  status: ('A' for Active; 'I' for Inactive)
ROOT
ATOM      1  C   UNL d   1       2.289  -5.556   0.960  0.00  0.00    -0.002 A 
ATOM      2  C1  UNL d   1       1.439  -4.824   1.777  0.00  0.00     0.010 A 
ATOM      3  C2  UNL d   1       1.017  -3.548   1.400  0.00  0.00     0.041 A 
ATOM      4  C3  UNL d   1       1.467  -3.015   0.176  0.00  0.00    -0.075 A 
ATOM      5  S   UNL d   1       1.080  -1.473  -0.491  0.00  0.00     0.015 SA
ATOM      6  C4  UNL d   1       2.034  -1.750  -1.876  0.00  0.00     0.022 A 
ATOM      7  C5  UNL d   1       2.639  -2.983  -1.847  0.00  0.00     0.026 A 
ATOM      8  C6  UNL d   1       2.322  -3.733  -0.664  0.00  0.00    -0.082 A 
ATOM      9  C7  UNL d   1       2.733  -5.024  -0.254  0.00  0.00     0.045 A 
ENDROOT
TORSDOF 0
ENDMDL
