MODEL 1
REMARK minimizedAffinity 0.0500866063
REMARK minimizedRMSD -1
REMARK  0 active torsions:
REMARK  status: ('A' for Active; 'I' for Inactive)
ROOT
ATOM      1  C   UNL d   1       2.348  -2.107  -1.390  0.00  0.00    -0.002 A 
ATOM      2  C1  UNL d   1       1.260  -2.502  -0.624  0.00  0.00     0.010 A 
ATOM      3  C2  UNL d   1       0.196  -1.627  -0.397  0.00  0.00     0.041 A 
ATOM      4  C3  UNL d   1       0.243  -0.336  -0.961  0.00  0.00    -0.075 A 
ATOM      5  S   UNL d   1      -0.945   0.904  -0.818  0.00  0.00     0.015 SA
ATOM      6  C4  UNL d   1      -0.038   1.987  -1.772  0.00  0.00     0.022 A 
ATOM      7  C5  UNL d   1       1.146   1.432  -2.197  0.00  0.00     0.026 A 
ATOM      8  C6  UNL d   1       1.327   0.084  -1.737  0.00  0.00    -0.082 A 
ATOM      9  C7  UNL d   1       2.391  -0.827  -1.948  0.00  0.00     0.045 A 
ENDROOT
TORSDOF 0
ENDMDL
