MODEL 1
REMARK minimizedAffinity 14.2964983
REMARK minimizedRMSD -1
REMARK  0 active torsions:
REMARK  status: ('A' for Active; 'I' for Inactive)
ROOT
ATOM      1  C   UNL d   1      -1.563  -0.687   0.513  0.00  0.00    -0.002 A 
ATOM      2  C1  UNL d   1      -2.097  -0.465  -0.749  0.00  0.00     0.010 A 
ATOM      3  C2  UNL d   1      -3.450  -0.704  -0.999  0.00  0.00     0.041 A 
ATOM      4  C3  UNL d   1      -4.265  -1.172   0.051  0.00  0.00    -0.075 A 
ATOM      5  S   UNL d   1      -5.950  -1.532  -0.022  0.00  0.00     0.015 SA
ATOM      6  C4  UNL d   1      -6.000  -1.988   1.619  0.00  0.00     0.022 A 
ATOM      7  C5  UNL d   1      -4.770  -1.874   2.224  0.00  0.00     0.026 A 
ATOM      8  C6  UNL d   1      -3.750  -1.401   1.330  0.00  0.00    -0.082 A 
ATOM      9  C7  UNL d   1      -2.375  -1.151   1.552  0.00  0.00     0.045 A 
ENDROOT
TORSDOF 0
ENDMDL
