MODEL 1
REMARK minimizedAffinity -3.10966396
REMARK minimizedRMSD -1
REMARK  0 active torsions:
REMARK  status: ('A' for Active; 'I' for Inactive)
ROOT
ATOM      1  O1  BZF d   1      -1.973  -1.205   0.771  0.00  0.00    -0.204 OA
ATOM      2  C2  BZF d   1      -1.583  -2.483   1.123  0.00  0.00     0.174 A 
ATOM      3  C3  BZF d   1      -0.271  -2.668   0.873  0.00  0.00    -0.012 A 
ATOM      4  C3A BZF d   1       0.209  -1.399   0.419  0.00  0.00    -0.107 A 
ATOM      5  C4  BZF d   1       1.436  -0.943   0.030  0.00  0.00     0.055 A 
ATOM      6  C5  BZF d   1       1.553   0.331  -0.427  0.00  0.00    -0.016 A 
ATOM      7  C6  BZF d   1       0.465   1.174  -0.515  0.00  0.00     0.022 A 
ATOM      8  C7  BZF d   1      -0.772   0.768  -0.137  0.00  0.00     0.029 A 
ATOM      9  C7A BZF d   1      -0.888  -0.508   0.357  0.00  0.00     0.058 A 
ENDROOT
TORSDOF 0
ENDMDL
