MODEL 1
REMARK minimizedAffinity -3.34612465
REMARK minimizedRMSD -1
REMARK  0 active torsions:
REMARK  status: ('A' for Active; 'I' for Inactive)
ROOT
ATOM      1  O1  BZF d   1       1.431   0.795  -0.270  0.00  0.00    -0.204 OA
ATOM      2  C2  BZF d   1       0.463   1.745  -0.531  0.00  0.00     0.174 A 
ATOM      3  C3  BZF d   1      -0.770   1.245  -0.310  0.00  0.00    -0.012 A 
ATOM      4  C3A BZF d   1      -0.555  -0.072   0.205  0.00  0.00    -0.107 A 
ATOM      5  C4  BZF d   1      -1.394  -1.064   0.628  0.00  0.00     0.055 A 
ATOM      6  C5  BZF d   1      -0.868  -2.259   1.003  0.00  0.00    -0.016 A 
ATOM      7  C6  BZF d   1       0.490  -2.499   0.962  0.00  0.00     0.022 A 
ATOM      8  C7  BZF d   1       1.362  -1.545   0.555  0.00  0.00     0.029 A 
ATOM      9  C7A BZF d   1       0.836  -0.325   0.207  0.00  0.00     0.058 A 
ENDROOT
TORSDOF 0
ENDMDL
