MODEL 1
REMARK minimizedAffinity -1.56150115
REMARK minimizedRMSD -1
REMARK  0 active torsions:
REMARK  status: ('A' for Active; 'I' for Inactive)
ROOT
ATOM      1  O1  BZF d   1      -1.894  -1.480   1.008  0.00  0.00    -0.204 OA
ATOM      2  C2  BZF d   1      -1.221  -2.612   1.425  0.00  0.00     0.174 A 
ATOM      3  C3  BZF d   1       0.100  -2.503   1.172  0.00  0.00    -0.012 A 
ATOM      4  C3A BZF d   1       0.274  -1.185   0.643  0.00  0.00    -0.107 A 
ATOM      5  C4  BZF d   1       1.364  -0.481   0.218  0.00  0.00     0.055 A 
ATOM      6  C5  BZF d   1       1.185   0.758  -0.310  0.00  0.00    -0.016 A 
ATOM      7  C6  BZF d   1      -0.069   1.321  -0.432  0.00  0.00     0.022 A 
ATOM      8  C7  BZF d   1      -1.179   0.663  -0.019  0.00  0.00     0.029 A 
ATOM      9  C7A BZF d   1      -0.998  -0.576   0.545  0.00  0.00     0.058 A 
ENDROOT
TORSDOF 0
ENDMDL
