MODEL 1
REMARK minimizedAffinity -2.49417472
REMARK minimizedRMSD -1
REMARK  0 active torsions:
REMARK  status: ('A' for Active; 'I' for Inactive)
ROOT
ATOM      1  O1  BZF d   1      -2.100  -1.081   1.018  0.00  0.00    -0.204 OA
ATOM      2  C2  BZF d   1      -1.633  -2.329   1.383  0.00  0.00     0.174 A 
ATOM      3  C3  BZF d   1      -0.375  -2.518   0.938  0.00  0.00    -0.012 A 
ATOM      4  C3A BZF d   1       0.000  -1.278   0.331  0.00  0.00    -0.107 A 
ATOM      5  C4  BZF d   1       1.140  -0.837  -0.279  0.00  0.00     0.055 A 
ATOM      6  C5  BZF d   1       1.157   0.404  -0.831  0.00  0.00    -0.016 A 
ATOM      7  C6  BZF d   1       0.051   1.229  -0.795  0.00  0.00     0.022 A 
ATOM      8  C7  BZF d   1      -1.100   0.838  -0.197  0.00  0.00     0.029 A 
ATOM      9  C7A BZF d   1      -1.109  -0.403   0.390  0.00  0.00     0.058 A 
ENDROOT
TORSDOF 0
ENDMDL
