MODEL 1
REMARK minimizedAffinity -2.40763879
REMARK minimizedRMSD -1
REMARK  0 active torsions:
REMARK  status: ('A' for Active; 'I' for Inactive)
ROOT
ATOM      1  O1  BZF d   1      -0.768   0.331  -1.050  0.00  0.00    -0.204 OA
ATOM      2  C2  BZF d   1      -0.137   0.308   0.179  0.00  0.00     0.174 A 
ATOM      3  C3  BZF d   1       1.058   0.930   0.114  0.00  0.00    -0.012 A 
ATOM      4  C3A BZF d   1       1.141   1.449  -1.216  0.00  0.00    -0.107 A 
ATOM      5  C4  BZF d   1       2.084   2.179  -1.883  0.00  0.00     0.055 A 
ATOM      6  C5  BZF d   1       1.892   2.461  -3.198  0.00  0.00    -0.016 A 
ATOM      7  C6  BZF d   1       0.773   2.027  -3.878  0.00  0.00     0.022 A 
ATOM      8  C7  BZF d   1      -0.192   1.305  -3.258  0.00  0.00     0.029 A 
ATOM      9  C7A BZF d   1      -0.017   1.046  -1.921  0.00  0.00     0.058 A 
ENDROOT
TORSDOF 0
ENDMDL
