MODEL 1
REMARK minimizedAffinity -5.49467564
REMARK minimizedRMSD -1
REMARK  0 active torsions:
REMARK  status: ('A' for Active; 'I' for Inactive)
ROOT
ATOM      1  O1  BZF d   1      -0.690   1.196  -0.107  0.00  0.00    -0.204 OA
ATOM      2  C2  BZF d   1       0.638   1.256  -0.484  0.00  0.00     0.174 A 
ATOM      3  C3  BZF d   1       1.229   0.051  -0.348  0.00  0.00    -0.012 A 
ATOM      4  C3A BZF d   1       0.182  -0.837   0.057  0.00  0.00    -0.107 A 
ATOM      5  C4  BZF d   1       0.141  -2.174   0.336  0.00  0.00     0.055 A 
ATOM      6  C5  BZF d   1      -1.023  -2.721   0.775  0.00  0.00    -0.016 A 
ATOM      7  C6  BZF d   1      -2.161  -1.961   0.951  0.00  0.00     0.022 A 
ATOM      8  C7  BZF d   1      -2.170  -0.633   0.683  0.00  0.00     0.029 A 
ATOM      9  C7A BZF d   1      -1.004  -0.083   0.208  0.00  0.00     0.058 A 
ENDROOT
TORSDOF 0
ENDMDL
