MODEL 1
REMARK minimizedAffinity -3.10527921
REMARK minimizedRMSD -1
REMARK  0 active torsions:
REMARK  status: ('A' for Active; 'I' for Inactive)
ROOT
ATOM      1  O1  BZF d   1      -0.480  -2.918   0.905  0.00  0.00    -0.204 OA
ATOM      2  C2  BZF d   1      -1.843  -2.855   0.689  0.00  0.00     0.174 A 
ATOM      3  C3  BZF d   1      -2.208  -1.617   0.297  0.00  0.00    -0.012 A 
ATOM      4  C3A BZF d   1      -0.986  -0.884   0.176  0.00  0.00    -0.107 A 
ATOM      5  C4  BZF d   1      -0.691   0.397  -0.194  0.00  0.00     0.055 A 
ATOM      6  C5  BZF d   1       0.598   0.822  -0.135  0.00  0.00    -0.016 A 
ATOM      7  C6  BZF d   1       1.616  -0.005   0.292  0.00  0.00     0.022 A 
ATOM      8  C7  BZF d   1       1.374  -1.285   0.664  0.00  0.00     0.029 A 
ATOM      9  C7A BZF d   1       0.077  -1.728   0.575  0.00  0.00     0.058 A 
ENDROOT
TORSDOF 0
ENDMDL
