MODEL 1
REMARK minimizedAffinity -3.6959486
REMARK minimizedRMSD -1
REMARK  0 active torsions:
REMARK  status: ('A' for Active; 'I' for Inactive)
ROOT
ATOM      1  O1  BZF d   1      -1.823  -1.692   0.704  0.00  0.00    -0.204 OA
ATOM      2  C2  BZF d   1      -1.080  -2.796   1.078  0.00  0.00     0.174 A 
ATOM      3  C3  BZF d   1       0.240  -2.521   1.035  0.00  0.00    -0.012 A 
ATOM      4  C3A BZF d   1       0.324  -1.133   0.697  0.00  0.00    -0.107 A 
ATOM      5  C4  BZF d   1       1.369  -0.272   0.521  0.00  0.00     0.055 A 
ATOM      6  C5  BZF d   1       1.115   1.002   0.122  0.00  0.00    -0.016 A 
ATOM      7  C6  BZF d   1      -0.170   1.446  -0.114  0.00  0.00     0.022 A 
ATOM      8  C7  BZF d   1      -1.239   0.630   0.052  0.00  0.00     0.029 A 
ATOM      9  C7A BZF d   1      -0.987  -0.648   0.487  0.00  0.00     0.058 A 
ENDROOT
TORSDOF 0
ENDMDL
