MODEL 1
REMARK minimizedAffinity -1.35048759
REMARK minimizedRMSD -1
REMARK  0 active torsions:
REMARK  status: ('A' for Active; 'I' for Inactive)
ROOT
ATOM      1  O1  BZF d   1      -0.706   1.171   0.422  0.00  0.00    -0.204 OA
ATOM      2  C2  BZF d   1       0.261   1.637  -0.447  0.00  0.00     0.174 A 
ATOM      3  C3  BZF d   1       1.131   0.657  -0.765  0.00  0.00    -0.012 A 
ATOM      4  C3A BZF d   1       0.626  -0.518  -0.123  0.00  0.00    -0.107 A 
ATOM      5  C4  BZF d   1       1.044  -1.817  -0.078  0.00  0.00     0.055 A 
ATOM      6  C5  BZF d   1       0.367  -2.702   0.700  0.00  0.00    -0.016 A 
ATOM      7  C6  BZF d   1      -0.728  -2.322   1.448  0.00  0.00     0.022 A 
ATOM      8  C7  BZF d   1      -1.183  -1.046   1.431  0.00  0.00     0.029 A 
ATOM      9  C7A BZF d   1      -0.521  -0.157   0.621  0.00  0.00     0.058 A 
ENDROOT
TORSDOF 0
ENDMDL
