MODEL 1
REMARK minimizedAffinity -3.93253064
REMARK minimizedRMSD -1
REMARK  0 active torsions:
REMARK  status: ('A' for Active; 'I' for Inactive)
ROOT
ATOM      1  O1  BZF d   1       1.584  -0.452   0.534  0.00  0.00    -0.204 OA
ATOM      2  C2  BZF d   1       1.264   0.817   0.093  0.00  0.00     0.174 A 
ATOM      3  C3  BZF d   1      -0.060   0.923  -0.141  0.00  0.00    -0.012 A 
ATOM      4  C3A BZF d   1      -0.615  -0.333   0.261  0.00  0.00    -0.107 A 
ATOM      5  C4  BZF d   1      -1.885  -0.834   0.285  0.00  0.00     0.055 A 
ATOM      6  C5  BZF d   1      -2.080  -2.123   0.667  0.00  0.00    -0.016 A 
ATOM      7  C6  BZF d   1      -1.028  -2.940   1.026  0.00  0.00     0.022 A 
ATOM      8  C7  BZF d   1       0.249  -2.487   1.024  0.00  0.00     0.029 A 
ATOM      9  C7A BZF d   1       0.446  -1.174   0.670  0.00  0.00     0.058 A 
ENDROOT
TORSDOF 0
ENDMDL
