MODEL 1
REMARK minimizedAffinity -4.28888559
REMARK minimizedRMSD -1
REMARK  0 active torsions:
REMARK  status: ('A' for Active; 'I' for Inactive)
ROOT
ATOM      1  O1  BZF d   1      -0.016   1.697  -0.650  0.00  0.00    -0.204 OA
ATOM      2  C2  BZF d   1       1.168   1.947  -1.315  0.00  0.00     0.174 A 
ATOM      3  C3  BZF d   1       2.013   0.902  -1.198  0.00  0.00    -0.012 A 
ATOM      4  C3A BZF d   1       1.277  -0.098  -0.487  0.00  0.00    -0.107 A 
ATOM      5  C4  BZF d   1       1.572  -1.367  -0.078  0.00  0.00     0.055 A 
ATOM      6  C5  BZF d   1       0.659  -2.053   0.659  0.00  0.00    -0.016 A 
ATOM      7  C6  BZF d   1      -0.555  -1.498   1.010  0.00  0.00     0.022 A 
ATOM      8  C7  BZF d   1      -0.895  -0.245   0.623  0.00  0.00     0.029 A 
ATOM      9  C7A BZF d   1       0.013   0.438  -0.150  0.00  0.00     0.058 A 
ENDROOT
TORSDOF 0
ENDMDL
