MODEL 1
REMARK minimizedAffinity -5.47256327
REMARK minimizedRMSD -1
REMARK  0 active torsions:
REMARK  status: ('A' for Active; 'I' for Inactive)
ROOT
ATOM      1  O1  BZF d   1      -1.138   1.557   1.006  0.00  0.00    -0.204 OA
ATOM      2  C2  BZF d   1      -2.368   1.554   1.634  0.00  0.00     0.174 A 
ATOM      3  C3  BZF d   1      -2.789   0.292   1.855  0.00  0.00    -0.012 A 
ATOM      4  C3A BZF d   1      -1.716  -0.545   1.416  0.00  0.00    -0.107 A 
ATOM      5  C4  BZF d   1      -1.529  -1.898   1.393  0.00  0.00     0.055 A 
ATOM      6  C5  BZF d   1      -0.398  -2.399   0.832  0.00  0.00    -0.016 A 
ATOM      7  C6  BZF d   1       0.564  -1.578   0.280  0.00  0.00     0.022 A 
ATOM      8  C7  BZF d   1       0.426  -0.230   0.284  0.00  0.00     0.029 A 
ATOM      9  C7A BZF d   1      -0.701   0.281   0.880  0.00  0.00     0.058 A 
ENDROOT
TORSDOF 0
ENDMDL
