MODEL 1
REMARK minimizedAffinity -4.04023314
REMARK minimizedRMSD -1
REMARK  0 active torsions:
REMARK  status: ('A' for Active; 'I' for Inactive)
ROOT
ATOM      1  O1  BZF d   1      -0.282  -2.594   0.545  0.00  0.00    -0.204 OA
ATOM      2  C2  BZF d   1      -1.653  -2.735   0.641  0.00  0.00     0.174 A 
ATOM      3  C3  BZF d   1      -2.252  -1.530   0.736  0.00  0.00    -0.012 A 
ATOM      4  C3A BZF d   1      -1.197  -0.573   0.604  0.00  0.00    -0.107 A 
ATOM      5  C4  BZF d   1      -1.162   0.792   0.600  0.00  0.00     0.055 A 
ATOM      6  C5  BZF d   1       0.039   1.422   0.525  0.00  0.00    -0.016 A 
ATOM      7  C6  BZF d   1       1.225   0.719   0.458  0.00  0.00     0.022 A 
ATOM      8  C7  BZF d   1       1.241  -0.636   0.453  0.00  0.00     0.029 A 
ATOM      9  C7A BZF d   1       0.026  -1.275   0.496  0.00  0.00     0.058 A 
ENDROOT
TORSDOF 0
ENDMDL
