MODEL 1
REMARK minimizedAffinity -2.98113656
REMARK minimizedRMSD -1
REMARK  0 active torsions:
REMARK  status: ('A' for Active; 'I' for Inactive)
ROOT
ATOM      1  O1  BZF d   1       1.203   0.397  -1.018  0.00  0.00    -0.204 OA
ATOM      2  C2  BZF d   1       0.241   1.198  -1.602  0.00  0.00     0.174 A 
ATOM      3  C3  BZF d   1      -0.997   0.774  -1.274  0.00  0.00    -0.012 A 
ATOM      4  C3A BZF d   1      -0.795  -0.306  -0.358  0.00  0.00    -0.107 A 
ATOM      5  C4  BZF d   1      -1.643  -1.124   0.331  0.00  0.00     0.055 A 
ATOM      6  C5  BZF d   1      -1.125  -2.128   1.086  0.00  0.00    -0.016 A 
ATOM      7  C6  BZF d   1       0.234  -2.346   1.170  0.00  0.00     0.022 A 
ATOM      8  C7  BZF d   1       1.116  -1.558   0.509  0.00  0.00     0.029 A 
ATOM      9  C7A BZF d   1       0.597  -0.522  -0.229  0.00  0.00     0.058 A 
ENDROOT
TORSDOF 0
ENDMDL
