MODEL 1
REMARK minimizedAffinity -3.58692837
REMARK minimizedRMSD -1
REMARK  0 active torsions:
REMARK  status: ('A' for Active; 'I' for Inactive)
ROOT
ATOM      1  O1  BZF d   1      -0.165   0.417  -0.750  0.00  0.00    -0.204 OA
ATOM      2  C2  BZF d   1       1.072   0.447  -0.136  0.00  0.00     0.174 A 
ATOM      3  C3  BZF d   1       1.141  -0.475   0.846  0.00  0.00    -0.012 A 
ATOM      4  C3A BZF d   1      -0.101  -1.184   0.784  0.00  0.00    -0.107 A 
ATOM      5  C4  BZF d   1      -0.622  -2.227   1.494  0.00  0.00     0.055 A 
ATOM      6  C5  BZF d   1      -1.892  -2.635   1.232  0.00  0.00    -0.016 A 
ATOM      7  C6  BZF d   1      -2.668  -2.020   0.272  0.00  0.00     0.022 A 
ATOM      8  C7  BZF d   1      -2.192  -0.985  -0.461  0.00  0.00     0.029 A 
ATOM      9  C7A BZF d   1      -0.899  -0.591  -0.222  0.00  0.00     0.058 A 
ENDROOT
TORSDOF 0
ENDMDL
