MODEL 1
REMARK minimizedAffinity -4.72547388
REMARK minimizedRMSD -1
REMARK  0 active torsions:
REMARK  status: ('A' for Active; 'I' for Inactive)
ROOT
ATOM      1  O1  BZF d   1      -1.152   0.782  -1.138  0.00  0.00    -0.204 OA
ATOM      2  C2  BZF d   1       0.067   1.391  -1.366  0.00  0.00     0.174 A 
ATOM      3  C3  BZF d   1       1.054   0.744  -0.713  0.00  0.00    -0.012 A 
ATOM      4  C3A BZF d   1       0.425  -0.391  -0.109  0.00  0.00    -0.107 A 
ATOM      5  C4  BZF d   1       0.887  -1.421   0.659  0.00  0.00     0.055 A 
ATOM      6  C5  BZF d   1       0.001  -2.327   1.150  0.00  0.00    -0.016 A 
ATOM      7  C6  BZF d   1      -1.352  -2.230   0.898  0.00  0.00     0.022 A 
ATOM      8  C7  BZF d   1      -1.856  -1.227   0.137  0.00  0.00     0.029 A 
ATOM      9  C7A BZF d   1      -0.960  -0.329  -0.388  0.00  0.00     0.058 A 
ENDROOT
TORSDOF 0
ENDMDL
