MODEL 1
REMARK minimizedAffinity -4.97791052
REMARK minimizedRMSD -1
REMARK  0 active torsions:
REMARK  status: ('A' for Active; 'I' for Inactive)
ROOT
ATOM      1  O1  BZF d   1      -0.046   0.425  -0.445  0.00  0.00    -0.204 OA
ATOM      2  C2  BZF d   1       1.286   0.403  -0.080  0.00  0.00     0.174 A 
ATOM      3  C3  BZF d   1       1.540  -0.639   0.738  0.00  0.00    -0.012 A 
ATOM      4  C3A BZF d   1       0.309  -1.363   0.820  0.00  0.00    -0.107 A 
ATOM      5  C4  BZF d   1      -0.069  -2.503   1.469  0.00  0.00     0.055 A 
ATOM      6  C5  BZF d   1      -1.366  -2.903   1.403  0.00  0.00    -0.016 A 
ATOM      7  C6  BZF d   1      -2.311  -2.185   0.700  0.00  0.00     0.022 A 
ATOM      8  C7  BZF d   1      -1.984  -1.050   0.035  0.00  0.00     0.029 A 
ATOM      9  C7A BZF d   1      -0.667  -0.662   0.074  0.00  0.00     0.058 A 
ENDROOT
TORSDOF 0
ENDMDL
