MODEL 1
REMARK minimizedAffinity -3.08116317
REMARK minimizedRMSD -1
REMARK  0 active torsions:
REMARK  status: ('A' for Active; 'I' for Inactive)
ROOT
ATOM      1  C1  BNZ d   1      -0.752   0.243   1.784  0.00  0.00     0.000 A 
ATOM      2  C2  BNZ d   1       0.469  -0.318   1.517  0.00  0.00     0.000 A 
ATOM      3  C3  BNZ d   1       1.500   0.444   1.043  0.00  0.00     0.000 A 
ATOM      4  C4  BNZ d   1       1.299   1.755   0.799  0.00  0.00     0.000 A 
ATOM      5  C5  BNZ d   1       0.071   2.333   1.054  0.00  0.00     0.000 A 
ATOM      6  C6  BNZ d   1      -0.953   1.571   1.568  0.00  0.00     0.000 A 
ENDROOT
TORSDOF 0
ENDMDL
