MODEL 1
REMARK minimizedAffinity 3.84084702
REMARK minimizedRMSD -1
REMARK  0 active torsions:
REMARK  status: ('A' for Active; 'I' for Inactive)
ROOT
ATOM      1  C1  BNZ d   1      -1.844   0.570   2.966  0.00  0.00     0.000 A 
ATOM      2  C2  BNZ d   1      -1.156   0.043   1.905  0.00  0.00     0.000 A 
ATOM      3  C3  BNZ d   1      -0.683   0.849   0.908  0.00  0.00     0.000 A 
ATOM      4  C4  BNZ d   1      -0.932   2.174   0.952  0.00  0.00     0.000 A 
ATOM      5  C5  BNZ d   1      -1.632   2.719   2.010  0.00  0.00     0.000 A 
ATOM      6  C6  BNZ d   1      -2.073   1.909   3.032  0.00  0.00     0.000 A 
ENDROOT
TORSDOF 0
ENDMDL
