MODEL 1
REMARK minimizedAffinity -3.72008729
REMARK minimizedRMSD -1
REMARK  0 active torsions:
REMARK  status: ('A' for Active; 'I' for Inactive)
ROOT
ATOM      1  C1  BNZ d   1      -2.663   1.436   2.612  0.00  0.00     0.000 A 
ATOM      2  C2  BNZ d   1      -1.728   2.404   2.360  0.00  0.00     0.000 A 
ATOM      3  C3  BNZ d   1      -0.435   2.070   2.068  0.00  0.00     0.000 A 
ATOM      4  C4  BNZ d   1      -0.070   0.772   2.068  0.00  0.00     0.000 A 
ATOM      5  C5  BNZ d   1      -0.999  -0.216   2.329  0.00  0.00     0.000 A 
ATOM      6  C6  BNZ d   1      -2.308   0.123   2.584  0.00  0.00     0.000 A 
ENDROOT
TORSDOF 0
ENDMDL
