MODEL 1
REMARK minimizedAffinity -0.382431328
REMARK minimizedRMSD -1
REMARK  0 active torsions:
REMARK  status: ('A' for Active; 'I' for Inactive)
ROOT
ATOM      1  C1  BNZ d   1      -1.693   0.895   2.238  0.00  0.00     0.000 A 
ATOM      2  C2  BNZ d   1      -0.917   0.030   1.513  0.00  0.00     0.000 A 
ATOM      3  C3  BNZ d   1       0.143   0.487   0.780  0.00  0.00     0.000 A 
ATOM      4  C4  BNZ d   1       0.402   1.810   0.742  0.00  0.00     0.000 A 
ATOM      5  C5  BNZ d   1      -0.377   2.696   1.460  0.00  0.00     0.000 A 
ATOM      6  C6  BNZ d   1      -1.419   2.228   2.228  0.00  0.00     0.000 A 
ENDROOT
TORSDOF 0
ENDMDL
