MODEL 1
REMARK minimizedAffinity -2.70691586
REMARK minimizedRMSD -1
REMARK  0 active torsions:
REMARK  status: ('A' for Active; 'I' for Inactive)
ROOT
ATOM      1  C1  BNZ d   1      -1.942   1.865   2.131  0.00  0.00     0.000 A 
ATOM      2  C2  BNZ d   1      -0.752   2.496   1.883  0.00  0.00     0.000 A 
ATOM      3  C3  BNZ d   1       0.370   1.779   1.576  0.00  0.00     0.000 A 
ATOM      4  C4  BNZ d   1       0.311   0.432   1.557  0.00  0.00     0.000 A 
ATOM      5  C5  BNZ d   1      -0.878  -0.220   1.814  0.00  0.00     0.000 A 
ATOM      6  C6  BNZ d   1      -2.015   0.507   2.085  0.00  0.00     0.000 A 
ENDROOT
TORSDOF 0
ENDMDL
