MODEL 1
REMARK minimizedAffinity -0.0579081848
REMARK minimizedRMSD -1
REMARK  0 active torsions:
REMARK  status: ('A' for Active; 'I' for Inactive)
ROOT
ATOM      1  C1  BNZ d   1      -0.553   2.051   1.592  0.00  0.00     0.000 A 
ATOM      2  C2  BNZ d   1      -1.802   2.471   1.965  0.00  0.00     0.000 A 
ATOM      3  C3  BNZ d   1      -2.662   1.625   2.608  0.00  0.00     0.000 A 
ATOM      4  C4  BNZ d   1      -2.288   0.351   2.841  0.00  0.00     0.000 A 
ATOM      5  C5  BNZ d   1      -1.036  -0.091   2.462  0.00  0.00     0.000 A 
ATOM      6  C6  BNZ d   1      -0.158   0.775   1.850  0.00  0.00     0.000 A 
ENDROOT
TORSDOF 0
ENDMDL
