MODEL 1
REMARK minimizedAffinity -2.54881883
REMARK minimizedRMSD -1
REMARK  0 active torsions:
REMARK  status: ('A' for Active; 'I' for Inactive)
ROOT
ATOM      1  C1  BNZ d   1      -1.636   1.281   1.474  0.00  0.00     0.000 A 
ATOM      2  C2  BNZ d   1      -1.354  -0.041   1.254  0.00  0.00     0.000 A 
ATOM      3  C3  BNZ d   1      -0.067  -0.459   1.065  0.00  0.00     0.000 A 
ATOM      4  C4  BNZ d   1       0.931   0.448   1.057  0.00  0.00     0.000 A 
ATOM      5  C5  BNZ d   1       0.662   1.785   1.268  0.00  0.00     0.000 A 
ATOM      6  C6  BNZ d   1      -0.631   2.198   1.496  0.00  0.00     0.000 A 
ENDROOT
TORSDOF 0
ENDMDL
