MODEL 1
REMARK minimizedAffinity -4.93894053
REMARK minimizedRMSD -1
REMARK  0 active torsions:
REMARK  status: ('A' for Active; 'I' for Inactive)
ROOT
ATOM      1  C1  BNZ d   1      -1.195   3.443   1.090  0.00  0.00     0.000 A 
ATOM      2  C2  BNZ d   1      -2.340   3.089   1.754  0.00  0.00     0.000 A 
ATOM      3  C3  BNZ d   1      -2.427   1.893   2.410  0.00  0.00     0.000 A 
ATOM      4  C4  BNZ d   1      -1.386   1.036   2.369  0.00  0.00     0.000 A 
ATOM      5  C5  BNZ d   1      -0.229   1.375   1.696  0.00  0.00     0.000 A 
ATOM      6  C6  BNZ d   1      -0.130   2.596   1.070  0.00  0.00     0.000 A 
ENDROOT
TORSDOF 0
ENDMDL
