MODEL 1
REMARK minimizedAffinity -3.71192503
REMARK minimizedRMSD -1
REMARK  0 active torsions:
REMARK  status: ('A' for Active; 'I' for Inactive)
ROOT
ATOM      1  C1  BNZ d   1      -1.533   0.355   2.013  0.00  0.00     0.000 A 
ATOM      2  C2  BNZ d   1      -0.456  -0.444   1.733  0.00  0.00     0.000 A 
ATOM      3  C3  BNZ d   1       0.757   0.101   1.420  0.00  0.00     0.000 A 
ATOM      4  C4  BNZ d   1       0.883   1.442   1.346  0.00  0.00     0.000 A 
ATOM      5  C5  BNZ d   1      -0.195   2.261   1.616  0.00  0.00     0.000 A 
ATOM      6  C6  BNZ d   1      -1.405   1.709   1.969  0.00  0.00     0.000 A 
ENDROOT
TORSDOF 0
ENDMDL
