MODEL 1
REMARK minimizedAffinity -0.182792202
REMARK minimizedRMSD -1
REMARK  0 active torsions:
REMARK  status: ('A' for Active; 'I' for Inactive)
ROOT
ATOM      1  C1  BNZ d   1      -3.699  -0.636  -3.360  0.00  0.00     0.000 A 
ATOM      2  C2  BNZ d   1      -3.394  -1.955  -3.560  0.00  0.00     0.000 A 
ATOM      3  C3  BNZ d   1      -3.672  -2.891  -2.603  0.00  0.00     0.000 A 
ATOM      4  C4  BNZ d   1      -4.217  -2.500  -1.433  0.00  0.00     0.000 A 
ATOM      5  C5  BNZ d   1      -4.522  -1.172  -1.213  0.00  0.00     0.000 A 
ATOM      6  C6  BNZ d   1      -4.277  -0.239  -2.194  0.00  0.00     0.000 A 
ENDROOT
TORSDOF 0
ENDMDL
