MODEL 1
REMARK minimizedAffinity 5.39570141
REMARK minimizedRMSD -1
REMARK  0 active torsions:
REMARK  status: ('A' for Active; 'I' for Inactive)
ROOT
ATOM      1  C1  BNZ d   1      -2.815   1.559   2.982  0.00  0.00     0.000 A 
ATOM      2  C2  BNZ d   1      -1.631   1.772   2.328  0.00  0.00     0.000 A 
ATOM      3  C3  BNZ d   1      -1.480   2.835   1.482  0.00  0.00     0.000 A 
ATOM      4  C4  BNZ d   1      -2.523   3.660   1.260  0.00  0.00     0.000 A 
ATOM      5  C5  BNZ d   1      -3.727   3.453   1.905  0.00  0.00     0.000 A 
ATOM      6  C6  BNZ d   1      -3.863   2.405   2.786  0.00  0.00     0.000 A 
ENDROOT
TORSDOF 0
ENDMDL
