MODEL 1
REMARK minimizedAffinity -2.86283755
REMARK minimizedRMSD -1
REMARK  0 active torsions:
REMARK  status: ('A' for Active; 'I' for Inactive)
ROOT
ATOM      1  C1  BNZ d   1      -1.866   1.820   2.356  0.00  0.00     0.000 A 
ATOM      2  C2  BNZ d   1      -0.707   2.450   1.988  0.00  0.00     0.000 A 
ATOM      3  C3  BNZ d   1       0.391   1.729   1.609  0.00  0.00     0.000 A 
ATOM      4  C4  BNZ d   1       0.342   0.382   1.638  0.00  0.00     0.000 A 
ATOM      5  C5  BNZ d   1      -0.816  -0.268   2.015  0.00  0.00     0.000 A 
ATOM      6  C6  BNZ d   1      -1.932   0.461   2.358  0.00  0.00     0.000 A 
ENDROOT
TORSDOF 0
ENDMDL
