MODEL 1
REMARK minimizedAffinity -2.94024038
REMARK minimizedRMSD -1
REMARK  0 active torsions:
REMARK  status: ('A' for Active; 'I' for Inactive)
ROOT
ATOM      1  C1  BNZ d   1      -1.071   1.865   1.953  0.00  0.00     0.000 A 
ATOM      2  C2  BNZ d   1       0.195   2.204   1.558  0.00  0.00     0.000 A 
ATOM      3  C3  BNZ d   1       0.993   1.300   0.913  0.00  0.00     0.000 A 
ATOM      4  C4  BNZ d   1       0.538   0.048   0.700  0.00  0.00     0.000 A 
ATOM      5  C5  BNZ d   1      -0.733  -0.311   1.101  0.00  0.00     0.000 A 
ATOM      6  C6  BNZ d   1      -1.547   0.613   1.715  0.00  0.00     0.000 A 
ENDROOT
TORSDOF 0
ENDMDL
