MODEL 1
REMARK minimizedAffinity 1.01895571
REMARK minimizedRMSD -1
REMARK  0 active torsions:
REMARK  status: ('A' for Active; 'I' for Inactive)
ROOT
ATOM      1  C1  BNZ d   1       0.635   1.538   1.405  0.00  0.00     0.000 A 
ATOM      2  C2  BNZ d   1      -0.555   2.213   1.480  0.00  0.00     0.000 A 
ATOM      3  C3  BNZ d   1      -1.701   1.571   1.859  0.00  0.00     0.000 A 
ATOM      4  C4  BNZ d   1      -1.664   0.249   2.123  0.00  0.00     0.000 A 
ATOM      5  C5  BNZ d   1      -0.474  -0.447   2.043  0.00  0.00     0.000 A 
ATOM      6  C6  BNZ d   1       0.684   0.210   1.699  0.00  0.00     0.000 A 
ENDROOT
TORSDOF 0
ENDMDL
