MODEL 1
REMARK minimizedAffinity -2.20582032
REMARK minimizedRMSD -1
REMARK  0 active torsions:
REMARK  status: ('A' for Active; 'I' for Inactive)
ROOT
ATOM      1  C1  BNZ d   1      -1.376   1.232   1.365  0.00  0.00     0.000 A 
ATOM      2  C2  BNZ d   1      -0.323   2.104   1.442  0.00  0.00     0.000 A 
ATOM      3  C3  BNZ d   1       0.962   1.665   1.284  0.00  0.00     0.000 A 
ATOM      4  C4  BNZ d   1       1.194   0.351   1.089  0.00  0.00     0.000 A 
ATOM      5  C5  BNZ d   1       0.144  -0.542   1.018  0.00  0.00     0.000 A 
ATOM      6  C6  BNZ d   1      -1.150  -0.091   1.139  0.00  0.00     0.000 A 
ENDROOT
TORSDOF 0
ENDMDL
