MODEL 1
REMARK minimizedAffinity -3.91110086
REMARK minimizedRMSD -1
REMARK  0 active torsions:
REMARK  status: ('A' for Active; 'I' for Inactive)
ROOT
ATOM      1  C1  BNZ d   1      -2.295   1.023   1.451  0.00  0.00     0.000 A 
ATOM      2  C2  BNZ d   1      -1.176   1.686   1.023  0.00  0.00     0.000 A 
ATOM      3  C3  BNZ d   1       0.067   1.148   1.200  0.00  0.00     0.000 A 
ATOM      4  C4  BNZ d   1       0.194  -0.033   1.840  0.00  0.00     0.000 A 
ATOM      5  C5  BNZ d   1      -0.924  -0.710   2.285  0.00  0.00     0.000 A 
ATOM      6  C6  BNZ d   1      -2.177  -0.183   2.071  0.00  0.00     0.000 A 
ENDROOT
TORSDOF 0
ENDMDL
