MODEL 1
REMARK minimizedAffinity -0.430901229
REMARK minimizedRMSD -1
REMARK  0 active torsions:
REMARK  status: ('A' for Active; 'I' for Inactive)
ROOT
ATOM      1  C1  BNZ d   1      -1.931   3.237   1.479  0.00  0.00     0.000 A 
ATOM      2  C2  BNZ d   1      -2.639   2.553   2.431  0.00  0.00     0.000 A 
ATOM      3  C3  BNZ d   1      -2.000   1.768   3.350  0.00  0.00     0.000 A 
ATOM      4  C4  BNZ d   1      -0.659   1.636   3.291  0.00  0.00     0.000 A 
ATOM      5  C5  BNZ d   1       0.068   2.312   2.331  0.00  0.00     0.000 A 
ATOM      6  C6  BNZ d   1      -0.575   3.132   1.432  0.00  0.00     0.000 A 
ENDROOT
TORSDOF 0
ENDMDL
