MODEL 1
REMARK minimizedAffinity -3.93305492
REMARK minimizedRMSD -1
REMARK  0 active torsions:
REMARK  status: ('A' for Active; 'I' for Inactive)
ROOT
ATOM      1  C4' PXY d   1       0.229  -2.021  -1.027  0.00  0.00     0.077 C 
ATOM      2  C1' PXY d   1      -1.086   3.077   1.360  0.00  0.00     0.077 C 
ATOM      3  C1  PXY d   1      -0.735   1.746   0.724  0.00  0.00    -0.082 A 
ATOM      4  C2  PXY d   1      -1.446   0.671   1.023  0.00  0.00     0.003 A 
ATOM      5  C3  PXY d   1      -1.123  -0.547   0.481  0.00  0.00     0.003 A 
ATOM      6  C4  PXY d   1      -0.095  -0.655  -0.416  0.00  0.00    -0.082 A 
ATOM      7  C5  PXY d   1       0.628   0.440  -0.735  0.00  0.00     0.003 A 
ATOM      8  C6  PXY d   1       0.310   1.659  -0.142  0.00  0.00     0.003 A 
ENDROOT
TORSDOF 0
ENDMDL
