MODEL 1
REMARK minimizedAffinity -3.3008008
REMARK minimizedRMSD -1
REMARK  0 active torsions:
REMARK  status: ('A' for Active; 'I' for Inactive)
ROOT
ATOM      1  C4' PXY d   1      -0.633   3.237  -1.890  0.00  0.00     0.077 C 
ATOM      2  C1' PXY d   1       0.327  -0.094   2.735  0.00  0.00     0.077 C 
ATOM      3  C1  PXY d   1       0.067   0.787   1.530  0.00  0.00    -0.082 A 
ATOM      4  C2  PXY d   1       0.222   0.292   0.312  0.00  0.00     0.003 A 
ATOM      5  C3  PXY d   1       0.023   1.084  -0.789  0.00  0.00     0.003 A 
ATOM      6  C4  PXY d   1      -0.391   2.381  -0.644  0.00  0.00    -0.082 A 
ATOM      7  C5  PXY d   1      -0.562   2.890   0.595  0.00  0.00     0.003 A 
ATOM      8  C6  PXY d   1      -0.314   2.082   1.700  0.00  0.00     0.003 A 
ENDROOT
TORSDOF 0
ENDMDL
