MODEL 1
REMARK minimizedAffinity -5.1120944
REMARK minimizedRMSD -1
REMARK  0 active torsions:
REMARK  status: ('A' for Active; 'I' for Inactive)
ROOT
ATOM      1  C4' PXY d   1      -0.907   2.909  -2.015  0.00  0.00     0.077 C 
ATOM      2  C1' PXY d   1       0.180  -0.114   2.791  0.00  0.00     0.077 C 
ATOM      3  C1  PXY d   1      -0.114   0.686   1.537  0.00  0.00    -0.082 A 
ATOM      4  C2  PXY d   1       0.187   0.179   0.352  0.00  0.00     0.003 A 
ATOM      5  C3  PXY d   1      -0.043   0.902  -0.790  0.00  0.00     0.003 A 
ATOM      6  C4  PXY d   1      -0.637   2.134  -0.723  0.00  0.00    -0.082 A 
ATOM      7  C5  PXY d   1      -0.957   2.653   0.481  0.00  0.00     0.003 A 
ATOM      8  C6  PXY d   1      -0.678   1.921   1.632  0.00  0.00     0.003 A 
ENDROOT
TORSDOF 0
ENDMDL
