MODEL 1
REMARK minimizedAffinity -2.64025164
REMARK minimizedRMSD -1
REMARK  0 active torsions:
REMARK  status: ('A' for Active; 'I' for Inactive)
ROOT
ATOM      1  C4' PXY d   1       0.417  -2.881  -1.189  0.00  0.00     0.077 C 
ATOM      2  C1' PXY d   1       0.307   1.823   2.169  0.00  0.00     0.077 C 
ATOM      3  C1  PXY d   1       0.329   0.596   1.279  0.00  0.00    -0.082 A 
ATOM      4  C2  PXY d   1       0.523  -0.598   1.816  0.00  0.00     0.003 A 
ATOM      5  C3  PXY d   1       0.577  -1.715   1.023  0.00  0.00     0.003 A 
ATOM      6  C4  PXY d   1       0.378  -1.615  -0.328  0.00  0.00    -0.082 A 
ATOM      7  C5  PXY d   1       0.170  -0.402  -0.882  0.00  0.00     0.003 A 
ATOM      8  C6  PXY d   1       0.159   0.724  -0.064  0.00  0.00     0.003 A 
ENDROOT
TORSDOF 0
ENDMDL
