MODEL 1
REMARK minimizedAffinity -4.26959801
REMARK minimizedRMSD -1
REMARK  0 active torsions:
REMARK  status: ('A' for Active; 'I' for Inactive)
ROOT
ATOM      1  C4' PXY d   1       0.351  -1.780  -0.716  0.00  0.00     0.077 C 
ATOM      2  C1' PXY d   1      -1.409   3.165   1.705  0.00  0.00     0.077 C 
ATOM      3  C1  PXY d   1      -0.936   1.869   1.077  0.00  0.00    -0.082 A 
ATOM      4  C2  PXY d   1      -1.406   1.505  -0.105  0.00  0.00     0.003 A 
ATOM      5  C3  PXY d   1      -1.014   0.320  -0.673  0.00  0.00     0.003 A 
ATOM      6  C4  PXY d   1      -0.091  -0.475  -0.048  0.00  0.00    -0.082 A 
ATOM      7  C5  PXY d   1       0.402  -0.106   1.153  0.00  0.00     0.003 A 
ATOM      8  C6  PXY d   1      -0.040   1.081   1.731  0.00  0.00     0.003 A 
ENDROOT
TORSDOF 0
ENDMDL
