MODEL 1
REMARK minimizedAffinity -5.0118165
REMARK minimizedRMSD -1
REMARK  0 active torsions:
REMARK  status: ('A' for Active; 'I' for Inactive)
ROOT
ATOM      1  C4' PXY d   1       0.299  -1.333  -0.460  0.00  0.00     0.077 C 
ATOM      2  C1' PXY d   1      -1.275   3.996   1.135  0.00  0.00     0.077 C 
ATOM      3  C1  PXY d   1      -0.855   2.598   0.728  0.00  0.00    -0.082 A 
ATOM      4  C2  PXY d   1      -0.887   2.251  -0.549  0.00  0.00     0.003 A 
ATOM      5  C3  PXY d   1      -0.542   0.980  -0.931  0.00  0.00     0.003 A 
ATOM      6  C4  PXY d   1      -0.107   0.071  -0.004  0.00  0.00    -0.082 A 
ATOM      7  C5  PXY d   1      -0.061   0.421   1.299  0.00  0.00     0.003 A 
ATOM      8  C6  PXY d   1      -0.456   1.703   1.672  0.00  0.00     0.003 A 
ENDROOT
TORSDOF 0
ENDMDL
