MODEL 1
REMARK minimizedAffinity -3.47150111
REMARK minimizedRMSD -1
REMARK  0 active torsions:
REMARK  status: ('A' for Active; 'I' for Inactive)
ROOT
ATOM      1  C4' PXY d   1       0.400  -1.568  -0.385  0.00  0.00     0.077 C 
ATOM      2  C1' PXY d   1      -1.105   3.625   1.660  0.00  0.00     0.077 C 
ATOM      3  C1  PXY d   1      -0.703   2.261   1.135  0.00  0.00    -0.082 A 
ATOM      4  C2  PXY d   1      -0.672   2.046  -0.170  0.00  0.00     0.003 A 
ATOM      5  C3  PXY d   1      -0.343   0.809  -0.662  0.00  0.00     0.003 A 
ATOM      6  C4  PXY d   1       0.010  -0.203   0.190  0.00  0.00    -0.082 A 
ATOM      7  C5  PXY d   1      -0.008   0.011   1.523  0.00  0.00     0.003 A 
ATOM      8  C6  PXY d   1      -0.386   1.262   2.003  0.00  0.00     0.003 A 
ENDROOT
TORSDOF 0
ENDMDL
