MODEL 1
REMARK minimizedAffinity -3.83801484
REMARK minimizedRMSD -1
REMARK  0 active torsions:
REMARK  status: ('A' for Active; 'I' for Inactive)
ROOT
ATOM      1  C4' PXY d   1      -0.129   2.642   1.948  0.00  0.00     0.077 C 
ATOM      2  C1' PXY d   1       0.285  -2.274  -1.064  0.00  0.00     0.077 C 
ATOM      3  C1  PXY d   1       0.182  -0.978  -0.284  0.00  0.00    -0.082 A 
ATOM      4  C2  PXY d   1       0.108  -1.014   1.037  0.00  0.00     0.003 A 
ATOM      5  C3  PXY d   1      -0.018   0.147   1.756  0.00  0.00     0.003 A 
ATOM      6  C4  PXY d   1      -0.014   1.359   1.120  0.00  0.00    -0.082 A 
ATOM      7  C5  PXY d   1       0.071   1.405  -0.227  0.00  0.00     0.003 A 
ATOM      8  C6  PXY d   1       0.157   0.213  -0.941  0.00  0.00     0.003 A 
ENDROOT
TORSDOF 0
ENDMDL
