MODEL 1
REMARK minimizedAffinity -2.29387236
REMARK minimizedRMSD -1
REMARK  0 active torsions:
REMARK  status: ('A' for Active; 'I' for Inactive)
ROOT
ATOM      1  C4' PXY d   1      -1.656  -3.705  -0.778  0.00  0.00     0.077 C 
ATOM      2  C1' PXY d   1       0.583   1.321   0.995  0.00  0.00     0.077 C 
ATOM      3  C1  PXY d   1       0.002   0.004   0.518  0.00  0.00    -0.082 A 
ATOM      4  C2  PXY d   1      -1.112  -0.455   1.065  0.00  0.00     0.003 A 
ATOM      5  C3  PXY d   1      -1.634  -1.659   0.668  0.00  0.00     0.003 A 
ATOM      6  C4  PXY d   1      -1.039  -2.376  -0.335  0.00  0.00    -0.082 A 
ATOM      7  C5  PXY d   1       0.092  -1.908  -0.906  0.00  0.00     0.003 A 
ATOM      8  C6  PXY d   1       0.629  -0.704  -0.460  0.00  0.00     0.003 A 
ENDROOT
TORSDOF 0
ENDMDL
