MODEL 1
REMARK minimizedAffinity -4.61093378
REMARK minimizedRMSD -1
REMARK  0 active torsions:
REMARK  status: ('A' for Active; 'I' for Inactive)
ROOT
ATOM      1  C4' PXY d   1      -2.176   3.410  -1.766  0.00  0.00     0.077 C 
ATOM      2  C1' PXY d   1       0.339   0.381   2.466  0.00  0.00     0.077 C 
ATOM      3  C1  PXY d   1      -0.330   1.180   1.365  0.00  0.00    -0.082 A 
ATOM      4  C2  PXY d   1      -0.182   0.806   0.104  0.00  0.00     0.003 A 
ATOM      5  C3  PXY d   1      -0.754   1.535  -0.907  0.00  0.00     0.003 A 
ATOM      6  C4  PXY d   1      -1.527   2.628  -0.621  0.00  0.00    -0.082 A 
ATOM      7  C5  PXY d   1      -1.691   3.010   0.664  0.00  0.00     0.003 A 
ATOM      8  C6  PXY d   1      -1.069   2.280   1.672  0.00  0.00     0.003 A 
ENDROOT
TORSDOF 0
ENDMDL
