MODEL 1
REMARK minimizedAffinity -2.54325247
REMARK minimizedRMSD -1
REMARK  0 active torsions:
REMARK  status: ('A' for Active; 'I' for Inactive)
ROOT
ATOM      1  C4' PXY d   1       0.359  -2.889  -1.168  0.00  0.00     0.077 C 
ATOM      2  C1' PXY d   1       0.587   2.087   1.766  0.00  0.00     0.077 C 
ATOM      3  C1  PXY d   1       0.524   0.788   0.985  0.00  0.00    -0.082 A 
ATOM      4  C2  PXY d   1       0.302  -0.349   1.625  0.00  0.00     0.003 A 
ATOM      5  C3  PXY d   1       0.274  -1.536   0.939  0.00  0.00     0.003 A 
ATOM      6  C4  PXY d   1       0.421  -1.553  -0.422  0.00  0.00    -0.082 A 
ATOM      7  C5  PXY d   1       0.637  -0.396  -1.083  0.00  0.00     0.003 A 
ATOM      8  C6  PXY d   1       0.704   0.794  -0.363  0.00  0.00     0.003 A 
ENDROOT
TORSDOF 0
ENDMDL
