MODEL 1
REMARK minimizedAffinity -4.83046436
REMARK minimizedRMSD -1
REMARK  0 active torsions:
REMARK  status: ('A' for Active; 'I' for Inactive)
ROOT
ATOM      1  C4' PXY d   1       0.079   2.137   1.537  0.00  0.00     0.077 C 
ATOM      2  C1' PXY d   1       1.218  -2.691  -1.432  0.00  0.00     0.077 C 
ATOM      3  C1  PXY d   1       0.917  -1.418  -0.664  0.00  0.00    -0.082 A 
ATOM      4  C2  PXY d   1       1.404  -1.260   0.556  0.00  0.00     0.003 A 
ATOM      5  C3  PXY d   1       1.115  -0.129   1.276  0.00  0.00     0.003 A 
ATOM      6  C4  PXY d   1       0.365   0.873   0.721  0.00  0.00    -0.082 A 
ATOM      7  C5  PXY d   1      -0.127   0.723  -0.527  0.00  0.00     0.003 A 
ATOM      8  C6  PXY d   1       0.143  -0.450  -1.226  0.00  0.00     0.003 A 
ENDROOT
TORSDOF 0
ENDMDL
