MODEL 1
REMARK minimizedAffinity 2.81867218
REMARK minimizedRMSD -1
REMARK  0 active torsions:
REMARK  status: ('A' for Active; 'I' for Inactive)
ROOT
ATOM      1  C4' PXY d   1      -1.735  -4.360  -1.819  0.00  0.00     0.077 C 
ATOM      2  C1' PXY d   1      -2.223   0.200  -5.337  0.00  0.00     0.077 C 
ATOM      3  C1  PXY d   1      -2.098  -1.004  -4.424  0.00  0.00    -0.082 A 
ATOM      4  C2  PXY d   1      -2.281  -0.859  -3.122  0.00  0.00     0.003 A 
ATOM      5  C3  PXY d   1      -2.140  -1.931  -2.278  0.00  0.00     0.003 A 
ATOM      6  C4  PXY d   1      -1.861  -3.174  -2.779  0.00  0.00    -0.082 A 
ATOM      7  C5  PXY d   1      -1.683  -3.332  -4.108  0.00  0.00     0.003 A 
ATOM      8  C6  PXY d   1      -1.790  -2.223  -4.943  0.00  0.00     0.003 A 
ENDROOT
TORSDOF 0
ENDMDL
