MODEL 1
REMARK minimizedAffinity -2.77893496
REMARK minimizedRMSD -1
REMARK  3 active torsions:
REMARK  status: ('A' for Active; 'I' for Inactive)
REMARK    1  A    between atoms: C3'_2  and  C2'_3 
REMARK    2  A    between atoms: C2'_3  and  C1'_4 
REMARK    3  A    between atoms: C1'_4  and  C1_5 
ROOT
ATOM      1  C1  N4B d   1      -2.689   1.993  -3.431  0.00  0.00    -0.075 A 
ATOM      2  C2  N4B d   1      -3.788   1.110  -3.516  0.00  0.00     0.002 A 
ATOM      3  C3  N4B d   1      -5.069   1.601  -3.471  0.00  0.00     0.002 A 
ATOM      4  C4  N4B d   1      -5.276   2.965  -3.324  0.00  0.00    -0.004 A 
ATOM      5  C5  N4B d   1      -4.210   3.814  -3.269  0.00  0.00     0.002 A 
ATOM      6  C6  N4B d   1      -2.916   3.334  -3.316  0.00  0.00     0.002 A 
ENDROOT
BRANCH   1   7
ATOM      7  C1' N4B d   1      -1.271   1.495  -3.389  0.00  0.00     0.057 C 
BRANCH   7   8
ATOM      8  C2' N4B d   1      -0.329   2.628  -3.786  0.00  0.00     0.009 C 
BRANCH   8   9
ATOM      9  C3' N4B d   1       0.975   2.582  -3.009  0.00  0.00     0.004 C 
ATOM     10  C4' N4B d   1       1.710   3.889  -3.029  0.00  0.00     0.003 C 
ENDBRANCH   8   9
ENDBRANCH   7   8
ENDBRANCH   1   7
TORSDOF 3
ENDMDL
