MODEL 1
REMARK minimizedAffinity 11.796773
REMARK minimizedRMSD -1
REMARK  3 active torsions:
REMARK  status: ('A' for Active; 'I' for Inactive)
REMARK    1  A    between atoms: C3'_2  and  C2'_3 
REMARK    2  A    between atoms: C2'_3  and  C1'_4 
REMARK    3  A    between atoms: C1'_4  and  C1_5 
ROOT
ATOM      1  C1  N4B d   1       3.849  -3.959  -4.859  0.00  0.00    -0.075 A 
ATOM      2  C2  N4B d   1       4.917  -3.242  -5.444  0.00  0.00     0.002 A 
ATOM      3  C3  N4B d   1       5.975  -3.919  -5.998  0.00  0.00     0.002 A 
ATOM      4  C4  N4B d   1       5.998  -5.305  -5.963  0.00  0.00    -0.004 A 
ATOM      5  C5  N4B d   1       4.951  -5.990  -5.419  0.00  0.00     0.002 A 
ATOM      6  C6  N4B d   1       3.878  -5.323  -4.862  0.00  0.00     0.002 A 
ENDROOT
BRANCH   1   7
ATOM      7  C1' N4B d   1       2.711  -3.262  -4.164  0.00  0.00     0.057 C 
BRANCH   7   8
ATOM      8  C2' N4B d   1       2.815  -1.760  -4.417  0.00  0.00     0.009 C 
BRANCH   8   9
ATOM      9  C3' N4B d   1       1.744  -0.984  -3.671  0.00  0.00     0.004 C 
ATOM     10  C4' N4B d   1       1.095  -1.787  -2.583  0.00  0.00     0.003 C 
ENDBRANCH   8   9
ENDBRANCH   7   8
ENDBRANCH   1   7
TORSDOF 3
ENDMDL
