MODEL 1
REMARK minimizedAffinity 8.48022652
REMARK minimizedRMSD -1
REMARK  3 active torsions:
REMARK  status: ('A' for Active; 'I' for Inactive)
REMARK    1  A    between atoms: C3'_2  and  C2'_3 
REMARK    2  A    between atoms: C2'_3  and  C1'_4 
REMARK    3  A    between atoms: C1'_4  and  C1_5 
ROOT
ATOM      1  C1  N4B d   1       2.198  -4.831   1.124  0.00  0.00    -0.075 A 
ATOM      2  C2  N4B d   1       1.823  -3.617   0.507  0.00  0.00     0.002 A 
ATOM      3  C3  N4B d   1       0.906  -3.621  -0.514  0.00  0.00     0.002 A 
ATOM      4  C4  N4B d   1       0.366  -4.823  -0.948  0.00  0.00    -0.004 A 
ATOM      5  C5  N4B d   1       0.715  -5.988  -0.330  0.00  0.00     0.002 A 
ATOM      6  C6  N4B d   1       1.632  -5.999   0.701  0.00  0.00     0.002 A 
ENDROOT
BRANCH   1   7
ATOM      7  C1' N4B d   1       3.261  -4.887   2.187  0.00  0.00     0.057 C 
BRANCH   7   8
ATOM      8  C2' N4B d   1       3.672  -3.466   2.560  0.00  0.00     0.009 C 
BRANCH   8   9
ATOM      9  C3' N4B d   1       5.130  -3.192   2.235  0.00  0.00     0.004 C 
ATOM     10  C4' N4B d   1       5.881  -4.430   1.846  0.00  0.00     0.003 C 
ENDBRANCH   8   9
ENDBRANCH   7   8
ENDBRANCH   1   7
TORSDOF 3
ENDMDL
