MODEL 1
REMARK minimizedAffinity 12.9769611
REMARK minimizedRMSD -1
REMARK  3 active torsions:
REMARK  status: ('A' for Active; 'I' for Inactive)
REMARK    1  A    between atoms: C3'_2  and  C2'_3 
REMARK    2  A    between atoms: C2'_3  and  C1'_4 
REMARK    3  A    between atoms: C1'_4  and  C1_5 
ROOT
ATOM      1  C1  N4B d   1       2.418  -3.967   1.128  0.00  0.00    -0.075 A 
ATOM      2  C2  N4B d   1       2.992  -5.130   1.687  0.00  0.00     0.002 A 
ATOM      3  C3  N4B d   1       4.226  -5.067   2.286  0.00  0.00     0.002 A 
ATOM      4  C4  N4B d   1       4.910  -3.861   2.322  0.00  0.00    -0.004 A 
ATOM      5  C5  N4B d   1       4.338  -2.737   1.803  0.00  0.00     0.002 A 
ATOM      6  C6  N4B d   1       3.096  -2.785   1.201  0.00  0.00     0.002 A 
ENDROOT
BRANCH   1   7
ATOM      7  C1' N4B d   1       1.110  -4.004   0.386  0.00  0.00     0.057 C 
BRANCH   7   8
ATOM      8  C2' N4B d   1       0.726  -2.586  -0.023  0.00  0.00     0.009 C 
BRANCH   8   9
ATOM      9  C3' N4B d   1      -0.569  -2.136   0.632  0.00  0.00     0.004 C 
ATOM     10  C4' N4B d   1      -0.537  -0.697   1.053  0.00  0.00     0.003 C 
ENDBRANCH   8   9
ENDBRANCH   7   8
ENDBRANCH   1   7
TORSDOF 3
ENDMDL
