MODEL 1
REMARK minimizedAffinity 2.47767043
REMARK minimizedRMSD -1
REMARK  3 active torsions:
REMARK  status: ('A' for Active; 'I' for Inactive)
REMARK    1  A    between atoms: C3'_2  and  C2'_3 
REMARK    2  A    between atoms: C2'_3  and  C1'_4 
REMARK    3  A    between atoms: C1'_4  and  C1_5 
ROOT
ATOM      1  C1  N4B d   1      -0.640  -3.045  -0.836  0.00  0.00    -0.075 A 
ATOM      2  C2  N4B d   1      -1.727  -2.967   0.063  0.00  0.00     0.002 A 
ATOM      3  C3  N4B d   1      -2.188  -4.102   0.683  0.00  0.00     0.002 A 
ATOM      4  C4  N4B d   1      -1.593  -5.324   0.407  0.00  0.00    -0.004 A 
ATOM      5  C5  N4B d   1      -0.528  -5.387  -0.443  0.00  0.00     0.002 A 
ATOM      6  C6  N4B d   1      -0.051  -4.254  -1.070  0.00  0.00     0.002 A 
ENDROOT
BRANCH   1   7
ATOM      7  C1' N4B d   1      -0.156  -1.845  -1.603  0.00  0.00     0.057 C 
BRANCH   7   8
ATOM      8  C2' N4B d   1      -1.272  -0.806  -1.663  0.00  0.00     0.009 C 
BRANCH   8   9
ATOM      9  C3' N4B d   1      -0.899   0.377  -2.541  0.00  0.00     0.004 C 
ATOM     10  C4' N4B d   1      -2.044   1.321  -2.760  0.00  0.00     0.003 C 
ENDBRANCH   8   9
ENDBRANCH   7   8
ENDBRANCH   1   7
TORSDOF 3
ENDMDL
