MODEL 1
REMARK minimizedAffinity 4.62982273
REMARK minimizedRMSD -1
REMARK  3 active torsions:
REMARK  status: ('A' for Active; 'I' for Inactive)
REMARK    1  A    between atoms: C3'_2  and  C2'_3 
REMARK    2  A    between atoms: C2'_3  and  C1'_4 
REMARK    3  A    between atoms: C1'_4  and  C1_5 
ROOT
ATOM      1  C1  N4B d   1      -5.276  -1.294  -3.639  0.00  0.00    -0.075 A 
ATOM      2  C2  N4B d   1      -5.392  -0.725  -4.926  0.00  0.00     0.002 A 
ATOM      3  C3  N4B d   1      -5.760  -1.508  -5.992  0.00  0.00     0.002 A 
ATOM      4  C4  N4B d   1      -5.997  -2.861  -5.801  0.00  0.00    -0.004 A 
ATOM      5  C5  N4B d   1      -5.907  -3.398  -4.550  0.00  0.00     0.002 A 
ATOM      6  C6  N4B d   1      -5.542  -2.622  -3.468  0.00  0.00     0.002 A 
ENDROOT
BRANCH   1   7
ATOM      7  C1' N4B d   1      -4.793  -0.497  -2.458  0.00  0.00     0.057 C 
BRANCH   7   8
ATOM      8  C2' N4B d   1      -3.856   0.604  -2.946  0.00  0.00     0.009 C 
BRANCH   8   9
ATOM      9  C3' N4B d   1      -4.139   1.933  -2.268  0.00  0.00     0.004 C 
ATOM     10  C4' N4B d   1      -4.519   3.011  -3.240  0.00  0.00     0.003 C 
ENDBRANCH   8   9
ENDBRANCH   7   8
ENDBRANCH   1   7
TORSDOF 3
ENDMDL
