MODEL 1
REMARK minimizedAffinity 3.86174035
REMARK minimizedRMSD -1
REMARK  3 active torsions:
REMARK  status: ('A' for Active; 'I' for Inactive)
REMARK    1  A    between atoms: C3'_2  and  C2'_3 
REMARK    2  A    between atoms: C2'_3  and  C1'_4 
REMARK    3  A    between atoms: C1'_4  and  C1_5 
ROOT
ATOM      1  C1  N4B d   1       0.163   3.887   0.095  0.00  0.00    -0.075 A 
ATOM      2  C2  N4B d   1       1.124   4.921   0.037  0.00  0.00     0.002 A 
ATOM      3  C3  N4B d   1       0.951   5.970  -0.832  0.00  0.00     0.002 A 
ATOM      4  C4  N4B d   1      -0.160   5.998  -1.661  0.00  0.00    -0.004 A 
ATOM      5  C5  N4B d   1      -1.096   5.009  -1.580  0.00  0.00     0.002 A 
ATOM      6  C6  N4B d   1      -0.938   3.950  -0.709  0.00  0.00     0.002 A 
ENDROOT
BRANCH   1   7
ATOM      7  C1' N4B d   1       0.352   2.676   0.967  0.00  0.00     0.057 C 
BRANCH   7   8
ATOM      8  C2' N4B d   1      -0.204   2.969   2.358  0.00  0.00     0.009 C 
BRANCH   8   9
ATOM      9  C3' N4B d   1       0.560   2.229   3.442  0.00  0.00     0.004 C 
ATOM     10  C4' N4B d   1      -0.252   1.145   4.088  0.00  0.00     0.003 C 
ENDBRANCH   8   9
ENDBRANCH   7   8
ENDBRANCH   1   7
TORSDOF 3
ENDMDL
