MODEL 1
REMARK minimizedAffinity 6.22811937
REMARK minimizedRMSD -1
REMARK  3 active torsions:
REMARK  status: ('A' for Active; 'I' for Inactive)
REMARK    1  A    between atoms: C3'_2  and  C2'_3 
REMARK    2  A    between atoms: C2'_3  and  C1'_4 
REMARK    3  A    between atoms: C1'_4  and  C1_5 
ROOT
ATOM      1  C1  N4B d   1       4.670  -3.355  -1.998  0.00  0.00    -0.075 A 
ATOM      2  C2  N4B d   1       5.751  -3.765  -1.187  0.00  0.00     0.002 A 
ATOM      3  C3  N4B d   1       5.998  -3.124   0.002  0.00  0.00     0.002 A 
ATOM      4  C4  N4B d   1       5.194  -2.063   0.390  0.00  0.00    -0.004 A 
ATOM      5  C5  N4B d   1       4.137  -1.689  -0.387  0.00  0.00     0.002 A 
ATOM      6  C6  N4B d   1       3.874  -2.327  -1.583  0.00  0.00     0.002 A 
ENDROOT
BRANCH   1   7
ATOM      7  C1' N4B d   1       4.412  -3.969  -3.347  0.00  0.00     0.057 C 
BRANCH   7   8
ATOM      8  C2' N4B d   1       3.034  -4.623  -3.344  0.00  0.00     0.009 C 
BRANCH   8   9
ATOM      9  C3' N4B d   1       3.007  -5.887  -2.501  0.00  0.00     0.004 C 
ATOM     10  C4' N4B d   1       1.820  -5.948  -1.585  0.00  0.00     0.003 C 
ENDBRANCH   8   9
ENDBRANCH   7   8
ENDBRANCH   1   7
TORSDOF 3
ENDMDL
