MODEL 1
REMARK minimizedAffinity -0.609747589
REMARK minimizedRMSD -1
REMARK  0 active torsions:
REMARK  status: ('A' for Active; 'I' for Inactive)
ROOT
ATOM      1  C   UNL d   1       1.164   0.421  -0.008  0.00  0.00     0.020 A 
ATOM      2  C1  UNL d   1       0.298   0.816  -1.027  0.00  0.00     0.020 A 
ATOM      3  C2  UNL d   1      -1.021   0.357  -1.040  0.00  0.00     0.034 A 
ATOM      4  C3  UNL d   1      -1.478  -0.499  -0.032  0.00  0.00     0.017 A 
ATOM      5  C4  UNL d   1      -0.608  -0.895   0.991  0.00  0.00     0.017 A 
ATOM      6  C5  UNL d   1       0.712  -0.433   0.998  0.00  0.00     0.034 A 
ATOM      7 Cl   UNL d   1      -1.099  -1.950   2.269  0.00  0.00    -0.070 Cl
ATOM      8 Cl1  UNL d   1      -3.121  -1.028  -0.110  0.00  0.00    -0.070 Cl
ENDROOT
TORSDOF 0
ENDMDL
