MODEL 1
REMARK minimizedAffinity -0.917068899
REMARK minimizedRMSD -1
REMARK  0 active torsions:
REMARK  status: ('A' for Active; 'I' for Inactive)
ROOT
ATOM      1  C   UNL d   1       0.633   0.043  -0.004  0.00  0.00     0.020 A 
ATOM      2  C1  UNL d   1       1.292  -0.700   0.975  0.00  0.00     0.020 A 
ATOM      3  C2  UNL d   1       0.558  -1.467   1.881  0.00  0.00     0.034 A 
ATOM      4  C3  UNL d   1      -0.840  -1.494   1.811  0.00  0.00     0.017 A 
ATOM      5  C4  UNL d   1      -1.501  -0.748   0.828  0.00  0.00     0.017 A 
ATOM      6  C5  UNL d   1      -0.760   0.018  -0.077  0.00  0.00     0.034 A 
ATOM      7 Cl   UNL d   1      -3.222  -0.731   0.679  0.00  0.00    -0.070 Cl
ATOM      8 Cl1  UNL d   1      -1.684  -2.465   2.964  0.00  0.00    -0.070 Cl
ENDROOT
TORSDOF 0
ENDMDL
