MODEL 1
REMARK minimizedAffinity -0.982494891
REMARK minimizedRMSD -1
REMARK  0 active torsions:
REMARK  status: ('A' for Active; 'I' for Inactive)
ROOT
ATOM      1  C   UNL d   1       0.250   0.468   0.336  0.00  0.00     0.020 A 
ATOM      2  C1  UNL d   1       1.053   0.367  -0.800  0.00  0.00     0.020 A 
ATOM      3  C2  UNL d   1       2.097   1.273  -0.999  0.00  0.00     0.034 A 
ATOM      4  C3  UNL d   1       2.342   2.283  -0.061  0.00  0.00     0.017 A 
ATOM      5  C4  UNL d   1       1.536   2.382   1.079  0.00  0.00     0.017 A 
ATOM      6  C5  UNL d   1       0.492   1.473   1.274  0.00  0.00     0.034 A 
ATOM      7 Cl   UNL d   1       1.776   3.601   2.281  0.00  0.00    -0.070 Cl
ATOM      8 Cl1  UNL d   1       3.650   3.367  -0.371  0.00  0.00    -0.070 Cl
ENDROOT
TORSDOF 0
ENDMDL
