MODEL 1
REMARK minimizedAffinity -2.9816637
REMARK minimizedRMSD -1
REMARK  0 active torsions:
REMARK  status: ('A' for Active; 'I' for Inactive)
ROOT
ATOM      1  C   UNL d   1       2.655   3.068   2.797  0.00  0.00     0.020 A 
ATOM      2  C1  UNL d   1       2.293   1.723   2.735  0.00  0.00     0.020 A 
ATOM      3  C2  UNL d   1       2.353   1.039   1.519  0.00  0.00     0.034 A 
ATOM      4  C3  UNL d   1       2.776   1.700   0.360  0.00  0.00     0.017 A 
ATOM      5  C4  UNL d   1       3.139   3.050   0.423  0.00  0.00     0.017 A 
ATOM      6  C5  UNL d   1       3.077   3.730   1.643  0.00  0.00     0.034 A 
ATOM      7 Cl   UNL d   1       3.671   3.932  -0.965  0.00  0.00    -0.070 Cl
ATOM      8 Cl1  UNL d   1       2.826   0.792  -1.110  0.00  0.00    -0.070 Cl
ENDROOT
TORSDOF 0
ENDMDL
