MODEL 1
REMARK minimizedAffinity -1.38613498
REMARK minimizedRMSD -1
REMARK  0 active torsions:
REMARK  status: ('A' for Active; 'I' for Inactive)
ROOT
ATOM      1  C   UNL d   1       2.725   3.785   1.894  0.00  0.00     0.020 A 
ATOM      2  C1  UNL d   1       1.777   2.961   2.499  0.00  0.00     0.020 A 
ATOM      3  C2  UNL d   1       1.397   1.765   1.886  0.00  0.00     0.034 A 
ATOM      4  C3  UNL d   1       1.966   1.389   0.664  0.00  0.00     0.017 A 
ATOM      5  C4  UNL d   1       2.918   2.217   0.057  0.00  0.00     0.017 A 
ATOM      6  C5  UNL d   1       3.295   3.413   0.675  0.00  0.00     0.034 A 
ATOM      7 Cl   UNL d   1       3.665   1.820  -1.451  0.00  0.00    -0.070 Cl
ATOM      8 Cl1  UNL d   1       1.451  -0.103  -0.038  0.00  0.00    -0.070 Cl
ENDROOT
TORSDOF 0
ENDMDL
