MODEL 1
REMARK minimizedAffinity -0.371883482
REMARK minimizedRMSD -1
REMARK  0 active torsions:
REMARK  status: ('A' for Active; 'I' for Inactive)
ROOT
ATOM      1  C   UNL d   1       0.314   0.117   0.773  0.00  0.00     0.020 A 
ATOM      2  C1  UNL d   1      -0.830  -0.631   1.048  0.00  0.00     0.020 A 
ATOM      3  C2  UNL d   1      -1.585  -1.164   0.001  0.00  0.00     0.034 A 
ATOM      4  C3  UNL d   1      -1.197  -0.949  -1.327  0.00  0.00     0.017 A 
ATOM      5  C4  UNL d   1      -0.048  -0.198  -1.602  0.00  0.00     0.017 A 
ATOM      6  C5  UNL d   1       0.704   0.333  -0.549  0.00  0.00     0.034 A 
ATOM      7 Cl   UNL d   1       0.494   0.110  -3.214  0.00  0.00    -0.070 Cl
ATOM      8 Cl1  UNL d   1      -2.177  -1.637  -2.572  0.00  0.00    -0.070 Cl
ENDROOT
TORSDOF 0
ENDMDL
