MODEL 1
REMARK minimizedAffinity 2.18551612
REMARK minimizedRMSD -1
REMARK  0 active torsions:
REMARK  status: ('A' for Active; 'I' for Inactive)
ROOT
ATOM      1  C   UNL d   1       0.423  -1.377   2.046  0.00  0.00     0.020 A 
ATOM      2  C1  UNL d   1       1.386  -0.626   1.373  0.00  0.00     0.020 A 
ATOM      3  C2  UNL d   1       1.087  -0.058   0.132  0.00  0.00     0.034 A 
ATOM      4  C3  UNL d   1      -0.178  -0.241  -0.439  0.00  0.00     0.017 A 
ATOM      5  C4  UNL d   1      -1.144  -0.995   0.237  0.00  0.00     0.017 A 
ATOM      6  C5  UNL d   1      -0.839  -1.561   1.479  0.00  0.00     0.034 A 
ATOM      7 Cl   UNL d   1      -2.726  -1.264  -0.404  0.00  0.00    -0.070 Cl
ATOM      8 Cl1  UNL d   1      -0.478   0.489  -1.976  0.00  0.00    -0.070 Cl
ENDROOT
TORSDOF 0
ENDMDL
