MODEL 1
REMARK minimizedAffinity -0.851420641
REMARK minimizedRMSD -1
REMARK  0 active torsions:
REMARK  status: ('A' for Active; 'I' for Inactive)
ROOT
ATOM      1  C   UNL d   1      -3.012  -1.080  -0.452  0.00  0.00     0.020 A 
ATOM      2  C1  UNL d   1      -2.934  -1.879   0.689  0.00  0.00     0.020 A 
ATOM      3  C2  UNL d   1      -1.733  -1.972   1.395  0.00  0.00     0.034 A 
ATOM      4  C3  UNL d   1      -0.605  -1.266   0.962  0.00  0.00     0.017 A 
ATOM      5  C4  UNL d   1      -0.684  -0.464  -0.183  0.00  0.00     0.017 A 
ATOM      6  C5  UNL d   1      -1.889  -0.374  -0.886  0.00  0.00     0.034 A 
ATOM      7 Cl   UNL d   1       0.665   0.437  -0.779  0.00  0.00    -0.070 Cl
ATOM      8 Cl1  UNL d   1       0.847  -1.428   1.883  0.00  0.00    -0.070 Cl
ENDROOT
TORSDOF 0
ENDMDL
