MODEL 1
REMARK minimizedAffinity 0.51429379
REMARK minimizedRMSD -1
REMARK  0 active torsions:
REMARK  status: ('A' for Active; 'I' for Inactive)
ROOT
ATOM      1  C   UNL d   1       2.652   2.246   2.235  0.00  0.00     0.020 A 
ATOM      2  C1  UNL d   1       3.148   2.699   1.013  0.00  0.00     0.020 A 
ATOM      3  C2  UNL d   1       2.678   2.144  -0.179  0.00  0.00     0.034 A 
ATOM      4  C3  UNL d   1       1.710   1.133  -0.152  0.00  0.00     0.017 A 
ATOM      5  C4  UNL d   1       1.213   0.680   1.075  0.00  0.00     0.017 A 
ATOM      6  C5  UNL d   1       1.687   1.240   2.266  0.00  0.00     0.034 A 
ATOM      7 Cl   UNL d   1       0.017  -0.563   1.189  0.00  0.00    -0.070 Cl
ATOM      8 Cl1  UNL d   1       1.174   0.493  -1.665  0.00  0.00    -0.070 Cl
ENDROOT
TORSDOF 0
ENDMDL
