MODEL 1
REMARK minimizedAffinity -2.87889576
REMARK minimizedRMSD -1
REMARK  0 active torsions:
REMARK  status: ('A' for Active; 'I' for Inactive)
ROOT
ATOM      1  C   UNL d   1       4.203   4.117  -0.702  0.00  0.00     0.020 A 
ATOM      2  C1  UNL d   1       4.100   5.127   0.253  0.00  0.00     0.020 A 
ATOM      3  C2  UNL d   1       3.398   4.899   1.438  0.00  0.00     0.034 A 
ATOM      4  C3  UNL d   1       2.795   3.657   1.671  0.00  0.00     0.017 A 
ATOM      5  C4  UNL d   1       2.899   2.644   0.712  0.00  0.00     0.017 A 
ATOM      6  C5  UNL d   1       3.603   2.878  -0.473  0.00  0.00     0.034 A 
ATOM      7 Cl   UNL d   1       2.182   1.086   0.928  0.00  0.00    -0.070 Cl
ATOM      8 Cl1  UNL d   1       1.942   3.445   3.159  0.00  0.00    -0.070 Cl
ENDROOT
TORSDOF 0
ENDMDL
