MODEL 1
REMARK minimizedAffinity -3.20267105
REMARK minimizedRMSD -1
REMARK  0 active torsions:
REMARK  status: ('A' for Active; 'I' for Inactive)
ROOT
ATOM      1  C   UNL d   1       0.262   0.342  -0.692  0.00  0.00     0.020 A 
ATOM      2  C1  UNL d   1      -0.698   0.317  -1.703  0.00  0.00     0.020 A 
ATOM      3  C2  UNL d   1      -1.938  -0.282  -1.474  0.00  0.00     0.034 A 
ATOM      4  C3  UNL d   1      -2.222  -0.857  -0.230  0.00  0.00     0.017 A 
ATOM      5  C4  UNL d   1      -1.258  -0.831   0.784  0.00  0.00     0.017 A 
ATOM      6  C5  UNL d   1      -0.018  -0.231   0.549  0.00  0.00     0.034 A 
ATOM      7 Cl   UNL d   1      -1.536  -1.521   2.345  0.00  0.00    -0.070 Cl
ATOM      8 Cl1  UNL d   1      -3.777  -1.580  -0.015  0.00  0.00    -0.070 Cl
ENDROOT
TORSDOF 0
ENDMDL
