MODEL 1
REMARK minimizedAffinity -3.94625759
REMARK minimizedRMSD -1
REMARK  0 active torsions:
REMARK  status: ('A' for Active; 'I' for Inactive)
ROOT
ATOM      1  C   UNL d   1      -2.692  -0.372   0.069  0.00  0.00     0.020 A 
ATOM      2  C1  UNL d   1      -2.380   0.275  -1.127  0.00  0.00     0.020 A 
ATOM      3  C2  UNL d   1      -1.054   0.343  -1.559  0.00  0.00     0.034 A 
ATOM      4  C3  UNL d   1      -0.035  -0.238  -0.796  0.00  0.00     0.017 A 
ATOM      5  C4  UNL d   1      -0.348  -0.887   0.404  0.00  0.00     0.017 A 
ATOM      6  C5  UNL d   1      -1.678  -0.952   0.832  0.00  0.00     0.034 A 
ATOM      7 Cl   UNL d   1       0.855  -1.627   1.400  0.00  0.00    -0.070 Cl
ATOM      8 Cl1  UNL d   1       1.583  -0.116  -1.391  0.00  0.00    -0.070 Cl
ENDROOT
TORSDOF 0
ENDMDL
