MODEL 1
REMARK minimizedAffinity -5.58667612
REMARK minimizedRMSD -1
REMARK  0 active torsions:
REMARK  status: ('A' for Active; 'I' for Inactive)
ROOT
ATOM      1  C   UNL d   1      -3.507  -1.967   0.425  0.00  0.00     0.020 A 
ATOM      2  C1  UNL d   1      -2.502  -2.627   1.131  0.00  0.00     0.020 A 
ATOM      3  C2  UNL d   1      -1.187  -2.162   1.072  0.00  0.00     0.034 A 
ATOM      4  C3  UNL d   1      -0.873  -1.033   0.307  0.00  0.00     0.017 A 
ATOM      5  C4  UNL d   1      -1.882  -0.371  -0.401  0.00  0.00     0.017 A 
ATOM      6  C5  UNL d   1      -3.198  -0.841  -0.339  0.00  0.00     0.034 A 
ATOM      7 Cl   UNL d   1      -1.572   1.028  -1.367  0.00  0.00    -0.070 Cl
ATOM      8 Cl1  UNL d   1       0.775  -0.513   0.280  0.00  0.00    -0.070 Cl
ENDROOT
TORSDOF 0
ENDMDL
