MODEL 1
REMARK minimizedAffinity -1.76138043
REMARK minimizedRMSD -1
REMARK  0 active torsions:
REMARK  status: ('A' for Active; 'I' for Inactive)
ROOT
ATOM      1  C   UNL d   1      -2.586  -0.280  -1.218  0.00  0.00     0.020 A 
ATOM      2  C1  UNL d   1      -2.852  -1.513  -0.625  0.00  0.00     0.020 A 
ATOM      3  C2  UNL d   1      -1.950  -2.056   0.292  0.00  0.00     0.034 A 
ATOM      4  C3  UNL d   1      -0.777  -1.366   0.619  0.00  0.00     0.017 A 
ATOM      5  C4  UNL d   1      -0.511  -0.128   0.023  0.00  0.00     0.017 A 
ATOM      6  C5  UNL d   1      -1.418   0.412  -0.895  0.00  0.00     0.034 A 
ATOM      7 Cl   UNL d   1       0.915   0.784   0.376  0.00  0.00    -0.070 Cl
ATOM      8 Cl1  UNL d   1       0.294  -2.096   1.761  0.00  0.00    -0.070 Cl
ENDROOT
TORSDOF 0
ENDMDL
