MODEL 1
REMARK minimizedAffinity -1.15928435
REMARK minimizedRMSD -1
REMARK  0 active torsions:
REMARK  status: ('A' for Active; 'I' for Inactive)
ROOT
ATOM      1  C   UNL d   1       0.204  -1.852   1.388  0.00  0.00     0.020 A 
ATOM      2  C1  UNL d   1       1.086  -0.962   0.775  0.00  0.00     0.020 A 
ATOM      3  C2  UNL d   1       0.690  -0.262  -0.366  0.00  0.00     0.034 A 
ATOM      4  C3  UNL d   1      -0.591  -0.449  -0.898  0.00  0.00     0.017 A 
ATOM      5  C4  UNL d   1      -1.476  -1.342  -0.282  0.00  0.00     0.017 A 
ATOM      6  C5  UNL d   1      -1.074  -2.041   0.861  0.00  0.00     0.034 A 
ATOM      7 Cl   UNL d   1      -3.072  -1.626  -0.879  0.00  0.00    -0.070 Cl
ATOM      8 Cl1  UNL d   1      -1.014   0.451  -2.311  0.00  0.00    -0.070 Cl
ENDROOT
TORSDOF 0
ENDMDL
