MODEL 1
REMARK minimizedAffinity -1.93942952
REMARK minimizedRMSD -1
REMARK  0 active torsions:
REMARK  status: ('A' for Active; 'I' for Inactive)
ROOT
ATOM      1  C   UNL d   1      -0.381  -0.978   1.893  0.00  0.00     0.020 A 
ATOM      2  C1  UNL d   1       0.731  -0.374   1.307  0.00  0.00     0.020 A 
ATOM      3  C2  UNL d   1       0.670   0.065  -0.017  0.00  0.00     0.034 A 
ATOM      4  C3  UNL d   1      -0.504  -0.100  -0.760  0.00  0.00     0.017 A 
ATOM      5  C4  UNL d   1      -1.620  -0.707  -0.172  0.00  0.00     0.017 A 
ATOM      6  C5  UNL d   1      -1.554  -1.144   1.155  0.00  0.00     0.034 A 
ATOM      7 Cl   UNL d   1      -3.104  -0.945  -1.025  0.00  0.00    -0.070 Cl
ATOM      8 Cl1  UNL d   1      -0.508   0.467  -2.393  0.00  0.00    -0.070 Cl
ENDROOT
TORSDOF 0
ENDMDL
