MODEL 1
REMARK minimizedAffinity -3.44979978
REMARK minimizedRMSD -1
REMARK  0 active torsions:
REMARK  status: ('A' for Active; 'I' for Inactive)
ROOT
ATOM      1  C   UNL d   1       0.824   0.240  -0.379  0.00  0.00     0.020 A 
ATOM      2  C1  UNL d   1      -0.142   0.708  -1.269  0.00  0.00     0.020 A 
ATOM      3  C2  UNL d   1      -1.467   0.285  -1.147  0.00  0.00     0.034 A 
ATOM      4  C3  UNL d   1      -1.830  -0.609  -0.133  0.00  0.00     0.017 A 
ATOM      5  C4  UNL d   1      -0.860  -1.079   0.759  0.00  0.00     0.017 A 
ATOM      6  C5  UNL d   1       0.466  -0.652   0.633  0.00  0.00     0.034 A 
ATOM      7 Cl   UNL d   1      -1.232  -2.184   2.035  0.00  0.00    -0.070 Cl
ATOM      8 Cl1  UNL d   1      -3.487  -1.090  -0.042  0.00  0.00    -0.070 Cl
ENDROOT
TORSDOF 0
ENDMDL
