MODEL 1
REMARK minimizedAffinity -5.34088087
REMARK minimizedRMSD -1
REMARK  0 active torsions:
REMARK  status: ('A' for Active; 'I' for Inactive)
ROOT
ATOM      1  C   UNL d   1      -3.012  -0.418  -1.113  0.00  0.00     0.020 A 
ATOM      2  C1  UNL d   1      -3.533  -1.464  -0.353  0.00  0.00     0.020 A 
ATOM      3  C2  UNL d   1      -2.753  -2.063   0.638  0.00  0.00     0.034 A 
ATOM      4  C3  UNL d   1      -1.447  -1.617   0.872  0.00  0.00     0.017 A 
ATOM      5  C4  UNL d   1      -0.925  -0.567   0.108  0.00  0.00     0.017 A 
ATOM      6  C5  UNL d   1      -1.711   0.030  -0.883  0.00  0.00     0.034 A 
ATOM      7 Cl   UNL d   1       0.678   0.039   0.338  0.00  0.00    -0.070 Cl
ATOM      8 Cl1  UNL d   1      -0.539  -2.404   2.113  0.00  0.00    -0.070 Cl
ENDROOT
TORSDOF 0
ENDMDL
