MODEL 1
REMARK minimizedAffinity -5.22594786
REMARK minimizedRMSD -1
REMARK  0 active torsions:
REMARK  status: ('A' for Active; 'I' for Inactive)
ROOT
ATOM      1  C   UNL d   1      -1.348   3.894   0.998  0.00  0.00     0.023 A 
ATOM      2  C1  UNL d   1      -1.217   2.905   1.972  0.00  0.00     0.003 A 
ATOM      3  C2  UNL d   1      -0.646   1.673   1.645  0.00  0.00     0.048 A 
ATOM      4  C3  UNL d   1      -0.208   1.438   0.342  0.00  0.00     0.023 A 
ATOM      5  C4  UNL d   1      -0.336   2.425  -0.635  0.00  0.00     0.048 A 
ATOM      6  C5  UNL d   1      -0.908   3.655  -0.304  0.00  0.00     0.003 A 
ATOM      7  I   UNL d   1       0.642  -0.395  -0.147  0.00  0.00    -0.146 I 
ENDROOT
TORSDOF 0
ENDMDL
