MODEL 1
REMARK minimizedAffinity -2.16235638
REMARK minimizedRMSD -1
REMARK  0 active torsions:
REMARK  status: ('A' for Active; 'I' for Inactive)
ROOT
ATOM      1  C   UNL d   1       0.073   1.275   0.143  0.00  0.00     0.023 A 
ATOM      2  C1  UNL d   1       0.290   0.087   0.841  0.00  0.00     0.003 A 
ATOM      3  C2  UNL d   1       0.148  -1.141   0.192  0.00  0.00     0.048 A 
ATOM      4  C3  UNL d   1      -0.211  -1.174  -1.155  0.00  0.00     0.023 A 
ATOM      5  C4  UNL d   1      -0.428   0.012  -1.857  0.00  0.00     0.048 A 
ATOM      6  C5  UNL d   1      -0.286   1.238  -1.204  0.00  0.00     0.003 A 
ATOM      7  I   UNL d   1      -0.423  -3.001  -2.123  0.00  0.00    -0.146 I 
ENDROOT
TORSDOF 0
ENDMDL
