MODEL 1
REMARK minimizedAffinity 7.36447763
REMARK minimizedRMSD -1
REMARK  0 active torsions:
REMARK  status: ('A' for Active; 'I' for Inactive)
ROOT
ATOM      1  C   UNL d   1       4.526  -0.786   1.603  0.00  0.00     0.023 A 
ATOM      2  C1  UNL d   1       4.164  -0.779   0.256  0.00  0.00     0.003 A 
ATOM      3  C2  UNL d   1       2.873  -0.402  -0.120  0.00  0.00     0.048 A 
ATOM      4  C3  UNL d   1       1.948  -0.034   0.856  0.00  0.00     0.023 A 
ATOM      5  C4  UNL d   1       2.306  -0.039   2.206  0.00  0.00     0.048 A 
ATOM      6  C5  UNL d   1       3.598  -0.417   2.577  0.00  0.00     0.003 A 
ATOM      7  I   UNL d   1       0.026   0.527   0.299  0.00  0.00    -0.146 I 
ENDROOT
TORSDOF 0
ENDMDL
