MODEL 1
REMARK minimizedAffinity -1.07441568
REMARK minimizedRMSD -1
REMARK  0 active torsions:
REMARK  status: ('A' for Active; 'I' for Inactive)
ROOT
ATOM      1  C   UNL d   1      -0.880   2.638   1.481  0.00  0.00     0.023 A 
ATOM      2  C1  UNL d   1      -1.353   2.389   0.193  0.00  0.00     0.003 A 
ATOM      3  C2  UNL d   1      -1.043   1.187  -0.446  0.00  0.00     0.048 A 
ATOM      4  C3  UNL d   1      -0.260   0.238   0.210  0.00  0.00     0.023 A 
ATOM      5  C4  UNL d   1       0.215   0.482   1.499  0.00  0.00     0.048 A 
ATOM      6  C5  UNL d   1      -0.097   1.686   2.134  0.00  0.00     0.003 A 
ATOM      7  I   UNL d   1       0.204  -1.553  -0.739  0.00  0.00    -0.146 I 
ENDROOT
TORSDOF 0
ENDMDL
