MODEL 1
REMARK minimizedAffinity -1.97329056
REMARK minimizedRMSD -1
REMARK  0 active torsions:
REMARK  status: ('A' for Active; 'I' for Inactive)
ROOT
ATOM      1  C   UNL d   1      -1.998   2.264   0.804  0.00  0.00     0.023 A 
ATOM      2  C1  UNL d   1      -1.609   1.860  -0.474  0.00  0.00     0.003 A 
ATOM      3  C2  UNL d   1      -0.508   1.016  -0.635  0.00  0.00     0.048 A 
ATOM      4  C3  UNL d   1       0.199   0.579   0.485  0.00  0.00     0.023 A 
ATOM      5  C4  UNL d   1      -0.188   0.981   1.765  0.00  0.00     0.048 A 
ATOM      6  C5  UNL d   1      -1.288   1.825   1.921  0.00  0.00     0.003 A 
ATOM      7  I   UNL d   1       1.838  -0.676   0.247  0.00  0.00    -0.146 I 
ENDROOT
TORSDOF 0
ENDMDL
