MODEL 1
REMARK minimizedAffinity -1.96334171
REMARK minimizedRMSD -1
REMARK  0 active torsions:
REMARK  status: ('A' for Active; 'I' for Inactive)
ROOT
ATOM      1  C   UNL d   1      -0.421  -5.415  -1.074  0.00  0.00     0.023 A 
ATOM      2  C1  UNL d   1       0.834  -5.723  -0.548  0.00  0.00     0.003 A 
ATOM      3  C2  UNL d   1       1.711  -4.699  -0.185  0.00  0.00     0.048 A 
ATOM      4  C3  UNL d   1       1.326  -3.369  -0.348  0.00  0.00     0.023 A 
ATOM      5  C4  UNL d   1       0.071  -3.056  -0.872  0.00  0.00     0.048 A 
ATOM      6  C5  UNL d   1      -0.802  -4.083  -1.235  0.00  0.00     0.003 A 
ATOM      7  I   UNL d   1       2.629  -1.843   0.193  0.00  0.00    -0.146 I 
ENDROOT
TORSDOF 0
ENDMDL
