MODEL 1
REMARK minimizedAffinity -1.80729949
REMARK minimizedRMSD -1
REMARK  0 active torsions:
REMARK  status: ('A' for Active; 'I' for Inactive)
ROOT
ATOM      1  C   UNL d   1      -1.923   2.193   0.357  0.00  0.00     0.023 A 
ATOM      2  C1  UNL d   1      -1.216   2.455   1.530  0.00  0.00     0.003 A 
ATOM      3  C2  UNL d   1      -0.095   1.689   1.858  0.00  0.00     0.048 A 
ATOM      4  C3  UNL d   1       0.314   0.664   1.007  0.00  0.00     0.023 A 
ATOM      5  C4  UNL d   1      -0.389   0.398  -0.170  0.00  0.00     0.048 A 
ATOM      6  C5  UNL d   1      -1.510   1.166  -0.492  0.00  0.00     0.003 A 
ATOM      7  I   UNL d   1       1.982  -0.477   1.492  0.00  0.00    -0.146 I 
ENDROOT
TORSDOF 0
ENDMDL
