MODEL 1
REMARK minimizedAffinity -2.33297586
REMARK minimizedRMSD -1
REMARK  0 active torsions:
REMARK  status: ('A' for Active; 'I' for Inactive)
ROOT
ATOM      1  C   UNL d   1       1.929  -4.086   0.057  0.00  0.00     0.023 A 
ATOM      2  C1  UNL d   1       1.147  -5.240   0.018  0.00  0.00     0.003 A 
ATOM      3  C2  UNL d   1      -0.059  -5.245  -0.685  0.00  0.00     0.048 A 
ATOM      4  C3  UNL d   1      -0.477  -4.091  -1.349  0.00  0.00     0.023 A 
ATOM      5  C4  UNL d   1       0.303  -2.934  -1.314  0.00  0.00     0.048 A 
ATOM      6  C5  UNL d   1       1.508  -2.934  -0.608  0.00  0.00     0.003 A 
ATOM      7  I   UNL d   1      -2.272  -4.095  -2.396  0.00  0.00    -0.146 I 
ENDROOT
TORSDOF 0
ENDMDL
