MODEL 1
REMARK minimizedAffinity 1.6632129
REMARK minimizedRMSD -1
REMARK  0 active torsions:
REMARK  status: ('A' for Active; 'I' for Inactive)
ROOT
ATOM      1  C1  DEN d   1       5.999  -1.824   4.064  0.00  0.00     0.130 A 
ATOM      2  C2  DEN d   1       5.993  -2.485   5.366  0.00  0.00    -0.031 A 
ATOM      3  C3  DEN d   1       4.683  -2.234   6.000  0.00  0.00     0.027 A 
ATOM      4  C4  DEN d   1       2.673  -0.896   5.094  0.00  0.00     0.027 A 
ATOM      5  C5  DEN d   1       2.210  -0.142   4.038  0.00  0.00    -0.003 A 
ATOM      6  C6  DEN d   1       2.984   0.131   2.941  0.00  0.00     0.001 A 
ATOM      7  C7  DEN d   1       4.247  -0.393   2.855  0.00  0.00     0.017 A 
ATOM      8  C8  DEN d   1       4.723  -1.148   3.918  0.00  0.00    -0.094 A 
ATOM      9  C9  DEN d   1       3.921  -1.422   5.013  0.00  0.00    -0.072 A 
ENDROOT
TORSDOF 0
ENDMDL
