MODEL 1
REMARK minimizedAffinity 9.01437378
REMARK minimizedRMSD -1
REMARK  0 active torsions:
REMARK  status: ('A' for Active; 'I' for Inactive)
ROOT
ATOM      1  C1  DEN d   1       5.436  -5.906  -4.917  0.00  0.00     0.130 A 
ATOM      2  C2  DEN d   1       4.439  -5.935  -5.984  0.00  0.00    -0.031 A 
ATOM      3  C3  DEN d   1       3.102  -5.979  -5.358  0.00  0.00     0.027 A 
ATOM      4  C4  DEN d   1       2.482  -5.999  -2.855  0.00  0.00     0.027 A 
ATOM      5  C5  DEN d   1       2.987  -5.996  -1.573  0.00  0.00    -0.003 A 
ATOM      6  C6  DEN d   1       4.333  -5.997  -1.319  0.00  0.00     0.001 A 
ATOM      7  C7  DEN d   1       5.221  -5.956  -2.361  0.00  0.00     0.017 A 
ATOM      8  C8  DEN d   1       4.720  -5.966  -3.656  0.00  0.00    -0.094 A 
ATOM      9  C9  DEN d   1       3.356  -5.952  -3.892  0.00  0.00    -0.072 A 
ENDROOT
TORSDOF 0
ENDMDL
