MODEL 1
REMARK minimizedAffinity 5.65500546
REMARK minimizedRMSD -1
REMARK  0 active torsions:
REMARK  status: ('A' for Active; 'I' for Inactive)
ROOT
ATOM      1  C1  DEN d   1       3.828  -2.885   4.289  0.00  0.00     0.130 A 
ATOM      2  C2  DEN d   1       2.820  -3.885   4.628  0.00  0.00    -0.031 A 
ATOM      3  C3  DEN d   1       1.585  -3.559   3.888  0.00  0.00     0.027 A 
ATOM      4  C4  DEN d   1       1.140  -1.614   2.253  0.00  0.00     0.027 A 
ATOM      5  C5  DEN d   1       1.689  -0.500   1.658  0.00  0.00    -0.003 A 
ATOM      6  C6  DEN d   1       2.968  -0.086   1.922  0.00  0.00     0.001 A 
ATOM      7  C7  DEN d   1       3.756  -0.818   2.770  0.00  0.00     0.017 A 
ATOM      8  C8  DEN d   1       3.207  -1.939   3.379  0.00  0.00    -0.094 A 
ATOM      9  C9  DEN d   1       1.916  -2.347   3.090  0.00  0.00    -0.072 A 
ENDROOT
TORSDOF 0
ENDMDL
