MODEL 1
REMARK minimizedAffinity 11.5757532
REMARK minimizedRMSD -1
REMARK  0 active torsions:
REMARK  status: ('A' for Active; 'I' for Inactive)
ROOT
ATOM      1  C1  DEN d   1       2.318  -1.544   2.602  0.00  0.00     0.130 A 
ATOM      2  C2  DEN d   1       2.015  -1.858   3.995  0.00  0.00    -0.031 A 
ATOM      3  C3  DEN d   1       2.070  -0.602   4.769  0.00  0.00     0.027 A 
ATOM      4  C4  DEN d   1       2.587   1.788   3.948  0.00  0.00     0.027 A 
ATOM      5  C5  DEN d   1       2.917   2.551   2.850  0.00  0.00    -0.003 A 
ATOM      6  C6  DEN d   1       3.102   2.002   1.609  0.00  0.00     0.001 A 
ATOM      7  C7  DEN d   1       2.914   0.657   1.426  0.00  0.00     0.017 A 
ATOM      8  C8  DEN d   1       2.589  -0.119   2.530  0.00  0.00    -0.094 A 
ATOM      9  C9  DEN d   1       2.393   0.456   3.774  0.00  0.00    -0.072 A 
ENDROOT
TORSDOF 0
ENDMDL
