MODEL 1
REMARK minimizedAffinity 8.87408733
REMARK minimizedRMSD -1
REMARK  0 active torsions:
REMARK  status: ('A' for Active; 'I' for Inactive)
ROOT
ATOM      1  C1  DEN d   1       1.865  -0.111   3.423  0.00  0.00     0.130 A 
ATOM      2  C2  DEN d   1       1.917  -0.220   1.968  0.00  0.00    -0.031 A 
ATOM      3  C3  DEN d   1       2.482  -1.541   1.629  0.00  0.00     0.027 A 
ATOM      4  C4  DEN d   1       3.274  -3.421   3.208  0.00  0.00     0.027 A 
ATOM      5  C5  DEN d   1       3.437  -3.785   4.526  0.00  0.00    -0.003 A 
ATOM      6  C6  DEN d   1       3.122  -2.944   5.560  0.00  0.00     0.001 A 
ATOM      7  C7  DEN d   1       2.585  -1.713   5.294  0.00  0.00     0.017 A 
ATOM      8  C8  DEN d   1       2.424  -1.335   3.967  0.00  0.00    -0.094 A 
ATOM      9  C9  DEN d   1       2.737  -2.204   2.936  0.00  0.00    -0.072 A 
ENDROOT
TORSDOF 0
ENDMDL
