MODEL 1
REMARK minimizedAffinity 16.5888901
REMARK minimizedRMSD -1
REMARK  0 active torsions:
REMARK  status: ('A' for Active; 'I' for Inactive)
ROOT
ATOM      1  C1  DEN d   1      -5.970   4.440   1.133  0.00  0.00     0.130 A 
ATOM      2  C2  DEN d   1      -5.969   3.573  -0.043  0.00  0.00    -0.031 A 
ATOM      3  C3  DEN d   1      -5.925   2.172   0.423  0.00  0.00     0.027 A 
ATOM      4  C4  DEN d   1      -5.863   1.266   2.837  0.00  0.00     0.027 A 
ATOM      5  C5  DEN d   1      -5.837   1.620   4.169  0.00  0.00    -0.003 A 
ATOM      6  C6  DEN d   1      -5.820   2.927   4.577  0.00  0.00     0.001 A 
ATOM      7  C7  DEN d   1      -5.874   3.930   3.645  0.00  0.00     0.017 A 
ATOM      8  C8  DEN d   1      -5.892   3.582   2.301  0.00  0.00    -0.094 A 
ATOM      9  C9  DEN d   1      -5.922   2.254   1.909  0.00  0.00    -0.072 A 
ENDROOT
TORSDOF 0
ENDMDL
