MODEL 1
REMARK minimizedAffinity 6.95607758
REMARK minimizedRMSD -1
REMARK  0 active torsions:
REMARK  status: ('A' for Active; 'I' for Inactive)
ROOT
ATOM      1  C1  DEN d   1       1.631  -0.304   2.443  0.00  0.00     0.130 A 
ATOM      2  C2  DEN d   1       2.294  -0.424   1.147  0.00  0.00    -0.031 A 
ATOM      3  C3  DEN d   1       2.900  -1.768   1.067  0.00  0.00     0.027 A 
ATOM      4  C4  DEN d   1       2.873  -3.667   2.812  0.00  0.00     0.027 A 
ATOM      5  C5  DEN d   1       2.445  -4.029   4.070  0.00  0.00    -0.003 A 
ATOM      6  C6  DEN d   1       1.751  -3.171   4.881  0.00  0.00     0.001 A 
ATOM      7  C7  DEN d   1       1.424  -1.921   4.424  0.00  0.00     0.017 A 
ATOM      8  C8  DEN d   1       1.859  -1.546   3.160  0.00  0.00    -0.094 A 
ATOM      9  C9  DEN d   1       2.549  -2.433   2.351  0.00  0.00    -0.072 A 
ENDROOT
TORSDOF 0
ENDMDL
