MODEL 1
REMARK minimizedAffinity -3.88466191
REMARK minimizedRMSD -1
REMARK  0 active torsions:
REMARK  status: ('A' for Active; 'I' for Inactive)
ROOT
ATOM      1  O1  BZF d   1      -1.199   0.482   0.502  0.00  0.00    -0.204 OA
ATOM      2  C2  BZF d   1      -2.281   0.622   1.350  0.00  0.00     0.174 A 
ATOM      3  C3  BZF d   1      -1.945   0.286   2.612  0.00  0.00    -0.012 A 
ATOM      4  C3A BZF d   1      -0.544   0.001   2.566  0.00  0.00    -0.107 A 
ATOM      5  C4  BZF d   1       0.369  -0.374   3.510  0.00  0.00     0.055 A 
ATOM      6  C5  BZF d   1       1.644  -0.643   3.124  0.00  0.00    -0.016 A 
ATOM      7  C6  BZF d   1       2.039  -0.553   1.806  0.00  0.00     0.022 A 
ATOM      8  C7  BZF d   1       1.170  -0.180   0.835  0.00  0.00     0.029 A 
ATOM      9  C7A BZF d   1      -0.111   0.125   1.226  0.00  0.00     0.058 A 
ENDROOT
TORSDOF 0
ENDMDL
