MODEL 1
REMARK minimizedAffinity -4.28815413
REMARK minimizedRMSD -1
REMARK  0 active torsions:
REMARK  status: ('A' for Active; 'I' for Inactive)
ROOT
ATOM      1  O1  BZF d   1       2.215  -0.143   2.190  0.00  0.00    -0.204 OA
ATOM      2  C2  BZF d   1       2.019   0.060   3.543  0.00  0.00     0.174 A 
ATOM      3  C3  BZF d   1       0.747   0.433   3.791  0.00  0.00    -0.012 A 
ATOM      4  C3A BZF d   1       0.084   0.376   2.524  0.00  0.00    -0.107 A 
ATOM      5  C4  BZF d   1      -1.199   0.619   2.124  0.00  0.00     0.055 A 
ATOM      6  C5  BZF d   1      -1.504   0.543   0.802  0.00  0.00    -0.016 A 
ATOM      7  C6  BZF d   1      -0.551   0.232  -0.146  0.00  0.00     0.022 A 
ATOM      8  C7  BZF d   1       0.733  -0.023   0.203  0.00  0.00     0.029 A 
ATOM      9  C7A BZF d   1       1.037   0.021   1.542  0.00  0.00     0.058 A 
ENDROOT
TORSDOF 0
ENDMDL
