MODEL 1
REMARK minimizedAffinity -4.05284882
REMARK minimizedRMSD -1
REMARK  0 active torsions:
REMARK  status: ('A' for Active; 'I' for Inactive)
ROOT
ATOM      1  O1  BZF d   1       0.754  -0.796  -0.520  0.00  0.00    -0.204 OA
ATOM      2  C2  BZF d   1      -0.396  -0.199  -0.999  0.00  0.00     0.174 A 
ATOM      3  C3  BZF d   1      -1.017   0.494  -0.023  0.00  0.00    -0.012 A 
ATOM      4  C3A BZF d   1      -0.156   0.395   1.115  0.00  0.00    -0.107 A 
ATOM      5  C4  BZF d   1      -0.221   0.890   2.387  0.00  0.00     0.055 A 
ATOM      6  C5  BZF d   1       0.747   0.549   3.278  0.00  0.00    -0.016 A 
ATOM      7  C6  BZF d   1       1.789  -0.287   2.933  0.00  0.00     0.022 A 
ATOM      8  C7  BZF d   1       1.898  -0.798   1.683  0.00  0.00     0.029 A 
ATOM      9  C7A BZF d   1       0.940  -0.429   0.771  0.00  0.00     0.058 A 
ENDROOT
TORSDOF 0
ENDMDL
