MODEL 1
REMARK minimizedAffinity -4.6622901
REMARK minimizedRMSD -1
REMARK  0 active torsions:
REMARK  status: ('A' for Active; 'I' for Inactive)
ROOT
ATOM      1  O1  BZF d   1      -1.104   1.295   1.200  0.00  0.00    -0.204 OA
ATOM      2  C2  BZF d   1      -0.803   1.620   2.509  0.00  0.00     0.174 A 
ATOM      3  C3  BZF d   1       0.289   0.948   2.929  0.00  0.00    -0.012 A 
ATOM      4  C3A BZF d   1       0.749   0.224   1.784  0.00  0.00    -0.107 A 
ATOM      5  C4  BZF d   1       1.805  -0.614   1.566  0.00  0.00     0.055 A 
ATOM      6  C5  BZF d   1       1.931  -1.215   0.353  0.00  0.00    -0.016 A 
ATOM      7  C6  BZF d   1       1.019  -1.004  -0.660  0.00  0.00     0.022 A 
ATOM      8  C7  BZF d   1      -0.041  -0.177  -0.492  0.00  0.00     0.029 A 
ATOM      9  C7A BZF d   1      -0.154   0.457   0.721  0.00  0.00     0.058 A 
ENDROOT
TORSDOF 0
ENDMDL
