MODEL 1
REMARK minimizedAffinity -4.93907166
REMARK minimizedRMSD -1
REMARK  0 active torsions:
REMARK  status: ('A' for Active; 'I' for Inactive)
ROOT
ATOM      1  O1  BZF d   1       1.922  -1.149   1.929  0.00  0.00    -0.204 OA
ATOM      2  C2  BZF d   1       2.009  -0.891   3.283  0.00  0.00     0.174 A 
ATOM      3  C3  BZF d   1       0.947  -0.173   3.703  0.00  0.00    -0.012 A 
ATOM      4  C3A BZF d   1       0.101  -0.048   2.556  0.00  0.00    -0.107 A 
ATOM      5  C4  BZF d   1      -1.111   0.546   2.343  0.00  0.00     0.055 A 
ATOM      6  C5  BZF d   1      -1.632   0.551   1.088  0.00  0.00    -0.016 A 
ATOM      7  C6  BZF d   1      -0.968  -0.022   0.024  0.00  0.00     0.022 A 
ATOM      8  C7  BZF d   1       0.233  -0.627   0.186  0.00  0.00     0.029 A 
ATOM      9  C7A BZF d   1       0.748  -0.663   1.459  0.00  0.00     0.058 A 
ENDROOT
TORSDOF 0
ENDMDL
