MODEL 1
REMARK minimizedAffinity -1.53027332
REMARK minimizedRMSD -1
REMARK  1 active torsions:
REMARK  status: ('A' for Active; 'I' for Inactive)
REMARK    1  A    between atoms: C1_2  and  C2_3 
ROOT
ATOM      1  C2  UNL d   1       2.716  -3.950  -3.233  0.00  0.00    -0.073 A 
ATOM      2  C3  UNL d   1       1.614  -3.549  -3.996  0.00  0.00    -0.002 A 
ATOM      3  C4  UNL d   1       1.797  -3.005  -5.268  0.00  0.00     0.004 A 
ATOM      4  C5  UNL d   1       3.082  -2.863  -5.793  0.00  0.00    -0.004 A 
ATOM      5  C6  UNL d   1       4.195  -3.269  -5.050  0.00  0.00    -0.075 A 
ATOM      6  C7  UNL d   1       5.584  -3.121  -5.599  0.00  0.00     0.076 C 
ATOM      7  C8  UNL d   1       4.003  -3.812  -3.773  0.00  0.00     0.001 A 
ENDROOT
BRANCH   1   8
ATOM      8  C1  UNL d   1       2.523  -4.544  -1.862  0.00  0.00     0.053 C 
ATOM      9  C   UNL d   1       1.055  -4.778  -1.544  0.00  0.00     0.018 C 
ENDBRANCH   1   8
TORSDOF 1
ENDMDL
