MODEL 1
REMARK minimizedAffinity 7.15588713
REMARK minimizedRMSD -1
REMARK  1 active torsions:
REMARK  status: ('A' for Active; 'I' for Inactive)
REMARK    1  A    between atoms: C1_2  and  C2_3 
ROOT
ATOM      1  C2  UNL d   1       3.963  -3.165   2.417  0.00  0.00    -0.073 A 
ATOM      2  C3  UNL d   1       3.481  -2.093   1.658  0.00  0.00    -0.002 A 
ATOM      3  C4  UNL d   1       2.538  -1.216   2.195  0.00  0.00     0.004 A 
ATOM      4  C5  UNL d   1       2.073  -1.397   3.497  0.00  0.00    -0.004 A 
ATOM      5  C6  UNL d   1       2.552  -2.455   4.277  0.00  0.00    -0.075 A 
ATOM      6  C7  UNL d   1       2.061  -2.664   5.679  0.00  0.00     0.076 C 
ATOM      7  C8  UNL d   1       3.497  -3.333   3.729  0.00  0.00     0.001 A 
ENDROOT
BRANCH   1   8
ATOM      8  C1  UNL d   1       4.986  -4.111   1.844  0.00  0.00     0.053 C 
ATOM      9  C   UNL d   1       4.402  -4.984   0.745  0.00  0.00     0.018 C 
ENDBRANCH   1   8
TORSDOF 1
ENDMDL
