MODEL 1
REMARK minimizedAffinity 3.63790131
REMARK minimizedRMSD -1
REMARK  1 active torsions:
REMARK  status: ('A' for Active; 'I' for Inactive)
REMARK    1  A    between atoms: C1_2  and  C2_3 
ROOT
ATOM      1  C2  UNL d   1       3.406   4.493  -2.179  0.00  0.00    -0.073 A 
ATOM      2  C3  UNL d   1       4.080   5.552  -1.560  0.00  0.00    -0.002 A 
ATOM      3  C4  UNL d   1       5.373   5.894  -1.960  0.00  0.00     0.004 A 
ATOM      4  C5  UNL d   1       6.000   5.189  -2.987  0.00  0.00    -0.004 A 
ATOM      5  C6  UNL d   1       5.338   4.136  -3.626  0.00  0.00    -0.075 A 
ATOM      6  C7  UNL d   1       5.999   3.365  -4.730  0.00  0.00     0.076 C 
ATOM      7  C8  UNL d   1       4.041   3.796  -3.217  0.00  0.00     0.001 A 
ENDROOT
BRANCH   1   8
ATOM      8  C1  UNL d   1       2.008   4.124  -1.755  0.00  0.00     0.053 C 
ATOM      9  C   UNL d   1       1.431   3.004  -2.606  0.00  0.00     0.018 C 
ENDBRANCH   1   8
TORSDOF 1
ENDMDL
