MODEL 1
REMARK minimizedAffinity 4.72084427
REMARK minimizedRMSD -1
REMARK  1 active torsions:
REMARK  status: ('A' for Active; 'I' for Inactive)
REMARK    1  A    between atoms: C1_2  and  C2_3 
ROOT
ATOM      1  C2  UNL d   1      -0.473  -3.447  -0.717  0.00  0.00    -0.073 A 
ATOM      2  C3  UNL d   1       0.272  -4.632  -0.756  0.00  0.00    -0.002 A 
ATOM      3  C4  UNL d   1      -0.203  -5.783  -0.126  0.00  0.00     0.004 A 
ATOM      4  C5  UNL d   1      -1.427  -5.764   0.542  0.00  0.00    -0.004 A 
ATOM      5  C6  UNL d   1      -2.191  -4.593   0.582  0.00  0.00    -0.075 A 
ATOM      6  C7  UNL d   1      -3.508  -4.555   1.299  0.00  0.00     0.076 C 
ATOM      7  C8  UNL d   1      -1.706  -3.440  -0.051  0.00  0.00     0.001 A 
ENDROOT
BRANCH   1   8
ATOM      8  C1  UNL d   1       0.032  -2.203  -1.402  0.00  0.00     0.053 C 
ATOM      9  C   UNL d   1       0.991  -2.526  -2.537  0.00  0.00     0.018 C 
ENDBRANCH   1   8
TORSDOF 1
ENDMDL
