MODEL 1
REMARK minimizedAffinity 7.37303257
REMARK minimizedRMSD -1
REMARK  1 active torsions:
REMARK  status: ('A' for Active; 'I' for Inactive)
REMARK    1  A    between atoms: N_2  and  C1_3 
ROOT
ATOM      1  C1  UNL d   1      -4.097  -0.979   1.545  0.00  0.00     0.143 A 
ATOM      2  C2  UNL d   1      -3.290  -1.113   0.411  0.00  0.00    -0.057 A 
ATOM      3  C3  UNL d   1      -3.722  -1.838  -0.706  0.00  0.00     0.033 A 
ATOM      4  C4  UNL d   1      -4.963  -2.467  -0.697  0.00  0.00    -0.042 A 
ATOM      5  C5  UNL d   1      -5.771  -2.368   0.430  0.00  0.00     0.033 A 
ATOM      6  C6  UNL d   1      -5.336  -1.637   1.540  0.00  0.00    -0.057 A 
ENDROOT
BRANCH   1   7
ATOM      7  N   UNL d   1      -3.683  -0.354   2.725  0.00  0.00    -0.732 N 
ATOM      8  C   UNL d   1      -2.458   0.416   2.760  0.00  0.00     0.284 C 
ATOM      9  H3  UNL d   1      -4.456   0.070   3.231  0.00  0.00     0.395 HD
ENDBRANCH   1   7
TORSDOF 1
ENDMDL
