MODEL 1
REMARK minimizedAffinity 5.32503748
REMARK minimizedRMSD -1
REMARK  1 active torsions:
REMARK  status: ('A' for Active; 'I' for Inactive)
REMARK    1  A    between atoms: N_2  and  C1_3 
ROOT
ATOM      1  C1  UNL d   1       4.920  -3.875   5.158  0.00  0.00     0.143 A 
ATOM      2  C2  UNL d   1       5.885  -2.874   5.310  0.00  0.00    -0.057 A 
ATOM      3  C3  UNL d   1       5.995  -1.826   4.388  0.00  0.00     0.033 A 
ATOM      4  C4  UNL d   1       5.158  -1.776   3.279  0.00  0.00    -0.042 A 
ATOM      5  C5  UNL d   1       4.207  -2.774   3.094  0.00  0.00     0.033 A 
ATOM      6  C6  UNL d   1       4.098  -3.815   4.021  0.00  0.00    -0.057 A 
ENDROOT
BRANCH   1   7
ATOM      7  N   UNL d   1       4.826  -4.997   5.985  0.00  0.00    -0.732 N 
ATOM      8  C   UNL d   1       5.873  -5.995   5.996  0.00  0.00     0.284 C 
ATOM      9  H3  UNL d   1       4.459  -4.770   6.907  0.00  0.00     0.395 HD
ENDBRANCH   1   7
TORSDOF 1
ENDMDL
