MODEL 1
REMARK minimizedAffinity 2.323699
REMARK minimizedRMSD -1
REMARK  1 active torsions:
REMARK  status: ('A' for Active; 'I' for Inactive)
REMARK    1  A    between atoms: N_2  and  C1_3 
ROOT
ATOM      1  C1  UNL d   1       5.335   5.806   2.837  0.00  0.00     0.143 A 
ATOM      2  C2  UNL d   1       5.977   5.613   1.609  0.00  0.00    -0.057 A 
ATOM      3  C3  UNL d   1       5.263   5.636   0.405  0.00  0.00     0.033 A 
ATOM      4  C4  UNL d   1       3.885   5.825   0.410  0.00  0.00    -0.042 A 
ATOM      5  C5  UNL d   1       3.222   5.994   1.621  0.00  0.00     0.033 A 
ATOM      6  C6  UNL d   1       3.942   5.976   2.820  0.00  0.00    -0.057 A 
ENDROOT
BRANCH   1   7
ATOM      7  N   UNL d   1       5.975   5.696   4.074  0.00  0.00    -0.732 N 
ATOM      8  C   UNL d   1       5.374   4.935   5.149  0.00  0.00     0.284 C 
ATOM      9  H3  UNL d   1       6.979   5.564   3.982  0.00  0.00     0.395 HD
ENDBRANCH   1   7
TORSDOF 1
ENDMDL
