MODEL 1
REMARK minimizedAffinity 10.0048542
REMARK minimizedRMSD -1
REMARK  1 active torsions:
REMARK  status: ('A' for Active; 'I' for Inactive)
REMARK    1  A    between atoms: N_2  and  C1_3 
ROOT
ATOM      1  C1  UNL d   1      -2.285   5.270   1.187  0.00  0.00     0.143 A 
ATOM      2  C2  UNL d   1      -1.086   5.987   1.109  0.00  0.00    -0.057 A 
ATOM      3  C3  UNL d   1      -0.319   5.994  -0.062  0.00  0.00     0.033 A 
ATOM      4  C4  UNL d   1      -0.724   5.257  -1.170  0.00  0.00    -0.042 A 
ATOM      5  C5  UNL d   1      -1.899   4.517  -1.107  0.00  0.00     0.033 A 
ATOM      6  C6  UNL d   1      -2.665   4.520   0.063  0.00  0.00    -0.057 A 
ENDROOT
BRANCH   1   7
ATOM      7  N   UNL d   1      -3.042   5.144   2.354  0.00  0.00    -0.732 N 
ATOM      8  C   UNL d   1      -4.480   5.301   2.321  0.00  0.00     0.284 C 
ATOM      9  H3  UNL d   1      -2.721   4.381   2.945  0.00  0.00     0.395 HD
ENDBRANCH   1   7
TORSDOF 1
ENDMDL
