MODEL 1
REMARK minimizedAffinity -0.208469778
REMARK minimizedRMSD -1
REMARK  1 active torsions:
REMARK  status: ('A' for Active; 'I' for Inactive)
REMARK    1  A    between atoms: N_2  and  C1_3 
ROOT
ATOM      1  C1  UNL d   1       5.372   5.202   3.827  0.00  0.00     0.143 A 
ATOM      2  C2  UNL d   1       5.989   4.264   2.993  0.00  0.00    -0.057 A 
ATOM      3  C3  UNL d   1       5.645   4.158   1.640  0.00  0.00     0.033 A 
ATOM      4  C4  UNL d   1       4.653   4.971   1.102  0.00  0.00    -0.042 A 
ATOM      5  C5  UNL d   1       4.008   5.894   1.918  0.00  0.00     0.033 A 
ATOM      6  C6  UNL d   1       4.361   6.000   3.267  0.00  0.00    -0.057 A 
ENDROOT
BRANCH   1   7
ATOM      7  N   UNL d   1       5.600   5.290   5.202  0.00  0.00    -0.732 N 
ATOM      8  C   UNL d   1       5.999   4.122   5.959  0.00  0.00     0.284 C 
ATOM      9  H3  UNL d   1       6.094   6.141   5.461  0.00  0.00     0.395 HD
ENDBRANCH   1   7
TORSDOF 1
ENDMDL
