MODEL 1
REMARK minimizedAffinity 10.8818474
REMARK minimizedRMSD -1
REMARK  1 active torsions:
REMARK  status: ('A' for Active; 'I' for Inactive)
REMARK    1  A    between atoms: N_2  and  C1_3 
ROOT
ATOM      1  C1  UNL d   1      -3.791   5.800   4.811  0.00  0.00     0.143 A 
ATOM      2  C2  UNL d   1      -3.058   5.999   5.986  0.00  0.00    -0.057 A 
ATOM      3  C3  UNL d   1      -1.662   5.883   6.000  0.00  0.00     0.033 A 
ATOM      4  C4  UNL d   1      -0.976   5.538   4.841  0.00  0.00    -0.042 A 
ATOM      5  C5  UNL d   1      -1.686   5.311   3.667  0.00  0.00     0.033 A 
ATOM      6  C6  UNL d   1      -3.078   5.435   3.658  0.00  0.00    -0.057 A 
ENDROOT
BRANCH   1   7
ATOM      7  N   UNL d   1      -5.186   5.804   4.755  0.00  0.00    -0.732 N 
ATOM      8  C   UNL d   1      -5.873   5.988   3.495  0.00  0.00     0.284 C 
ATOM      9  H3  UNL d   1      -5.601   5.094   5.354  0.00  0.00     0.395 HD
ENDBRANCH   1   7
TORSDOF 1
ENDMDL
