MODEL 1
REMARK minimizedAffinity 15.0239134
REMARK minimizedRMSD -1
REMARK  1 active torsions:
REMARK  status: ('A' for Active; 'I' for Inactive)
REMARK    1  A    between atoms: N_2  and  C1_3 
ROOT
ATOM      1  C1  UNL d   1      -3.383  -1.269  -0.445  0.00  0.00     0.143 A 
ATOM      2  C2  UNL d   1      -4.491  -1.099  -1.283  0.00  0.00    -0.057 A 
ATOM      3  C3  UNL d   1      -5.788  -1.382  -0.839  0.00  0.00     0.033 A 
ATOM      4  C4  UNL d   1      -5.998  -1.869   0.447  0.00  0.00    -0.042 A 
ATOM      5  C5  UNL d   1      -4.910  -2.070   1.289  0.00  0.00     0.033 A 
ATOM      6  C6  UNL d   1      -3.618  -1.779   0.841  0.00  0.00    -0.057 A 
ENDROOT
BRANCH   1   7
ATOM      7  N   UNL d   1      -2.060  -1.100  -0.861  0.00  0.00    -0.732 N 
ATOM      8  C   UNL d   1      -1.473   0.221  -0.931  0.00  0.00     0.284 C 
ATOM      9  H3  UNL d   1      -1.440  -1.811  -0.481  0.00  0.00     0.395 HD
ENDBRANCH   1   7
TORSDOF 1
ENDMDL
