MODEL 1
REMARK minimizedAffinity 7.92550468
REMARK minimizedRMSD -1
REMARK  1 active torsions:
REMARK  status: ('A' for Active; 'I' for Inactive)
REMARK    1  A    between atoms: N_2  and  C1_3 
ROOT
ATOM      1  C1  UNL d   1      -0.864  -0.930  -1.070  0.00  0.00     0.143 A 
ATOM      2  C2  UNL d   1      -0.672  -2.199  -1.626  0.00  0.00    -0.057 A 
ATOM      3  C3  UNL d   1       0.466  -2.493  -2.388  0.00  0.00     0.033 A 
ATOM      4  C4  UNL d   1       1.419  -1.511  -2.633  0.00  0.00    -0.042 A 
ATOM      5  C5  UNL d   1       1.237  -0.235  -2.111  0.00  0.00     0.033 A 
ATOM      6  C6  UNL d   1       0.102   0.050  -1.345  0.00  0.00    -0.057 A 
ENDROOT
BRANCH   1   7
ATOM      7  N   UNL d   1      -2.021  -0.548  -0.386  0.00  0.00    -0.732 N 
ATOM      8  C   UNL d   1      -2.062  -0.567   1.060  0.00  0.00     0.284 C 
ATOM      9  H3  UNL d   1      -2.468   0.265  -0.804  0.00  0.00     0.395 HD
ENDBRANCH   1   7
TORSDOF 1
ENDMDL
