MODEL 1
REMARK minimizedAffinity 5.31797171
REMARK minimizedRMSD -1
REMARK  1 active torsions:
REMARK  status: ('A' for Active; 'I' for Inactive)
REMARK    1  A    between atoms: N_2  and  C1_3 
ROOT
ATOM      1  C1  UNL d   1      -2.505   0.112   2.114  0.00  0.00     0.143 A 
ATOM      2  C2  UNL d   1      -2.185  -1.248   2.041  0.00  0.00    -0.057 A 
ATOM      3  C3  UNL d   1      -2.210  -1.935   0.822  0.00  0.00     0.033 A 
ATOM      4  C4  UNL d   1      -2.585  -1.279  -0.346  0.00  0.00    -0.042 A 
ATOM      5  C5  UNL d   1      -2.932   0.066  -0.293  0.00  0.00     0.033 A 
ATOM      6  C6  UNL d   1      -2.898   0.749   0.927  0.00  0.00    -0.057 A 
ENDROOT
BRANCH   1   7
ATOM      7  N   UNL d   1      -2.595   0.827   3.311  0.00  0.00    -0.732 N 
ATOM      8  C   UNL d   1      -2.745   2.266   3.300  0.00  0.00     0.284 C 
ATOM      9  H3  UNL d   1      -3.170   0.354   4.004  0.00  0.00     0.395 HD
ENDBRANCH   1   7
TORSDOF 1
ENDMDL
