MODEL 1
REMARK minimizedAffinity 6.59198999
REMARK minimizedRMSD -1
REMARK  1 active torsions:
REMARK  status: ('A' for Active; 'I' for Inactive)
REMARK    1  A    between atoms: N_2  and  C1_3 
ROOT
ATOM      1  C1  UNL d   1      -2.150  -0.108   1.185  0.00  0.00     0.143 A 
ATOM      2  C2  UNL d   1      -1.127   0.668   1.741  0.00  0.00    -0.057 A 
ATOM      3  C3  UNL d   1      -1.200   1.128   3.062  0.00  0.00     0.033 A 
ATOM      4  C4  UNL d   1      -2.315   0.844   3.843  0.00  0.00    -0.042 A 
ATOM      5  C5  UNL d   1      -3.356   0.096   3.303  0.00  0.00     0.033 A 
ATOM      6  C6  UNL d   1      -3.273  -0.366   1.986  0.00  0.00    -0.057 A 
ENDROOT
BRANCH   1   7
ATOM      7  N   UNL d   1      -2.181  -0.512  -0.152  0.00  0.00    -0.732 N 
ATOM      8  C   UNL d   1      -3.279  -1.308  -0.656  0.00  0.00     0.284 C 
ATOM      9  H3  UNL d   1      -1.873   0.222  -0.786  0.00  0.00     0.395 HD
ENDBRANCH   1   7
TORSDOF 1
ENDMDL
