MODEL 1
REMARK minimizedAffinity 11.9635468
REMARK minimizedRMSD -1
REMARK  1 active torsions:
REMARK  status: ('A' for Active; 'I' for Inactive)
REMARK    1  A    between atoms: N_2  and  C1_3 
ROOT
ATOM      1  C1  UNL d   1      -2.723   0.308   0.762  0.00  0.00     0.143 A 
ATOM      2  C2  UNL d   1      -1.868  -0.062   1.806  0.00  0.00    -0.057 A 
ATOM      3  C3  UNL d   1      -2.034   0.455   3.097  0.00  0.00     0.033 A 
ATOM      4  C4  UNL d   1      -3.043   1.375   3.361  0.00  0.00    -0.042 A 
ATOM      5  C5  UNL d   1      -3.889   1.775   2.332  0.00  0.00     0.033 A 
ATOM      6  C6  UNL d   1      -3.723   1.251   1.047  0.00  0.00    -0.057 A 
ENDROOT
BRANCH   1   7
ATOM      7  N   UNL d   1      -2.549  -0.095  -0.564  0.00  0.00    -0.732 N 
ATOM      8  C   UNL d   1      -1.535   0.519  -1.394  0.00  0.00     0.284 C 
ATOM      9  H3  UNL d   1      -2.625  -1.103  -0.677  0.00  0.00     0.395 HD
ENDBRANCH   1   7
TORSDOF 1
ENDMDL
