MODEL 1
REMARK minimizedAffinity 4.64196205
REMARK minimizedRMSD -1
REMARK  1 active torsions:
REMARK  status: ('A' for Active; 'I' for Inactive)
REMARK    1  A    between atoms: N_2  and  C1_3 
ROOT
ATOM      1  C1  UNL d   1       5.334   5.580   1.241  0.00  0.00     0.143 A 
ATOM      2  C2  UNL d   1       5.968   4.964   0.156  0.00  0.00    -0.057 A 
ATOM      3  C3  UNL d   1       5.235   4.473  -0.931  0.00  0.00     0.033 A 
ATOM      4  C4  UNL d   1       3.847   4.564  -0.939  0.00  0.00    -0.042 A 
ATOM      5  C5  UNL d   1       3.193   5.149   0.140  0.00  0.00     0.033 A 
ATOM      6  C6  UNL d   1       3.932   5.644   1.220  0.00  0.00    -0.057 A 
ENDROOT
BRANCH   1   7
ATOM      7  N   UNL d   1       6.000   5.999   2.395  0.00  0.00    -0.732 N 
ATOM      8  C   UNL d   1       5.592   5.518   3.697  0.00  0.00     0.284 C 
ATOM      9  H3  UNL d   1       7.008   6.046   2.267  0.00  0.00     0.395 HD
ENDBRANCH   1   7
TORSDOF 1
ENDMDL
