MODEL 1
REMARK minimizedAffinity 7.17452478
REMARK minimizedRMSD -1
REMARK  1 active torsions:
REMARK  status: ('A' for Active; 'I' for Inactive)
REMARK    1  A    between atoms: N_2  and  C1_3 
ROOT
ATOM      1  C1  UNL d   1       3.920   5.440  -0.112  0.00  0.00     0.143 A 
ATOM      2  C2  UNL d   1       3.328   5.942   1.053  0.00  0.00    -0.057 A 
ATOM      3  C3  UNL d   1       4.033   5.994   2.261  0.00  0.00     0.033 A 
ATOM      4  C4  UNL d   1       5.337   5.516   2.333  0.00  0.00    -0.042 A 
ATOM      5  C5  UNL d   1       5.937   4.989   1.194  0.00  0.00     0.033 A 
ATOM      6  C6  UNL d   1       5.230   4.947  -0.011  0.00  0.00    -0.057 A 
ENDROOT
BRANCH   1   7
ATOM      7  N   UNL d   1       3.238   5.272  -1.320  0.00  0.00    -0.732 N 
ATOM      8  C   UNL d   1       3.529   4.144  -2.178  0.00  0.00     0.284 C 
ATOM      9  H3  UNL d   1       2.248   5.490  -1.241  0.00  0.00     0.395 HD
ENDBRANCH   1   7
TORSDOF 1
ENDMDL
