MODEL 1
REMARK minimizedAffinity -2.4315064
REMARK minimizedRMSD -1
REMARK  1 active torsions:
REMARK  status: ('A' for Active; 'I' for Inactive)
REMARK    1  A    between atoms: N_2  and  C1_3 
ROOT
ATOM      1  C1  UNL d   1      -0.391  -1.469  -0.404  0.00  0.00     0.143 A 
ATOM      2  C2  UNL d   1      -1.388  -0.586   0.025  0.00  0.00    -0.057 A 
ATOM      3  C3  UNL d   1      -1.066   0.649   0.599  0.00  0.00     0.033 A 
ATOM      4  C4  UNL d   1       0.265   1.012   0.782  0.00  0.00    -0.042 A 
ATOM      5  C5  UNL d   1       1.272   0.140   0.387  0.00  0.00     0.033 A 
ATOM      6  C6  UNL d   1       0.944  -1.090  -0.193  0.00  0.00    -0.057 A 
ENDROOT
BRANCH   1   7
ATOM      7  N   UNL d   1      -0.646  -2.753  -0.892  0.00  0.00    -0.732 N 
ATOM      8  C   UNL d   1      -0.933  -2.965  -2.295  0.00  0.00     0.284 C 
ATOM      9  H3  UNL d   1      -0.032  -3.453  -0.483  0.00  0.00     0.395 HD
ENDBRANCH   1   7
TORSDOF 1
ENDMDL
