MODEL 1
REMARK minimizedAffinity 4.11664391
REMARK minimizedRMSD -1
REMARK  1 active torsions:
REMARK  status: ('A' for Active; 'I' for Inactive)
REMARK    1  A    between atoms: N_2  and  C1_3 
ROOT
ATOM      1  C1  UNL d   1      -1.135   1.685   1.199  0.00  0.00     0.143 A 
ATOM      2  C2  UNL d   1      -1.900   1.784   0.031  0.00  0.00    -0.057 A 
ATOM      3  C3  UNL d   1      -2.152   0.664  -0.769  0.00  0.00     0.033 A 
ATOM      4  C4  UNL d   1      -1.618  -0.575  -0.430  0.00  0.00    -0.042 A 
ATOM      5  C5  UNL d   1      -0.834  -0.692   0.712  0.00  0.00     0.033 A 
ATOM      6  C6  UNL d   1      -0.591   0.429   1.511  0.00  0.00    -0.057 A 
ENDROOT
BRANCH   1   7
ATOM      7  N   UNL d   1      -0.767   2.781   1.983  0.00  0.00    -0.732 N 
ATOM      8  C   UNL d   1      -0.780   2.691   3.427  0.00  0.00     0.284 C 
ATOM      9  H3  UNL d   1       0.037   3.277   1.604  0.00  0.00     0.395 HD
ENDBRANCH   1   7
TORSDOF 1
ENDMDL
