MODEL 1
REMARK minimizedAffinity -5.05896997
REMARK minimizedRMSD -1
REMARK  1 active torsions:
REMARK  status: ('A' for Active; 'I' for Inactive)
REMARK    1  A    between atoms: N_2  and  C1_3 
ROOT
ATOM      1  C1  UNL d   1       0.456   0.515  -0.016  0.00  0.00     0.143 A 
ATOM      2  C2  UNL d   1      -0.289   1.699   0.014  0.00  0.00    -0.057 A 
ATOM      3  C3  UNL d   1       0.336   2.950   0.069  0.00  0.00     0.033 A 
ATOM      4  C4  UNL d   1       1.723   3.039   0.126  0.00  0.00    -0.042 A 
ATOM      5  C5  UNL d   1       2.484   1.875   0.123  0.00  0.00     0.033 A 
ATOM      6  C6  UNL d   1       1.853   0.629   0.061  0.00  0.00    -0.057 A 
ENDROOT
BRANCH   1   7
ATOM      7  N   UNL d   1      -0.109  -0.762   0.029  0.00  0.00    -0.732 N 
ATOM      8  C   UNL d   1      -0.077  -1.622  -1.134  0.00  0.00     0.284 C 
ATOM      9  H3  UNL d   1       0.083  -1.241   0.906  0.00  0.00     0.395 HD
ENDBRANCH   1   7
TORSDOF 1
ENDMDL
