MODEL 1
REMARK minimizedAffinity -3.70134091
REMARK minimizedRMSD -1
REMARK  1 active torsions:
REMARK  status: ('A' for Active; 'I' for Inactive)
REMARK    1  A    between atoms: N_2  and  C1_3 
ROOT
ATOM      1  C1  UNL d   1      -0.298   1.579   0.595  0.00  0.00     0.143 A 
ATOM      2  C2  UNL d   1       0.058   2.919   0.783  0.00  0.00    -0.057 A 
ATOM      3  C3  UNL d   1       1.375   3.354   0.590  0.00  0.00     0.033 A 
ATOM      4  C4  UNL d   1       2.368   2.448   0.233  0.00  0.00    -0.042 A 
ATOM      5  C5  UNL d   1       2.042   1.107   0.066  0.00  0.00     0.033 A 
ATOM      6  C6  UNL d   1       0.724   0.679   0.254  0.00  0.00    -0.057 A 
ENDROOT
BRANCH   1   7
ATOM      7  N   UNL d   1      -1.569   1.066   0.867  0.00  0.00    -0.732 N 
ATOM      8  C   UNL d   1      -1.725  -0.141   1.649  0.00  0.00     0.284 C 
ATOM      9  H3  UNL d   1      -2.242   1.796   1.090  0.00  0.00     0.395 HD
ENDBRANCH   1   7
TORSDOF 1
ENDMDL
