MODEL 1
REMARK minimizedAffinity -4.20324707
REMARK minimizedRMSD -1
REMARK  1 active torsions:
REMARK  status: ('A' for Active; 'I' for Inactive)
REMARK    1  A    between atoms: N_2  and  C1_3 
ROOT
ATOM      1  C1  UNL d   1       0.388  -1.687  -0.702  0.00  0.00     0.143 A 
ATOM      2  C2  UNL d   1      -0.231  -2.642   0.112  0.00  0.00    -0.057 A 
ATOM      3  C3  UNL d   1      -1.007  -3.670  -0.437  0.00  0.00     0.033 A 
ATOM      4  C4  UNL d   1      -1.203  -3.744  -1.812  0.00  0.00    -0.042 A 
ATOM      5  C5  UNL d   1      -0.618  -2.791  -2.638  0.00  0.00     0.033 A 
ATOM      6  C6  UNL d   1       0.162  -1.770  -2.085  0.00  0.00    -0.057 A 
ENDROOT
BRANCH   1   7
ATOM      7  N   UNL d   1       1.091  -0.584  -0.211  0.00  0.00    -0.732 N 
ATOM      8  C   UNL d   1       2.352  -0.760   0.476  0.00  0.00     0.284 C 
ATOM      9  H3  UNL d   1       1.073   0.205  -0.853  0.00  0.00     0.395 HD
ENDBRANCH   1   7
TORSDOF 1
ENDMDL
