MODEL 1
REMARK minimizedAffinity -0.867352724
REMARK minimizedRMSD -1
REMARK  1 active torsions:
REMARK  status: ('A' for Active; 'I' for Inactive)
REMARK    1  A    between atoms: N_2  and  C1_3 
ROOT
ATOM      1  C1  UNL d   1      -0.781   1.144   0.297  0.00  0.00     0.143 A 
ATOM      2  C2  UNL d   1      -1.548   0.543  -0.707  0.00  0.00    -0.057 A 
ATOM      3  C3  UNL d   1      -1.233  -0.731  -1.197  0.00  0.00     0.033 A 
ATOM      4  C4  UNL d   1      -0.124  -1.415  -0.711  0.00  0.00    -0.042 A 
ATOM      5  C5  UNL d   1       0.667  -0.827   0.269  0.00  0.00     0.033 A 
ATOM      6  C6  UNL d   1       0.344   0.442   0.760  0.00  0.00    -0.057 A 
ENDROOT
BRANCH   1   7
ATOM      7  N   UNL d   1      -0.984   2.447   0.756  0.00  0.00    -0.732 N 
ATOM      8  C   UNL d   1       0.112   3.391   0.806  0.00  0.00     0.284 C 
ATOM      9  H3  UNL d   1      -1.859   2.844   0.422  0.00  0.00     0.395 HD
ENDBRANCH   1   7
TORSDOF 1
ENDMDL
