MODEL 1
REMARK minimizedAffinity -5.15967083
REMARK minimizedRMSD -1
REMARK  1 active torsions:
REMARK  status: ('A' for Active; 'I' for Inactive)
REMARK    1  A    between atoms: N_2  and  C1_3 
ROOT
ATOM      1  C1  UNL d   1       1.665   1.095   0.360  0.00  0.00     0.143 A 
ATOM      2  C2  UNL d   1       2.058   2.433   0.259  0.00  0.00    -0.057 A 
ATOM      3  C3  UNL d   1       1.113   3.464   0.187  0.00  0.00     0.033 A 
ATOM      4  C4  UNL d   1      -0.246   3.171   0.187  0.00  0.00    -0.042 A 
ATOM      5  C5  UNL d   1      -0.660   1.846   0.262  0.00  0.00     0.033 A 
ATOM      6  C6  UNL d   1       0.288   0.821   0.340  0.00  0.00    -0.057 A 
ENDROOT
BRANCH   1   7
ATOM      7  N   UNL d   1       2.555   0.018   0.335  0.00  0.00    -0.732 N 
ATOM      8  C   UNL d   1       2.077  -1.328   0.103  0.00  0.00     0.284 C 
ATOM      9  H3  UNL d   1       3.421   0.242  -0.149  0.00  0.00     0.395 HD
ENDBRANCH   1   7
TORSDOF 1
ENDMDL
