MODEL 1
REMARK minimizedAffinity -4.72123766
REMARK minimizedRMSD -1
REMARK  1 active torsions:
REMARK  status: ('A' for Active; 'I' for Inactive)
REMARK    1  A    between atoms: N_2  and  C1_3 
ROOT
ATOM      1  C1  UNL d   1       0.783   1.095  -0.261  0.00  0.00     0.143 A 
ATOM      2  C2  UNL d   1       2.145   1.240   0.024  0.00  0.00    -0.057 A 
ATOM      3  C3  UNL d   1       2.713   2.503   0.232  0.00  0.00     0.033 A 
ATOM      4  C4  UNL d   1       1.931   3.649   0.130  0.00  0.00    -0.042 A 
ATOM      5  C5  UNL d   1       0.580   3.530  -0.177  0.00  0.00     0.033 A 
ATOM      6  C6  UNL d   1       0.018   2.266  -0.377  0.00  0.00    -0.057 A 
ENDROOT
BRANCH   1   7
ATOM      7  N   UNL d   1       0.180  -0.125  -0.575  0.00  0.00    -0.732 N 
ATOM      8  C   UNL d   1      -0.859  -0.673   0.270  0.00  0.00     0.284 C 
ATOM      9  H3  UNL d   1       0.001  -0.225  -1.572  0.00  0.00     0.395 HD
ENDBRANCH   1   7
TORSDOF 1
ENDMDL
