MODEL 1
REMARK minimizedAffinity -4.17210054
REMARK minimizedRMSD -1
REMARK  1 active torsions:
REMARK  status: ('A' for Active; 'I' for Inactive)
REMARK    1  A    between atoms: N_2  and  C1_3 
ROOT
ATOM      1  C1  UNL d   1       0.052   1.562   0.775  0.00  0.00     0.143 A 
ATOM      2  C2  UNL d   1      -0.913   0.551   0.746  0.00  0.00    -0.057 A 
ATOM      3  C3  UNL d   1      -0.549  -0.798   0.651  0.00  0.00     0.033 A 
ATOM      4  C4  UNL d   1       0.791  -1.158   0.553  0.00  0.00    -0.042 A 
ATOM      5  C5  UNL d   1       1.766  -0.167   0.554  0.00  0.00     0.033 A 
ATOM      6  C6  UNL d   1       1.397   1.177   0.657  0.00  0.00    -0.057 A 
ENDROOT
BRANCH   1   7
ATOM      7  N   UNL d   1      -0.250   2.926   0.769  0.00  0.00    -0.732 N 
ATOM      8  C   UNL d   1       0.802   3.914   0.651  0.00  0.00     0.284 C 
ATOM      9  H3  UNL d   1      -1.082   3.138   0.223  0.00  0.00     0.395 HD
ENDBRANCH   1   7
TORSDOF 1
ENDMDL
