MODEL 1
REMARK minimizedAffinity 1.36934793
REMARK minimizedRMSD -1
REMARK  1 active torsions:
REMARK  status: ('A' for Active; 'I' for Inactive)
REMARK    1  A    between atoms: N_2  and  C1_3 
ROOT
ATOM      1  C1  UNL d   1      -0.001  -1.245  -0.282  0.00  0.00     0.143 A 
ATOM      2  C2  UNL d   1       0.749  -0.629   0.726  0.00  0.00    -0.057 A 
ATOM      3  C3  UNL d   1       2.079  -0.247   0.510  0.00  0.00     0.033 A 
ATOM      4  C4  UNL d   1       2.693  -0.502  -0.711  0.00  0.00    -0.042 A 
ATOM      5  C5  UNL d   1       1.974  -1.136  -1.719  0.00  0.00     0.033 A 
ATOM      6  C6  UNL d   1       0.644  -1.508  -1.500  0.00  0.00    -0.057 A 
ENDROOT
BRANCH   1   7
ATOM      7  N   UNL d   1      -1.296  -1.736  -0.097  0.00  0.00    -0.732 N 
ATOM      8  C   UNL d   1      -1.690  -3.007  -0.666  0.00  0.00     0.284 C 
ATOM      9  H3  UNL d   1      -1.640  -1.579   0.847  0.00  0.00     0.395 HD
ENDBRANCH   1   7
TORSDOF 1
ENDMDL
