MODEL 1
REMARK minimizedAffinity -2.73190403
REMARK minimizedRMSD -1
REMARK  1 active torsions:
REMARK  status: ('A' for Active; 'I' for Inactive)
REMARK    1  A    between atoms: N_2  and  C1_3 
ROOT
ATOM      1  C1  UNL d   1       0.910  -0.414   0.714  0.00  0.00     0.143 A 
ATOM      2  C2  UNL d   1       0.035  -1.185   1.487  0.00  0.00    -0.057 A 
ATOM      3  C3  UNL d   1      -1.336  -0.902   1.531  0.00  0.00     0.033 A 
ATOM      4  C4  UNL d   1      -1.852   0.179   0.823  0.00  0.00    -0.042 A 
ATOM      5  C5  UNL d   1      -0.997   0.974   0.069  0.00  0.00     0.033 A 
ATOM      6  C6  UNL d   1       0.370   0.682   0.024  0.00  0.00    -0.057 A 
ENDROOT
BRANCH   1   7
ATOM      7  N   UNL d   1       2.297  -0.584   0.707  0.00  0.00    -0.732 N 
ATOM      8  C   UNL d   1       3.179   0.557   0.592  0.00  0.00     0.284 C 
ATOM      9  H3  UNL d   1       2.606  -1.283   1.380  0.00  0.00     0.395 HD
ENDBRANCH   1   7
TORSDOF 1
ENDMDL
