MODEL 1
REMARK minimizedAffinity 0.550610065
REMARK minimizedRMSD -1
REMARK  1 active torsions:
REMARK  status: ('A' for Active; 'I' for Inactive)
REMARK    1  A    between atoms: N_2  and  C1_3 
ROOT
ATOM      1  C1  UNL d   1       0.096  -2.222  -0.698  0.00  0.00     0.143 A 
ATOM      2  C2  UNL d   1      -1.219  -2.689  -0.800  0.00  0.00    -0.057 A 
ATOM      3  C3  UNL d   1      -1.648  -3.413  -1.919  0.00  0.00     0.033 A 
ATOM      4  C4  UNL d   1      -0.774  -3.660  -2.972  0.00  0.00    -0.042 A 
ATOM      5  C5  UNL d   1       0.530  -3.184  -2.904  0.00  0.00     0.033 A 
ATOM      6  C6  UNL d   1       0.955  -2.467  -1.781  0.00  0.00    -0.057 A 
ENDROOT
BRANCH   1   7
ATOM      7  N   UNL d   1       0.555  -1.412   0.343  0.00  0.00    -0.732 N 
ATOM      8  C   UNL d   1       1.747  -0.608   0.180  0.00  0.00     0.284 C 
ATOM      9  H3  UNL d   1      -0.202  -0.939   0.830  0.00  0.00     0.395 HD
ENDBRANCH   1   7
TORSDOF 1
ENDMDL
