MODEL 1
REMARK minimizedAffinity -3.55726981
REMARK minimizedRMSD -1
REMARK  1 active torsions:
REMARK  status: ('A' for Active; 'I' for Inactive)
REMARK    1  A    between atoms: N_2  and  C1_3 
ROOT
ATOM      1  C1  UNL d   1       0.112  -0.105   0.153  0.00  0.00     0.143 A 
ATOM      2  C2  UNL d   1      -1.213   0.285   0.377  0.00  0.00    -0.057 A 
ATOM      3  C3  UNL d   1      -1.535   1.610   0.696  0.00  0.00     0.033 A 
ATOM      4  C4  UNL d   1      -0.532   2.564   0.825  0.00  0.00    -0.042 A 
ATOM      5  C5  UNL d   1       0.794   2.194   0.631  0.00  0.00     0.033 A 
ATOM      6  C6  UNL d   1       1.109   0.871   0.306  0.00  0.00    -0.057 A 
ENDROOT
BRANCH   1   7
ATOM      7  N   UNL d   1       0.506  -1.427  -0.070  0.00  0.00    -0.732 N 
ATOM      8  C   UNL d   1      -0.288  -2.302  -0.906  0.00  0.00     0.284 C 
ATOM      9  H3  UNL d   1       1.510  -1.514  -0.211  0.00  0.00     0.395 HD
ENDBRANCH   1   7
TORSDOF 1
ENDMDL
