MODEL 1
REMARK minimizedAffinity -4.49998236
REMARK minimizedRMSD -1
REMARK  1 active torsions:
REMARK  status: ('A' for Active; 'I' for Inactive)
REMARK    1  A    between atoms: N_2  and  C1_3 
ROOT
ATOM      1  C1  UNL d   1       0.197   2.101   0.121  0.00  0.00     0.143 A 
ATOM      2  C2  UNL d   1      -0.860   1.194   0.251  0.00  0.00    -0.057 A 
ATOM      3  C3  UNL d   1      -0.627  -0.184   0.349  0.00  0.00     0.033 A 
ATOM      4  C4  UNL d   1       0.671  -0.681   0.290  0.00  0.00    -0.042 A 
ATOM      5  C5  UNL d   1       1.735   0.200   0.136  0.00  0.00     0.033 A 
ATOM      6  C6  UNL d   1       1.496   1.575   0.045  0.00  0.00    -0.057 A 
ENDROOT
BRANCH   1   7
ATOM      7  N   UNL d   1       0.024   3.473  -0.080  0.00  0.00    -0.732 N 
ATOM      8  C   UNL d   1       1.066   4.408   0.283  0.00  0.00     0.284 C 
ATOM      9  H3  UNL d   1      -0.432   3.681  -0.966  0.00  0.00     0.395 HD
ENDBRANCH   1   7
TORSDOF 1
ENDMDL
