MODEL 1
REMARK minimizedAffinity -3.1680541
REMARK minimizedRMSD -1
REMARK  2 active torsions:
REMARK  status: ('A' for Active; 'I' for Inactive)
REMARK    1  A    between atoms: C2'_3  and  C1'_4 
REMARK    2  A    between atoms: C1'_4  and  C1_5 
ROOT
ATOM      1  C1  I4B d   1       1.176  -0.834   0.746  0.00  0.00    -0.075 A 
ATOM      2  C2  I4B d   1       0.654  -2.000   1.249  0.00  0.00     0.003 A 
ATOM      3  C3  I4B d   1       1.095  -2.496   2.500  0.00  0.00     0.002 A 
ATOM      4  C4  I4B d   1       2.089  -1.827   3.185  0.00  0.00    -0.004 A 
ATOM      5  C5  I4B d   1       2.601  -0.634   2.683  0.00  0.00     0.002 A 
ATOM      6  C6  I4B d   1       2.133  -0.127   1.462  0.00  0.00     0.003 A 
ENDROOT
BRANCH   1   7
ATOM      7  C1' I4B d   1       0.712  -0.356  -0.593  0.00  0.00     0.060 C 
BRANCH   7   8
ATOM      8  C2' I4B d   1      -0.477   0.558  -0.376  0.00  0.00    -0.013 C 
ATOM      9  C4' I4B d   1      -0.039   1.986  -0.185  0.00  0.00     0.013 C 
ATOM     10  C3' I4B d   1      -1.386   0.424  -1.561  0.00  0.00     0.013 C 
ENDBRANCH   7   8
ENDBRANCH   1   7
TORSDOF 2
ENDMDL
