MODEL 1
REMARK minimizedAffinity 13.1718092
REMARK minimizedRMSD -1
REMARK  2 active torsions:
REMARK  status: ('A' for Active; 'I' for Inactive)
REMARK    1  A    between atoms: C2'_3  and  C1'_4 
REMARK    2  A    between atoms: C1'_4  and  C1_5 
ROOT
ATOM      1  C1  I4B d   1      -2.551   1.559  -2.773  0.00  0.00    -0.075 A 
ATOM      2  C2  I4B d   1      -2.712   2.338  -3.892  0.00  0.00     0.003 A 
ATOM      3  C3  I4B d   1      -3.294   3.625  -3.786  0.00  0.00     0.002 A 
ATOM      4  C4  I4B d   1      -3.743   4.069  -2.559  0.00  0.00    -0.004 A 
ATOM      5  C5  I4B d   1      -3.558   3.287  -1.423  0.00  0.00     0.002 A 
ATOM      6  C6  I4B d   1      -2.947   2.029  -1.528  0.00  0.00     0.003 A 
ENDROOT
BRANCH   1   7
ATOM      7  C1' I4B d   1      -1.963   0.192  -2.926  0.00  0.00     0.060 C 
BRANCH   7   8
ATOM      8  C2' I4B d   1      -3.050  -0.729  -3.440  0.00  0.00    -0.013 C 
ATOM      9  C4' I4B d   1      -3.144  -0.677  -4.942  0.00  0.00     0.013 C 
ATOM     10  C3' I4B d   1      -2.744  -2.118  -2.965  0.00  0.00     0.013 C 
ENDBRANCH   7   8
ENDBRANCH   1   7
TORSDOF 2
ENDMDL
