MODEL 1
REMARK minimizedAffinity 13.5226107
REMARK minimizedRMSD -1
REMARK  2 active torsions:
REMARK  status: ('A' for Active; 'I' for Inactive)
REMARK    1  A    between atoms: C2'_3  and  C1'_4 
REMARK    2  A    between atoms: C1'_4  and  C1_5 
ROOT
ATOM      1  C1  I4B d   1       1.610  -2.203   3.440  0.00  0.00    -0.075 A 
ATOM      2  C2  I4B d   1       1.964  -0.879   3.508  0.00  0.00     0.003 A 
ATOM      3  C3  I4B d   1       2.369  -0.311   4.740  0.00  0.00     0.002 A 
ATOM      4  C4  I4B d   1       2.358  -1.086   5.881  0.00  0.00    -0.004 A 
ATOM      5  C5  I4B d   1       2.021  -2.435   5.807  0.00  0.00     0.002 A 
ATOM      6  C6  I4B d   1       1.657  -3.000   4.576  0.00  0.00     0.003 A 
ENDROOT
BRANCH   1   7
ATOM      7  C1' I4B d   1       1.155  -2.762   2.129  0.00  0.00     0.060 C 
BRANCH   7   8
ATOM      8  C2' I4B d   1       2.350  -3.408   1.457  0.00  0.00    -0.013 C 
ATOM      9  C4' I4B d   1       2.539  -4.826   1.928  0.00  0.00     0.013 C 
ATOM     10  C3' I4B d   1       2.132  -3.355  -0.026  0.00  0.00     0.013 C 
ENDBRANCH   7   8
ENDBRANCH   1   7
TORSDOF 2
ENDMDL
