MODEL 1
REMARK minimizedAffinity 7.17837763
REMARK minimizedRMSD -1
REMARK  2 active torsions:
REMARK  status: ('A' for Active; 'I' for Inactive)
REMARK    1  A    between atoms: C2'_3  and  C1'_4 
REMARK    2  A    between atoms: C1'_4  and  C1_5 
ROOT
ATOM      1  C1  I4B d   1      -2.487  -0.836  -1.897  0.00  0.00    -0.075 A 
ATOM      2  C2  I4B d   1      -2.879   0.393  -1.429  0.00  0.00     0.003 A 
ATOM      3  C3  I4B d   1      -3.117   1.457  -2.332  0.00  0.00     0.002 A 
ATOM      4  C4  I4B d   1      -2.903   1.263  -3.682  0.00  0.00    -0.004 A 
ATOM      5  C5  I4B d   1      -2.529   0.010  -4.157  0.00  0.00     0.002 A 
ATOM      6  C6  I4B d   1      -2.331  -1.051  -3.260  0.00  0.00     0.003 A 
ENDROOT
BRANCH   1   7
ATOM      7  C1' I4B d   1      -2.213  -1.928  -0.912  0.00  0.00     0.060 C 
BRANCH   7   8
ATOM      8  C2' I4B d   1      -1.560  -1.306   0.305  0.00  0.00    -0.013 C 
ATOM      9  C4' I4B d   1      -2.546  -0.484   1.093  0.00  0.00     0.013 C 
ATOM     10  C3' I4B d   1      -0.988  -2.412   1.141  0.00  0.00     0.013 C 
ENDBRANCH   7   8
ENDBRANCH   1   7
TORSDOF 2
ENDMDL
