MODEL 1
REMARK minimizedAffinity 14.6299992
REMARK minimizedRMSD -1
REMARK  2 active torsions:
REMARK  status: ('A' for Active; 'I' for Inactive)
REMARK    1  A    between atoms: C2'_3  and  C1'_4 
REMARK    2  A    between atoms: C1'_4  and  C1_5 
ROOT
ATOM      1  C1  I4B d   1      -2.350   0.281  -3.332  0.00  0.00    -0.075 A 
ATOM      2  C2  I4B d   1      -1.649  -0.426  -2.387  0.00  0.00     0.003 A 
ATOM      3  C3  I4B d   1      -1.874  -1.815  -2.224  0.00  0.00     0.002 A 
ATOM      4  C4  I4B d   1      -2.838  -2.442  -2.987  0.00  0.00    -0.004 A 
ATOM      5  C5  I4B d   1      -3.531  -1.728  -3.960  0.00  0.00     0.002 A 
ATOM      6  C6  I4B d   1      -3.277  -0.361  -4.143  0.00  0.00     0.003 A 
ENDROOT
BRANCH   1   7
ATOM      7  C1' I4B d   1      -2.111   1.752  -3.455  0.00  0.00     0.060 C 
BRANCH   7   8
ATOM      8  C2' I4B d   1      -3.458   2.446  -3.438  0.00  0.00    -0.013 C 
ATOM      9  C4' I4B d   1      -3.839   2.860  -2.041  0.00  0.00     0.013 C 
ATOM     10  C3' I4B d   1      -3.379   3.633  -4.351  0.00  0.00     0.013 C 
ENDBRANCH   7   8
ENDBRANCH   1   7
TORSDOF 2
ENDMDL
