MODEL 1
REMARK minimizedAffinity 8.87422371
REMARK minimizedRMSD -1
REMARK  2 active torsions:
REMARK  status: ('A' for Active; 'I' for Inactive)
REMARK    1  A    between atoms: C2'_3  and  C1'_4 
REMARK    2  A    between atoms: C1'_4  and  C1_5 
ROOT
ATOM      1  C1  I4B d   1       1.697  -0.211   2.491  0.00  0.00    -0.075 A 
ATOM      2  C2  I4B d   1       1.596  -1.514   2.909  0.00  0.00     0.003 A 
ATOM      3  C3  I4B d   1       1.934  -1.864   4.239  0.00  0.00     0.002 A 
ATOM      4  C4  I4B d   1       2.413  -0.894   5.096  0.00  0.00    -0.004 A 
ATOM      5  C5  I4B d   1       2.493   0.430   4.677  0.00  0.00     0.002 A 
ATOM      6  C6  I4B d   1       2.121   0.777   3.370  0.00  0.00     0.003 A 
ENDROOT
BRANCH   1   7
ATOM      7  C1' I4B d   1       1.364   0.118   1.070  0.00  0.00     0.060 C 
BRANCH   7   8
ATOM      8  C2' I4B d   1       0.298   1.194   1.078  0.00  0.00    -0.013 C 
ATOM      9  C4' I4B d   1       0.566   2.234   0.022  0.00  0.00     0.013 C 
ATOM     10  C3' I4B d   1      -1.030   0.532   0.861  0.00  0.00     0.013 C 
ENDBRANCH   7   8
ENDBRANCH   1   7
TORSDOF 2
ENDMDL
