MODEL 1
REMARK minimizedAffinity -4.2491827
REMARK minimizedRMSD -1
REMARK  0 active torsions:
REMARK  status: ('A' for Active; 'I' for Inactive)
ROOT
ATOM      1  C   UNL d   1       0.146   0.260  -1.378  0.00  0.00     0.078 C 
ATOM      2  C1  UNL d   1       0.034   0.194   0.116  0.00  0.00    -0.077 A 
ATOM      3  C2  UNL d   1      -1.088  -0.375   0.730  0.00  0.00    -0.001 A 
ATOM      4  C3  UNL d   1      -1.183  -0.420   2.122  0.00  0.00     0.003 A 
ATOM      5  C4  UNL d   1      -0.161   0.103   2.911  0.00  0.00    -0.005 A 
ATOM      6  C5  UNL d   1       0.959   0.673   2.308  0.00  0.00     0.003 A 
ATOM      7  C6  UNL d   1       1.056   0.719   0.916  0.00  0.00    -0.001 A 
ENDROOT
TORSDOF 0
ENDMDL
