MODEL 1
REMARK minimizedAffinity -5.0318408
REMARK minimizedRMSD -1
REMARK  0 active torsions:
REMARK  status: ('A' for Active; 'I' for Inactive)
ROOT
ATOM      1  C   UNL d   1       0.748   0.417  -0.850  0.00  0.00     0.078 C 
ATOM      2  C1  UNL d   1       0.358  -0.012   0.533  0.00  0.00    -0.077 A 
ATOM      3  C2  UNL d   1      -0.949  -0.429   0.816  0.00  0.00    -0.001 A 
ATOM      4  C3  UNL d   1      -1.301  -0.817   2.110  0.00  0.00     0.003 A 
ATOM      5  C4  UNL d   1      -0.353  -0.790   3.131  0.00  0.00    -0.005 A 
ATOM      6  C5  UNL d   1       0.949  -0.374   2.859  0.00  0.00     0.003 A 
ATOM      7  C6  UNL d   1       1.303   0.014   1.566  0.00  0.00    -0.001 A 
ENDROOT
TORSDOF 0
ENDMDL
