MODEL 1
REMARK minimizedAffinity -5.10623074
REMARK minimizedRMSD -1
REMARK  0 active torsions:
REMARK  status: ('A' for Active; 'I' for Inactive)
ROOT
ATOM      1  C   UNL d   1       0.463  -0.093  -1.712  0.00  0.00     0.078 C 
ATOM      2  C1  UNL d   1       0.207  -0.012  -0.236  0.00  0.00    -0.077 A 
ATOM      3  C2  UNL d   1       1.231   0.332   0.655  0.00  0.00    -0.001 A 
ATOM      4  C3  UNL d   1       0.981   0.394   2.027  0.00  0.00     0.003 A 
ATOM      5  C4  UNL d   1      -0.292   0.112   2.520  0.00  0.00    -0.005 A 
ATOM      6  C5  UNL d   1      -1.316  -0.234   1.640  0.00  0.00     0.003 A 
ATOM      7  C6  UNL d   1      -1.068  -0.296   0.268  0.00  0.00    -0.001 A 
ENDROOT
TORSDOF 0
ENDMDL
