MODEL 1
REMARK minimizedAffinity -4.71612501
REMARK minimizedRMSD -1
REMARK  0 active torsions:
REMARK  status: ('A' for Active; 'I' for Inactive)
ROOT
ATOM      1  C   UNL d   1       0.423   0.167  -1.420  0.00  0.00     0.078 C 
ATOM      2  C1  UNL d   1       0.231   0.035   0.061  0.00  0.00    -0.077 A 
ATOM      3  C2  UNL d   1       1.112   0.649   0.960  0.00  0.00    -0.001 A 
ATOM      4  C3  UNL d   1       0.927   0.510   2.336  0.00  0.00     0.003 A 
ATOM      5  C4  UNL d   1      -0.137  -0.244   2.826  0.00  0.00    -0.005 A 
ATOM      6  C5  UNL d   1      -1.018  -0.860   1.940  0.00  0.00     0.003 A 
ATOM      7  C6  UNL d   1      -0.835  -0.722   0.563  0.00  0.00    -0.001 A 
ENDROOT
TORSDOF 0
ENDMDL
