MODEL 1
REMARK minimizedAffinity -5.45083189
REMARK minimizedRMSD -1
REMARK  0 active torsions:
REMARK  status: ('A' for Active; 'I' for Inactive)
ROOT
ATOM      1  C   UNL d   1      -0.648  -0.610   3.823  0.00  0.00     0.078 C 
ATOM      2  C1  UNL d   1      -0.188  -0.161   2.468  0.00  0.00    -0.077 A 
ATOM      3  C2  UNL d   1      -0.972  -0.384   1.330  0.00  0.00    -0.001 A 
ATOM      4  C3  UNL d   1      -0.528   0.030   0.074  0.00  0.00     0.003 A 
ATOM      5  C4  UNL d   1       0.704   0.669  -0.057  0.00  0.00    -0.005 A 
ATOM      6  C5  UNL d   1       1.493   0.893   1.070  0.00  0.00     0.003 A 
ATOM      7  C6  UNL d   1       1.049   0.480   2.327  0.00  0.00    -0.001 A 
ENDROOT
TORSDOF 0
ENDMDL
