MODEL 1
REMARK minimizedAffinity -4.51428366
REMARK minimizedRMSD -1
REMARK  0 active torsions:
REMARK  status: ('A' for Active; 'I' for Inactive)
ROOT
ATOM      1  C   UNL d   1       0.470   0.103  -1.238  0.00  0.00     0.078 C 
ATOM      2  C1  UNL d   1       0.323   0.039   0.253  0.00  0.00    -0.077 A 
ATOM      3  C2  UNL d   1       1.429   0.205   1.095  0.00  0.00    -0.001 A 
ATOM      4  C3  UNL d   1       1.278   0.133   2.481  0.00  0.00     0.003 A 
ATOM      5  C4  UNL d   1       0.023  -0.106   3.037  0.00  0.00    -0.005 A 
ATOM      6  C5  UNL d   1      -1.083  -0.276   2.207  0.00  0.00     0.003 A 
ATOM      7  C6  UNL d   1      -0.934  -0.204   0.821  0.00  0.00    -0.001 A 
ENDROOT
TORSDOF 0
ENDMDL
