MODEL 1
REMARK minimizedAffinity -3.64227057
REMARK minimizedRMSD -1
REMARK  0 active torsions:
REMARK  status: ('A' for Active; 'I' for Inactive)
ROOT
ATOM      1  C   UNL d   1       2.014   0.396   1.053  0.00  0.00     0.078 C 
ATOM      2  C1  UNL d   1       0.670   0.259   1.703  0.00  0.00    -0.077 A 
ATOM      3  C2  UNL d   1      -0.490   0.105   0.934  0.00  0.00    -0.001 A 
ATOM      4  C3  UNL d   1      -1.737  -0.011   1.552  0.00  0.00     0.003 A 
ATOM      5  C4  UNL d   1      -1.835   0.026   2.941  0.00  0.00    -0.005 A 
ATOM      6  C5  UNL d   1      -0.686   0.182   3.714  0.00  0.00     0.003 A 
ATOM      7  C6  UNL d   1       0.561   0.298   3.098  0.00  0.00    -0.001 A 
ENDROOT
TORSDOF 0
ENDMDL
