MODEL 1
REMARK minimizedAffinity -4.93932724
REMARK minimizedRMSD -1
REMARK  0 active torsions:
REMARK  status: ('A' for Active; 'I' for Inactive)
ROOT
ATOM      1  C   UNL d   1       0.462  -0.053  -1.143  0.00  0.00     0.078 C 
ATOM      2  C1  UNL d   1       0.445  -0.071   0.356  0.00  0.00    -0.077 A 
ATOM      3  C2  UNL d   1       1.625   0.095   1.093  0.00  0.00    -0.001 A 
ATOM      4  C3  UNL d   1       1.596   0.067   2.488  0.00  0.00     0.003 A 
ATOM      5  C4  UNL d   1       0.391  -0.129   3.159  0.00  0.00    -0.005 A 
ATOM      6  C5  UNL d   1      -0.788  -0.298   2.435  0.00  0.00     0.003 A 
ATOM      7  C6  UNL d   1      -0.761  -0.270   1.040  0.00  0.00    -0.001 A 
ENDROOT
TORSDOF 0
ENDMDL
