MODEL 1
REMARK minimizedAffinity -4.77522755
REMARK minimizedRMSD -1
REMARK  0 active torsions:
REMARK  status: ('A' for Active; 'I' for Inactive)
ROOT
ATOM      1  C   UNL d   1       0.589   0.053  -1.202  0.00  0.00     0.078 C 
ATOM      2  C1  UNL d   1       0.320  -0.227   0.247  0.00  0.00    -0.077 A 
ATOM      3  C2  UNL d   1      -0.806  -0.959   0.643  0.00  0.00    -0.001 A 
ATOM      4  C3  UNL d   1      -1.049  -1.204   1.995  0.00  0.00     0.003 A 
ATOM      5  C4  UNL d   1      -0.171  -0.718   2.963  0.00  0.00    -0.005 A 
ATOM      6  C5  UNL d   1       0.951   0.013   2.578  0.00  0.00     0.003 A 
ATOM      7  C6  UNL d   1       1.195   0.259   1.226  0.00  0.00    -0.001 A 
ENDROOT
TORSDOF 0
ENDMDL
