MODEL 1
REMARK minimizedAffinity -2.31113958
REMARK minimizedRMSD -1
REMARK  0 active torsions:
REMARK  status: ('A' for Active; 'I' for Inactive)
ROOT
ATOM      1  C   UNL d   1      -1.265   0.065   3.741  0.00  0.00     0.078 C 
ATOM      2  C1  UNL d   1      -0.830   0.076   2.306  0.00  0.00    -0.077 A 
ATOM      3  C2  UNL d   1       0.528   0.084   1.964  0.00  0.00    -0.001 A 
ATOM      4  C3  UNL d   1       0.918   0.104   0.624  0.00  0.00     0.003 A 
ATOM      5  C4  UNL d   1      -0.043   0.118  -0.384  0.00  0.00    -0.005 A 
ATOM      6  C5  UNL d   1      -1.397   0.113  -0.054  0.00  0.00     0.003 A 
ATOM      7  C6  UNL d   1      -1.789   0.093   1.286  0.00  0.00    -0.001 A 
ENDROOT
TORSDOF 0
ENDMDL
