MODEL 1
REMARK minimizedAffinity -4.37554979
REMARK minimizedRMSD -1
REMARK  0 active torsions:
REMARK  status: ('A' for Active; 'I' for Inactive)
ROOT
ATOM      1  C   UNL d   1       0.222   0.120  -1.160  0.00  0.00     0.078 C 
ATOM      2  C1  UNL d   1       0.020   0.042   0.324  0.00  0.00    -0.077 A 
ATOM      3  C2  UNL d   1      -1.138  -0.529   0.866  0.00  0.00    -0.001 A 
ATOM      4  C3  UNL d   1      -1.316  -0.586   2.249  0.00  0.00     0.003 A 
ATOM      5  C4  UNL d   1      -0.341  -0.073   3.102  0.00  0.00    -0.005 A 
ATOM      6  C5  UNL d   1       0.814   0.499   2.572  0.00  0.00     0.003 A 
ATOM      7  C6  UNL d   1       0.994   0.557   1.189  0.00  0.00    -0.001 A 
ENDROOT
TORSDOF 0
ENDMDL
