MODEL 1
REMARK minimizedAffinity -5.67541981
REMARK minimizedRMSD -1
REMARK  0 active torsions:
REMARK  status: ('A' for Active; 'I' for Inactive)
ROOT
ATOM      1  C   UNL d   1       1.857  -0.065   1.126  0.00  0.00     0.078 C 
ATOM      2  C1  UNL d   1       0.407   0.009   1.502  0.00  0.00    -0.077 A 
ATOM      3  C2  UNL d   1      -0.589   0.096   0.521  0.00  0.00    -0.001 A 
ATOM      4  C3  UNL d   1      -1.934   0.174   0.885  0.00  0.00     0.003 A 
ATOM      5  C4  UNL d   1      -2.296   0.168   2.231  0.00  0.00    -0.005 A 
ATOM      6  C5  UNL d   1      -1.312   0.084   3.214  0.00  0.00     0.003 A 
ATOM      7  C6  UNL d   1       0.034   0.005   2.851  0.00  0.00    -0.001 A 
ENDROOT
TORSDOF 0
ENDMDL
