MODEL 1
REMARK minimizedAffinity -4.44784451
REMARK minimizedRMSD -1
REMARK  0 active torsions:
REMARK  status: ('A' for Active; 'I' for Inactive)
ROOT
ATOM      1  C   UNL d   1       0.392  -0.015  -1.055  0.00  0.00     0.078 C 
ATOM      2  C1  UNL d   1       0.119  -0.079   0.418  0.00  0.00    -0.077 A 
ATOM      3  C2  UNL d   1       1.162  -0.003   1.349  0.00  0.00    -0.001 A 
ATOM      4  C3  UNL d   1       0.894  -0.074   2.717  0.00  0.00     0.003 A 
ATOM      5  C4  UNL d   1      -0.417  -0.222   3.166  0.00  0.00    -0.005 A 
ATOM      6  C5  UNL d   1      -1.461  -0.300   2.248  0.00  0.00     0.003 A 
ATOM      7  C6  UNL d   1      -1.195  -0.230   0.879  0.00  0.00    -0.001 A 
ENDROOT
TORSDOF 0
ENDMDL
