MODEL 1
REMARK minimizedAffinity -2.98372722
REMARK minimizedRMSD -1
REMARK  1 active torsions:
REMARK  status: ('A' for Active; 'I' for Inactive)
REMARK    1  A    between atoms: C1_2  and  C2_3 
ROOT
ATOM      1  C2  UNL d   1      -1.225  -0.116  -1.658  0.00  0.00    -0.081 A 
ATOM      2  C3  UNL d   1      -1.327  -1.142  -0.710  0.00  0.00     0.006 A 
ATOM      3  C4  UNL d   1      -0.407  -1.233   0.337  0.00  0.00     0.002 A 
ATOM      4  C5  UNL d   1       0.624  -0.296   0.459  0.00  0.00    -0.080 A 
ATOM      5  C6  UNL d   1       1.600  -0.364   1.596  0.00  0.00     0.076 C 
ATOM      6  C7  UNL d   1       0.737   0.719  -0.497  0.00  0.00     0.002 A 
ATOM      7  C8  UNL d   1      -0.182   0.810  -1.545  0.00  0.00     0.006 A 
ENDROOT
BRANCH   1   8
ATOM      8  C1  UNL d   1      -2.253   0.023  -2.751  0.00  0.00     0.054 C 
ATOM      9  C   UNL d   1      -3.616  -0.479  -2.296  0.00  0.00     0.018 C 
ENDBRANCH   1   8
TORSDOF 1
ENDMDL
