MODEL 1
REMARK minimizedAffinity 6.48976278
REMARK minimizedRMSD -1
REMARK  1 active torsions:
REMARK  status: ('A' for Active; 'I' for Inactive)
REMARK    1  A    between atoms: C1_2  and  C2_3 
ROOT
ATOM      1  C2  UNL d   1       0.870   1.727   2.040  0.00  0.00    -0.081 A 
ATOM      2  C3  UNL d   1       0.382   2.316   0.867  0.00  0.00     0.006 A 
ATOM      3  C4  UNL d   1       0.797   3.596   0.492  0.00  0.00     0.002 A 
ATOM      4  C5  UNL d   1       1.711   4.304   1.278  0.00  0.00    -0.080 A 
ATOM      5  C6  UNL d   1       2.188   5.667   0.871  0.00  0.00     0.076 C 
ATOM      6  C7  UNL d   1       2.185   3.723   2.459  0.00  0.00     0.002 A 
ATOM      7  C8  UNL d   1       1.770   2.444   2.835  0.00  0.00     0.006 A 
ENDROOT
BRANCH   1   8
ATOM      8  C1  UNL d   1       0.474   0.321   2.414  0.00  0.00     0.054 C 
ATOM      9  C   UNL d   1       1.290  -0.707   1.643  0.00  0.00     0.018 C 
ENDBRANCH   1   8
TORSDOF 1
ENDMDL
