MODEL 1
REMARK minimizedAffinity -2.79096222
REMARK minimizedRMSD -1
REMARK  1 active torsions:
REMARK  status: ('A' for Active; 'I' for Inactive)
REMARK    1  A    between atoms: C1_2  and  C2_3 
ROOT
ATOM      1  C2  UNL d   1       0.303   2.721  -0.258  0.00  0.00    -0.081 A 
ATOM      2  C3  UNL d   1       0.320   3.028   1.108  0.00  0.00     0.006 A 
ATOM      3  C4  UNL d   1       0.471   2.017   2.060  0.00  0.00     0.002 A 
ATOM      4  C5  UNL d   1       0.617   0.684   1.662  0.00  0.00    -0.080 A 
ATOM      5  C6  UNL d   1       0.811  -0.408   2.672  0.00  0.00     0.076 C 
ATOM      6  C7  UNL d   1       0.582   0.374   0.298  0.00  0.00     0.002 A 
ATOM      7  C8  UNL d   1       0.430   1.385  -0.654  0.00  0.00     0.006 A 
ENDROOT
BRANCH   1   8
ATOM      8  C1  UNL d   1       0.204   3.816  -1.289  0.00  0.00     0.054 C 
ATOM      9  C   UNL d   1       1.124   4.980  -0.949  0.00  0.00     0.018 C 
ENDBRANCH   1   8
TORSDOF 1
ENDMDL
