MODEL 1
REMARK minimizedAffinity 4.61441135
REMARK minimizedRMSD -1
REMARK  0 active torsions:
REMARK  status: ('A' for Active; 'I' for Inactive)
ROOT
ATOM      1  C4' PXY d   1      -2.943   2.963  -2.930  0.00  0.00     0.077 C 
ATOM      2  C1' PXY d   1       2.288   0.675  -2.028  0.00  0.00     0.077 C 
ATOM      3  C1  PXY d   1       0.922   1.287  -2.268  0.00  0.00    -0.082 A 
ATOM      4  C2  PXY d   1      -0.141   0.765  -1.677  0.00  0.00     0.003 A 
ATOM      5  C3  PXY d   1      -1.388   1.286  -1.908  0.00  0.00     0.003 A 
ATOM      6  C4  PXY d   1      -1.543   2.385  -2.710  0.00  0.00    -0.082 A 
ATOM      7  C5  PXY d   1      -0.462   2.929  -3.307  0.00  0.00     0.003 A 
ATOM      8  C6  PXY d   1       0.790   2.361  -3.093  0.00  0.00     0.003 A 
ENDROOT
TORSDOF 0
ENDMDL
