MODEL 1
REMARK minimizedAffinity 1.93671119
REMARK minimizedRMSD -1
REMARK  0 active torsions:
REMARK  status: ('A' for Active; 'I' for Inactive)
ROOT
ATOM      1  C4' PXY d   1      -3.152   1.045  -1.952  0.00  0.00     0.077 C 
ATOM      2  C1' PXY d   1       1.105   4.717  -3.293  0.00  0.00     0.077 C 
ATOM      3  C1  PXY d   1      -0.019   3.764  -2.940  0.00  0.00    -0.082 A 
ATOM      4  C2  PXY d   1       0.265   2.580  -2.423  0.00  0.00     0.003 A 
ATOM      5  C3  PXY d   1      -0.739   1.693  -2.128  0.00  0.00     0.003 A 
ATOM      6  C4  PXY d   1      -2.049   2.043  -2.315  0.00  0.00    -0.082 A 
ATOM      7  C5  PXY d   1      -2.348   3.253  -2.833  0.00  0.00     0.003 A 
ATOM      8  C6  PXY d   1      -1.313   4.123  -3.164  0.00  0.00     0.003 A 
ENDROOT
TORSDOF 0
ENDMDL
