MODEL 1
REMARK minimizedAffinity 11.5825138
REMARK minimizedRMSD -1
REMARK  0 active torsions:
REMARK  status: ('A' for Active; 'I' for Inactive)
ROOT
ATOM      1  C4' PXY d   1       1.055   5.643  -3.785  0.00  0.00     0.077 C 
ATOM      2  C1' PXY d   1      -2.999   1.883  -2.101  0.00  0.00     0.077 C 
ATOM      3  C1  PXY d   1      -1.945   2.875  -2.550  0.00  0.00    -0.082 A 
ATOM      4  C2  PXY d   1      -0.666   2.541  -2.494  0.00  0.00     0.003 A 
ATOM      5  C3  PXY d   1       0.303   3.437  -2.866  0.00  0.00     0.003 A 
ATOM      6  C4  PXY d   1      -0.044   4.670  -3.351  0.00  0.00    -0.082 A 
ATOM      7  C5  PXY d   1      -1.347   5.015  -3.421  0.00  0.00     0.003 A 
ATOM      8  C6  PXY d   1      -2.313   4.105  -3.000  0.00  0.00     0.003 A 
ENDROOT
TORSDOF 0
ENDMDL
