MODEL 1
REMARK minimizedAffinity 5.39307308
REMARK minimizedRMSD -1
REMARK  0 active torsions:
REMARK  status: ('A' for Active; 'I' for Inactive)
ROOT
ATOM      1  C4' PXY d   1       5.454  -5.250   0.711  0.00  0.00     0.077 C 
ATOM      2  C1' PXY d   1       0.688  -2.327   2.180  0.00  0.00     0.077 C 
ATOM      3  C1  PXY d   1       1.945  -3.083   1.795  0.00  0.00    -0.082 A 
ATOM      4  C2  PXY d   1       1.844  -4.263   1.205  0.00  0.00     0.003 A 
ATOM      5  C3  PXY d   1       2.970  -4.974   0.878  0.00  0.00     0.003 A 
ATOM      6  C4  PXY d   1       4.212  -4.448   1.109  0.00  0.00    -0.082 A 
ATOM      7  C5  PXY d   1       4.324  -3.239   1.701  0.00  0.00     0.003 A 
ATOM      8  C6  PXY d   1       3.169  -2.552   2.062  0.00  0.00     0.003 A 
ENDROOT
TORSDOF 0
ENDMDL
