MODEL 1
REMARK minimizedAffinity 1.59041214
REMARK minimizedRMSD -1
REMARK  0 active torsions:
REMARK  status: ('A' for Active; 'I' for Inactive)
ROOT
ATOM      1  C4' PXY d   1       5.989   3.378  -3.548  0.00  0.00     0.077 C 
ATOM      2  C1' PXY d   1       5.943  -1.944  -5.805  0.00  0.00     0.077 C 
ATOM      3  C1  PXY d   1       5.951  -0.553  -5.202  0.00  0.00    -0.082 A 
ATOM      4  C2  PXY d   1       5.917   0.505  -5.996  0.00  0.00     0.003 A 
ATOM      5  C3  PXY d   1       5.955   1.770  -5.469  0.00  0.00     0.003 A 
ATOM      6  C4  PXY d   1       5.974   1.954  -4.112  0.00  0.00    -0.082 A 
ATOM      7  C5  PXY d   1       5.998   0.880  -3.295  0.00  0.00     0.003 A 
ATOM      8  C6  PXY d   1       6.000  -0.395  -3.851  0.00  0.00     0.003 A 
ENDROOT
TORSDOF 0
ENDMDL
