MODEL 1
REMARK minimizedAffinity 2.29406381
REMARK minimizedRMSD -1
REMARK  0 active torsions:
REMARK  status: ('A' for Active; 'I' for Inactive)
ROOT
ATOM      1  C4' PXY d   1       1.919  -2.635   0.947  0.00  0.00     0.077 C 
ATOM      2  C1' PXY d   1      -2.538   0.063   3.450  0.00  0.00     0.077 C 
ATOM      3  C1  PXY d   1      -1.362  -0.641   2.803  0.00  0.00    -0.082 A 
ATOM      4  C2  PXY d   1      -1.358  -0.844   1.496  0.00  0.00     0.003 A 
ATOM      5  C3  PXY d   1      -0.317  -1.507   0.899  0.00  0.00     0.003 A 
ATOM      6  C4  PXY d   1       0.757  -1.920   1.641  0.00  0.00    -0.082 A 
ATOM      7  C5  PXY d   1       0.766  -1.708   2.974  0.00  0.00     0.003 A 
ATOM      8  C6  PXY d   1      -0.320  -1.069   3.566  0.00  0.00     0.003 A 
ENDROOT
TORSDOF 0
ENDMDL
