MODEL 1
REMARK minimizedAffinity 2.78352213
REMARK minimizedRMSD -1
REMARK  0 active torsions:
REMARK  status: ('A' for Active; 'I' for Inactive)
ROOT
ATOM      1  C4' PXY d   1      -0.007  -1.485   2.995  0.00  0.00     0.077 C 
ATOM      2  C1' PXY d   1       3.490  -4.895  -0.096  0.00  0.00     0.077 C 
ATOM      3  C1  PXY d   1       2.581  -3.991   0.713  0.00  0.00    -0.082 A 
ATOM      4  C2  PXY d   1       1.754  -4.519   1.600  0.00  0.00     0.003 A 
ATOM      5  C3  PXY d   1       0.903  -3.719   2.318  0.00  0.00     0.003 A 
ATOM      6  C4  PXY d   1       0.936  -2.359   2.163  0.00  0.00    -0.082 A 
ATOM      7  C5  PXY d   1       1.784  -1.811   1.267  0.00  0.00     0.003 A 
ATOM      8  C6  PXY d   1       2.611  -2.645   0.519  0.00  0.00     0.003 A 
ENDROOT
TORSDOF 0
ENDMDL
