MODEL 1
REMARK minimizedAffinity 6.87746859
REMARK minimizedRMSD -1
REMARK  0 active torsions:
REMARK  status: ('A' for Active; 'I' for Inactive)
ROOT
ATOM      1  C4' PXY d   1      -2.844   3.012  -2.982  0.00  0.00     0.077 C 
ATOM      2  C1' PXY d   1       2.290   0.911  -1.355  0.00  0.00     0.077 C 
ATOM      3  C1  PXY d   1       0.949   1.474  -1.783  0.00  0.00    -0.082 A 
ATOM      4  C2  PXY d   1      -0.165   0.858  -1.420  0.00  0.00     0.003 A 
ATOM      5  C3  PXY d   1      -1.385   1.336  -1.825  0.00  0.00     0.003 A 
ATOM      6  C4  PXY d   1      -1.468   2.485  -2.565  0.00  0.00    -0.082 A 
ATOM      7  C5  PXY d   1      -0.337   3.125  -2.930  0.00  0.00     0.003 A 
ATOM      8  C6  PXY d   1       0.893   2.601  -2.543  0.00  0.00     0.003 A 
ENDROOT
TORSDOF 0
ENDMDL
