MODEL 1
REMARK minimizedAffinity 8.34401321
REMARK minimizedRMSD -1
REMARK  0 active torsions:
REMARK  status: ('A' for Active; 'I' for Inactive)
ROOT
ATOM      1  C4' PXY d   1      -3.996  -1.007  -2.418  0.00  0.00     0.077 C 
ATOM      2  C1' PXY d   1      -4.157   4.330  -4.632  0.00  0.00     0.077 C 
ATOM      3  C1  PXY d   1      -4.124   2.927  -4.060  0.00  0.00    -0.082 A 
ATOM      4  C2  PXY d   1      -3.694   2.735  -2.824  0.00  0.00     0.003 A 
ATOM      5  C3  PXY d   1      -3.627   1.469  -2.301  0.00  0.00     0.003 A 
ATOM      6  C4  PXY d   1      -4.055   0.394  -3.033  0.00  0.00    -0.082 A 
ATOM      7  C5  PXY d   1      -4.506   0.583  -4.292  0.00  0.00     0.003 A 
ATOM      8  C6  PXY d   1      -4.527   1.871  -4.818  0.00  0.00     0.003 A 
ENDROOT
TORSDOF 0
ENDMDL
