MODEL 1
REMARK minimizedAffinity 6.21883583
REMARK minimizedRMSD -1
REMARK  0 active torsions:
REMARK  status: ('A' for Active; 'I' for Inactive)
ROOT
ATOM      1  C4' PXY d   1       4.019  -0.147  -3.319  0.00  0.00     0.077 C 
ATOM      2  C1' PXY d   1      -0.887   2.837  -2.655  0.00  0.00     0.077 C 
ATOM      3  C1  PXY d   1       0.399   2.050  -2.817  0.00  0.00    -0.082 A 
ATOM      4  C2  PXY d   1       1.300   2.444  -3.702  0.00  0.00     0.003 A 
ATOM      5  C3  PXY d   1       2.453   1.725  -3.884  0.00  0.00     0.003 A 
ATOM      6  C4  PXY d   1       2.711   0.622  -3.115  0.00  0.00    -0.082 A 
ATOM      7  C5  PXY d   1       1.801   0.220  -2.202  0.00  0.00     0.003 A 
ATOM      8  C6  PXY d   1       0.618   0.940  -2.062  0.00  0.00     0.003 A 
ENDROOT
TORSDOF 0
ENDMDL
