MODEL 1
REMARK minimizedAffinity -2.03099203
REMARK minimizedRMSD -1
REMARK  2 active torsions:
REMARK  status: ('A' for Active; 'I' for Inactive)
REMARK    1  A    between atoms: C1_2  and  C2_3 
REMARK    2  A    between atoms: C2_3  and  C3_4 
ROOT
ATOM      1  C3  UNL d   1      -1.919   1.670   2.479  0.00  0.00    -0.075 A 
ATOM      2  C4  UNL d   1      -0.642   2.184   2.209  0.00  0.00     0.002 A 
ATOM      3  C5  UNL d   1       0.352   1.366   1.673  0.00  0.00     0.002 A 
ATOM      4  C6  UNL d   1       0.088   0.023   1.411  0.00  0.00    -0.004 A 
ATOM      5  C7  UNL d   1      -1.172  -0.502   1.691  0.00  0.00     0.002 A 
ATOM      6  C8  UNL d   1      -2.170   0.316   2.223  0.00  0.00     0.002 A 
ENDROOT
BRANCH   1   7
ATOM      7  C2  UNL d   1      -3.008   2.558   3.031  0.00  0.00     0.056 C 
BRANCH   7   8
ATOM      8  C1  UNL d   1      -4.097   1.803   3.801  0.00  0.00     0.007 C 
ATOM      9  C   UNL d   1      -4.701   2.616   4.939  0.00  0.00     0.009 C 
ENDBRANCH   7   8
ENDBRANCH   1   7
TORSDOF 2
ENDMDL
