MODEL 1
REMARK minimizedAffinity -6.22480822
REMARK minimizedRMSD -1
REMARK  2 active torsions:
REMARK  status: ('A' for Active; 'I' for Inactive)
REMARK    1  A    between atoms: C1_2  and  C2_3 
REMARK    2  A    between atoms: C2_3  and  C3_4 
ROOT
ATOM      1  C3  UNL d   1       0.371   0.595   0.900  0.00  0.00    -0.075 A 
ATOM      2  C4  UNL d   1       0.039   1.956   0.952  0.00  0.00     0.002 A 
ATOM      3  C5  UNL d   1      -1.110   2.380   1.622  0.00  0.00     0.002 A 
ATOM      4  C6  UNL d   1      -1.944   1.449   2.237  0.00  0.00    -0.004 A 
ATOM      5  C7  UNL d   1      -1.633   0.092   2.177  0.00  0.00     0.002 A 
ATOM      6  C8  UNL d   1      -0.482  -0.334   1.512  0.00  0.00     0.002 A 
ENDROOT
BRANCH   1   7
ATOM      7  C2  UNL d   1       1.628   0.132   0.202  0.00  0.00     0.056 C 
BRANCH   7   8
ATOM      8  C1  UNL d   1       2.326   1.225  -0.614  0.00  0.00     0.007 C 
ATOM      9  C   UNL d   1       2.918   0.713  -1.920  0.00  0.00     0.009 C 
ENDBRANCH   7   8
ENDBRANCH   1   7
TORSDOF 2
ENDMDL
