MODEL 1
REMARK minimizedAffinity -5.88325644
REMARK minimizedRMSD -1
REMARK  2 active torsions:
REMARK  status: ('A' for Active; 'I' for Inactive)
REMARK    1  A    between atoms: C1_2  and  C2_3 
REMARK    2  A    between atoms: C2_3  and  C3_4 
ROOT
ATOM      1  C3  UNL d   1      -3.012   1.371   2.983  0.00  0.00    -0.075 A 
ATOM      2  C4  UNL d   1      -1.977   2.249   2.627  0.00  0.00     0.002 A 
ATOM      3  C5  UNL d   1      -0.873   1.788   1.909  0.00  0.00     0.002 A 
ATOM      4  C6  UNL d   1      -0.784   0.445   1.549  0.00  0.00    -0.004 A 
ATOM      5  C7  UNL d   1      -1.797  -0.439   1.913  0.00  0.00     0.002 A 
ATOM      6  C8  UNL d   1      -2.905   0.020   2.627  0.00  0.00     0.002 A 
ENDROOT
BRANCH   1   7
ATOM      7  C2  UNL d   1      -4.223   1.870   3.734  0.00  0.00     0.056 C 
BRANCH   7   8
ATOM      8  C1  UNL d   1      -4.059   1.864   5.258  0.00  0.00     0.007 C 
ATOM      9  C   UNL d   1      -5.329   2.258   6.000  0.00  0.00     0.009 C 
ENDBRANCH   7   8
ENDBRANCH   1   7
TORSDOF 2
ENDMDL
