MODEL 1
REMARK minimizedAffinity -1.34138155
REMARK minimizedRMSD -1
REMARK  2 active torsions:
REMARK  status: ('A' for Active; 'I' for Inactive)
REMARK    1  A    between atoms: C1_2  and  C2_3 
REMARK    2  A    between atoms: C2_3  and  C3_4 
ROOT
ATOM      1  C3  UNL d   1      -1.019   0.566   1.515  0.00  0.00    -0.075 A 
ATOM      2  C4  UNL d   1      -0.228  -0.582   1.663  0.00  0.00     0.002 A 
ATOM      3  C5  UNL d   1       1.043  -0.645   1.089  0.00  0.00     0.002 A 
ATOM      4  C6  UNL d   1       1.532   0.431   0.353  0.00  0.00    -0.004 A 
ATOM      5  C7  UNL d   1       0.747   1.570   0.186  0.00  0.00     0.002 A 
ATOM      6  C8  UNL d   1      -0.522   1.638   0.763  0.00  0.00     0.002 A 
ENDROOT
BRANCH   1   7
ATOM      7  C2  UNL d   1      -2.383   0.652   2.159  0.00  0.00     0.056 C 
BRANCH   7   8
ATOM      8  C1  UNL d   1      -2.648   1.977   2.882  0.00  0.00     0.007 C 
ATOM      9  C   UNL d   1      -3.915   1.955   3.728  0.00  0.00     0.009 C 
ENDBRANCH   7   8
ENDBRANCH   1   7
TORSDOF 2
ENDMDL
