MODEL 1
REMARK minimizedAffinity 0.725016117
REMARK minimizedRMSD -1
REMARK  2 active torsions:
REMARK  status: ('A' for Active; 'I' for Inactive)
REMARK    1  A    between atoms: C1_2  and  C2_3 
REMARK    2  A    between atoms: C2_3  and  C3_4 
ROOT
ATOM      1  C3  UNL d   1      -1.645   1.653   2.721  0.00  0.00    -0.075 A 
ATOM      2  C4  UNL d   1      -1.732   0.255   2.643  0.00  0.00     0.002 A 
ATOM      3  C5  UNL d   1      -0.797  -0.473   1.908  0.00  0.00     0.002 A 
ATOM      4  C6  UNL d   1       0.230   0.186   1.234  0.00  0.00    -0.004 A 
ATOM      5  C7  UNL d   1       0.316   1.575   1.291  0.00  0.00     0.002 A 
ATOM      6  C8  UNL d   1      -0.616   2.306   2.030  0.00  0.00     0.002 A 
ENDROOT
BRANCH   1   7
ATOM      7  C2  UNL d   1      -2.637   2.444   3.540  0.00  0.00     0.056 C 
BRANCH   7   8
ATOM      8  C1  UNL d   1      -3.840   1.627   4.023  0.00  0.00     0.007 C 
ATOM      9  C   UNL d   1      -4.678   2.353   5.067  0.00  0.00     0.009 C 
ENDBRANCH   7   8
ENDBRANCH   1   7
TORSDOF 2
ENDMDL
