MODEL 1
REMARK minimizedAffinity -0.224057928
REMARK minimizedRMSD -1
REMARK  2 active torsions:
REMARK  status: ('A' for Active; 'I' for Inactive)
REMARK    1  A    between atoms: C1_2  and  C2_3 
REMARK    2  A    between atoms: C2_3  and  C3_4 
ROOT
ATOM      1  C3  UNL d   1      -2.101   0.951   2.351  0.00  0.00    -0.075 A 
ATOM      2  C4  UNL d   1      -1.299   2.100   2.392  0.00  0.00     0.002 A 
ATOM      3  C5  UNL d   1      -0.085   2.141   1.706  0.00  0.00     0.002 A 
ATOM      4  C6  UNL d   1       0.347   1.033   0.982  0.00  0.00    -0.004 A 
ATOM      5  C7  UNL d   1      -0.433  -0.121   0.948  0.00  0.00     0.002 A 
ATOM      6  C8  UNL d   1      -1.651  -0.163   1.630  0.00  0.00     0.002 A 
ENDROOT
BRANCH   1   7
ATOM      7  C2  UNL d   1      -3.431   0.911   3.067  0.00  0.00     0.056 C 
BRANCH   7   8
ATOM      8  C1  UNL d   1      -3.698   2.130   3.956  0.00  0.00     0.007 C 
ATOM      9  C   UNL d   1      -5.068   2.100   4.620  0.00  0.00     0.009 C 
ENDBRANCH   7   8
ENDBRANCH   1   7
TORSDOF 2
ENDMDL
