MODEL 1
REMARK minimizedAffinity 0.29999584
REMARK minimizedRMSD -1
REMARK  2 active torsions:
REMARK  status: ('A' for Active; 'I' for Inactive)
REMARK    1  A    between atoms: C1_2  and  C2_3 
REMARK    2  A    between atoms: C2_3  and  C3_4 
ROOT
ATOM      1  C3  UNL d   1       0.188   0.505   1.328  0.00  0.00    -0.075 A 
ATOM      2  C4  UNL d   1       0.919  -0.529   1.931  0.00  0.00     0.002 A 
ATOM      3  C5  UNL d   1       2.199  -0.849   1.478  0.00  0.00     0.002 A 
ATOM      4  C6  UNL d   1       2.759  -0.149   0.412  0.00  0.00    -0.004 A 
ATOM      5  C7  UNL d   1       2.036   0.869  -0.205  0.00  0.00     0.002 A 
ATOM      6  C8  UNL d   1       0.756   1.194   0.249  0.00  0.00     0.002 A 
ENDROOT
BRANCH   1   7
ATOM      7  C2  UNL d   1      -1.186   0.876   1.833  0.00  0.00     0.056 C 
BRANCH   7   8
ATOM      8  C1  UNL d   1      -1.231   2.200   2.603  0.00  0.00     0.007 C 
ATOM      9  C   UNL d   1      -2.558   2.438   3.310  0.00  0.00     0.009 C 
ENDBRANCH   7   8
ENDBRANCH   1   7
TORSDOF 2
ENDMDL
