MODEL 1
REMARK minimizedAffinity -1.4769522
REMARK minimizedRMSD -1
REMARK  2 active torsions:
REMARK  status: ('A' for Active; 'I' for Inactive)
REMARK    1  A    between atoms: C1_2  and  C2_3 
REMARK    2  A    between atoms: C2_3  and  C3_4 
ROOT
ATOM      1  C3  UNL d   1       1.626   0.488   0.975  0.00  0.00    -0.075 A 
ATOM      2  C4  UNL d   1       0.629  -0.498   0.989  0.00  0.00     0.002 A 
ATOM      3  C5  UNL d   1      -0.688  -0.170   1.312  0.00  0.00     0.002 A 
ATOM      4  C6  UNL d   1      -1.022   1.144   1.636  0.00  0.00    -0.004 A 
ATOM      5  C7  UNL d   1      -0.037   2.128   1.641  0.00  0.00     0.002 A 
ATOM      6  C8  UNL d   1       1.281   1.804   1.313  0.00  0.00     0.002 A 
ENDROOT
BRANCH   1   7
ATOM      7  C2  UNL d   1       3.047   0.145   0.597  0.00  0.00     0.056 C 
BRANCH   7   8
ATOM      8  C1  UNL d   1       3.196  -0.427  -0.817  0.00  0.00     0.007 C 
ATOM      9  C   UNL d   1       3.147   0.639  -1.904  0.00  0.00     0.009 C 
ENDBRANCH   7   8
ENDBRANCH   1   7
TORSDOF 2
ENDMDL
