MODEL 1
REMARK minimizedAffinity -2.17601752
REMARK minimizedRMSD -1
REMARK  2 active torsions:
REMARK  status: ('A' for Active; 'I' for Inactive)
REMARK    1  A    between atoms: C1_2  and  C2_3 
REMARK    2  A    between atoms: C2_3  and  C3_4 
ROOT
ATOM      1  C3  UNL d   1      -1.901   0.898   2.666  0.00  0.00    -0.075 A 
ATOM      2  C4  UNL d   1      -1.239   2.129   2.557  0.00  0.00     0.002 A 
ATOM      3  C5  UNL d   1      -0.028   2.224   1.870  0.00  0.00     0.002 A 
ATOM      4  C6  UNL d   1       0.540   1.090   1.294  0.00  0.00    -0.004 A 
ATOM      5  C7  UNL d   1      -0.102  -0.142   1.410  0.00  0.00     0.002 A 
ATOM      6  C8  UNL d   1      -1.315  -0.238   2.093  0.00  0.00     0.002 A 
ENDROOT
BRANCH   1   7
ATOM      7  C2  UNL d   1      -3.227   0.795   3.383  0.00  0.00     0.056 C 
BRANCH   7   8
ATOM      8  C1  UNL d   1      -3.845   2.148   3.748  0.00  0.00     0.007 C 
ATOM      9  C   UNL d   1      -4.520   2.151   5.113  0.00  0.00     0.009 C 
ENDBRANCH   7   8
ENDBRANCH   1   7
TORSDOF 2
ENDMDL
