MODEL 1
REMARK minimizedAffinity -4.51826286
REMARK minimizedRMSD -1
REMARK  2 active torsions:
REMARK  status: ('A' for Active; 'I' for Inactive)
REMARK    1  A    between atoms: C1_2  and  C2_3 
REMARK    2  A    between atoms: C2_3  and  C3_4 
ROOT
ATOM      1  C3  UNL d   1      -1.633   1.576   2.229  0.00  0.00    -0.075 A 
ATOM      2  C4  UNL d   1      -1.830   0.189   2.166  0.00  0.00     0.002 A 
ATOM      3  C5  UNL d   1      -0.918  -0.625   1.494  0.00  0.00     0.002 A 
ATOM      4  C6  UNL d   1       0.194  -0.064   0.869  0.00  0.00    -0.004 A 
ATOM      5  C7  UNL d   1       0.390   1.314   0.911  0.00  0.00     0.002 A 
ATOM      6  C8  UNL d   1      -0.518   2.131   1.587  0.00  0.00     0.002 A 
ENDROOT
BRANCH   1   7
ATOM      7  C2  UNL d   1      -2.600   2.460   2.980  0.00  0.00     0.056 C 
BRANCH   7   8
ATOM      8  C1  UNL d   1      -3.719   1.695   3.694  0.00  0.00     0.007 C 
ATOM      9  C   UNL d   1      -4.272   2.432   4.907  0.00  0.00     0.009 C 
ENDBRANCH   7   8
ENDBRANCH   1   7
TORSDOF 2
ENDMDL
