MODEL 1
REMARK minimizedAffinity -0.596151114
REMARK minimizedRMSD -1
REMARK  2 active torsions:
REMARK  status: ('A' for Active; 'I' for Inactive)
REMARK    1  A    between atoms: C1_2  and  C2_3 
REMARK    2  A    between atoms: C2_3  and  C3_4 
ROOT
ATOM      1  C3  UNL d   1      -0.956   1.820   2.207  0.00  0.00    -0.075 A 
ATOM      2  C4  UNL d   1      -0.242   2.353   1.124  0.00  0.00     0.002 A 
ATOM      3  C5  UNL d   1       0.963   1.779   0.718  0.00  0.00     0.002 A 
ATOM      4  C6  UNL d   1       1.474   0.674   1.396  0.00  0.00    -0.004 A 
ATOM      5  C7  UNL d   1       0.782   0.146   2.483  0.00  0.00     0.002 A 
ATOM      6  C8  UNL d   1      -0.427   0.716   2.888  0.00  0.00     0.002 A 
ENDROOT
BRANCH   1   7
ATOM      7  C2  UNL d   1      -2.276   2.418   2.632  0.00  0.00     0.056 C 
BRANCH   7   8
ATOM      8  C1  UNL d   1      -3.183   1.448   3.396  0.00  0.00     0.007 C 
ATOM      9  C   UNL d   1      -4.059   2.137   4.434  0.00  0.00     0.009 C 
ENDBRANCH   7   8
ENDBRANCH   1   7
TORSDOF 2
ENDMDL
