MODEL 1
REMARK minimizedAffinity -0.493403912
REMARK minimizedRMSD -1
REMARK  2 active torsions:
REMARK  status: ('A' for Active; 'I' for Inactive)
REMARK    1  A    between atoms: C1_2  and  C2_3 
REMARK    2  A    between atoms: C2_3  and  C3_4 
ROOT
ATOM      1  C3  UNL d   1      -3.797   1.375   4.034  0.00  0.00    -0.075 A 
ATOM      2  C4  UNL d   1      -3.267   2.220   5.020  0.00  0.00     0.002 A 
ATOM      3  C5  UNL d   1      -4.094   2.773   5.998  0.00  0.00     0.002 A 
ATOM      4  C6  UNL d   1      -5.460   2.498   5.997  0.00  0.00    -0.004 A 
ATOM      5  C7  UNL d   1      -6.000   1.674   5.012  0.00  0.00     0.002 A 
ATOM      6  C8  UNL d   1      -5.174   1.116   4.035  0.00  0.00     0.002 A 
ENDROOT
BRANCH   1   7
ATOM      7  C2  UNL d   1      -2.903   0.750   2.990  0.00  0.00     0.056 C 
BRANCH   7   8
ATOM      8  C1  UNL d   1      -1.657   1.577   2.659  0.00  0.00     0.007 C 
ATOM      9  C   UNL d   1      -0.621   0.807   1.851  0.00  0.00     0.009 C 
ENDBRANCH   7   8
ENDBRANCH   1   7
TORSDOF 2
ENDMDL
