MODEL 1
REMARK minimizedAffinity 1.13290167
REMARK minimizedRMSD -1
REMARK  2 active torsions:
REMARK  status: ('A' for Active; 'I' for Inactive)
REMARK    1  A    between atoms: C1_2  and  C2_3 
REMARK    2  A    between atoms: C2_3  and  C3_4 
ROOT
ATOM      1  C3  UNL d   1      -1.938   1.711   2.755  0.00  0.00    -0.075 A 
ATOM      2  C4  UNL d   1      -0.877   0.793   2.765  0.00  0.00     0.002 A 
ATOM      3  C5  UNL d   1       0.384   1.163   2.298  0.00  0.00     0.002 A 
ATOM      4  C6  UNL d   1       0.599   2.449   1.807  0.00  0.00    -0.004 A 
ATOM      5  C7  UNL d   1      -0.451   3.363   1.777  0.00  0.00     0.002 A 
ATOM      6  C8  UNL d   1      -1.714   2.997   2.248  0.00  0.00     0.002 A 
ENDROOT
BRANCH   1   7
ATOM      7  C2  UNL d   1      -3.298   1.325   3.286  0.00  0.00     0.056 C 
BRANCH   7   8
ATOM      8  C1  UNL d   1      -4.014   2.450   4.041  0.00  0.00     0.007 C 
ATOM      9  C   UNL d   1      -4.483   2.037   5.430  0.00  0.00     0.009 C 
ENDBRANCH   7   8
ENDBRANCH   1   7
TORSDOF 2
ENDMDL
