MODEL 1
REMARK minimizedAffinity -0.872079909
REMARK minimizedRMSD -1
REMARK  0 active torsions:
REMARK  status: ('A' for Active; 'I' for Inactive)
ROOT
ATOM      1  C   UNL d   1       0.613   0.823  -1.111  0.00  0.00     0.172 C 
ATOM      2  N   UNL d   1      -0.022   1.598  -0.071  0.00  0.00    -0.070 N 
ATOM      3  C1  UNL d   1      -0.090   2.965  -0.023  0.00  0.00    -0.004 A 
ATOM      4  C2  UNL d   1      -0.776   3.314   1.120  0.00  0.00    -0.047 A 
ATOM      5  C3  UNL d   1      -1.131   2.115   1.783  0.00  0.00    -0.047 A 
ATOM      6  C4  UNL d   1      -0.652   1.068   1.023  0.00  0.00    -0.004 A 
ENDROOT
TORSDOF 0
ENDMDL
