MODEL 1
REMARK minimizedAffinity -1.09736192
REMARK minimizedRMSD -1
REMARK  0 active torsions:
REMARK  status: ('A' for Active; 'I' for Inactive)
ROOT
ATOM      1  C   UNL d   1       0.573  -0.912  -0.451  0.00  0.00     0.172 C 
ATOM      2  N   UNL d   1      -0.017  -0.021   0.520  0.00  0.00    -0.070 N 
ATOM      3  C1  UNL d   1      -0.122   1.339   0.396  0.00  0.00    -0.004 A 
ATOM      4  C2  UNL d   1      -0.744   1.819   1.528  0.00  0.00    -0.047 A 
ATOM      5  C3  UNL d   1      -1.021   0.710   2.362  0.00  0.00    -0.047 A 
ATOM      6  C4  UNL d   1      -0.561  -0.416   1.713  0.00  0.00    -0.004 A 
ENDROOT
TORSDOF 0
ENDMDL
