MODEL 1
REMARK minimizedAffinity -2.6555512
REMARK minimizedRMSD -1
REMARK  0 active torsions:
REMARK  status: ('A' for Active; 'I' for Inactive)
ROOT
ATOM      1  C   UNL d   1      -1.241   1.616   1.959  0.00  0.00     0.172 C 
ATOM      2  N   UNL d   1      -0.521   0.708   1.097  0.00  0.00    -0.070 N 
ATOM      3  C1  UNL d   1      -0.150   0.960  -0.197  0.00  0.00    -0.004 A 
ATOM      4  C2  UNL d   1       0.515  -0.151  -0.669  0.00  0.00    -0.047 A 
ATOM      5  C3  UNL d   1       0.544  -1.104   0.377  0.00  0.00    -0.047 A 
ATOM      6  C4  UNL d   1      -0.105  -0.546   1.458  0.00  0.00    -0.004 A 
ENDROOT
TORSDOF 0
ENDMDL
