MODEL 1
REMARK minimizedAffinity -3.06758285
REMARK minimizedRMSD -1
REMARK  0 active torsions:
REMARK  status: ('A' for Active; 'I' for Inactive)
ROOT
ATOM      1  C   UNL d   1      -0.189   3.517  -1.240  0.00  0.00     0.172 C 
ATOM      2  N   UNL d   1      -0.686   2.699  -0.159  0.00  0.00    -0.070 N 
ATOM      3  C1  UNL d   1      -1.308   3.160   0.970  0.00  0.00    -0.004 A 
ATOM      4  C2  UNL d   1      -1.628   2.070   1.750  0.00  0.00    -0.047 A 
ATOM      5  C3  UNL d   1      -1.183   0.914   1.067  0.00  0.00    -0.047 A 
ATOM      6  C4  UNL d   1      -0.603   1.332  -0.113  0.00  0.00    -0.004 A 
ENDROOT
TORSDOF 0
ENDMDL
