MODEL 1
REMARK minimizedAffinity -2.20142055
REMARK minimizedRMSD -1
REMARK  0 active torsions:
REMARK  status: ('A' for Active; 'I' for Inactive)
ROOT
ATOM      1  C   UNL d   1      -0.342  -0.287   0.420  0.00  0.00     0.172 C 
ATOM      2  N   UNL d   1       0.080  -1.183  -0.631  0.00  0.00    -0.070 N 
ATOM      3  C1  UNL d   1      -0.750  -1.864  -1.481  0.00  0.00    -0.004 A 
ATOM      4  C2  UNL d   1       0.036  -2.607  -2.334  0.00  0.00    -0.047 A 
ATOM      5  C3  UNL d   1       1.386  -2.366  -1.984  0.00  0.00    -0.047 A 
ATOM      6  C4  UNL d   1       1.384  -1.481  -0.927  0.00  0.00    -0.004 A 
ENDROOT
TORSDOF 0
ENDMDL
