MODEL 1
REMARK minimizedAffinity -2.34730434
REMARK minimizedRMSD -1
REMARK  0 active torsions:
REMARK  status: ('A' for Active; 'I' for Inactive)
ROOT
ATOM      1  C   UNL d   1       0.761   2.597  -0.946  0.00  0.00     0.172 C 
ATOM      2  N   UNL d   1       0.593   1.378  -0.191  0.00  0.00    -0.070 N 
ATOM      3  C1  UNL d   1      -0.203   1.225   0.912  0.00  0.00    -0.004 A 
ATOM      4  C2  UNL d   1      -0.090  -0.081   1.337  0.00  0.00    -0.047 A 
ATOM      5  C3  UNL d   1       0.807  -0.735   0.460  0.00  0.00    -0.047 A 
ATOM      6  C4  UNL d   1       1.214   0.191  -0.477  0.00  0.00    -0.004 A 
ENDROOT
TORSDOF 0
ENDMDL
