MODEL 1
REMARK minimizedAffinity -1.8388617
REMARK minimizedRMSD -1
REMARK  0 active torsions:
REMARK  status: ('A' for Active; 'I' for Inactive)
ROOT
ATOM      1  C   UNL d   1      -0.064  -0.203   0.017  0.00  0.00     0.172 C 
ATOM      2  N   UNL d   1      -0.271   1.129   0.535  0.00  0.00    -0.070 N 
ATOM      3  C1  UNL d   1      -0.943   1.442   1.686  0.00  0.00    -0.004 A 
ATOM      4  C2  UNL d   1      -0.920   2.813   1.829  0.00  0.00    -0.047 A 
ATOM      5  C3  UNL d   1      -0.210   3.341   0.725  0.00  0.00    -0.047 A 
ATOM      6  C4  UNL d   1       0.180   2.277  -0.061  0.00  0.00    -0.004 A 
ENDROOT
TORSDOF 0
ENDMDL
