MODEL 1
REMARK minimizedAffinity -1.89752209
REMARK minimizedRMSD -1
REMARK  0 active torsions:
REMARK  status: ('A' for Active; 'I' for Inactive)
ROOT
ATOM      1  C   UNL d   1       0.725  -1.098  -0.601  0.00  0.00     0.172 C 
ATOM      2  N   UNL d   1       0.007  -0.508   0.504  0.00  0.00    -0.070 N 
ATOM      3  C1  UNL d   1      -0.642   0.698   0.482  0.00  0.00    -0.004 A 
ATOM      4  C2  UNL d   1      -1.198   0.901   1.726  0.00  0.00    -0.047 A 
ATOM      5  C3  UNL d   1      -0.872  -0.221   2.524  0.00  0.00    -0.047 A 
ATOM      6  C4  UNL d   1      -0.125  -1.077   1.743  0.00  0.00    -0.004 A 
ENDROOT
TORSDOF 0
ENDMDL
