MODEL 1
REMARK minimizedAffinity -1.61076224
REMARK minimizedRMSD -1
REMARK  0 active torsions:
REMARK  status: ('A' for Active; 'I' for Inactive)
ROOT
ATOM      1  C   UNL d   1       0.642  -0.410  -0.613  0.00  0.00     0.172 C 
ATOM      2  N   UNL d   1      -0.019   0.381   0.398  0.00  0.00    -0.070 N 
ATOM      3  C1  UNL d   1      -0.131   1.746   0.398  0.00  0.00    -0.004 A 
ATOM      4  C2  UNL d   1      -0.828   2.113   1.529  0.00  0.00    -0.047 A 
ATOM      5  C3  UNL d   1      -1.145   0.928   2.234  0.00  0.00    -0.047 A 
ATOM      6  C4  UNL d   1      -0.633  -0.129   1.512  0.00  0.00    -0.004 A 
ENDROOT
TORSDOF 0
ENDMDL
