MODEL 1
REMARK minimizedAffinity -1.89993513
REMARK minimizedRMSD -1
REMARK  0 active torsions:
REMARK  status: ('A' for Active; 'I' for Inactive)
ROOT
ATOM      1  C   UNL d   1       0.634  -0.325  -0.654  0.00  0.00     0.172 C 
ATOM      2  N   UNL d   1       0.662  -1.611  -1.309  0.00  0.00    -0.070 N 
ATOM      3  C1  UNL d   1       0.181  -1.880  -2.562  0.00  0.00    -0.004 A 
ATOM      4  C2  UNL d   1       0.395  -3.217  -2.819  0.00  0.00    -0.047 A 
ATOM      5  C3  UNL d   1       1.027  -3.771  -1.681  0.00  0.00    -0.047 A 
ATOM      6  C4  UNL d   1       1.180  -2.755  -0.761  0.00  0.00    -0.004 A 
ENDROOT
TORSDOF 0
ENDMDL
