MODEL 1
REMARK minimizedAffinity -2.70755744
REMARK minimizedRMSD -1
REMARK  0 active torsions:
REMARK  status: ('A' for Active; 'I' for Inactive)
ROOT
ATOM      1  C   UNL d   1      -1.036   0.961   2.423  0.00  0.00     0.172 C 
ATOM      2  N   UNL d   1      -0.180   0.361   1.426  0.00  0.00    -0.070 N 
ATOM      3  C1  UNL d   1       0.362  -0.895   1.491  0.00  0.00    -0.004 A 
ATOM      4  C2  UNL d   1       1.113  -1.089   0.351  0.00  0.00    -0.047 A 
ATOM      5  C3  UNL d   1       1.019   0.091  -0.424  0.00  0.00    -0.047 A 
ATOM      6  C4  UNL d   1       0.212   0.972   0.264  0.00  0.00    -0.004 A 
ENDROOT
TORSDOF 0
ENDMDL
