MODEL 1
REMARK minimizedAffinity -2.15532851
REMARK minimizedRMSD -1
REMARK  0 active torsions:
REMARK  status: ('A' for Active; 'I' for Inactive)
ROOT
ATOM      1  C   UNL d   1       1.018  -0.804  -0.506  0.00  0.00     0.172 C 
ATOM      2  N   UNL d   1       0.321   0.080   0.398  0.00  0.00    -0.070 N 
ATOM      3  C1  UNL d   1       0.206   1.438   0.257  0.00  0.00    -0.004 A 
ATOM      4  C2  UNL d   1      -0.530   1.911   1.322  0.00  0.00    -0.047 A 
ATOM      5  C3  UNL d   1      -0.866   0.801   2.132  0.00  0.00    -0.047 A 
ATOM      6  C4  UNL d   1      -0.327  -0.320   1.537  0.00  0.00    -0.004 A 
ENDROOT
TORSDOF 0
ENDMDL
