MODEL 1
REMARK minimizedAffinity -3.55830169
REMARK minimizedRMSD -1
REMARK  0 active torsions:
REMARK  status: ('A' for Active; 'I' for Inactive)
ROOT
ATOM      1  C   UNL d   1       0.605  -0.718   0.770  0.00  0.00     0.172 C 
ATOM      2  N   UNL d   1       0.429  -1.518  -0.419  0.00  0.00    -0.070 N 
ATOM      3  C1  UNL d   1       1.410  -2.233  -1.053  0.00  0.00    -0.004 A 
ATOM      4  C2  UNL d   1       0.840  -2.857  -2.142  0.00  0.00    -0.047 A 
ATOM      5  C3  UNL d   1      -0.530  -2.504  -2.164  0.00  0.00    -0.047 A 
ATOM      6  C4  UNL d   1      -0.758  -1.675  -1.086  0.00  0.00    -0.004 A 
ENDROOT
TORSDOF 0
ENDMDL
