MODEL 1
REMARK minimizedAffinity -2.62385058
REMARK minimizedRMSD -1
REMARK  0 active torsions:
REMARK  status: ('A' for Active; 'I' for Inactive)
ROOT
ATOM      1  C   UNL d   1       0.672  -0.469   0.034  0.00  0.00     0.172 C 
ATOM      2  N   UNL d   1       0.541  -1.531  -0.936  0.00  0.00    -0.070 N 
ATOM      3  C1  UNL d   1       1.479  -2.493  -1.198  0.00  0.00    -0.004 A 
ATOM      4  C2  UNL d   1       0.977  -3.316  -2.183  0.00  0.00    -0.047 A 
ATOM      5  C3  UNL d   1      -0.308  -2.831  -2.525  0.00  0.00    -0.047 A 
ATOM      6  C4  UNL d   1      -0.553  -1.726  -1.738  0.00  0.00    -0.004 A 
ENDROOT
TORSDOF 0
ENDMDL
