MODEL 1
REMARK minimizedAffinity -1.05267572
REMARK minimizedRMSD -1
REMARK  0 active torsions:
REMARK  status: ('A' for Active; 'I' for Inactive)
ROOT
ATOM      1  C   UNL d   1      -1.196   1.788   1.942  0.00  0.00     0.172 C 
ATOM      2  N   UNL d   1      -0.480   0.870   1.087  0.00  0.00    -0.070 N 
ATOM      3  C1  UNL d   1       0.078   1.177  -0.125  0.00  0.00    -0.004 A 
ATOM      4  C2  UNL d   1       0.667   0.034  -0.620  0.00  0.00    -0.047 A 
ATOM      5  C3  UNL d   1       0.455  -0.996   0.327  0.00  0.00    -0.047 A 
ATOM      6  C4  UNL d   1      -0.258  -0.451   1.374  0.00  0.00    -0.004 A 
ENDROOT
TORSDOF 0
ENDMDL
