MODEL 1
REMARK minimizedAffinity 11.9497099
REMARK minimizedRMSD -1
REMARK  1 active torsions:
REMARK  status: ('A' for Active; 'I' for Inactive)
REMARK    1  A    between atoms: C1_2  and  C2_3 
ROOT
ATOM      1  C2  UNL d   1       2.904   3.434  -2.997  0.00  0.00    -0.073 A 
ATOM      2  C3  UNL d   1       1.899   4.405  -3.075  0.00  0.00    -0.002 A 
ATOM      3  C4  UNL d   1       0.732   4.274  -2.320  0.00  0.00     0.004 A 
ATOM      4  C5  UNL d   1       0.561   3.177  -1.477  0.00  0.00    -0.004 A 
ATOM      5  C6  UNL d   1       1.559   2.202  -1.376  0.00  0.00    -0.075 A 
ATOM      6  C7  UNL d   1       1.389   1.014  -0.475  0.00  0.00     0.076 C 
ATOM      7  C8  UNL d   1       2.726   2.339  -2.139  0.00  0.00     0.001 A 
ENDROOT
BRANCH   1   8
ATOM      8  C1  UNL d   1       4.168   3.574  -3.804  0.00  0.00     0.053 C 
ATOM      9  C   UNL d   1       3.914   3.411  -5.294  0.00  0.00     0.018 C 
ENDBRANCH   1   8
TORSDOF 1
ENDMDL
