MODEL 1
REMARK minimizedAffinity 11.3160629
REMARK minimizedRMSD -1
REMARK  1 active torsions:
REMARK  status: ('A' for Active; 'I' for Inactive)
REMARK    1  A    between atoms: C1_2  and  C2_3 
ROOT
ATOM      1  C2  UNL d   1       5.242   4.853  -2.223  0.00  0.00    -0.073 A 
ATOM      2  C3  UNL d   1       5.974   4.813  -3.415  0.00  0.00    -0.002 A 
ATOM      3  C4  UNL d   1       5.473   4.135  -4.527  0.00  0.00     0.004 A 
ATOM      4  C5  UNL d   1       4.234   3.498  -4.461  0.00  0.00    -0.004 A 
ATOM      5  C6  UNL d   1       3.482   3.537  -3.282  0.00  0.00    -0.075 A 
ATOM      6  C7  UNL d   1       2.149   2.855  -3.194  0.00  0.00     0.076 C 
ATOM      7  C8  UNL d   1       3.994   4.217  -2.169  0.00  0.00     0.001 A 
ENDROOT
BRANCH   1   8
ATOM      8  C1  UNL d   1       5.777   5.590  -1.021  0.00  0.00     0.053 C 
ATOM      9  C   UNL d   1       5.999   4.662   0.163  0.00  0.00     0.018 C 
ENDBRANCH   1   8
TORSDOF 1
ENDMDL
