MODEL 1
REMARK minimizedAffinity 14.9040041
REMARK minimizedRMSD -1
REMARK  1 active torsions:
REMARK  status: ('A' for Active; 'I' for Inactive)
REMARK    1  A    between atoms: C1_2  and  C2_3 
ROOT
ATOM      1  C2  UNL d   1       3.459   3.290  -3.187  0.00  0.00    -0.073 A 
ATOM      2  C3  UNL d   1       4.184   3.242  -4.383  0.00  0.00    -0.002 A 
ATOM      3  C4  UNL d   1       5.440   3.844  -4.471  0.00  0.00     0.004 A 
ATOM      4  C5  UNL d   1       5.986   4.493  -3.364  0.00  0.00    -0.004 A 
ATOM      5  C6  UNL d   1       5.283   4.542  -2.157  0.00  0.00    -0.075 A 
ATOM      6  C7  UNL d   1       5.855   5.239  -0.957  0.00  0.00     0.076 C 
ATOM      7  C8  UNL d   1       4.021   3.937  -2.077  0.00  0.00     0.001 A 
ENDROOT
BRANCH   1   8
ATOM      8  C1  UNL d   1       2.106   2.636  -3.085  0.00  0.00     0.053 C 
ATOM      9  C   UNL d   1       2.078   1.545  -2.026  0.00  0.00     0.018 C 
ENDBRANCH   1   8
TORSDOF 1
ENDMDL
