MODEL 1
REMARK minimizedAffinity 20.0874615
REMARK minimizedRMSD -1
REMARK  1 active torsions:
REMARK  status: ('A' for Active; 'I' for Inactive)
REMARK    1  A    between atoms: C1_2  and  C2_3 
ROOT
ATOM      1  C2  UNL d   1      -2.243   5.546  -3.728  0.00  0.00    -0.073 A 
ATOM      2  C3  UNL d   1      -1.081   5.590  -2.948  0.00  0.00    -0.002 A 
ATOM      3  C4  UNL d   1      -1.164   5.521  -1.557  0.00  0.00     0.004 A 
ATOM      4  C5  UNL d   1      -2.405   5.401  -0.932  0.00  0.00    -0.004 A 
ATOM      5  C6  UNL d   1      -3.576   5.344  -1.695  0.00  0.00    -0.075 A 
ATOM      6  C7  UNL d   1      -4.919   5.217  -1.038  0.00  0.00     0.076 C 
ATOM      7  C8  UNL d   1      -3.485   5.416  -3.091  0.00  0.00     0.001 A 
ENDROOT
BRANCH   1   8
ATOM      8  C1  UNL d   1      -2.158   5.613  -5.231  0.00  0.00     0.053 C 
ATOM      9  C   UNL d   1      -0.746   5.359  -5.734  0.00  0.00     0.018 C 
ENDBRANCH   1   8
TORSDOF 1
ENDMDL
