MODEL 1
REMARK minimizedAffinity 3.91253877
REMARK minimizedRMSD -1
REMARK  1 active torsions:
REMARK  status: ('A' for Active; 'I' for Inactive)
REMARK    1  A    between atoms: C1_2  and  C2_3 
ROOT
ATOM      1  C2  UNL d   1      -3.951  -0.078   0.923  0.00  0.00    -0.073 A 
ATOM      2  C3  UNL d   1      -2.563   0.004   1.079  0.00  0.00    -0.002 A 
ATOM      3  C4  UNL d   1      -1.920  -0.737   2.072  0.00  0.00     0.004 A 
ATOM      4  C5  UNL d   1      -2.656  -1.571   2.913  0.00  0.00    -0.004 A 
ATOM      5  C6  UNL d   1      -4.043  -1.675   2.765  0.00  0.00    -0.075 A 
ATOM      6  C7  UNL d   1      -4.849  -2.566   3.664  0.00  0.00     0.076 C 
ATOM      7  C8  UNL d   1      -4.681  -0.926   1.768  0.00  0.00     0.001 A 
ENDROOT
BRANCH   1   8
ATOM      8  C1  UNL d   1      -4.649   0.715  -0.151  0.00  0.00     0.053 C 
ATOM      9  C   UNL d   1      -4.812  -0.084  -1.434  0.00  0.00     0.018 C 
ENDBRANCH   1   8
TORSDOF 1
ENDMDL
