MODEL 1
REMARK minimizedAffinity 8.40716648
REMARK minimizedRMSD -1
REMARK  1 active torsions:
REMARK  status: ('A' for Active; 'I' for Inactive)
REMARK    1  A    between atoms: C1_2  and  C2_3 
ROOT
ATOM      1  C2  UNL d   1       2.622   1.967  -1.906  0.00  0.00    -0.073 A 
ATOM      2  C3  UNL d   1       1.315   2.462  -1.983  0.00  0.00    -0.002 A 
ATOM      3  C4  UNL d   1       0.959   3.357  -2.993  0.00  0.00     0.004 A 
ATOM      4  C5  UNL d   1       1.902   3.761  -3.938  0.00  0.00    -0.004 A 
ATOM      5  C6  UNL d   1       3.210   3.268  -3.885  0.00  0.00    -0.075 A 
ATOM      6  C7  UNL d   1       4.236   3.693  -4.893  0.00  0.00     0.076 C 
ATOM      7  C8  UNL d   1       3.560   2.371  -2.867  0.00  0.00     0.001 A 
ENDROOT
BRANCH   1   8
ATOM      8  C1  UNL d   1       3.010   0.995  -0.822  0.00  0.00     0.053 C 
ATOM      9  C   UNL d   1       3.046   1.654   0.548  0.00  0.00     0.018 C 
ENDBRANCH   1   8
TORSDOF 1
ENDMDL
