MODEL 1
REMARK minimizedAffinity 12.2680931
REMARK minimizedRMSD -1
REMARK  1 active torsions:
REMARK  status: ('A' for Active; 'I' for Inactive)
REMARK    1  A    between atoms: C1_2  and  C2_3 
ROOT
ATOM      1  C2  UNL d   1      -3.263   0.600   2.673  0.00  0.00    -0.073 A 
ATOM      2  C3  UNL d   1      -3.976   0.378   1.489  0.00  0.00    -0.002 A 
ATOM      3  C4  UNL d   1      -5.339   0.672   1.421  0.00  0.00     0.004 A 
ATOM      4  C5  UNL d   1      -6.000   1.196   2.532  0.00  0.00    -0.004 A 
ATOM      5  C6  UNL d   1      -5.302   1.436   3.720  0.00  0.00    -0.075 A 
ATOM      6  C7  UNL d   1      -5.999   1.998   4.924  0.00  0.00     0.076 C 
ATOM      7  C8  UNL d   1      -3.935   1.136   3.781  0.00  0.00     0.001 A 
ENDROOT
BRANCH   1   8
ATOM      8  C1  UNL d   1      -1.790   0.290   2.749  0.00  0.00     0.053 C 
ATOM      9  C   UNL d   1      -1.482  -1.129   2.299  0.00  0.00     0.018 C 
ENDBRANCH   1   8
TORSDOF 1
ENDMDL
