MODEL 1
REMARK minimizedAffinity -1.14968729
REMARK minimizedRMSD -1
REMARK  1 active torsions:
REMARK  status: ('A' for Active; 'I' for Inactive)
REMARK    1  A    between atoms: C1_2  and  C2_3 
ROOT
ATOM      1  C2  UNL d   1      -4.591   0.819   3.470  0.00  0.00    -0.073 A 
ATOM      2  C3  UNL d   1      -5.231   0.211   2.384  0.00  0.00    -0.002 A 
ATOM      3  C4  UNL d   1      -4.492  -0.504   1.440  0.00  0.00     0.004 A 
ATOM      4  C5  UNL d   1      -3.109  -0.625   1.577  0.00  0.00    -0.004 A 
ATOM      5  C6  UNL d   1      -2.453  -0.035   2.662  0.00  0.00    -0.075 A 
ATOM      6  C7  UNL d   1      -0.965  -0.153   2.821  0.00  0.00     0.076 C 
ATOM      7  C8  UNL d   1      -3.201   0.684   3.603  0.00  0.00     0.001 A 
ENDROOT
BRANCH   1   8
ATOM      8  C1  UNL d   1      -5.385   1.587   4.495  0.00  0.00     0.053 C 
ATOM      9  C   UNL d   1      -5.686   0.749   5.728  0.00  0.00     0.018 C 
ENDBRANCH   1   8
TORSDOF 1
ENDMDL
