MODEL 1
REMARK minimizedAffinity 15.726963
REMARK minimizedRMSD -1
REMARK  1 active torsions:
REMARK  status: ('A' for Active; 'I' for Inactive)
REMARK    1  A    between atoms: C1_2  and  C2_3 
ROOT
ATOM      1  C2  UNL d   1      -4.900   0.886   1.219  0.00  0.00    -0.073 A 
ATOM      2  C3  UNL d   1      -5.041  -0.469   0.898  0.00  0.00    -0.002 A 
ATOM      3  C4  UNL d   1      -4.156  -1.413   1.421  0.00  0.00     0.004 A 
ATOM      4  C5  UNL d   1      -3.128  -1.014   2.274  0.00  0.00    -0.004 A 
ATOM      5  C6  UNL d   1      -2.977   0.333   2.616  0.00  0.00    -0.075 A 
ATOM      6  C7  UNL d   1      -1.874   0.779   3.530  0.00  0.00     0.076 C 
ATOM      7  C8  UNL d   1      -3.868   1.276   2.084  0.00  0.00     0.001 A 
ENDROOT
BRANCH   1   8
ATOM      8  C1  UNL d   1      -5.856   1.908   0.661  0.00  0.00     0.053 C 
ATOM      9  C   UNL d   1      -5.282   2.625  -0.550  0.00  0.00     0.018 C 
ENDBRANCH   1   8
TORSDOF 1
ENDMDL
