MODEL 1
REMARK minimizedAffinity 13.1554461
REMARK minimizedRMSD -1
REMARK  1 active torsions:
REMARK  status: ('A' for Active; 'I' for Inactive)
REMARK    1  A    between atoms: C1_2  and  C2_3 
ROOT
ATOM      1  C2  UNL d   1       3.004   2.872  -3.485  0.00  0.00    -0.073 A 
ATOM      2  C3  UNL d   1       2.943   1.892  -2.487  0.00  0.00    -0.002 A 
ATOM      3  C4  UNL d   1       1.810   1.778  -1.680  0.00  0.00     0.004 A 
ATOM      4  C5  UNL d   1       0.726   2.636  -1.866  0.00  0.00    -0.004 A 
ATOM      5  C6  UNL d   1       0.763   3.613  -2.866  0.00  0.00    -0.075 A 
ATOM      6  C7  UNL d   1      -0.393   4.545  -3.077  0.00  0.00     0.076 C 
ATOM      7  C8  UNL d   1       1.905   3.723  -3.670  0.00  0.00     0.001 A 
ENDROOT
BRANCH   1   8
ATOM      8  C1  UNL d   1       4.222   2.995  -4.363  0.00  0.00     0.053 C 
ATOM      9  C   UNL d   1       3.894   2.764  -5.829  0.00  0.00     0.018 C 
ENDBRANCH   1   8
TORSDOF 1
ENDMDL
