MODEL 1
REMARK minimizedAffinity 14.1978245
REMARK minimizedRMSD -1
REMARK  1 active torsions:
REMARK  status: ('A' for Active; 'I' for Inactive)
REMARK    1  A    between atoms: C1_2  and  C2_3 
ROOT
ATOM      1  C2  UNL d   1       3.870   2.665   1.171  0.00  0.00    -0.073 A 
ATOM      2  C3  UNL d   1       2.547   3.104   1.042  0.00  0.00    -0.002 A 
ATOM      3  C4  UNL d   1       1.601   2.310   0.391  0.00  0.00     0.004 A 
ATOM      4  C5  UNL d   1       1.966   1.069  -0.130  0.00  0.00    -0.004 A 
ATOM      5  C6  UNL d   1       3.280   0.608  -0.001  0.00  0.00    -0.075 A 
ATOM      6  C7  UNL d   1       3.689  -0.723  -0.558  0.00  0.00     0.076 C 
ATOM      7  C8  UNL d   1       4.225   1.412   0.652  0.00  0.00     0.001 A 
ENDROOT
BRANCH   1   8
ATOM      8  C1  UNL d   1       4.892   3.516   1.879  0.00  0.00     0.053 C 
ATOM      9  C   UNL d   1       5.999   3.974   0.943  0.00  0.00     0.018 C 
ENDBRANCH   1   8
TORSDOF 1
ENDMDL
