MODEL 1
REMARK minimizedAffinity 6.58594179
REMARK minimizedRMSD -1
REMARK  0 active torsions:
REMARK  status: ('A' for Active; 'I' for Inactive)
ROOT
ATOM      1  C1  BNZ d   1       5.997  -0.283  -4.578  0.00  0.00     0.000 A 
ATOM      2  C2  BNZ d   1       5.996   0.847  -5.350  0.00  0.00     0.000 A 
ATOM      3  C3  BNZ d   1       4.926   1.698  -5.344  0.00  0.00     0.000 A 
ATOM      4  C4  BNZ d   1       3.844   1.398  -4.597  0.00  0.00     0.000 A 
ATOM      5  C5  BNZ d   1       3.826   0.257  -3.820  0.00  0.00     0.000 A 
ATOM      6  C6  BNZ d   1       4.920  -0.578  -3.799  0.00  0.00     0.000 A 
ENDROOT
TORSDOF 0
ENDMDL
