MODEL 1
REMARK minimizedAffinity -0.410869956
REMARK minimizedRMSD -1
REMARK  0 active torsions:
REMARK  status: ('A' for Active; 'I' for Inactive)
ROOT
ATOM      1  C1  BNZ d   1       1.488   1.771   1.552  0.00  0.00     0.000 A 
ATOM      2  C2  BNZ d   1       1.883   1.238   0.353  0.00  0.00     0.000 A 
ATOM      3  C3  BNZ d   1       2.868   0.291   0.299  0.00  0.00     0.000 A 
ATOM      4  C4  BNZ d   1       3.483  -0.091   1.436  0.00  0.00     0.000 A 
ATOM      5  C5  BNZ d   1       3.103   0.443   2.651  0.00  0.00     0.000 A 
ATOM      6  C6  BNZ d   1       2.085   1.367   2.706  0.00  0.00     0.000 A 
ENDROOT
TORSDOF 0
ENDMDL
