MODEL 1
REMARK minimizedAffinity -0.0442726985
REMARK minimizedRMSD -1
REMARK  0 active torsions:
REMARK  status: ('A' for Active; 'I' for Inactive)
ROOT
ATOM      1  C1  BNZ d   1       0.382  -5.994  -0.973  0.00  0.00     0.000 A 
ATOM      2  C2  BNZ d   1       1.746  -5.993  -1.096  0.00  0.00     0.000 A 
ATOM      3  C3  BNZ d   1       2.549  -5.999   0.010  0.00  0.00     0.000 A 
ATOM      4  C4  BNZ d   1       1.988  -5.965   1.236  0.00  0.00     0.000 A 
ATOM      5  C5  BNZ d   1       0.615  -5.957   1.377  0.00  0.00     0.000 A 
ATOM      6  C6  BNZ d   1      -0.191  -5.990   0.262  0.00  0.00     0.000 A 
ENDROOT
TORSDOF 0
ENDMDL
