MODEL 1
REMARK minimizedAffinity -0.101032957
REMARK minimizedRMSD -1
REMARK  0 active torsions:
REMARK  status: ('A' for Active; 'I' for Inactive)
ROOT
ATOM      1  C1  BNZ d   1       1.978  -5.959  -1.278  0.00  0.00     0.000 A 
ATOM      2  C2  BNZ d   1       2.529  -5.951  -2.531  0.00  0.00     0.000 A 
ATOM      3  C3  BNZ d   1       3.885  -5.991  -2.699  0.00  0.00     0.000 A 
ATOM      4  C4  BNZ d   1       4.688  -5.999  -1.615  0.00  0.00     0.000 A 
ATOM      5  C5  BNZ d   1       4.147  -5.998  -0.345  0.00  0.00     0.000 A 
ATOM      6  C6  BNZ d   1       2.781  -5.997  -0.180  0.00  0.00     0.000 A 
ENDROOT
TORSDOF 0
ENDMDL
