MODEL 1
REMARK minimizedAffinity 5.80846024
REMARK minimizedRMSD -1
REMARK  0 active torsions:
REMARK  status: ('A' for Active; 'I' for Inactive)
ROOT
ATOM      1  C1  BNZ d   1       0.824  -1.722   3.181  0.00  0.00     0.000 A 
ATOM      2  C2  BNZ d   1       1.493  -0.699   3.799  0.00  0.00     0.000 A 
ATOM      3  C3  BNZ d   1       2.273   0.162   3.079  0.00  0.00     0.000 A 
ATOM      4  C4  BNZ d   1       2.415  -0.024   1.751  0.00  0.00     0.000 A 
ATOM      5  C5  BNZ d   1       1.754  -1.057   1.115  0.00  0.00     0.000 A 
ATOM      6  C6  BNZ d   1       0.939  -1.898   1.837  0.00  0.00     0.000 A 
ENDROOT
TORSDOF 0
ENDMDL
