MODEL 1
REMARK minimizedAffinity 0.52629298
REMARK minimizedRMSD -1
REMARK  0 active torsions:
REMARK  status: ('A' for Active; 'I' for Inactive)
ROOT
ATOM      1  C1  BNZ d   1       1.734  -3.831   4.897  0.00  0.00     0.000 A 
ATOM      2  C2  BNZ d   1       0.894  -2.761   4.737  0.00  0.00     0.000 A 
ATOM      3  C3  BNZ d   1       1.357  -1.577   4.235  0.00  0.00     0.000 A 
ATOM      4  C4  BNZ d   1       2.665  -1.451   3.932  0.00  0.00     0.000 A 
ATOM      5  C5  BNZ d   1       3.526  -2.517   4.096  0.00  0.00     0.000 A 
ATOM      6  C6  BNZ d   1       3.049  -3.720   4.565  0.00  0.00     0.000 A 
ENDROOT
TORSDOF 0
ENDMDL
