MODEL 1
REMARK minimizedAffinity -1.67840362
REMARK minimizedRMSD -1
REMARK  0 active torsions:
REMARK  status: ('A' for Active; 'I' for Inactive)
ROOT
ATOM      1  C2' OXE d   1      -0.088   1.722  -1.420  0.00  0.00     0.078 C 
ATOM      2  C1' OXE d   1      -0.576   1.001   1.248  0.00  0.00     0.078 C 
ATOM      3  C1  OXE d   1       0.187   0.028   0.385  0.00  0.00    -0.078 A 
ATOM      4  C2  OXE d   1       0.381   0.368  -0.932  0.00  0.00    -0.078 A 
ATOM      5  C3  OXE d   1       1.126  -0.468  -1.758  0.00  0.00     0.003 A 
ATOM      6  C4  OXE d   1       1.547  -1.723  -1.302  0.00  0.00    -0.002 A 
ATOM      7  C5  OXE d   1       1.325  -2.107   0.025  0.00  0.00    -0.002 A 
ATOM      8  C6  OXE d   1       0.686  -1.227   0.891  0.00  0.00     0.003 A 
ENDROOT
TORSDOF 0
ENDMDL
