MODEL 1
REMARK minimizedAffinity -5.37368298
REMARK minimizedRMSD -1
REMARK  0 active torsions:
REMARK  status: ('A' for Active; 'I' for Inactive)
ROOT
ATOM      1  C2' OXE d   1       1.374  -2.411  -1.591  0.00  0.00     0.078 C 
ATOM      2  C1' OXE d   1       2.897  -0.144  -0.943  0.00  0.00     0.078 C 
ATOM      3  C1  OXE d   1       1.475  -0.203  -0.443  0.00  0.00    -0.078 A 
ATOM      4  C2  OXE d   1       0.722  -1.294  -0.804  0.00  0.00    -0.078 A 
ATOM      5  C3  OXE d   1      -0.578  -1.425  -0.324  0.00  0.00     0.003 A 
ATOM      6  C4  OXE d   1      -1.176  -0.383   0.394  0.00  0.00    -0.002 A 
ATOM      7  C5  OXE d   1      -0.440   0.756   0.739  0.00  0.00    -0.002 A 
ATOM      8  C6  OXE d   1       0.897   0.842   0.365  0.00  0.00     0.003 A 
ENDROOT
TORSDOF 0
ENDMDL
