MODEL 1
REMARK minimizedAffinity -3.5559237
REMARK minimizedRMSD -1
REMARK  0 active torsions:
REMARK  status: ('A' for Active; 'I' for Inactive)
ROOT
ATOM      1  C2' OXE d   1      -0.489  -2.328  -0.719  0.00  0.00     0.078 C 
ATOM      2  C1' OXE d   1      -1.108   0.198   0.339  0.00  0.00     0.078 C 
ATOM      3  C1  OXE d   1       0.325  -0.071  -0.047  0.00  0.00    -0.078 A 
ATOM      4  C2  OXE d   1       0.627  -1.325  -0.520  0.00  0.00    -0.078 A 
ATOM      5  C3  OXE d   1       1.923  -1.609  -0.942  0.00  0.00     0.003 A 
ATOM      6  C4  OXE d   1       2.952  -0.680  -0.746  0.00  0.00    -0.002 A 
ATOM      7  C5  OXE d   1       2.672   0.590  -0.229  0.00  0.00    -0.002 A 
ATOM      8  C6  OXE d   1       1.360   0.924   0.086  0.00  0.00     0.003 A 
ENDROOT
TORSDOF 0
ENDMDL
