MODEL 1
REMARK minimizedAffinity -1.65849078
REMARK minimizedRMSD -1
REMARK  0 active torsions:
REMARK  status: ('A' for Active; 'I' for Inactive)
ROOT
ATOM      1  C2' OXE d   1      -0.853  -1.041  -0.949  0.00  0.00     0.078 C 
ATOM      2  C1' OXE d   1      -0.177   0.707   1.141  0.00  0.00     0.078 C 
ATOM      3  C1  OXE d   1       0.941   0.179   0.276  0.00  0.00    -0.078 A 
ATOM      4  C2  OXE d   1       0.606  -0.713  -0.715  0.00  0.00    -0.078 A 
ATOM      5  C3  OXE d   1       1.591  -1.188  -1.575  0.00  0.00     0.003 A 
ATOM      6  C4  OXE d   1       2.939  -0.888  -1.345  0.00  0.00    -0.002 A 
ATOM      7  C5  OXE d   1       3.306  -0.013  -0.317  0.00  0.00    -0.002 A 
ATOM      8  C6  OXE d   1       2.317   0.561   0.475  0.00  0.00     0.003 A 
ENDROOT
TORSDOF 0
ENDMDL
