MODEL 1
REMARK minimizedAffinity -4.75814342
REMARK minimizedRMSD -1
REMARK  0 active torsions:
REMARK  status: ('A' for Active; 'I' for Inactive)
ROOT
ATOM      1  C2' OXE d   1       2.654  -0.715  -1.122  0.00  0.00     0.078 C 
ATOM      2  C1' OXE d   1       0.662  -1.757   0.559  0.00  0.00     0.078 C 
ATOM      3  C1  OXE d   1       0.391  -0.438  -0.119  0.00  0.00    -0.078 A 
ATOM      4  C2  OXE d   1       1.389   0.087  -0.903  0.00  0.00    -0.078 A 
ATOM      5  C3  OXE d   1       1.170   1.275  -1.595  0.00  0.00     0.003 A 
ATOM      6  C4  OXE d   1       0.002   2.016  -1.379  0.00  0.00    -0.002 A 
ATOM      7  C5  OXE d   1      -1.012   1.519  -0.553  0.00  0.00    -0.002 A 
ATOM      8  C6  OXE d   1      -0.851   0.276   0.049  0.00  0.00     0.003 A 
ENDROOT
TORSDOF 0
ENDMDL
