MODEL 1
REMARK minimizedAffinity 1.37753034
REMARK minimizedRMSD -1
REMARK  0 active torsions:
REMARK  status: ('A' for Active; 'I' for Inactive)
ROOT
ATOM      1  C2' OXE d   1      -2.364   0.018   1.284  0.00  0.00     0.078 C 
ATOM      2  C1' OXE d   1       0.179  -0.793   2.152  0.00  0.00     0.078 C 
ATOM      3  C1  OXE d   1       0.096   0.031   0.891  0.00  0.00    -0.078 A 
ATOM      4  C2  OXE d   1      -1.157   0.383   0.448  0.00  0.00    -0.078 A 
ATOM      5  C3  OXE d   1      -1.287   1.189  -0.679  0.00  0.00     0.003 A 
ATOM      6  C4  OXE d   1      -0.166   1.514  -1.452  0.00  0.00    -0.002 A 
ATOM      7  C5  OXE d   1       1.115   1.132  -1.041  0.00  0.00    -0.002 A 
ATOM      8  C6  OXE d   1       1.267   0.427   0.148  0.00  0.00     0.003 A 
ENDROOT
TORSDOF 0
ENDMDL
