MODEL 1
REMARK minimizedAffinity -3.82198668
REMARK minimizedRMSD -1
REMARK  0 active torsions:
REMARK  status: ('A' for Active; 'I' for Inactive)
ROOT
ATOM      1  C2' OXE d   1      -0.854  -0.044   1.230  0.00  0.00     0.078 C 
ATOM      2  C1' OXE d   1      -0.685  -2.685   0.296  0.00  0.00     0.078 C 
ATOM      3  C1  OXE d   1       0.271  -1.672  -0.283  0.00  0.00    -0.078 A 
ATOM      4  C2  OXE d   1       0.150  -0.372   0.146  0.00  0.00    -0.078 A 
ATOM      5  C3  OXE d   1       1.042   0.592  -0.315  0.00  0.00     0.003 A 
ATOM      6  C4  OXE d   1       1.961   0.282  -1.325  0.00  0.00    -0.002 A 
ATOM      7  C5  OXE d   1       2.074  -1.027  -1.805  0.00  0.00    -0.002 A 
ATOM      8  C6  OXE d   1       1.267  -2.023  -1.265  0.00  0.00     0.003 A 
ENDROOT
TORSDOF 0
ENDMDL
