MODEL 1
REMARK minimizedAffinity -3.49243832
REMARK minimizedRMSD -1
REMARK  0 active torsions:
REMARK  status: ('A' for Active; 'I' for Inactive)
ROOT
ATOM      1  C2' OXE d   1      -0.796   1.512   2.150  0.00  0.00     0.078 C 
ATOM      2  C1' OXE d   1      -2.265   0.243   0.122  0.00  0.00     0.078 C 
ATOM      3  C1  OXE d   1      -0.785  -0.040   0.201  0.00  0.00    -0.078 A 
ATOM      4  C2  OXE d   1      -0.066   0.622   1.167  0.00  0.00    -0.078 A 
ATOM      5  C3  OXE d   1       1.292   0.356   1.319  0.00  0.00     0.003 A 
ATOM      6  C4  OXE d   1       1.961  -0.460   0.399  0.00  0.00    -0.002 A 
ATOM      7  C5  OXE d   1       1.255  -1.113  -0.617  0.00  0.00    -0.002 A 
ATOM      8  C6  OXE d   1      -0.123  -0.947  -0.703  0.00  0.00     0.003 A 
ENDROOT
TORSDOF 0
ENDMDL
