MODEL 1
REMARK minimizedAffinity -5.28839493
REMARK minimizedRMSD -1
REMARK  0 active torsions:
REMARK  status: ('A' for Active; 'I' for Inactive)
ROOT
ATOM      1  C2' OXE d   1      -0.764   0.397   0.762  0.00  0.00     0.078 C 
ATOM      2  C1' OXE d   1      -0.654  -2.177  -0.354  0.00  0.00     0.078 C 
ATOM      3  C1  OXE d   1       0.455  -1.213  -0.697  0.00  0.00    -0.078 A 
ATOM      4  C2  OXE d   1       0.368   0.059  -0.184  0.00  0.00    -0.078 A 
ATOM      5  C3  OXE d   1       1.393   0.970  -0.425  0.00  0.00     0.003 A 
ATOM      6  C4  OXE d   1       2.431   0.652  -1.309  0.00  0.00    -0.002 A 
ATOM      7  C5  OXE d   1       2.517  -0.625  -1.874  0.00  0.00    -0.002 A 
ATOM      8  C6  OXE d   1       1.562  -1.581  -1.545  0.00  0.00     0.003 A 
ENDROOT
TORSDOF 0
ENDMDL
