MODEL 1
REMARK minimizedAffinity -4.33430386
REMARK minimizedRMSD -1
REMARK  0 active torsions:
REMARK  status: ('A' for Active; 'I' for Inactive)
ROOT
ATOM      1  C2' OXE d   1       3.185  -0.721  -1.614  0.00  0.00     0.078 C 
ATOM      2  C1' OXE d   1       1.982   1.806  -1.831  0.00  0.00     0.078 C 
ATOM      3  C1  OXE d   1       1.234   0.733  -1.080  0.00  0.00    -0.078 A 
ATOM      4  C2  OXE d   1       1.809  -0.513  -1.019  0.00  0.00    -0.078 A 
ATOM      5  C3  OXE d   1       1.187  -1.524  -0.291  0.00  0.00     0.003 A 
ATOM      6  C4  OXE d   1      -0.090  -1.327   0.248  0.00  0.00    -0.002 A 
ATOM      7  C5  OXE d   1      -0.711  -0.077   0.163  0.00  0.00    -0.002 A 
ATOM      8  C6  OXE d   1      -0.045   0.974  -0.459  0.00  0.00     0.003 A 
ENDROOT
TORSDOF 0
ENDMDL
