MODEL 1
REMARK minimizedAffinity -1.83361053
REMARK minimizedRMSD -1
REMARK  0 active torsions:
REMARK  status: ('A' for Active; 'I' for Inactive)
ROOT
ATOM      1  C2' OXE d   1      -1.195  -2.078  -0.168  0.00  0.00     0.078 C 
ATOM      2  C1' OXE d   1      -1.118   0.320   1.289  0.00  0.00     0.078 C 
ATOM      3  C1  OXE d   1       0.020   0.036   0.340  0.00  0.00    -0.078 A 
ATOM      4  C2  OXE d   1      -0.003  -1.161  -0.334  0.00  0.00    -0.078 A 
ATOM      5  C3  OXE d   1       0.994  -1.448  -1.262  0.00  0.00     0.003 A 
ATOM      6  C4  OXE d   1       2.098  -0.599  -1.402  0.00  0.00    -0.002 A 
ATOM      7  C5  OXE d   1       2.161   0.607  -0.696  0.00  0.00    -0.002 A 
ATOM      8  C6  OXE d   1       1.111   0.959   0.146  0.00  0.00     0.003 A 
ENDROOT
TORSDOF 0
ENDMDL
