MODEL 1
REMARK minimizedAffinity -3.75449562
REMARK minimizedRMSD -1
REMARK  0 active torsions:
REMARK  status: ('A' for Active; 'I' for Inactive)
ROOT
ATOM      1  C2' OXE d   1       0.024   0.872   0.510  0.00  0.00     0.078 C 
ATOM      2  C1' OXE d   1      -0.530  -1.756  -0.305  0.00  0.00     0.078 C 
ATOM      3  C1  OXE d   1       0.574  -1.016  -1.019  0.00  0.00    -0.078 A 
ATOM      4  C2  OXE d   1       0.806   0.286  -0.645  0.00  0.00    -0.078 A 
ATOM      5  C3  OXE d   1       1.848   0.996  -1.233  0.00  0.00     0.003 A 
ATOM      6  C4  OXE d   1       2.561   0.450  -2.308  0.00  0.00    -0.002 A 
ATOM      7  C5  OXE d   1       2.313  -0.860  -2.731  0.00  0.00    -0.002 A 
ATOM      8  C6  OXE d   1       1.354  -1.620  -2.070  0.00  0.00     0.003 A 
ENDROOT
TORSDOF 0
ENDMDL
