MODEL 1
REMARK minimizedAffinity -4.13591385
REMARK minimizedRMSD -1
REMARK  0 active torsions:
REMARK  status: ('A' for Active; 'I' for Inactive)
ROOT
ATOM      1  C2' OXE d   1       1.148  -2.554  -2.037  0.00  0.00     0.078 C 
ATOM      2  C1' OXE d   1       2.949  -0.425  -1.708  0.00  0.00     0.078 C 
ATOM      3  C1  OXE d   1       1.824  -0.555  -0.712  0.00  0.00    -0.078 A 
ATOM      4  C2  OXE d   1       0.921  -1.572  -0.907  0.00  0.00    -0.078 A 
ATOM      5  C3  OXE d   1      -0.104  -1.771   0.013  0.00  0.00     0.003 A 
ATOM      6  C4  OXE d   1      -0.313  -0.852   1.050  0.00  0.00    -0.002 A 
ATOM      7  C5  OXE d   1       0.572   0.213   1.243  0.00  0.00    -0.002 A 
ATOM      8  C6  OXE d   1       1.667   0.351   0.399  0.00  0.00     0.003 A 
ENDROOT
TORSDOF 0
ENDMDL
