MODEL 1
REMARK minimizedAffinity 0.645242512
REMARK minimizedRMSD -1
REMARK  0 active torsions:
REMARK  status: ('A' for Active; 'I' for Inactive)
ROOT
ATOM      1  C2' OXE d   1       1.315   2.304  -1.494  0.00  0.00     0.078 C 
ATOM      2  C1' OXE d   1       2.731   0.038  -0.633  0.00  0.00     0.078 C 
ATOM      3  C1  OXE d   1       1.226   0.006  -0.537  0.00  0.00    -0.078 A 
ATOM      4  C2  OXE d   1       0.544   1.137  -0.917  0.00  0.00    -0.078 A 
ATOM      5  C3  OXE d   1      -0.848   1.140  -0.901  0.00  0.00     0.003 A 
ATOM      6  C4  OXE d   1      -1.553   0.060  -0.356  0.00  0.00    -0.002 A 
ATOM      7  C5  OXE d   1      -0.876  -1.086   0.074  0.00  0.00    -0.002 A 
ATOM      8  C6  OXE d   1       0.508  -1.146  -0.050  0.00  0.00     0.003 A 
ENDROOT
TORSDOF 0
ENDMDL
