MODEL 1
REMARK minimizedAffinity -5.36928606
REMARK minimizedRMSD -1
REMARK  0 active torsions:
REMARK  status: ('A' for Active; 'I' for Inactive)
ROOT
ATOM      1  C2' OXE d   1       2.229   2.203  -1.720  0.00  0.00     0.078 C 
ATOM      2  C1' OXE d   1       3.679  -0.199  -1.793  0.00  0.00     0.078 C 
ATOM      3  C1  OXE d   1       2.235  -0.262  -1.362  0.00  0.00    -0.078 A 
ATOM      4  C2  OXE d   1       1.546   0.925  -1.284  0.00  0.00    -0.078 A 
ATOM      5  C3  OXE d   1       0.196   0.918  -0.944  0.00  0.00     0.003 A 
ATOM      6  C4  OXE d   1      -0.424  -0.268  -0.532  0.00  0.00    -0.002 A 
ATOM      7  C5  OXE d   1       0.270  -1.482  -0.566  0.00  0.00    -0.002 A 
ATOM      8  C6  OXE d   1       1.585  -1.502  -1.018  0.00  0.00     0.003 A 
ENDROOT
TORSDOF 0
ENDMDL
