MODEL 1
REMARK minimizedAffinity -2.44175839
REMARK minimizedRMSD -1
REMARK  0 active torsions:
REMARK  status: ('A' for Active; 'I' for Inactive)
ROOT
ATOM      1  C2' OXE d   1       3.192  -0.343  -1.629  0.00  0.00     0.078 C 
ATOM      2  C1' OXE d   1       1.481  -2.446  -2.357  0.00  0.00     0.078 C 
ATOM      3  C1  OXE d   1       1.011  -1.496  -1.283  0.00  0.00    -0.078 A 
ATOM      4  C2  OXE d   1       1.874  -0.498  -0.900  0.00  0.00    -0.078 A 
ATOM      5  C3  OXE d   1       1.469   0.438   0.047  0.00  0.00     0.003 A 
ATOM      6  C4  OXE d   1       0.253   0.282   0.723  0.00  0.00    -0.002 A 
ATOM      7  C5  OXE d   1      -0.624  -0.752   0.376  0.00  0.00    -0.002 A 
ATOM      8  C6  OXE d   1      -0.279  -1.622  -0.652  0.00  0.00     0.003 A 
ENDROOT
TORSDOF 0
ENDMDL
