MODEL 1
REMARK minimizedAffinity 6.07490206
REMARK minimizedRMSD -1
REMARK  1 active torsions:
REMARK  status: ('A' for Active; 'I' for Inactive)
REMARK    1  A    between atoms: N_2  and  C1_3 
ROOT
ATOM      1  C1  UNL d   1       0.702  -1.078   2.401  0.00  0.00     0.143 A 
ATOM      2  C2  UNL d   1      -0.626  -1.475   2.209  0.00  0.00    -0.057 A 
ATOM      3  C3  UNL d   1      -1.561  -0.620   1.612  0.00  0.00     0.033 A 
ATOM      4  C4  UNL d   1      -1.190   0.662   1.222  0.00  0.00    -0.042 A 
ATOM      5  C5  UNL d   1       0.118   1.088   1.426  0.00  0.00     0.033 A 
ATOM      6  C6  UNL d   1       1.049   0.227   2.016  0.00  0.00    -0.057 A 
ENDROOT
BRANCH   1   7
ATOM      7  N   UNL d   1       1.653  -1.845   3.077  0.00  0.00    -0.732 N 
ATOM      8  C   UNL d   1       1.470  -2.185   4.472  0.00  0.00     0.284 C 
ATOM      9  H3  UNL d   1       2.014  -2.606   2.507  0.00  0.00     0.395 HD
ENDBRANCH   1   7
TORSDOF 1
ENDMDL
