MODEL 1
REMARK minimizedAffinity -3.82839465
REMARK minimizedRMSD -1
REMARK  1 active torsions:
REMARK  status: ('A' for Active; 'I' for Inactive)
REMARK    1  A    between atoms: N_2  and  C1_3 
ROOT
ATOM      1  C1  UNL d   1      -0.047  -1.364   3.692  0.00  0.00     0.143 A 
ATOM      2  C2  UNL d   1       0.773  -0.575   2.879  0.00  0.00    -0.057 A 
ATOM      3  C3  UNL d   1       0.230   0.281   1.913  0.00  0.00     0.033 A 
ATOM      4  C4  UNL d   1      -1.147   0.342   1.724  0.00  0.00    -0.042 A 
ATOM      5  C5  UNL d   1      -1.980  -0.452   2.504  0.00  0.00     0.033 A 
ATOM      6  C6  UNL d   1      -1.432  -1.300   3.472  0.00  0.00    -0.057 A 
ENDROOT
BRANCH   1   7
ATOM      7  N   UNL d   1       0.436  -2.307   4.602  0.00  0.00    -0.732 N 
ATOM      8  C   UNL d   1       1.855  -2.413   4.871  0.00  0.00     0.284 C 
ATOM      9  H3  UNL d   1      -0.150  -2.385   5.430  0.00  0.00     0.395 HD
ENDBRANCH   1   7
TORSDOF 1
ENDMDL
