MODEL 1
REMARK minimizedAffinity 4.65534639
REMARK minimizedRMSD -1
REMARK  1 active torsions:
REMARK  status: ('A' for Active; 'I' for Inactive)
REMARK    1  A    between atoms: N_2  and  C1_3 
ROOT
ATOM      1  C1  UNL d   1       0.901  -1.576   3.398  0.00  0.00     0.143 A 
ATOM      2  C2  UNL d   1       1.988  -0.783   3.015  0.00  0.00    -0.057 A 
ATOM      3  C3  UNL d   1       1.825   0.304   2.147  0.00  0.00     0.033 A 
ATOM      4  C4  UNL d   1       0.571   0.600   1.622  0.00  0.00    -0.042 A 
ATOM      5  C5  UNL d   1      -0.519  -0.190   1.969  0.00  0.00     0.033 A 
ATOM      6  C6  UNL d   1      -0.351  -1.270   2.841  0.00  0.00    -0.057 A 
ENDROOT
BRANCH   1   7
ATOM      7  N   UNL d   1       1.016  -2.728   4.178  0.00  0.00    -0.732 N 
ATOM      8  C   UNL d   1       1.962  -2.787   5.272  0.00  0.00     0.284 C 
ATOM      9  H3  UNL d   1       0.113  -3.147   4.387  0.00  0.00     0.395 HD
ENDBRANCH   1   7
TORSDOF 1
ENDMDL
