MODEL 1
REMARK minimizedAffinity 7.73250341
REMARK minimizedRMSD -1
REMARK  1 active torsions:
REMARK  status: ('A' for Active; 'I' for Inactive)
REMARK    1  A    between atoms: N_2  and  C1_3 
ROOT
ATOM      1  C1  UNL d   1       0.399  -1.036   2.944  0.00  0.00     0.143 A 
ATOM      2  C2  UNL d   1      -0.825  -1.490   2.439  0.00  0.00    -0.057 A 
ATOM      3  C3  UNL d   1      -1.603  -0.689   1.595  0.00  0.00     0.033 A 
ATOM      4  C4  UNL d   1      -1.184   0.595   1.262  0.00  0.00    -0.042 A 
ATOM      5  C5  UNL d   1       0.017   1.076   1.772  0.00  0.00     0.033 A 
ATOM      6  C6  UNL d   1       0.793   0.269   2.610  0.00  0.00    -0.057 A 
ENDROOT
BRANCH   1   7
ATOM      7  N   UNL d   1       1.171  -1.747   3.866  0.00  0.00    -0.732 N 
ATOM      8  C   UNL d   1       1.374  -1.237   5.205  0.00  0.00     0.284 C 
ATOM      9  H3  UNL d   1       1.002  -2.749   3.824  0.00  0.00     0.395 HD
ENDBRANCH   1   7
TORSDOF 1
ENDMDL
