MODEL 1
REMARK minimizedAffinity 3.58124995
REMARK minimizedRMSD -1
REMARK  1 active torsions:
REMARK  status: ('A' for Active; 'I' for Inactive)
REMARK    1  A    between atoms: N_2  and  C1_3 
ROOT
ATOM      1  C1  UNL d   1      -0.187  -0.674   2.648  0.00  0.00     0.143 A 
ATOM      2  C2  UNL d   1      -0.041   0.388   1.749  0.00  0.00    -0.057 A 
ATOM      3  C3  UNL d   1      -1.137   0.899   1.045  0.00  0.00     0.033 A 
ATOM      4  C4  UNL d   1      -2.399   0.336   1.206  0.00  0.00    -0.042 A 
ATOM      5  C5  UNL d   1      -2.564  -0.736   2.076  0.00  0.00     0.033 A 
ATOM      6  C6  UNL d   1      -1.466  -1.238   2.782  0.00  0.00    -0.057 A 
ENDROOT
BRANCH   1   7
ATOM      7  N   UNL d   1       0.881  -1.291   3.304  0.00  0.00    -0.732 N 
ATOM      8  C   UNL d   1       2.210  -1.266   2.732  0.00  0.00     0.284 C 
ATOM      9  H3  UNL d   1       0.859  -1.140   4.310  0.00  0.00     0.395 HD
ENDBRANCH   1   7
TORSDOF 1
ENDMDL
