MODEL 1
REMARK minimizedAffinity -0.759500146
REMARK minimizedRMSD -1
REMARK  1 active torsions:
REMARK  status: ('A' for Active; 'I' for Inactive)
REMARK    1  A    between atoms: N_2  and  C1_3 
ROOT
ATOM      1  C1  UNL d   1      -1.159  -0.542   2.787  0.00  0.00     0.143 A 
ATOM      2  C2  UNL d   1      -0.503  -0.699   4.012  0.00  0.00    -0.057 A 
ATOM      3  C3  UNL d   1       0.887  -0.848   4.078  0.00  0.00     0.033 A 
ATOM      4  C4  UNL d   1       1.646  -0.872   2.913  0.00  0.00    -0.042 A 
ATOM      5  C5  UNL d   1       1.013  -0.742   1.682  0.00  0.00     0.033 A 
ATOM      6  C6  UNL d   1      -0.375  -0.587   1.623  0.00  0.00    -0.057 A 
ENDROOT
BRANCH   1   7
ATOM      7  N   UNL d   1      -2.548  -0.488   2.649  0.00  0.00    -0.732 N 
ATOM      8  C   UNL d   1      -3.396  -1.419   3.363  0.00  0.00     0.284 C 
ATOM      9  H3  UNL d   1      -2.900   0.466   2.632  0.00  0.00     0.395 HD
ENDBRANCH   1   7
TORSDOF 1
ENDMDL
