MODEL 1
REMARK minimizedAffinity 4.09314728
REMARK minimizedRMSD -1
REMARK  2 active torsions:
REMARK  status: ('A' for Active; 'I' for Inactive)
REMARK    1  A    between atoms: C1_2  and  C2_3 
REMARK    2  A    between atoms: C2_3  and  C3_4 
ROOT
ATOM      1  C3  UNL d   1       1.821  -1.658   2.199  0.00  0.00    -0.075 A 
ATOM      2  C4  UNL d   1       1.481  -1.682   0.839  0.00  0.00     0.002 A 
ATOM      3  C5  UNL d   1       2.076  -2.602  -0.025  0.00  0.00     0.002 A 
ATOM      4  C6  UNL d   1       3.024  -3.501   0.458  0.00  0.00    -0.004 A 
ATOM      5  C7  UNL d   1       3.382  -3.476   1.804  0.00  0.00     0.002 A 
ATOM      6  C8  UNL d   1       2.785  -2.559   2.671  0.00  0.00     0.002 A 
ENDROOT
BRANCH   1   7
ATOM      7  C2  UNL d   1       1.159  -0.684   3.144  0.00  0.00     0.056 C 
BRANCH   7   8
ATOM      8  C1  UNL d   1      -0.369  -0.646   3.031  0.00  0.00     0.007 C 
ATOM      9  C   UNL d   1      -0.999  -2.030   2.947  0.00  0.00     0.009 C 
ENDBRANCH   7   8
ENDBRANCH   1   7
TORSDOF 2
ENDMDL
