MODEL 1
REMARK minimizedAffinity 4.68513823
REMARK minimizedRMSD -1
REMARK  2 active torsions:
REMARK  status: ('A' for Active; 'I' for Inactive)
REMARK    1  A    between atoms: C1_2  and  C2_3 
REMARK    2  A    between atoms: C2_3  and  C3_4 
ROOT
ATOM      1  C3  UNL d   1      -0.454   1.922   2.339  0.00  0.00    -0.075 A 
ATOM      2  C4  UNL d   1      -0.978   3.040   1.672  0.00  0.00     0.002 A 
ATOM      3  C5  UNL d   1      -0.175   4.152   1.415  0.00  0.00     0.002 A 
ATOM      4  C6  UNL d   1       1.155   4.165   1.829  0.00  0.00    -0.004 A 
ATOM      5  C7  UNL d   1       1.681   3.067   2.507  0.00  0.00     0.002 A 
ATOM      6  C8  UNL d   1       0.882   1.952   2.761  0.00  0.00     0.002 A 
ENDROOT
BRANCH   1   7
ATOM      7  C2  UNL d   1      -1.309   0.704   2.594  0.00  0.00     0.056 C 
BRANCH   7   8
ATOM      8  C1  UNL d   1      -0.520  -0.528   3.048  0.00  0.00     0.007 C 
ATOM      9  C   UNL d   1      -0.828  -1.774   2.229  0.00  0.00     0.009 C 
ENDBRANCH   7   8
ENDBRANCH   1   7
TORSDOF 2
ENDMDL
