MODEL 1
REMARK minimizedAffinity 2.48828173
REMARK minimizedRMSD -1
REMARK  2 active torsions:
REMARK  status: ('A' for Active; 'I' for Inactive)
REMARK    1  A    between atoms: C1_2  and  C2_3 
REMARK    2  A    between atoms: C2_3  and  C3_4 
ROOT
ATOM      1  C3  UNL d   1      -3.174  -0.296  -2.801  0.00  0.00    -0.075 A 
ATOM      2  C4  UNL d   1      -4.126  -0.568  -3.794  0.00  0.00     0.002 A 
ATOM      3  C5  UNL d   1      -5.132  -1.508  -3.573  0.00  0.00     0.002 A 
ATOM      4  C6  UNL d   1      -5.194  -2.195  -2.363  0.00  0.00    -0.004 A 
ATOM      5  C7  UNL d   1      -4.244  -1.945  -1.375  0.00  0.00     0.002 A 
ATOM      6  C8  UNL d   1      -3.239  -1.002  -1.592  0.00  0.00     0.002 A 
ENDROOT
BRANCH   1   7
ATOM      7  C2  UNL d   1      -2.100   0.742  -3.023  0.00  0.00     0.056 C 
BRANCH   7   8
ATOM      8  C1  UNL d   1      -2.530   2.169  -2.668  0.00  0.00     0.007 C 
ATOM      9  C   UNL d   1      -2.972   2.981  -3.878  0.00  0.00     0.009 C 
ENDBRANCH   7   8
ENDBRANCH   1   7
TORSDOF 2
ENDMDL
