MODEL 1
REMARK minimizedAffinity 0.564062357
REMARK minimizedRMSD -1
REMARK  2 active torsions:
REMARK  status: ('A' for Active; 'I' for Inactive)
REMARK    1  A    between atoms: C1_2  and  C2_3 
REMARK    2  A    between atoms: C2_3  and  C3_4 
ROOT
ATOM      1  C3  UNL d   1       4.727  -3.735   2.926  0.00  0.00    -0.075 A 
ATOM      2  C4  UNL d   1       5.610  -3.707   1.836  0.00  0.00     0.002 A 
ATOM      3  C5  UNL d   1       5.167  -3.308   0.575  0.00  0.00     0.002 A 
ATOM      4  C6  UNL d   1       3.837  -2.942   0.385  0.00  0.00    -0.004 A 
ATOM      5  C7  UNL d   1       2.947  -2.981   1.456  0.00  0.00     0.002 A 
ATOM      6  C8  UNL d   1       3.389  -3.376   2.720  0.00  0.00     0.002 A 
ENDROOT
BRANCH   1   7
ATOM      7  C2  UNL d   1       5.208  -4.138   4.299  0.00  0.00     0.056 C 
BRANCH   7   8
ATOM      8  C1  UNL d   1       4.819  -3.155   5.409  0.00  0.00     0.007 C 
ATOM      9  C   UNL d   1       5.987  -2.312   5.902  0.00  0.00     0.009 C 
ENDBRANCH   7   8
ENDBRANCH   1   7
TORSDOF 2
ENDMDL
