MODEL 1
REMARK minimizedAffinity -0.924627721
REMARK minimizedRMSD -1
REMARK  3 active torsions:
REMARK  status: ('A' for Active; 'I' for Inactive)
REMARK    1  A    between atoms: C3'_2  and  C2'_3 
REMARK    2  A    between atoms: C2'_3  and  C1'_4 
REMARK    3  A    between atoms: C1'_4  and  C1_5 
ROOT
ATOM      1  C1  N4B d   1      -0.543  -5.995   3.397  0.00  0.00    -0.075 A 
ATOM      2  C2  N4B d   1       0.282  -5.977   2.251  0.00  0.00     0.002 A 
ATOM      3  C3  N4B d   1       1.648  -5.952   2.388  0.00  0.00     0.002 A 
ATOM      4  C4  N4B d   1       2.210  -5.926   3.656  0.00  0.00    -0.004 A 
ATOM      5  C5  N4B d   1       1.407  -5.969   4.758  0.00  0.00     0.002 A 
ATOM      6  C6  N4B d   1       0.032  -5.998   4.635  0.00  0.00     0.002 A 
ENDROOT
BRANCH   1   7
ATOM      7  C1' N4B d   1      -2.042  -5.936   3.297  0.00  0.00     0.057 C 
BRANCH   7   8
ATOM      8  C2' N4B d   1      -2.449  -5.998   1.828  0.00  0.00     0.009 C 
BRANCH   8   9
ATOM      9  C3' N4B d   1      -3.954  -5.888   1.650  0.00  0.00     0.004 C 
ATOM     10  C4' N4B d   1      -4.699  -5.956   2.950  0.00  0.00     0.003 C 
ENDBRANCH   8   9
ENDBRANCH   7   8
ENDBRANCH   1   7
TORSDOF 3
ENDMDL
