MODEL 1
REMARK minimizedAffinity 6.22447634
REMARK minimizedRMSD -1
REMARK  3 active torsions:
REMARK  status: ('A' for Active; 'I' for Inactive)
REMARK    1  A    between atoms: C3'_2  and  C2'_3 
REMARK    2  A    between atoms: C2'_3  and  C1'_4 
REMARK    3  A    between atoms: C1'_4  and  C1_5 
ROOT
ATOM      1  C1  N4B d   1      -0.401  -2.078  -4.196  0.00  0.00    -0.075 A 
ATOM      2  C2  N4B d   1      -1.120  -1.102  -3.472  0.00  0.00     0.002 A 
ATOM      3  C3  N4B d   1      -2.399  -1.366  -3.047  0.00  0.00     0.002 A 
ATOM      4  C4  N4B d   1      -2.984  -2.586  -3.350  0.00  0.00    -0.004 A 
ATOM      5  C5  N4B d   1      -2.274  -3.533  -4.028  0.00  0.00     0.002 A 
ATOM      6  C6  N4B d   1      -0.986  -3.283  -4.458  0.00  0.00     0.002 A 
ENDROOT
BRANCH   1   7
ATOM      7  C1' N4B d   1       0.968  -1.803  -4.756  0.00  0.00     0.057 C 
BRANCH   7   8
ATOM      8  C2' N4B d   1       1.751  -0.945  -3.766  0.00  0.00     0.009 C 
BRANCH   8   9
ATOM      9  C3' N4B d   1       3.138  -0.605  -4.282  0.00  0.00     0.004 C 
ATOM     10  C4' N4B d   1       3.710   0.625  -3.643  0.00  0.00     0.003 C 
ENDBRANCH   8   9
ENDBRANCH   7   8
ENDBRANCH   1   7
TORSDOF 3
ENDMDL
