MODEL 1
REMARK minimizedAffinity 14.5334558
REMARK minimizedRMSD -1
REMARK  3 active torsions:
REMARK  status: ('A' for Active; 'I' for Inactive)
REMARK    1  A    between atoms: C3'_2  and  C2'_3 
REMARK    2  A    between atoms: C2'_3  and  C1'_4 
REMARK    3  A    between atoms: C1'_4  and  C1_5 
ROOT
ATOM      1  C1  N4B d   1      -2.670  -0.887  -1.463  0.00  0.00    -0.075 A 
ATOM      2  C2  N4B d   1      -2.471  -1.546  -0.229  0.00  0.00     0.002 A 
ATOM      3  C3  N4B d   1      -3.488  -2.282   0.328  0.00  0.00     0.002 A 
ATOM      4  C4  N4B d   1      -4.713  -2.358  -0.317  0.00  0.00    -0.004 A 
ATOM      5  C5  N4B d   1      -4.889  -1.740  -1.521  0.00  0.00     0.002 A 
ATOM      6  C6  N4B d   1      -3.875  -1.000  -2.095  0.00  0.00     0.002 A 
ENDROOT
BRANCH   1   7
ATOM      7  C1' N4B d   1      -1.617  -0.001  -2.069  0.00  0.00     0.057 C 
BRANCH   7   8
ATOM      8  C2' N4B d   1      -1.082   0.946  -0.998  0.00  0.00     0.009 C 
BRANCH   8   9
ATOM      9  C3' N4B d   1       0.122   0.365  -0.277  0.00  0.00     0.004 C 
ATOM     10  C4' N4B d   1       0.482   1.130   0.962  0.00  0.00     0.003 C 
ENDBRANCH   8   9
ENDBRANCH   7   8
ENDBRANCH   1   7
TORSDOF 3
ENDMDL
