MODEL 1
REMARK minimizedAffinity 5.98624659
REMARK minimizedRMSD -1
REMARK  3 active torsions:
REMARK  status: ('A' for Active; 'I' for Inactive)
REMARK    1  A    between atoms: C3'_2  and  C2'_3 
REMARK    2  A    between atoms: C2'_3  and  C1'_4 
REMARK    3  A    between atoms: C1'_4  and  C1_5 
ROOT
ATOM      1  C1  N4B d   1      -0.066  -5.934   2.499  0.00  0.00    -0.075 A 
ATOM      2  C2  N4B d   1      -0.289  -5.933   3.894  0.00  0.00     0.002 A 
ATOM      3  C3  N4B d   1       0.776  -5.954   4.760  0.00  0.00     0.002 A 
ATOM      4  C4  N4B d   1       2.068  -5.996   4.258  0.00  0.00    -0.004 A 
ATOM      5  C5  N4B d   1       2.276  -5.971   2.910  0.00  0.00     0.002 A 
ATOM      6  C6  N4B d   1       1.215  -5.946   2.027  0.00  0.00     0.002 A 
ENDROOT
BRANCH   1   7
ATOM      7  C1' N4B d   1      -1.200  -5.998   1.513  0.00  0.00     0.057 C 
BRANCH   7   8
ATOM      8  C2' N4B d   1      -2.523  -6.000   2.272  0.00  0.00     0.009 C 
BRANCH   8   9
ATOM      9  C3' N4B d   1      -3.709  -5.793   1.345  0.00  0.00     0.004 C 
ATOM     10  C4' N4B d   1      -5.026  -5.996   2.033  0.00  0.00     0.003 C 
ENDBRANCH   8   9
ENDBRANCH   7   8
ENDBRANCH   1   7
TORSDOF 3
ENDMDL
