MODEL 1
REMARK minimizedAffinity 6.59026384
REMARK minimizedRMSD -1
REMARK  3 active torsions:
REMARK  status: ('A' for Active; 'I' for Inactive)
REMARK    1  A    between atoms: C3'_2  and  C2'_3 
REMARK    2  A    between atoms: C2'_3  and  C1'_4 
REMARK    3  A    between atoms: C1'_4  and  C1_5 
ROOT
ATOM      1  C1  N4B d   1      -0.277  -5.882   1.679  0.00  0.00    -0.075 A 
ATOM      2  C2  N4B d   1      -0.986  -5.843   0.459  0.00  0.00     0.002 A 
ATOM      3  C3  N4B d   1      -2.360  -5.824   0.463  0.00  0.00     0.002 A 
ATOM      4  C4  N4B d   1      -3.043  -5.864   1.669  0.00  0.00    -0.004 A 
ATOM      5  C5  N4B d   1      -2.350  -5.876   2.844  0.00  0.00     0.002 A 
ATOM      6  C6  N4B d   1      -0.970  -5.891   2.856  0.00  0.00     0.002 A 
ENDROOT
BRANCH   1   7
ATOM      7  C1' N4B d   1       1.222  -5.991   1.723  0.00  0.00     0.057 C 
BRANCH   7   8
ATOM      8  C2' N4B d   1       1.682  -5.987   3.178  0.00  0.00     0.009 C 
BRANCH   8   9
ATOM      9  C3' N4B d   1       0.510  -5.993   4.145  0.00  0.00     0.004 C 
ATOM     10  C4' N4B d   1       0.920  -5.700   5.557  0.00  0.00     0.003 C 
ENDBRANCH   8   9
ENDBRANCH   7   8
ENDBRANCH   1   7
TORSDOF 3
ENDMDL
