MODEL 1
REMARK minimizedAffinity 5.12124205
REMARK minimizedRMSD -1
REMARK  3 active torsions:
REMARK  status: ('A' for Active; 'I' for Inactive)
REMARK    1  A    between atoms: C3'_2  and  C2'_3 
REMARK    2  A    between atoms: C2'_3  and  C1'_4 
REMARK    3  A    between atoms: C1'_4  and  C1_5 
ROOT
ATOM      1  C1  N4B d   1      -0.706  -5.935   2.575  0.00  0.00    -0.075 A 
ATOM      2  C2  N4B d   1      -0.803  -5.954   3.984  0.00  0.00     0.002 A 
ATOM      3  C3  N4B d   1       0.337  -5.976   4.750  0.00  0.00     0.002 A 
ATOM      4  C4  N4B d   1       1.578  -5.997   4.133  0.00  0.00    -0.004 A 
ATOM      5  C5  N4B d   1       1.664  -5.953   2.772  0.00  0.00     0.002 A 
ATOM      6  C6  N4B d   1       0.527  -5.927   1.989  0.00  0.00     0.002 A 
ENDROOT
BRANCH   1   7
ATOM      7  C1' N4B d   1      -1.924  -5.998   1.694  0.00  0.00     0.057 C 
BRANCH   7   8
ATOM      8  C2' N4B d   1      -3.174  -5.988   2.568  0.00  0.00     0.009 C 
BRANCH   8   9
ATOM      9  C3' N4B d   1      -4.444  -5.875   1.741  0.00  0.00     0.004 C 
ATOM     10  C4' N4B d   1      -5.688  -5.960   2.574  0.00  0.00     0.003 C 
ENDBRANCH   8   9
ENDBRANCH   7   8
ENDBRANCH   1   7
TORSDOF 3
ENDMDL
