MODEL 1
REMARK minimizedAffinity 7.60354042
REMARK minimizedRMSD -1
REMARK  3 active torsions:
REMARK  status: ('A' for Active; 'I' for Inactive)
REMARK    1  A    between atoms: C3'_2  and  C2'_3 
REMARK    2  A    between atoms: C2'_3  and  C1'_4 
REMARK    3  A    between atoms: C1'_4  and  C1_5 
ROOT
ATOM      1  C1  N4B d   1      -1.295  -2.332  -3.776  0.00  0.00    -0.075 A 
ATOM      2  C2  N4B d   1      -1.588  -1.216  -2.961  0.00  0.00     0.002 A 
ATOM      3  C3  N4B d   1      -2.881  -0.976  -2.566  0.00  0.00     0.002 A 
ATOM      4  C4  N4B d   1      -3.896  -1.823  -2.986  0.00  0.00    -0.004 A 
ATOM      5  C5  N4B d   1      -3.600  -2.913  -3.751  0.00  0.00     0.002 A 
ATOM      6  C6  N4B d   1      -2.305  -3.169  -4.153  0.00  0.00     0.002 A 
ENDROOT
BRANCH   1   7
ATOM      7  C1' N4B d   1       0.090  -2.587  -4.305  0.00  0.00     0.057 C 
BRANCH   7   8
ATOM      8  C2' N4B d   1       1.096  -1.788  -3.482  0.00  0.00     0.009 C 
BRANCH   8   9
ATOM      9  C3' N4B d   1       2.186  -1.183  -4.348  0.00  0.00     0.004 C 
ATOM     10  C4' N4B d   1       3.151  -0.343  -3.566  0.00  0.00     0.003 C 
ENDBRANCH   8   9
ENDBRANCH   7   8
ENDBRANCH   1   7
TORSDOF 3
ENDMDL
