MODEL 1
REMARK minimizedAffinity 6.93131733
REMARK minimizedRMSD -1
REMARK  3 active torsions:
REMARK  status: ('A' for Active; 'I' for Inactive)
REMARK    1  A    between atoms: C3'_2  and  C2'_3 
REMARK    2  A    between atoms: C2'_3  and  C1'_4 
REMARK    3  A    between atoms: C1'_4  and  C1_5 
ROOT
ATOM      1  C1  N4B d   1       0.316   0.584  -0.446  0.00  0.00    -0.075 A 
ATOM      2  C2  N4B d   1       1.537  -0.124  -0.491  0.00  0.00     0.002 A 
ATOM      3  C3  N4B d   1       2.341  -0.179   0.621  0.00  0.00     0.002 A 
ATOM      4  C4  N4B d   1       1.955   0.480   1.779  0.00  0.00    -0.004 A 
ATOM      5  C5  N4B d   1       0.762   1.141   1.822  0.00  0.00     0.002 A 
ATOM      6  C6  N4B d   1      -0.057   1.200   0.713  0.00  0.00     0.002 A 
ENDROOT
BRANCH   1   7
ATOM      7  C1' N4B d   1      -0.555   0.743  -1.662  0.00  0.00     0.057 C 
BRANCH   7   8
ATOM      8  C2' N4B d   1      -1.596  -0.373  -1.682  0.00  0.00     0.009 C 
BRANCH   8   9
ATOM      9  C3' N4B d   1      -2.387  -0.388  -2.979  0.00  0.00     0.004 C 
ATOM     10  C4' N4B d   1      -3.515  -1.377  -2.959  0.00  0.00     0.003 C 
ENDBRANCH   8   9
ENDBRANCH   7   8
ENDBRANCH   1   7
TORSDOF 3
ENDMDL
