MODEL 1
REMARK minimizedAffinity 0.375044376
REMARK minimizedRMSD -1
REMARK  1 active torsions:
REMARK  status: ('A' for Active; 'I' for Inactive)
REMARK    1  A    between atoms: C1_2  and  C2_3 
ROOT
ATOM      1  C2  UNL d   1      -4.927  -3.705  -5.481  0.00  0.00    -0.073 A 
ATOM      2  C3  UNL d   1      -5.060  -5.010  -5.969  0.00  0.00    -0.002 A 
ATOM      3  C4  UNL d   1      -4.114  -5.984  -5.647  0.00  0.00     0.004 A 
ATOM      4  C5  UNL d   1      -3.030  -5.665  -4.829  0.00  0.00    -0.004 A 
ATOM      5  C6  UNL d   1      -2.886  -4.370  -4.321  0.00  0.00    -0.075 A 
ATOM      6  C7  UNL d   1      -1.724  -4.011  -3.442  0.00  0.00     0.076 C 
ATOM      7  C8  UNL d   1      -3.839  -3.397  -4.652  0.00  0.00     0.001 A 
ENDROOT
BRANCH   1   8
ATOM      8  C1  UNL d   1      -5.949  -2.652  -5.821  0.00  0.00     0.053 C 
ATOM      9  C   UNL d   1      -5.345  -1.257  -5.842  0.00  0.00     0.018 C 
ENDBRANCH   1   8
TORSDOF 1
ENDMDL
