MODEL 1
REMARK minimizedAffinity -3.39733815
REMARK minimizedRMSD -1
REMARK  1 active torsions:
REMARK  status: ('A' for Active; 'I' for Inactive)
REMARK    1  A    between atoms: C1_2  and  C2_3 
ROOT
ATOM      1  C2  UNL d   1      -3.362  -4.199  -5.445  0.00  0.00    -0.073 A 
ATOM      2  C3  UNL d   1      -4.000  -5.142  -4.631  0.00  0.00    -0.002 A 
ATOM      3  C4  UNL d   1      -5.276  -4.888  -4.125  0.00  0.00     0.004 A 
ATOM      4  C5  UNL d   1      -5.928  -3.695  -4.432  0.00  0.00    -0.004 A 
ATOM      5  C6  UNL d   1      -5.312  -2.745  -5.253  0.00  0.00    -0.075 A 
ATOM      6  C7  UNL d   1      -6.000  -1.455  -5.591  0.00  0.00     0.076 C 
ATOM      7  C8  UNL d   1      -4.030  -3.006  -5.756  0.00  0.00     0.001 A 
ENDROOT
BRANCH   1   8
ATOM      8  C1  UNL d   1      -1.988  -4.471  -6.000  0.00  0.00     0.053 C 
ATOM      9  C   UNL d   1      -1.649  -5.953  -5.981  0.00  0.00     0.018 C 
ENDBRANCH   1   8
TORSDOF 1
ENDMDL
