MODEL 1
REMARK minimizedAffinity -2.30778074
REMARK minimizedRMSD -1
REMARK  1 active torsions:
REMARK  status: ('A' for Active; 'I' for Inactive)
REMARK    1  A    between atoms: C1_2  and  C2_3 
ROOT
ATOM      1  C2  UNL d   1      -5.391  -2.662  -4.069  0.00  0.00    -0.073 A 
ATOM      2  C3  UNL d   1      -4.408  -2.988  -3.128  0.00  0.00    -0.002 A 
ATOM      3  C4  UNL d   1      -3.843  -4.264  -3.111  0.00  0.00     0.004 A 
ATOM      4  C5  UNL d   1      -4.248  -5.223  -4.039  0.00  0.00    -0.004 A 
ATOM      5  C6  UNL d   1      -5.220  -4.913  -4.995  0.00  0.00    -0.075 A 
ATOM      6  C7  UNL d   1      -5.669  -5.935  -5.999  0.00  0.00     0.076 C 
ATOM      7  C8  UNL d   1      -5.786  -3.631  -5.004  0.00  0.00     0.001 A 
ENDROOT
BRANCH   1   8
ATOM      8  C1  UNL d   1      -6.000  -1.284  -4.095  0.00  0.00     0.053 C 
ATOM      9  C   UNL d   1      -6.000  -0.635  -2.720  0.00  0.00     0.018 C 
ENDBRANCH   1   8
TORSDOF 1
ENDMDL
