MODEL 1
REMARK minimizedAffinity -2.94358873
REMARK minimizedRMSD -1
REMARK  1 active torsions:
REMARK  status: ('A' for Active; 'I' for Inactive)
REMARK    1  A    between atoms: C1_2  and  C2_3 
ROOT
ATOM      1  C2  UNL d   1      -3.600  -4.039  -5.373  0.00  0.00    -0.073 A 
ATOM      2  C3  UNL d   1      -4.228  -4.682  -4.300  0.00  0.00    -0.002 A 
ATOM      3  C4  UNL d   1      -5.419  -4.177  -3.775  0.00  0.00     0.004 A 
ATOM      4  C5  UNL d   1      -5.997  -3.032  -4.321  0.00  0.00    -0.004 A 
ATOM      5  C6  UNL d   1      -5.391  -2.382  -5.402  0.00  0.00    -0.075 A 
ATOM      6  C7  UNL d   1      -5.999  -1.147  -5.999  0.00  0.00     0.076 C 
ATOM      7  C8  UNL d   1      -4.194  -2.893  -5.921  0.00  0.00     0.001 A 
ENDROOT
BRANCH   1   8
ATOM      8  C1  UNL d   1      -2.318  -4.583  -5.947  0.00  0.00     0.053 C 
ATOM      9  C   UNL d   1      -1.681  -5.622  -5.037  0.00  0.00     0.018 C 
ENDBRANCH   1   8
TORSDOF 1
ENDMDL
