MODEL 1
REMARK minimizedAffinity -3.00226545
REMARK minimizedRMSD -1
REMARK  1 active torsions:
REMARK  status: ('A' for Active; 'I' for Inactive)
REMARK    1  A    between atoms: C1_2  and  C2_3 
ROOT
ATOM      1  C2  UNL d   1      -3.920  -4.973  -5.413  0.00  0.00    -0.073 A 
ATOM      2  C3  UNL d   1      -5.121  -5.367  -4.813  0.00  0.00    -0.002 A 
ATOM      3  C4  UNL d   1      -5.996  -4.413  -4.292  0.00  0.00     0.004 A 
ATOM      4  C5  UNL d   1      -5.682  -3.056  -4.372  0.00  0.00    -0.004 A 
ATOM      5  C6  UNL d   1      -4.492  -2.641  -4.978  0.00  0.00    -0.075 A 
ATOM      6  C7  UNL d   1      -4.139  -1.186  -5.069  0.00  0.00     0.076 C 
ATOM      7  C8  UNL d   1      -3.617  -3.606  -5.496  0.00  0.00     0.001 A 
ENDROOT
BRANCH   1   8
ATOM      8  C1  UNL d   1      -2.975  -5.999  -5.982  0.00  0.00     0.053 C 
ATOM      9  C   UNL d   1      -1.522  -5.660  -5.693  0.00  0.00     0.018 C 
ENDBRANCH   1   8
TORSDOF 1
ENDMDL
