MODEL 1
REMARK minimizedAffinity -1.64322615
REMARK minimizedRMSD -1
REMARK  1 active torsions:
REMARK  status: ('A' for Active; 'I' for Inactive)
REMARK    1  A    between atoms: C1_2  and  C2_3 
ROOT
ATOM      1  C2  UNL d   1      -3.231  -3.998  -4.676  0.00  0.00    -0.073 A 
ATOM      2  C3  UNL d   1      -3.749  -4.564  -3.506  0.00  0.00    -0.002 A 
ATOM      3  C4  UNL d   1      -4.986  -4.149  -3.010  0.00  0.00     0.004 A 
ATOM      4  C5  UNL d   1      -5.720  -3.171  -3.682  0.00  0.00    -0.004 A 
ATOM      5  C6  UNL d   1      -5.224  -2.602  -4.859  0.00  0.00    -0.075 A 
ATOM      6  C7  UNL d   1      -6.000  -1.548  -5.592  0.00  0.00     0.076 C 
ATOM      7  C8  UNL d   1      -3.980  -3.022  -5.349  0.00  0.00     0.001 A 
ENDROOT
BRANCH   1   8
ATOM      8  C1  UNL d   1      -1.899  -4.447  -5.219  0.00  0.00     0.053 C 
ATOM      9  C   UNL d   1      -1.788  -5.962  -5.276  0.00  0.00     0.018 C 
ENDBRANCH   1   8
TORSDOF 1
ENDMDL
