MODEL 1
REMARK minimizedAffinity -3.43532777
REMARK minimizedRMSD -1
REMARK  1 active torsions:
REMARK  status: ('A' for Active; 'I' for Inactive)
REMARK    1  A    between atoms: C1_2  and  C2_3 
ROOT
ATOM      1  C2  UNL d   1      -3.239  -3.965  -5.317  0.00  0.00    -0.073 A 
ATOM      2  C3  UNL d   1      -3.853  -2.712  -5.428  0.00  0.00    -0.002 A 
ATOM      3  C4  UNL d   1      -5.157  -2.522  -4.970  0.00  0.00     0.004 A 
ATOM      4  C5  UNL d   1      -5.858  -3.580  -4.391  0.00  0.00    -0.004 A 
ATOM      5  C6  UNL d   1      -5.258  -4.837  -4.260  0.00  0.00    -0.075 A 
ATOM      6  C7  UNL d   1      -5.999  -5.985  -3.642  0.00  0.00     0.076 C 
ATOM      7  C8  UNL d   1      -3.949  -5.019  -4.725  0.00  0.00     0.001 A 
ENDROOT
BRANCH   1   8
ATOM      8  C1  UNL d   1      -1.829  -4.172  -5.805  0.00  0.00     0.053 C 
ATOM      9  C   UNL d   1      -1.504  -5.645  -6.000  0.00  0.00     0.018 C 
ENDBRANCH   1   8
TORSDOF 1
ENDMDL
