MODEL 1
REMARK minimizedAffinity -2.29138827
REMARK minimizedRMSD -1
REMARK  1 active torsions:
REMARK  status: ('A' for Active; 'I' for Inactive)
REMARK    1  A    between atoms: C1_2  and  C2_3 
ROOT
ATOM      1  C2  UNL d   1      -5.144  -3.790  -4.544  0.00  0.00    -0.073 A 
ATOM      2  C3  UNL d   1      -5.638  -5.055  -4.885  0.00  0.00    -0.002 A 
ATOM      3  C4  UNL d   1      -4.840  -5.957  -5.590  0.00  0.00     0.004 A 
ATOM      4  C5  UNL d   1      -3.539  -5.608  -5.954  0.00  0.00    -0.004 A 
ATOM      5  C6  UNL d   1      -3.024  -4.354  -5.612  0.00  0.00    -0.075 A 
ATOM      6  C7  UNL d   1      -1.627  -3.962  -5.998  0.00  0.00     0.076 C 
ATOM      7  C8  UNL d   1      -3.832  -3.452  -4.907  0.00  0.00     0.001 A 
ENDROOT
BRANCH   1   8
ATOM      8  C1  UNL d   1      -6.000  -2.815  -3.778  0.00  0.00     0.053 C 
ATOM      9  C   UNL d   1      -5.257  -1.525  -3.470  0.00  0.00     0.018 C 
ENDBRANCH   1   8
TORSDOF 1
ENDMDL
