MODEL 1
REMARK minimizedAffinity -2.88300514
REMARK minimizedRMSD -1
REMARK  1 active torsions:
REMARK  status: ('A' for Active; 'I' for Inactive)
REMARK    1  A    between atoms: C1_2  and  C2_3 
ROOT
ATOM      1  C2  UNL d   1      -4.730  -3.293  -4.353  0.00  0.00    -0.073 A 
ATOM      2  C3  UNL d   1      -5.722  -4.232  -4.659  0.00  0.00    -0.002 A 
ATOM      3  C4  UNL d   1      -5.374  -5.485  -5.164  0.00  0.00     0.004 A 
ATOM      4  C5  UNL d   1      -4.034  -5.816  -5.361  0.00  0.00    -0.004 A 
ATOM      5  C6  UNL d   1      -3.027  -4.896  -5.050  0.00  0.00    -0.075 A 
ATOM      6  C7  UNL d   1      -1.581  -5.235  -5.259  0.00  0.00     0.076 C 
ATOM      7  C8  UNL d   1      -3.384  -3.638  -4.546  0.00  0.00     0.001 A 
ENDROOT
BRANCH   1   8
ATOM      8  C1  UNL d   1      -5.100  -1.941  -3.801  0.00  0.00     0.053 C 
ATOM      9  C   UNL d   1      -4.234  -0.833  -4.380  0.00  0.00     0.018 C 
ENDBRANCH   1   8
TORSDOF 1
ENDMDL
