MODEL 1
REMARK minimizedAffinity -3.78727031
REMARK minimizedRMSD -1
REMARK  1 active torsions:
REMARK  status: ('A' for Active; 'I' for Inactive)
REMARK    1  A    between atoms: C1_2  and  C2_3 
ROOT
ATOM      1  C2  UNL d   1      -5.049  -3.448  -5.395  0.00  0.00    -0.073 A 
ATOM      2  C3  UNL d   1      -5.921  -4.508  -5.670  0.00  0.00    -0.002 A 
ATOM      3  C4  UNL d   1      -5.417  -5.776  -5.967  0.00  0.00     0.004 A 
ATOM      4  C5  UNL d   1      -4.040  -5.998  -5.984  0.00  0.00    -0.004 A 
ATOM      5  C6  UNL d   1      -3.154  -4.954  -5.699  0.00  0.00    -0.075 A 
ATOM      6  C7  UNL d   1      -1.670  -5.176  -5.716  0.00  0.00     0.076 C 
ATOM      7  C8  UNL d   1      -3.667  -3.683  -5.405  0.00  0.00     0.001 A 
ENDROOT
BRANCH   1   8
ATOM      8  C1  UNL d   1      -5.589  -2.080  -5.068  0.00  0.00     0.053 C 
ATOM      9  C   UNL d   1      -5.976  -1.955  -3.603  0.00  0.00     0.018 C 
ENDBRANCH   1   8
TORSDOF 1
ENDMDL
