MODEL 1
REMARK minimizedAffinity -3.93753147
REMARK minimizedRMSD -1
REMARK  1 active torsions:
REMARK  status: ('A' for Active; 'I' for Inactive)
REMARK    1  A    between atoms: C1_2  and  C2_3 
ROOT
ATOM      1  C2  UNL d   1      -5.136  -3.986  -4.475  0.00  0.00    -0.073 A 
ATOM      2  C3  UNL d   1      -5.665  -4.873  -5.419  0.00  0.00    -0.002 A 
ATOM      3  C4  UNL d   1      -4.864  -5.871  -5.976  0.00  0.00     0.004 A 
ATOM      4  C5  UNL d   1      -3.529  -5.995  -5.591  0.00  0.00    -0.004 A 
ATOM      5  C6  UNL d   1      -2.985  -5.125  -4.641  0.00  0.00    -0.075 A 
ATOM      6  C7  UNL d   1      -1.550  -5.244  -4.219  0.00  0.00     0.076 C 
ATOM      7  C8  UNL d   1      -3.795  -4.124  -4.088  0.00  0.00     0.001 A 
ENDROOT
BRANCH   1   8
ATOM      8  C1  UNL d   1      -5.999  -2.912  -3.866  0.00  0.00     0.053 C 
ATOM      9  C   UNL d   1      -5.981  -1.632  -4.687  0.00  0.00     0.018 C 
ENDBRANCH   1   8
TORSDOF 1
ENDMDL
