MODEL 1
REMARK minimizedAffinity -2.92475057
REMARK minimizedRMSD -1
REMARK  1 active torsions:
REMARK  status: ('A' for Active; 'I' for Inactive)
REMARK    1  A    between atoms: C1_2  and  C2_3 
ROOT
ATOM      1  C2  UNL d   1      -4.212  -4.770  -5.052  0.00  0.00    -0.073 A 
ATOM      2  C3  UNL d   1      -4.141  -4.813  -3.655  0.00  0.00    -0.002 A 
ATOM      3  C4  UNL d   1      -2.969  -5.227  -3.021  0.00  0.00     0.004 A 
ATOM      4  C5  UNL d   1      -1.856  -5.596  -3.775  0.00  0.00    -0.004 A 
ATOM      5  C6  UNL d   1      -1.903  -5.549  -5.172  0.00  0.00    -0.075 A 
ATOM      6  C7  UNL d   1      -0.714  -5.945  -5.998  0.00  0.00     0.076 C 
ATOM      7  C8  UNL d   1      -3.084  -5.135  -5.802  0.00  0.00     0.001 A 
ENDROOT
BRANCH   1   8
ATOM      8  C1  UNL d   1      -5.473  -4.317  -5.741  0.00  0.00     0.053 C 
ATOM      9  C   UNL d   1      -6.000  -3.012  -5.166  0.00  0.00     0.018 C 
ENDBRANCH   1   8
TORSDOF 1
ENDMDL
