MODEL 1
REMARK minimizedAffinity -4.3095746
REMARK minimizedRMSD -1
REMARK  1 active torsions:
REMARK  status: ('A' for Active; 'I' for Inactive)
REMARK    1  A    between atoms: C1_2  and  C2_3 
ROOT
ATOM      1  C2  UNL d   1      -3.195  -4.632  -4.404  0.00  0.00    -0.073 A 
ATOM      2  C3  UNL d   1      -4.016  -5.708  -4.048  0.00  0.00    -0.002 A 
ATOM      3  C4  UNL d   1      -5.379  -5.510  -3.826  0.00  0.00     0.004 A 
ATOM      4  C5  UNL d   1      -5.936  -4.239  -3.965  0.00  0.00    -0.004 A 
ATOM      5  C6  UNL d   1      -5.134  -3.154  -4.332  0.00  0.00    -0.075 A 
ATOM      6  C7  UNL d   1      -5.718  -1.780  -4.483  0.00  0.00     0.076 C 
ATOM      7  C8  UNL d   1      -3.765  -3.359  -4.550  0.00  0.00     0.001 A 
ENDROOT
BRANCH   1   8
ATOM      8  C1  UNL d   1      -1.723  -4.841  -4.651  0.00  0.00     0.053 C 
ATOM      9  C   UNL d   1      -1.462  -5.572  -5.959  0.00  0.00     0.018 C 
ENDBRANCH   1   8
TORSDOF 1
ENDMDL
