MODEL 1
REMARK minimizedAffinity -0.134054855
REMARK minimizedRMSD -1
REMARK  1 active torsions:
REMARK  status: ('A' for Active; 'I' for Inactive)
REMARK    1  A    between atoms: N_2  and  C1_3 
ROOT
ATOM      1  C1  UNL d   1      -0.362   1.331  -1.232  0.00  0.00     0.143 A 
ATOM      2  C2  UNL d   1       0.734   0.469  -1.119  0.00  0.00    -0.057 A 
ATOM      3  C3  UNL d   1       0.757  -0.555  -0.164  0.00  0.00     0.033 A 
ATOM      4  C4  UNL d   1      -0.308  -0.717   0.716  0.00  0.00    -0.042 A 
ATOM      5  C5  UNL d   1      -1.397   0.143   0.638  0.00  0.00     0.033 A 
ATOM      6  C6  UNL d   1      -1.417   1.160  -0.322  0.00  0.00    -0.057 A 
ENDROOT
BRANCH   1   7
ATOM      7  N   UNL d   1      -0.402   2.430  -2.094  0.00  0.00    -0.732 N 
ATOM      8  C   UNL d   1      -1.656   2.875  -2.663  0.00  0.00     0.284 C 
ATOM      9  H3  UNL d   1       0.208   3.185  -1.790  0.00  0.00     0.395 HD
ENDBRANCH   1   7
TORSDOF 1
ENDMDL
