MODEL 1
REMARK minimizedAffinity -0.58458215
REMARK minimizedRMSD -1
REMARK  1 active torsions:
REMARK  status: ('A' for Active; 'I' for Inactive)
REMARK    1  A    between atoms: N_2  and  C1_3 
ROOT
ATOM      1  C1  UNL d   1      -0.242   1.196  -1.751  0.00  0.00     0.143 A 
ATOM      2  C2  UNL d   1      -1.477   1.850  -1.688  0.00  0.00    -0.057 A 
ATOM      3  C3  UNL d   1      -1.688   3.066  -2.349  0.00  0.00     0.033 A 
ATOM      4  C4  UNL d   1      -0.656   3.665  -3.063  0.00  0.00    -0.042 A 
ATOM      5  C5  UNL d   1       0.587   3.045  -3.119  0.00  0.00     0.033 A 
ATOM      6  C6  UNL d   1       0.790   1.828  -2.462  0.00  0.00    -0.057 A 
ENDROOT
BRANCH   1   7
ATOM      7  N   UNL d   1       0.061   0.035  -1.035  0.00  0.00    -0.732 N 
ATOM      8  C   UNL d   1       0.122   0.056   0.411  0.00  0.00     0.284 C 
ATOM      9  H3  UNL d   1      -0.396  -0.789  -1.420  0.00  0.00     0.395 HD
ENDBRANCH   1   7
TORSDOF 1
ENDMDL
