MODEL 1
REMARK minimizedAffinity -2.81604028
REMARK minimizedRMSD -1
REMARK  1 active torsions:
REMARK  status: ('A' for Active; 'I' for Inactive)
REMARK    1  A    between atoms: N_2  and  C1_3 
ROOT
ATOM      1  C1  UNL d   1       0.116  -0.623  -0.145  0.00  0.00     0.143 A 
ATOM      2  C2  UNL d   1      -0.304  -0.619   1.189  0.00  0.00    -0.057 A 
ATOM      3  C3  UNL d   1       0.447  -1.250   2.189  0.00  0.00     0.033 A 
ATOM      4  C4  UNL d   1       1.621  -1.923   1.865  0.00  0.00    -0.042 A 
ATOM      5  C5  UNL d   1       2.044  -1.960   0.541  0.00  0.00     0.033 A 
ATOM      6  C6  UNL d   1       1.294  -1.323  -0.451  0.00  0.00    -0.057 A 
ENDROOT
BRANCH   1   7
ATOM      7  N   UNL d   1      -0.636  -0.098  -1.199  0.00  0.00    -0.732 N 
ATOM      8  C   UNL d   1      -0.588   1.315  -1.507  0.00  0.00     0.284 C 
ATOM      9  H3  UNL d   1      -0.633  -0.703  -2.017  0.00  0.00     0.395 HD
ENDBRANCH   1   7
TORSDOF 1
ENDMDL
