MODEL 1
REMARK minimizedAffinity -5.30956268
REMARK minimizedRMSD -1
REMARK  1 active torsions:
REMARK  status: ('A' for Active; 'I' for Inactive)
REMARK    1  A    between atoms: N_2  and  C1_3 
ROOT
ATOM      1  C1  UNL d   1       0.579  -0.204   0.405  0.00  0.00     0.143 A 
ATOM      2  C2  UNL d   1      -0.063  -0.346   1.640  0.00  0.00    -0.057 A 
ATOM      3  C3  UNL d   1       0.594  -0.914   2.738  0.00  0.00     0.033 A 
ATOM      4  C4  UNL d   1       1.900  -1.377   2.612  0.00  0.00    -0.042 A 
ATOM      5  C5  UNL d   1       2.549  -1.268   1.387  0.00  0.00     0.033 A 
ATOM      6  C6  UNL d   1       1.890  -0.695   0.296  0.00  0.00    -0.057 A 
ENDROOT
BRANCH   1   7
ATOM      7  N   UNL d   1      -0.053   0.262  -0.751  0.00  0.00    -0.732 N 
ATOM      8  C   UNL d   1       0.161  -0.394  -2.023  0.00  0.00     0.284 C 
ATOM      9  H3  UNL d   1      -1.018   0.537  -0.582  0.00  0.00     0.395 HD
ENDBRANCH   1   7
TORSDOF 1
ENDMDL
