MODEL 1
REMARK minimizedAffinity -5.21969271
REMARK minimizedRMSD -1
REMARK  1 active torsions:
REMARK  status: ('A' for Active; 'I' for Inactive)
REMARK    1  A    between atoms: N_2  and  C1_3 
ROOT
ATOM      1  C1  UNL d   1       0.469  -0.071   1.445  0.00  0.00     0.143 A 
ATOM      2  C2  UNL d   1       0.143  -0.832   2.572  0.00  0.00    -0.057 A 
ATOM      3  C3  UNL d   1       1.072  -1.703   3.154  0.00  0.00     0.033 A 
ATOM      4  C4  UNL d   1       2.339  -1.851   2.599  0.00  0.00    -0.042 A 
ATOM      5  C5  UNL d   1       2.676  -1.124   1.463  0.00  0.00     0.033 A 
ATOM      6  C6  UNL d   1       1.747  -0.250   0.890  0.00  0.00    -0.057 A 
ENDROOT
BRANCH   1   7
ATOM      7  N   UNL d   1      -0.442   0.738   0.762  0.00  0.00    -0.732 N 
ATOM      8  C   UNL d   1      -0.417   0.820  -0.683  0.00  0.00     0.284 C 
ATOM      9  H3  UNL d   1      -1.378   0.690   1.160  0.00  0.00     0.395 HD
ENDBRANCH   1   7
TORSDOF 1
ENDMDL
