MODEL 1
REMARK minimizedAffinity -4.91895247
REMARK minimizedRMSD -1
REMARK  1 active torsions:
REMARK  status: ('A' for Active; 'I' for Inactive)
REMARK    1  A    between atoms: N_2  and  C1_3 
ROOT
ATOM      1  C1  UNL d   1       0.753  -0.599   1.293  0.00  0.00     0.143 A 
ATOM      2  C2  UNL d   1       0.732  -0.900   2.659  0.00  0.00    -0.057 A 
ATOM      3  C3  UNL d   1       1.881  -1.349   3.321  0.00  0.00     0.033 A 
ATOM      4  C4  UNL d   1       3.068  -1.534   2.620  0.00  0.00    -0.042 A 
ATOM      5  C5  UNL d   1       3.105  -1.266   1.256  0.00  0.00     0.033 A 
ATOM      6  C6  UNL d   1       1.956  -0.811   0.602  0.00  0.00    -0.057 A 
ENDROOT
BRANCH   1   7
ATOM      7  N   UNL d   1      -0.381  -0.243   0.558  0.00  0.00    -0.732 N 
ATOM      8  C   UNL d   1      -0.293  -0.019  -0.869  0.00  0.00     0.284 C 
ATOM      9  H3  UNL d   1      -1.209  -0.757   0.848  0.00  0.00     0.395 HD
ENDBRANCH   1   7
TORSDOF 1
ENDMDL
