MODEL 1
REMARK minimizedAffinity -4.2214632
REMARK minimizedRMSD -1
REMARK  1 active torsions:
REMARK  status: ('A' for Active; 'I' for Inactive)
REMARK    1  A    between atoms: N_2  and  C1_3 
ROOT
ATOM      1  C1  UNL d   1       1.126  -1.420   0.768  0.00  0.00     0.143 A 
ATOM      2  C2  UNL d   1       0.448  -0.620  -0.158  0.00  0.00    -0.057 A 
ATOM      3  C3  UNL d   1      -0.715   0.074   0.197  0.00  0.00     0.033 A 
ATOM      4  C4  UNL d   1      -1.239  -0.043   1.480  0.00  0.00    -0.042 A 
ATOM      5  C5  UNL d   1      -0.596  -0.853   2.410  0.00  0.00     0.033 A 
ATOM      6  C6  UNL d   1       0.569  -1.538   2.051  0.00  0.00    -0.057 A 
ENDROOT
BRANCH   1   7
ATOM      7  N   UNL d   1       2.231  -2.213   0.449  0.00  0.00    -0.732 N 
ATOM      8  C   UNL d   1       2.230  -3.630   0.740  0.00  0.00     0.284 C 
ATOM      9  H3  UNL d   1       2.632  -1.974  -0.455  0.00  0.00     0.395 HD
ENDBRANCH   1   7
TORSDOF 1
ENDMDL
