MODEL 1
REMARK minimizedAffinity -1.90875697
REMARK minimizedRMSD -1
REMARK  2 active torsions:
REMARK  status: ('A' for Active; 'I' for Inactive)
REMARK    1  A    between atoms: C2'_3  and  C1'_4 
REMARK    2  A    between atoms: C1'_4  and  C1_5 
ROOT
ATOM      1  C1  I4B d   1      -0.119  -0.209  -0.989  0.00  0.00    -0.075 A 
ATOM      2  C2  I4B d   1      -1.297   0.493  -0.927  0.00  0.00     0.003 A 
ATOM      3  C3  I4B d   1      -2.152   0.353   0.194  0.00  0.00     0.002 A 
ATOM      4  C4  I4B d   1      -1.816  -0.531   1.198  0.00  0.00    -0.004 A 
ATOM      5  C5  I4B d   1      -0.610  -1.225   1.144  0.00  0.00     0.002 A 
ATOM      6  C6  I4B d   1       0.250  -1.054   0.050  0.00  0.00     0.003 A 
ENDROOT
BRANCH   1   7
ATOM      7  C1' I4B d   1       0.744  -0.063  -2.202  0.00  0.00     0.060 C 
BRANCH   7   8
ATOM      8  C2' I4B d   1       1.055  -1.451  -2.724  0.00  0.00    -0.013 C 
ATOM      9  C4' I4B d   1      -0.086  -1.993  -3.544  0.00  0.00     0.013 C 
ATOM     10  C3' I4B d   1       2.314  -1.370  -3.534  0.00  0.00     0.013 C 
ENDBRANCH   7   8
ENDBRANCH   1   7
TORSDOF 2
ENDMDL
