MODEL 1
REMARK minimizedAffinity -4.74704361
REMARK minimizedRMSD -1
REMARK  2 active torsions:
REMARK  status: ('A' for Active; 'I' for Inactive)
REMARK    1  A    between atoms: C2'_3  and  C1'_4 
REMARK    2  A    between atoms: C1'_4  and  C1_5 
ROOT
ATOM      1  C1  I4B d   1       0.266  -0.080   0.616  0.00  0.00    -0.075 A 
ATOM      2  C2  I4B d   1       0.221   0.702   1.743  0.00  0.00     0.003 A 
ATOM      3  C3  I4B d   1      -0.474   0.256   2.893  0.00  0.00     0.002 A 
ATOM      4  C4  I4B d   1      -1.149  -0.947   2.856  0.00  0.00    -0.004 A 
ATOM      5  C5  I4B d   1      -1.083  -1.749   1.720  0.00  0.00     0.002 A 
ATOM      6  C6  I4B d   1      -0.361  -1.319   0.597  0.00  0.00     0.003 A 
ENDROOT
BRANCH   1   7
ATOM      7  C1' I4B d   1       0.981   0.436  -0.591  0.00  0.00     0.060 C 
BRANCH   7   8
ATOM      8  C2' I4B d   1       0.166   0.062  -1.813  0.00  0.00    -0.013 C 
ATOM      9  C4' I4B d   1      -0.978   1.020  -2.018  0.00  0.00     0.013 C 
ATOM     10  C3' I4B d   1       1.085   0.053  -2.998  0.00  0.00     0.013 C 
ENDBRANCH   7   8
ENDBRANCH   1   7
TORSDOF 2
ENDMDL
