MODEL 1
REMARK minimizedAffinity -5.3705349
REMARK minimizedRMSD -1
REMARK  2 active torsions:
REMARK  status: ('A' for Active; 'I' for Inactive)
REMARK    1  A    between atoms: C2'_3  and  C1'_4 
REMARK    2  A    between atoms: C1'_4  and  C1_5 
ROOT
ATOM      1  C1  I4B d   1      -0.074   0.130  -0.042  0.00  0.00    -0.075 A 
ATOM      2  C2  I4B d   1      -1.154  -0.151   0.757  0.00  0.00     0.003 A 
ATOM      3  C3  I4B d   1      -0.974  -0.402   2.139  0.00  0.00     0.002 A 
ATOM      4  C4  I4B d   1       0.301  -0.412   2.666  0.00  0.00    -0.004 A 
ATOM      5  C5  I4B d   1       1.393  -0.104   1.860  0.00  0.00     0.002 A 
ATOM      6  C6  I4B d   1       1.204   0.181   0.500  0.00  0.00     0.003 A 
ENDROOT
BRANCH   1   7
ATOM      7  C1' I4B d   1      -0.298   0.358  -1.503  0.00  0.00     0.060 C 
BRANCH   7   8
ATOM      8  C2' I4B d   1       0.605  -0.589  -2.267  0.00  0.00    -0.013 C 
ATOM      9  C4' I4B d   1      -0.193  -1.658  -2.966  0.00  0.00     0.013 C 
ATOM     10  C3' I4B d   1       1.402   0.220  -3.246  0.00  0.00     0.013 C 
ENDBRANCH   7   8
ENDBRANCH   1   7
TORSDOF 2
ENDMDL
