MODEL 1
REMARK minimizedAffinity -3.75703955
REMARK minimizedRMSD -1
REMARK  2 active torsions:
REMARK  status: ('A' for Active; 'I' for Inactive)
REMARK    1  A    between atoms: C2'_3  and  C1'_4 
REMARK    2  A    between atoms: C1'_4  and  C1_5 
ROOT
ATOM      1  C1  I4B d   1       0.410  -0.247  -0.738  0.00  0.00    -0.075 A 
ATOM      2  C2  I4B d   1       1.521   0.021   0.022  0.00  0.00     0.003 A 
ATOM      3  C3  I4B d   1       1.468  -0.104   1.431  0.00  0.00     0.002 A 
ATOM      4  C4  I4B d   1       0.278  -0.449   2.038  0.00  0.00    -0.004 A 
ATOM      5  C5  I4B d   1      -0.841  -0.743   1.265  0.00  0.00     0.002 A 
ATOM      6  C6  I4B d   1      -0.772  -0.653  -0.133  0.00  0.00     0.003 A 
ENDROOT
BRANCH   1   7
ATOM      7  C1' I4B d   1       0.492  -0.073  -2.222  0.00  0.00     0.060 C 
BRANCH   7   8
ATOM      8  C2' I4B d   1       0.369  -1.441  -2.860  0.00  0.00    -0.013 C 
ATOM      9  C4' I4B d   1      -0.524  -1.399  -4.072  0.00  0.00     0.013 C 
ATOM     10  C3' I4B d   1       1.747  -1.910  -3.219  0.00  0.00     0.013 C 
ENDBRANCH   7   8
ENDBRANCH   1   7
TORSDOF 2
ENDMDL
