MODEL 1
REMARK minimizedAffinity -4.73734236
REMARK minimizedRMSD -1
REMARK  2 active torsions:
REMARK  status: ('A' for Active; 'I' for Inactive)
REMARK    1  A    between atoms: C2'_3  and  C1'_4 
REMARK    2  A    between atoms: C1'_4  and  C1_5 
ROOT
ATOM      1  C1  I4B d   1       0.108   0.293  -0.220  0.00  0.00    -0.075 A 
ATOM      2  C2  I4B d   1       1.241   0.784   0.379  0.00  0.00     0.003 A 
ATOM      3  C3  I4B d   1       1.428   0.643   1.776  0.00  0.00     0.002 A 
ATOM      4  C4  I4B d   1       0.441   0.053   2.537  0.00  0.00    -0.004 A 
ATOM      5  C5  I4B d   1      -0.697  -0.465   1.925  0.00  0.00     0.002 A 
ATOM      6  C6  I4B d   1      -0.859  -0.356   0.537  0.00  0.00     0.003 A 
ENDROOT
BRANCH   1   7
ATOM      7  C1' I4B d   1      -0.072   0.488  -1.692  0.00  0.00     0.060 C 
BRANCH   7   8
ATOM      8  C2' I4B d   1       0.694  -0.607  -2.405  0.00  0.00    -0.013 C 
ATOM      9  C4' I4B d   1      -0.192  -1.353  -3.368  0.00  0.00     0.013 C 
ATOM     10  C3' I4B d   1       1.853   0.025  -3.115  0.00  0.00     0.013 C 
ENDBRANCH   7   8
ENDBRANCH   1   7
TORSDOF 2
ENDMDL
