MODEL 1
REMARK minimizedAffinity -4.20122623
REMARK minimizedRMSD -1
REMARK  2 active torsions:
REMARK  status: ('A' for Active; 'I' for Inactive)
REMARK    1  A    between atoms: C2'_3  and  C1'_4 
REMARK    2  A    between atoms: C1'_4  and  C1_5 
ROOT
ATOM      1  C1  I4B d   1      -0.023  -0.134  -0.032  0.00  0.00    -0.075 A 
ATOM      2  C2  I4B d   1      -1.171  -0.784   0.349  0.00  0.00     0.003 A 
ATOM      3  C3  I4B d   1      -1.434  -1.023   1.720  0.00  0.00     0.002 A 
ATOM      4  C4  I4B d   1      -0.505  -0.642   2.666  0.00  0.00    -0.004 A 
ATOM      5  C5  I4B d   1       0.647   0.038   2.280  0.00  0.00     0.002 A 
ATOM      6  C6  I4B d   1       0.884   0.304   0.924  0.00  0.00     0.003 A 
ENDROOT
BRANCH   1   7
ATOM      7  C1' I4B d   1       0.239   0.072  -1.490  0.00  0.00     0.060 C 
BRANCH   7   8
ATOM      8  C2' I4B d   1       0.682  -1.253  -2.076  0.00  0.00    -0.013 C 
ATOM      9  C4' I4B d   1      -0.464  -1.965  -2.745  0.00  0.00     0.013 C 
ATOM     10  C3' I4B d   1       1.792  -0.981  -3.048  0.00  0.00     0.013 C 
ENDBRANCH   7   8
ENDBRANCH   1   7
TORSDOF 2
ENDMDL
