MODEL 1
REMARK minimizedAffinity -4.08542347
REMARK minimizedRMSD -1
REMARK  2 active torsions:
REMARK  status: ('A' for Active; 'I' for Inactive)
REMARK    1  A    between atoms: C2'_3  and  C1'_4 
REMARK    2  A    between atoms: C1'_4  and  C1_5 
ROOT
ATOM      1  C1  I4B d   1      -0.333   0.040  -0.116  0.00  0.00    -0.075 A 
ATOM      2  C2  I4B d   1       0.726   0.665   0.494  0.00  0.00     0.003 A 
ATOM      3  C3  I4B d   1       0.905   0.561   1.895  0.00  0.00     0.002 A 
ATOM      4  C4  I4B d   1      -0.021  -0.130   2.648  0.00  0.00    -0.004 A 
ATOM      5  C5  I4B d   1      -1.082  -0.782   2.026  0.00  0.00     0.002 A 
ATOM      6  C6  I4B d   1      -1.233  -0.707   0.634  0.00  0.00     0.003 A 
ENDROOT
BRANCH   1   7
ATOM      7  C1' I4B d   1      -0.510   0.198  -1.593  0.00  0.00     0.060 C 
BRANCH   7   8
ATOM      8  C2' I4B d   1       0.611  -0.553  -2.280  0.00  0.00    -0.013 C 
ATOM      9  C4' I4B d   1       0.073  -1.642  -3.170  0.00  0.00     0.013 C 
ATOM     10  C3' I4B d   1       1.419   0.437  -3.065  0.00  0.00     0.013 C 
ENDBRANCH   7   8
ENDBRANCH   1   7
TORSDOF 2
ENDMDL
