MODEL 1
REMARK minimizedAffinity -3.69204378
REMARK minimizedRMSD -1
REMARK  2 active torsions:
REMARK  status: ('A' for Active; 'I' for Inactive)
REMARK    1  A    between atoms: C2'_3  and  C1'_4 
REMARK    2  A    between atoms: C1'_4  and  C1_5 
ROOT
ATOM      1  C1  I4B d   1      -0.255  -0.235   0.157  0.00  0.00    -0.075 A 
ATOM      2  C2  I4B d   1       0.749   0.549   0.669  0.00  0.00     0.003 A 
ATOM      3  C3  I4B d   1       1.087   0.468   2.041  0.00  0.00     0.002 A 
ATOM      4  C4  I4B d   1       0.367  -0.367   2.871  0.00  0.00    -0.004 A 
ATOM      5  C5  I4B d   1      -0.636  -1.178   2.345  0.00  0.00     0.002 A 
ATOM      6  C6  I4B d   1      -0.941  -1.120   0.978  0.00  0.00     0.003 A 
ENDROOT
BRANCH   1   7
ATOM      7  C1' I4B d   1      -0.608  -0.099  -1.290  0.00  0.00     0.060 C 
BRANCH   7   8
ATOM      8  C2' I4B d   1       0.573  -0.585  -2.106  0.00  0.00    -0.013 C 
ATOM      9  C4' I4B d   1       0.179  -1.719  -3.015  0.00  0.00     0.013 C 
ATOM     10  C3' I4B d   1       1.103   0.579  -2.891  0.00  0.00     0.013 C 
ENDBRANCH   7   8
ENDBRANCH   1   7
TORSDOF 2
ENDMDL
