MODEL 1
REMARK minimizedAffinity -0.126979962
REMARK minimizedRMSD -1
REMARK  2 active torsions:
REMARK  status: ('A' for Active; 'I' for Inactive)
REMARK    1  A    between atoms: C2'_3  and  C1'_4 
REMARK    2  A    between atoms: C1'_4  and  C1_5 
ROOT
ATOM      1  C1  I4B d   1      -0.028   0.324  -0.777  0.00  0.00    -0.075 A 
ATOM      2  C2  I4B d   1       0.669   0.062   0.377  0.00  0.00     0.003 A 
ATOM      3  C3  I4B d   1      -0.023  -0.161   1.592  0.00  0.00     0.002 A 
ATOM      4  C4  I4B d   1      -1.400  -0.064   1.618  0.00  0.00    -0.004 A 
ATOM      5  C5  I4B d   1      -2.105   0.178   0.443  0.00  0.00     0.002 A 
ATOM      6  C6  I4B d   1      -1.416   0.361  -0.765  0.00  0.00     0.003 A 
ENDROOT
BRANCH   1   7
ATOM      7  C1' I4B d   1       0.736   0.588  -2.036  0.00  0.00     0.060 C 
BRANCH   7   8
ATOM      8  C2' I4B d   1       1.244  -0.740  -2.561  0.00  0.00    -0.013 C 
ATOM      9  C4' I4B d   1       0.117  -1.576  -3.108  0.00  0.00     0.013 C 
ATOM     10  C3' I4B d   1       2.272  -0.459  -3.616  0.00  0.00     0.013 C 
ENDBRANCH   7   8
ENDBRANCH   1   7
TORSDOF 2
ENDMDL
