MODEL 1
REMARK minimizedAffinity -4.72181606
REMARK minimizedRMSD -1
REMARK  2 active torsions:
REMARK  status: ('A' for Active; 'I' for Inactive)
REMARK    1  A    between atoms: C2'_3  and  C1'_4 
REMARK    2  A    between atoms: C1'_4  and  C1_5 
ROOT
ATOM      1  C1  I4B d   1       0.038  -0.147  -0.647  0.00  0.00    -0.075 A 
ATOM      2  C2  I4B d   1       1.151   0.143   0.103  0.00  0.00     0.003 A 
ATOM      3  C3  I4B d   1       1.143  -0.073   1.503  0.00  0.00     0.002 A 
ATOM      4  C4  I4B d   1      -0.007  -0.529   2.114  0.00  0.00    -0.004 A 
ATOM      5  C5  I4B d   1      -1.126  -0.843   1.349  0.00  0.00     0.002 A 
ATOM      6  C6  I4B d   1      -1.100  -0.664  -0.041  0.00  0.00     0.003 A 
ENDROOT
BRANCH   1   7
ATOM      7  C1' I4B d   1       0.070   0.123  -2.117  0.00  0.00     0.060 C 
BRANCH   7   8
ATOM      8  C2' I4B d   1       1.129  -0.767  -2.733  0.00  0.00    -0.013 C 
ATOM      9  C4' I4B d   1       0.510  -1.949  -3.432  0.00  0.00     0.013 C 
ATOM     10  C3' I4B d   1       1.936   0.064  -3.686  0.00  0.00     0.013 C 
ENDBRANCH   7   8
ENDBRANCH   1   7
TORSDOF 2
ENDMDL
