MODEL 1
REMARK minimizedAffinity -3.87499237
REMARK minimizedRMSD -1
REMARK  2 active torsions:
REMARK  status: ('A' for Active; 'I' for Inactive)
REMARK    1  A    between atoms: C2'_3  and  C1'_4 
REMARK    2  A    between atoms: C1'_4  and  C1_5 
ROOT
ATOM      1  C1  I4B d   1      -0.087   0.232  -0.654  0.00  0.00    -0.075 A 
ATOM      2  C2  I4B d   1       1.149   0.254  -0.059  0.00  0.00     0.003 A 
ATOM      3  C3  I4B d   1       1.274   0.034   1.334  0.00  0.00     0.002 A 
ATOM      4  C4  I4B d   1       0.139  -0.152   2.097  0.00  0.00    -0.004 A 
ATOM      5  C5  I4B d   1      -1.112  -0.196   1.488  0.00  0.00     0.002 A 
ATOM      6  C6  I4B d   1      -1.225  -0.016   0.102  0.00  0.00     0.003 A 
ENDROOT
BRANCH   1   7
ATOM      7  C1' I4B d   1      -0.186   0.500  -2.123  0.00  0.00     0.060 C 
BRANCH   7   8
ATOM      8  C2' I4B d   1       0.816  -0.391  -2.828  0.00  0.00    -0.013 C 
ATOM      9  C4' I4B d   1       0.148  -1.237  -3.880  0.00  0.00     0.013 C 
ATOM     10  C3' I4B d   1       1.873   0.486  -3.430  0.00  0.00     0.013 C 
ENDBRANCH   7   8
ENDBRANCH   1   7
TORSDOF 2
ENDMDL
