MODEL 1
REMARK minimizedAffinity 0.541095257
REMARK minimizedRMSD -1
REMARK  2 active torsions:
REMARK  status: ('A' for Active; 'I' for Inactive)
REMARK    1  A    between atoms: C2'_3  and  C1'_4 
REMARK    2  A    between atoms: C1'_4  and  C1_5 
ROOT
ATOM      1  C1  I4B d   1      -5.879   5.215   3.420  0.00  0.00    -0.075 A 
ATOM      2  C2  I4B d   1      -5.744   6.000   4.537  0.00  0.00     0.003 A 
ATOM      3  C3  I4B d   1      -5.702   5.409   5.823  0.00  0.00     0.002 A 
ATOM      4  C4  I4B d   1      -5.848   4.042   5.948  0.00  0.00    -0.004 A 
ATOM      5  C5  I4B d   1      -5.963   3.245   4.813  0.00  0.00     0.002 A 
ATOM      6  C6  I4B d   1      -5.966   3.834   3.539  0.00  0.00     0.003 A 
ENDROOT
BRANCH   1   7
ATOM      7  C1' I4B d   1      -5.953   5.875   2.080  0.00  0.00     0.060 C 
BRANCH   7   8
ATOM      8  C2' I4B d   1      -5.261   4.974   1.077  0.00  0.00    -0.013 C 
ATOM      9  C4' I4B d   1      -5.997   3.671   0.915  0.00  0.00     0.013 C 
ATOM     10  C3' I4B d   1      -5.174   5.712  -0.226  0.00  0.00     0.013 C 
ENDBRANCH   7   8
ENDBRANCH   1   7
TORSDOF 2
ENDMDL
