MODEL 1
REMARK minimizedAffinity -0.144382671
REMARK minimizedRMSD -1
REMARK  2 active torsions:
REMARK  status: ('A' for Active; 'I' for Inactive)
REMARK    1  A    between atoms: C2'_3  and  C1'_4 
REMARK    2  A    between atoms: C1'_4  and  C1_5 
ROOT
ATOM      1  C1  I4B d   1      -5.501   3.817   2.733  0.00  0.00    -0.075 A 
ATOM      2  C2  I4B d   1      -5.309   2.831   1.798  0.00  0.00     0.003 A 
ATOM      3  C3  I4B d   1      -4.867   3.162   0.494  0.00  0.00     0.002 A 
ATOM      4  C4  I4B d   1      -4.680   4.486   0.155  0.00  0.00    -0.004 A 
ATOM      5  C5  I4B d   1      -4.853   5.483   1.111  0.00  0.00     0.002 A 
ATOM      6  C6  I4B d   1      -5.254   5.146   2.412  0.00  0.00     0.003 A 
ENDROOT
BRANCH   1   7
ATOM      7  C1' I4B d   1      -6.000   3.436   4.091  0.00  0.00     0.060 C 
BRANCH   7   8
ATOM      8  C2' I4B d   1      -5.154   4.159   5.119  0.00  0.00    -0.013 C 
ATOM      9  C4' I4B d   1      -6.000   5.051   5.990  0.00  0.00     0.013 C 
ATOM     10  C3' I4B d   1      -4.435   3.128   5.936  0.00  0.00     0.013 C 
ENDBRANCH   7   8
ENDBRANCH   1   7
TORSDOF 2
ENDMDL
