MODEL 1
REMARK minimizedAffinity 0.91156882
REMARK minimizedRMSD -1
REMARK  2 active torsions:
REMARK  status: ('A' for Active; 'I' for Inactive)
REMARK    1  A    between atoms: C2'_3  and  C1'_4 
REMARK    2  A    between atoms: C1'_4  and  C1_5 
ROOT
ATOM      1  C1  I4B d   1      -5.121   4.268   3.801  0.00  0.00    -0.075 A 
ATOM      2  C2  I4B d   1      -5.622   5.506   3.481  0.00  0.00     0.003 A 
ATOM      3  C3  I4B d   1      -6.000   5.798   2.148  0.00  0.00     0.002 A 
ATOM      4  C4  I4B d   1      -5.815   4.848   1.165  0.00  0.00    -0.004 A 
ATOM      5  C5  I4B d   1      -5.329   3.586   1.495  0.00  0.00     0.002 A 
ATOM      6  C6  I4B d   1      -4.991   3.290   2.824  0.00  0.00     0.003 A 
ENDROOT
BRANCH   1   7
ATOM      7  C1' I4B d   1      -4.701   4.004   5.212  0.00  0.00     0.060 C 
BRANCH   7   8
ATOM      8  C2' I4B d   1      -3.574   2.991   5.182  0.00  0.00    -0.013 C 
ATOM      9  C4' I4B d   1      -2.293   3.585   5.704  0.00  0.00     0.013 C 
ATOM     10  C3' I4B d   1      -3.995   1.807   6.000  0.00  0.00     0.013 C 
ENDBRANCH   7   8
ENDBRANCH   1   7
TORSDOF 2
ENDMDL
