MODEL 1
REMARK minimizedAffinity -2.50763655
REMARK minimizedRMSD -1
REMARK  2 active torsions:
REMARK  status: ('A' for Active; 'I' for Inactive)
REMARK    1  A    between atoms: C2'_3  and  C1'_4 
REMARK    2  A    between atoms: C1'_4  and  C1_5 
ROOT
ATOM      1  C1  I4B d   1      -5.298   5.397   3.332  0.00  0.00    -0.075 A 
ATOM      2  C2  I4B d   1      -5.996   4.635   4.235  0.00  0.00     0.003 A 
ATOM      3  C3  I4B d   1      -5.356   4.144   5.399  0.00  0.00     0.002 A 
ATOM      4  C4  I4B d   1      -4.013   4.397   5.594  0.00  0.00    -0.004 A 
ATOM      5  C5  I4B d   1      -3.313   5.189   4.689  0.00  0.00     0.002 A 
ATOM      6  C6  I4B d   1      -3.962   5.703   3.557  0.00  0.00     0.003 A 
ENDROOT
BRANCH   1   7
ATOM      7  C1' I4B d   1      -5.996   5.871   2.097  0.00  0.00     0.060 C 
BRANCH   7   8
ATOM      8  C2' I4B d   1      -5.180   5.428   0.900  0.00  0.00    -0.013 C 
ATOM      9  C4' I4B d   1      -5.026   3.930   0.870  0.00  0.00     0.013 C 
ATOM     10  C3' I4B d   1      -5.864   5.928  -0.337  0.00  0.00     0.013 C 
ENDBRANCH   7   8
ENDBRANCH   1   7
TORSDOF 2
ENDMDL
