MODEL 1
REMARK minimizedAffinity -1.96173549
REMARK minimizedRMSD -1
REMARK  2 active torsions:
REMARK  status: ('A' for Active; 'I' for Inactive)
REMARK    1  A    between atoms: C2'_3  and  C1'_4 
REMARK    2  A    between atoms: C1'_4  and  C1_5 
ROOT
ATOM      1  C1  I4B d   1      -5.012   4.844   3.504  0.00  0.00    -0.075 A 
ATOM      2  C2  I4B d   1      -4.204   3.752   3.700  0.00  0.00     0.003 A 
ATOM      3  C3  I4B d   1      -4.294   3.005   4.899  0.00  0.00     0.002 A 
ATOM      4  C4  I4B d   1      -5.165   3.412   5.890  0.00  0.00    -0.004 A 
ATOM      5  C5  I4B d   1      -6.000   4.505   5.679  0.00  0.00     0.002 A 
ATOM      6  C6  I4B d   1      -5.932   5.219   4.474  0.00  0.00     0.003 A 
ENDROOT
BRANCH   1   7
ATOM      7  C1' I4B d   1      -4.867   5.630   2.239  0.00  0.00     0.060 C 
BRANCH   7   8
ATOM      8  C2' I4B d   1      -5.998   5.235   1.312  0.00  0.00    -0.013 C 
ATOM      9  C4' I4B d   1      -5.850   5.887  -0.037  0.00  0.00     0.013 C 
ATOM     10  C3' I4B d   1      -6.000   3.740   1.193  0.00  0.00     0.013 C 
ENDBRANCH   7   8
ENDBRANCH   1   7
TORSDOF 2
ENDMDL
