MODEL 1
REMARK minimizedAffinity 10.9553232
REMARK minimizedRMSD -1
REMARK  2 active torsions:
REMARK  status: ('A' for Active; 'I' for Inactive)
REMARK    1  A    between atoms: C2'_3  and  C1'_4 
REMARK    2  A    between atoms: C1'_4  and  C1_5 
ROOT
ATOM      1  C1  I4B d   1       2.599   3.059   1.198  0.00  0.00    -0.075 A 
ATOM      2  C2  I4B d   1       1.528   2.551   1.890  0.00  0.00     0.003 A 
ATOM      3  C3  I4B d   1       1.600   2.386   3.294  0.00  0.00     0.002 A 
ATOM      4  C4  I4B d   1       2.772   2.693   3.955  0.00  0.00    -0.004 A 
ATOM      5  C5  I4B d   1       3.849   3.230   3.255  0.00  0.00     0.002 A 
ATOM      6  C6  I4B d   1       3.758   3.426   1.870  0.00  0.00     0.003 A 
ENDROOT
BRANCH   1   7
ATOM      7  C1' I4B d   1       2.500   3.189  -0.289  0.00  0.00     0.060 C 
BRANCH   7   8
ATOM      8  C2' I4B d   1       3.782   2.649  -0.891  0.00  0.00    -0.013 C 
ATOM      9  C4' I4B d   1       3.560   1.302  -1.528  0.00  0.00     0.013 C 
ATOM     10  C3' I4B d   1       4.278   3.647  -1.894  0.00  0.00     0.013 C 
ENDBRANCH   7   8
ENDBRANCH   1   7
TORSDOF 2
ENDMDL
