MODEL 1
REMARK minimizedAffinity -1.30655301
REMARK minimizedRMSD -1
REMARK  2 active torsions:
REMARK  status: ('A' for Active; 'I' for Inactive)
REMARK    1  A    between atoms: C2'_3  and  C1'_4 
REMARK    2  A    between atoms: C1'_4  and  C1_5 
ROOT
ATOM      1  C1  I4B d   1      -5.756   4.704   3.230  0.00  0.00    -0.075 A 
ATOM      2  C2  I4B d   1      -5.776   3.546   2.492  0.00  0.00     0.003 A 
ATOM      3  C3  I4B d   1      -5.873   3.602   1.081  0.00  0.00     0.002 A 
ATOM      4  C4  I4B d   1      -5.997   4.826   0.456  0.00  0.00    -0.004 A 
ATOM      5  C5  I4B d   1      -5.953   6.000   1.203  0.00  0.00     0.002 A 
ATOM      6  C6  I4B d   1      -5.819   5.939   2.598  0.00  0.00     0.003 A 
ENDROOT
BRANCH   1   7
ATOM      7  C1' I4B d   1      -5.686   4.607   4.721  0.00  0.00     0.060 C 
BRANCH   7   8
ATOM      8  C2' I4B d   1      -5.003   3.301   5.072  0.00  0.00    -0.013 C 
ATOM      9  C4' I4B d   1      -3.656   3.542   5.701  0.00  0.00     0.013 C 
ATOM     10  C3' I4B d   1      -5.905   2.542   6.000  0.00  0.00     0.013 C 
ENDBRANCH   7   8
ENDBRANCH   1   7
TORSDOF 2
ENDMDL
