MODEL 1
REMARK minimizedAffinity 2.66630292
REMARK minimizedRMSD -1
REMARK  2 active torsions:
REMARK  status: ('A' for Active; 'I' for Inactive)
REMARK    1  A    between atoms: C2'_3  and  C1'_4 
REMARK    2  A    between atoms: C1'_4  and  C1_5 
ROOT
ATOM      1  C1  I4B d   1      -5.324   4.769   3.226  0.00  0.00    -0.075 A 
ATOM      2  C2  I4B d   1      -4.324   5.055   4.122  0.00  0.00     0.003 A 
ATOM      3  C3  I4B d   1      -3.685   4.010   4.833  0.00  0.00     0.002 A 
ATOM      4  C4  I4B d   1      -4.110   2.709   4.658  0.00  0.00    -0.004 A 
ATOM      5  C5  I4B d   1      -5.108   2.419   3.732  0.00  0.00     0.002 A 
ATOM      6  C6  I4B d   1      -5.711   3.454   3.003  0.00  0.00     0.003 A 
ENDROOT
BRANCH   1   7
ATOM      7  C1' I4B d   1      -6.000   5.899   2.516  0.00  0.00     0.060 C 
BRANCH   7   8
ATOM      8  C2' I4B d   1      -5.405   6.000   1.126  0.00  0.00    -0.013 C 
ATOM      9  C4' I4B d   1      -3.903   5.897   1.168  0.00  0.00     0.013 C 
ATOM     10  C3' I4B d   1      -5.999   4.907   0.288  0.00  0.00     0.013 C 
ENDBRANCH   7   8
ENDBRANCH   1   7
TORSDOF 2
ENDMDL
