MODEL 1
REMARK minimizedAffinity -1.80705285
REMARK minimizedRMSD -1
REMARK  2 active torsions:
REMARK  status: ('A' for Active; 'I' for Inactive)
REMARK    1  A    between atoms: C2'_3  and  C1'_4 
REMARK    2  A    between atoms: C1'_4  and  C1_5 
ROOT
ATOM      1  C1  I4B d   1      -5.910   4.133   3.516  0.00  0.00    -0.075 A 
ATOM      2  C2  I4B d   1      -5.757   4.709   4.752  0.00  0.00     0.003 A 
ATOM      3  C3  I4B d   1      -5.699   3.901   5.913  0.00  0.00     0.002 A 
ATOM      4  C4  I4B d   1      -5.849   2.534   5.797  0.00  0.00    -0.004 A 
ATOM      5  C5  I4B d   1      -5.981   1.950   4.541  0.00  0.00     0.002 A 
ATOM      6  C6  I4B d   1      -6.000   2.753   3.391  0.00  0.00     0.003 A 
ENDROOT
BRANCH   1   7
ATOM      7  C1' I4B d   1      -6.000   5.019   2.314  0.00  0.00     0.060 C 
BRANCH   7   8
ATOM      8  C2' I4B d   1      -4.589   5.363   1.881  0.00  0.00    -0.013 C 
ATOM      9  C4' I4B d   1      -3.783   5.908   3.030  0.00  0.00     0.013 C 
ATOM     10  C3' I4B d   1      -3.962   4.121   1.320  0.00  0.00     0.013 C 
ENDBRANCH   7   8
ENDBRANCH   1   7
TORSDOF 2
ENDMDL
