MODEL 1
REMARK minimizedAffinity -0.867674351
REMARK minimizedRMSD -1
REMARK  2 active torsions:
REMARK  status: ('A' for Active; 'I' for Inactive)
REMARK    1  A    between atoms: C2'_3  and  C1'_4 
REMARK    2  A    between atoms: C1'_4  and  C1_5 
ROOT
ATOM      1  C1  I4B d   1      -5.947   4.426   3.234  0.00  0.00    -0.075 A 
ATOM      2  C2  I4B d   1      -5.971   5.694   3.760  0.00  0.00     0.003 A 
ATOM      3  C3  I4B d   1      -5.971   5.884   5.163  0.00  0.00     0.002 A 
ATOM      4  C4  I4B d   1      -5.997   4.786   5.998  0.00  0.00    -0.004 A 
ATOM      5  C5  I4B d   1      -5.950   3.501   5.463  0.00  0.00     0.002 A 
ATOM      6  C6  I4B d   1      -5.912   3.320   4.073  0.00  0.00     0.003 A 
ENDROOT
BRANCH   1   7
ATOM      7  C1' I4B d   1      -5.982   4.262   1.748  0.00  0.00     0.060 C 
BRANCH   7   8
ATOM      8  C2' I4B d   1      -5.477   5.547   1.124  0.00  0.00    -0.013 C 
ATOM      9  C4' I4B d   1      -4.194   5.999   1.771  0.00  0.00     0.013 C 
ATOM     10  C3' I4B d   1      -5.287   5.306  -0.344  0.00  0.00     0.013 C 
ENDBRANCH   7   8
ENDBRANCH   1   7
TORSDOF 2
ENDMDL
