MODEL 1
REMARK minimizedAffinity -3.05851936
REMARK minimizedRMSD -1
REMARK  2 active torsions:
REMARK  status: ('A' for Active; 'I' for Inactive)
REMARK    1  A    between atoms: C2'_3  and  C1'_4 
REMARK    2  A    between atoms: C1'_4  and  C1_5 
ROOT
ATOM      1  C1  I4B d   1      -5.337   5.195   3.802  0.00  0.00    -0.075 A 
ATOM      2  C2  I4B d   1      -5.999   4.010   4.003  0.00  0.00     0.003 A 
ATOM      3  C3  I4B d   1      -5.700   3.208   5.132  0.00  0.00     0.002 A 
ATOM      4  C4  I4B d   1      -4.702   3.603   6.000  0.00  0.00    -0.004 A 
ATOM      5  C5  I4B d   1      -4.048   4.816   5.807  0.00  0.00     0.002 A 
ATOM      6  C6  I4B d   1      -4.375   5.623   4.708  0.00  0.00     0.003 A 
ENDROOT
BRANCH   1   7
ATOM      7  C1' I4B d   1      -5.655   6.000   2.582  0.00  0.00     0.060 C 
BRANCH   7   8
ATOM      8  C2' I4B d   1      -5.195   5.214   1.371  0.00  0.00    -0.013 C 
ATOM      9  C4' I4B d   1      -5.819   3.843   1.342  0.00  0.00     0.013 C 
ATOM     10  C3' I4B d   1      -5.555   5.999   0.145  0.00  0.00     0.013 C 
ENDBRANCH   7   8
ENDBRANCH   1   7
TORSDOF 2
ENDMDL
