MODEL 1
REMARK minimizedAffinity -2.59990549
REMARK minimizedRMSD -1
REMARK  2 active torsions:
REMARK  status: ('A' for Active; 'I' for Inactive)
REMARK    1  A    between atoms: C2'_3  and  C1'_4 
REMARK    2  A    between atoms: C1'_4  and  C1_5 
ROOT
ATOM      1  C1  I4B d   1      -5.343   3.885   4.486  0.00  0.00    -0.075 A 
ATOM      2  C2  I4B d   1      -5.877   5.149   4.527  0.00  0.00     0.003 A 
ATOM      3  C3  I4B d   1      -5.901   5.950   3.359  0.00  0.00     0.002 A 
ATOM      4  C4  I4B d   1      -5.339   5.470   2.194  0.00  0.00    -0.004 A 
ATOM      5  C5  I4B d   1      -4.819   4.180   2.149  0.00  0.00     0.002 A 
ATOM      6  C6  I4B d   1      -4.832   3.377   3.299  0.00  0.00     0.003 A 
ENDROOT
BRANCH   1   7
ATOM      7  C1' I4B d   1      -5.304   3.079   5.746  0.00  0.00     0.060 C 
BRANCH   7   8
ATOM      8  C2' I4B d   1      -4.824   1.686   5.393  0.00  0.00    -0.013 C 
ATOM      9  C4' I4B d   1      -3.474   1.404   6.000  0.00  0.00     0.013 C 
ATOM     10  C3' I4B d   1      -5.850   0.706   5.878  0.00  0.00     0.013 C 
ENDBRANCH   7   8
ENDBRANCH   1   7
TORSDOF 2
ENDMDL
