MODEL 1
REMARK minimizedAffinity -0.657104552
REMARK minimizedRMSD -1
REMARK  2 active torsions:
REMARK  status: ('A' for Active; 'I' for Inactive)
REMARK    1  A    between atoms: C2'_3  and  C1'_4 
REMARK    2  A    between atoms: C1'_4  and  C1_5 
ROOT
ATOM      1  C1  I4B d   1      -1.339  -1.500   0.815  0.00  0.00    -0.075 A 
ATOM      2  C2  I4B d   1      -2.056  -0.965  -0.226  0.00  0.00     0.003 A 
ATOM      3  C3  I4B d   1      -1.390  -0.293  -1.279  0.00  0.00     0.002 A 
ATOM      4  C4  I4B d   1      -0.020  -0.137  -1.227  0.00  0.00    -0.004 A 
ATOM      5  C5  I4B d   1       0.708  -0.700  -0.183  0.00  0.00     0.002 A 
ATOM      6  C6  I4B d   1       0.046  -1.397   0.838  0.00  0.00     0.003 A 
ENDROOT
BRANCH   1   7
ATOM      7  C1' I4B d   1      -2.077  -2.174   1.928  0.00  0.00     0.060 C 
BRANCH   7   8
ATOM      8  C2' I4B d   1      -2.759  -3.402   1.359  0.00  0.00    -0.013 C 
ATOM      9  C4' I4B d   1      -1.882  -4.094   0.349  0.00  0.00     0.013 C 
ATOM     10  C3' I4B d   1      -3.095  -4.315   2.500  0.00  0.00     0.013 C 
ENDBRANCH   7   8
ENDBRANCH   1   7
TORSDOF 2
ENDMDL
