MODEL 1
REMARK minimizedAffinity -0.873794675
REMARK minimizedRMSD -1
REMARK  2 active torsions:
REMARK  status: ('A' for Active; 'I' for Inactive)
REMARK    1  A    between atoms: C2'_3  and  C1'_4 
REMARK    2  A    between atoms: C1'_4  and  C1_5 
ROOT
ATOM      1  C1  I4B d   1      -5.767   4.049   3.733  0.00  0.00    -0.075 A 
ATOM      2  C2  I4B d   1      -5.722   5.414   3.599  0.00  0.00     0.003 A 
ATOM      3  C3  I4B d   1      -5.550   6.000   2.321  0.00  0.00     0.002 A 
ATOM      4  C4  I4B d   1      -5.378   5.188   1.219  0.00  0.00    -0.004 A 
ATOM      5  C5  I4B d   1      -5.447   3.804   1.353  0.00  0.00     0.002 A 
ATOM      6  C6  I4B d   1      -5.655   3.231   2.616  0.00  0.00     0.003 A 
ENDROOT
BRANCH   1   7
ATOM      7  C1' I4B d   1      -5.916   3.463   5.101  0.00  0.00     0.060 C 
BRANCH   7   8
ATOM      8  C2' I4B d   1      -5.015   2.248   5.190  0.00  0.00    -0.013 C 
ATOM      9  C4' I4B d   1      -3.780   2.543   6.000  0.00  0.00     0.013 C 
ATOM     10  C3' I4B d   1      -5.806   1.128   5.796  0.00  0.00     0.013 C 
ENDBRANCH   7   8
ENDBRANCH   1   7
TORSDOF 2
ENDMDL
