MODEL 1
REMARK minimizedAffinity -3.31784797
REMARK minimizedRMSD -1
REMARK  0 active torsions:
REMARK  status: ('A' for Active; 'I' for Inactive)
ROOT
ATOM      1  C   UNL d   1       1.371   3.201   1.095  0.00  0.00    -0.002 A 
ATOM      2  C1  UNL d   1       2.485   2.381   0.982  0.00  0.00     0.010 A 
ATOM      3  C2  UNL d   1       2.341   1.020   0.705  0.00  0.00     0.041 A 
ATOM      4  C3  UNL d   1       1.046   0.492   0.541  0.00  0.00    -0.075 A 
ATOM      5  S   UNL d   1       0.627  -1.145   0.196  0.00  0.00     0.015 SA
ATOM      6  C4  UNL d   1      -1.041  -0.794   0.189  0.00  0.00     0.022 A 
ATOM      7  C5  UNL d   1      -1.290   0.534   0.442  0.00  0.00     0.026 A 
ATOM      8  C6  UNL d   1      -0.092   1.297   0.648  0.00  0.00    -0.082 A 
ATOM      9  C7  UNL d   1       0.087   2.673   0.931  0.00  0.00     0.045 A 
ENDROOT
TORSDOF 0
ENDMDL
