MODEL 1
REMARK minimizedAffinity -2.94666362
REMARK minimizedRMSD -1
REMARK  0 active torsions:
REMARK  status: ('A' for Active; 'I' for Inactive)
ROOT
ATOM      1  C   UNL d   1       2.430   2.927   1.489  0.00  0.00    -0.002 A 
ATOM      2  C1  UNL d   1       3.054   1.722   1.200  0.00  0.00     0.010 A 
ATOM      3  C2  UNL d   1       2.354   0.694   0.566  0.00  0.00     0.041 A 
ATOM      4  C3  UNL d   1       1.004   0.900   0.222  0.00  0.00    -0.075 A 
ATOM      5  S   UNL d   1      -0.051  -0.216  -0.561  0.00  0.00     0.015 SA
ATOM      6  C4  UNL d   1      -1.355   0.881  -0.531  0.00  0.00     0.022 A 
ATOM      7  C5  UNL d   1      -1.012   2.074   0.059  0.00  0.00     0.026 A 
ATOM      8  C6  UNL d   1       0.354   2.105   0.502  0.00  0.00    -0.082 A 
ATOM      9  C7  UNL d   1       1.090   3.128   1.147  0.00  0.00     0.045 A 
ENDROOT
TORSDOF 0
ENDMDL
