MODEL 1
REMARK minimizedAffinity -1.20522571
REMARK minimizedRMSD -1
REMARK  0 active torsions:
REMARK  status: ('A' for Active; 'I' for Inactive)
ROOT
ATOM      1  C   UNL d   1      -0.678   2.600   0.518  0.00  0.00    -0.002 A 
ATOM      2  C1  UNL d   1       0.659   2.685   0.880  0.00  0.00     0.010 A 
ATOM      3  C2  UNL d   1       1.472   1.551   0.867  0.00  0.00     0.041 A 
ATOM      4  C3  UNL d   1       0.915   0.317   0.479  0.00  0.00    -0.075 A 
ATOM      5  S   UNL d   1       1.720  -1.205   0.387  0.00  0.00     0.015 SA
ATOM      6  C4  UNL d   1       0.308  -2.004  -0.137  0.00  0.00     0.022 A 
ATOM      7  C5  UNL d   1      -0.760  -1.146  -0.244  0.00  0.00     0.026 A 
ATOM      8  C6  UNL d   1      -0.429   0.205   0.109  0.00  0.00    -0.082 A 
ATOM      9  C7  UNL d   1      -1.227   1.374   0.133  0.00  0.00     0.045 A 
ENDROOT
TORSDOF 0
ENDMDL
