MODEL 1
REMARK minimizedAffinity -0.228849486
REMARK minimizedRMSD -1
REMARK  0 active torsions:
REMARK  status: ('A' for Active; 'I' for Inactive)
ROOT
ATOM      1  C   UNL d   1      -0.685   1.197  -0.018  0.00  0.00    -0.002 A 
ATOM      2  C1  UNL d   1       0.068   0.434   0.863  0.00  0.00     0.010 A 
ATOM      3  C2  UNL d   1       0.275  -0.926   0.626  0.00  0.00     0.041 A 
ATOM      4  C3  UNL d   1      -0.291  -1.512  -0.524  0.00  0.00    -0.075 A 
ATOM      5  S   UNL d   1      -0.169  -3.159  -1.019  0.00  0.00     0.015 SA
ATOM      6  C4  UNL d   1      -1.113  -2.888  -2.411  0.00  0.00     0.022 A 
ATOM      7  C5  UNL d   1      -1.520  -1.579  -2.512  0.00  0.00     0.026 A 
ATOM      8  C6  UNL d   1      -1.053  -0.764  -1.426  0.00  0.00    -0.082 A 
ATOM      9  C7  UNL d   1      -1.246   0.613  -1.157  0.00  0.00     0.045 A 
ENDROOT
TORSDOF 0
ENDMDL
