MODEL 1
REMARK minimizedAffinity -1.69585276
REMARK minimizedRMSD -1
REMARK  0 active torsions:
REMARK  status: ('A' for Active; 'I' for Inactive)
ROOT
ATOM      1  C   UNL d   1      -1.626   1.220   0.307  0.00  0.00    -0.002 A 
ATOM      2  C1  UNL d   1      -1.092  -0.023  -0.003  0.00  0.00     0.010 A 
ATOM      3  C2  UNL d   1       0.286  -0.240   0.064  0.00  0.00     0.041 A 
ATOM      4  C3  UNL d   1       1.125   0.822   0.455  0.00  0.00    -0.075 A 
ATOM      5  S   UNL d   1       2.842   0.787   0.609  0.00  0.00     0.015 SA
ATOM      6  C4  UNL d   1       2.906   2.420   1.091  0.00  0.00     0.022 A 
ATOM      7  C5  UNL d   1       1.657   2.994   1.138  0.00  0.00     0.026 A 
ATOM      8  C6  UNL d   1       0.610   2.081   0.773  0.00  0.00    -0.082 A 
ATOM      9  C7  UNL d   1      -0.791   2.271   0.693  0.00  0.00     0.045 A 
ENDROOT
TORSDOF 0
ENDMDL
