MODEL 1
REMARK minimizedAffinity -1.93884277
REMARK minimizedRMSD -1
REMARK  0 active torsions:
REMARK  status: ('A' for Active; 'I' for Inactive)
ROOT
ATOM      1  C   UNL d   1      -1.327   2.417   0.282  0.00  0.00    -0.002 A 
ATOM      2  C1  UNL d   1      -0.036   2.499   0.786  0.00  0.00     0.010 A 
ATOM      3  C2  UNL d   1       0.799   1.380   0.784  0.00  0.00     0.041 A 
ATOM      4  C3  UNL d   1       0.312   0.166   0.260  0.00  0.00    -0.075 A 
ATOM      5  S   UNL d   1       1.156  -1.333   0.153  0.00  0.00     0.015 SA
ATOM      6  C4  UNL d   1      -0.176  -2.117  -0.566  0.00  0.00     0.022 A 
ATOM      7  C5  UNL d   1      -1.248  -1.270  -0.727  0.00  0.00     0.026 A 
ATOM      8  C6  UNL d   1      -0.984   0.060  -0.254  0.00  0.00    -0.082 A 
ATOM      9  C7  UNL d   1      -1.806   1.212  -0.237  0.00  0.00     0.045 A 
ENDROOT
TORSDOF 0
ENDMDL
