MODEL 1
REMARK minimizedAffinity 0.200232744
REMARK minimizedRMSD -1
REMARK  0 active torsions:
REMARK  status: ('A' for Active; 'I' for Inactive)
ROOT
ATOM      1  C   UNL d   1      -0.796   2.091   0.725  0.00  0.00    -0.002 A 
ATOM      2  C1  UNL d   1      -1.175   2.165  -0.607  0.00  0.00     0.010 A 
ATOM      3  C2  UNL d   1      -1.191   1.020  -1.406  0.00  0.00     0.041 A 
ATOM      4  C3  UNL d   1      -0.818  -0.213  -0.836  0.00  0.00    -0.075 A 
ATOM      5  S   UNL d   1      -0.763  -1.747  -1.622  0.00  0.00     0.015 SA
ATOM      6  C4  UNL d   1      -0.237  -2.537  -0.207  0.00  0.00     0.022 A 
ATOM      7  C5  UNL d   1      -0.100  -1.667   0.849  0.00  0.00     0.026 A 
ATOM      8  C6  UNL d   1      -0.434  -0.313   0.504  0.00  0.00    -0.082 A 
ATOM      9  C7  UNL d   1      -0.427   0.866   1.287  0.00  0.00     0.045 A 
ENDROOT
TORSDOF 0
ENDMDL
