MODEL 1
REMARK minimizedAffinity -1.3948772
REMARK minimizedRMSD -1
REMARK  0 active torsions:
REMARK  status: ('A' for Active; 'I' for Inactive)
ROOT
ATOM      1  C   UNL d   1      -0.556   0.380   1.262  0.00  0.00    -0.002 A 
ATOM      2  C1  UNL d   1      -0.840   1.020   0.064  0.00  0.00     0.010 A 
ATOM      3  C2  UNL d   1      -1.020   0.285  -1.109  0.00  0.00     0.041 A 
ATOM      4  C3  UNL d   1      -0.909  -1.118  -1.057  0.00  0.00    -0.075 A 
ATOM      5  S   UNL d   1      -1.090  -2.224  -2.368  0.00  0.00     0.015 SA
ATOM      6  C4  UNL d   1      -0.795  -3.573  -1.368  0.00  0.00     0.022 A 
ATOM      7  C5  UNL d   1      -0.563  -3.207  -0.064  0.00  0.00     0.026 A 
ATOM      8  C6  UNL d   1      -0.625  -1.786   0.137  0.00  0.00    -0.082 A 
ATOM      9  C7  UNL d   1      -0.448  -1.012   1.309  0.00  0.00     0.045 A 
ENDROOT
TORSDOF 0
ENDMDL
