MODEL 1
REMARK minimizedAffinity 0.949988961
REMARK minimizedRMSD -1
REMARK  0 active torsions:
REMARK  status: ('A' for Active; 'I' for Inactive)
ROOT
ATOM      1  C   UNL d   1      -1.690  -1.924  -1.509  0.00  0.00    -0.002 A 
ATOM      2  C1  UNL d   1      -0.381  -2.224  -1.160  0.00  0.00     0.010 A 
ATOM      3  C2  UNL d   1       0.392  -1.306  -0.447  0.00  0.00     0.041 A 
ATOM      4  C3  UNL d   1      -0.179  -0.070  -0.085  0.00  0.00    -0.075 A 
ATOM      5  S   UNL d   1       0.578   1.208   0.790  0.00  0.00     0.015 SA
ATOM      6  C4  UNL d   1      -0.818   2.183   0.722  0.00  0.00     0.022 A 
ATOM      7  C5  UNL d   1      -1.847   1.564   0.052  0.00  0.00     0.026 A 
ATOM      8  C6  UNL d   1      -1.495   0.255  -0.424  0.00  0.00    -0.082 A 
ATOM      9  C7  UNL d   1      -2.253  -0.697  -1.148  0.00  0.00     0.045 A 
ENDROOT
TORSDOF 0
ENDMDL
