MODEL 1
REMARK minimizedAffinity -3.52818584
REMARK minimizedRMSD -1
REMARK  0 active torsions:
REMARK  status: ('A' for Active; 'I' for Inactive)
ROOT
ATOM      1  C   UNL d   1      -0.021  -3.922  -1.553  0.00  0.00    -0.002 A 
ATOM      2  C1  UNL d   1      -0.597  -3.340  -2.674  0.00  0.00     0.010 A 
ATOM      3  C2  UNL d   1      -0.995  -2.002  -2.654  0.00  0.00     0.041 A 
ATOM      4  C3  UNL d   1      -0.801  -1.250  -1.479  0.00  0.00    -0.075 A 
ATOM      5  S   UNL d   1      -1.210   0.405  -1.225  0.00  0.00     0.015 SA
ATOM      6  C4  UNL d   1      -0.630   0.380   0.377  0.00  0.00     0.022 A 
ATOM      7  C5  UNL d   1      -0.132  -0.853   0.726  0.00  0.00     0.026 A 
ATOM      8  C6  UNL d   1      -0.223  -1.813  -0.338  0.00  0.00    -0.082 A 
ATOM      9  C7  UNL d   1       0.170  -3.172  -0.389  0.00  0.00     0.045 A 
ENDROOT
TORSDOF 0
ENDMDL
