MODEL 1
REMARK minimizedAffinity -1.91285563
REMARK minimizedRMSD -1
REMARK  0 active torsions:
REMARK  status: ('A' for Active; 'I' for Inactive)
ROOT
ATOM      1  C   UNL d   1      -0.511   2.081   0.828  0.00  0.00    -0.002 A 
ATOM      2  C1  UNL d   1      -0.675   2.197  -0.545  0.00  0.00     0.010 A 
ATOM      3  C2  UNL d   1      -0.695   1.061  -1.356  0.00  0.00     0.041 A 
ATOM      4  C3  UNL d   1      -0.546  -0.206  -0.758  0.00  0.00    -0.075 A 
ATOM      5  S   UNL d   1      -0.539  -1.736  -1.553  0.00  0.00     0.015 SA
ATOM      6  C4  UNL d   1      -0.318  -2.579  -0.088  0.00  0.00     0.022 A 
ATOM      7  C5  UNL d   1      -0.249  -1.730   0.990  0.00  0.00     0.026 A 
ATOM      8  C6  UNL d   1      -0.380  -0.348   0.622  0.00  0.00    -0.082 A 
ATOM      9  C7  UNL d   1      -0.363   0.823   1.418  0.00  0.00     0.045 A 
ENDROOT
TORSDOF 0
ENDMDL
