MODEL 1
REMARK minimizedAffinity 1.44399965
REMARK minimizedRMSD -1
REMARK  0 active torsions:
REMARK  status: ('A' for Active; 'I' for Inactive)
ROOT
ATOM      1  C   UNL d   1      -1.264   2.353   0.518  0.00  0.00    -0.002 A 
ATOM      2  C1  UNL d   1      -0.051   2.344   1.193  0.00  0.00     0.010 A 
ATOM      3  C2  UNL d   1       0.740   1.194   1.217  0.00  0.00     0.041 A 
ATOM      4  C3  UNL d   1       0.287   0.041   0.545  0.00  0.00    -0.075 A 
ATOM      5  S   UNL d   1       1.088  -1.482   0.439  0.00  0.00     0.015 SA
ATOM      6  C4  UNL d   1      -0.161  -2.156  -0.505  0.00  0.00     0.022 A 
ATOM      7  C5  UNL d   1      -1.172  -1.255  -0.743  0.00  0.00     0.026 A 
ATOM      8  C6  UNL d   1      -0.930   0.026  -0.142  0.00  0.00    -0.082 A 
ATOM      9  C7  UNL d   1      -1.709   1.208  -0.148  0.00  0.00     0.045 A 
ENDROOT
TORSDOF 0
ENDMDL
