MODEL 1
REMARK minimizedAffinity -1.15463674
REMARK minimizedRMSD -1
REMARK  0 active torsions:
REMARK  status: ('A' for Active; 'I' for Inactive)
ROOT
ATOM      1  C   UNL d   1       0.622  -2.655  -1.956  0.00  0.00    -0.002 A 
ATOM      2  C1  UNL d   1      -0.552  -3.216  -1.474  0.00  0.00     0.010 A 
ATOM      3  C2  UNL d   1      -1.424  -2.467  -0.681  0.00  0.00     0.041 A 
ATOM      4  C3  UNL d   1      -1.094  -1.131  -0.379  0.00  0.00    -0.075 A 
ATOM      5  S   UNL d   1      -2.010  -0.024   0.572  0.00  0.00     0.015 SA
ATOM      6  C4  UNL d   1      -0.865   1.221   0.361  0.00  0.00     0.022 A 
ATOM      7  C5  UNL d   1       0.197   0.819  -0.414  0.00  0.00     0.026 A 
ATOM      8  C6  UNL d   1       0.082  -0.544  -0.854  0.00  0.00    -0.082 A 
ATOM      9  C7  UNL d   1       0.946  -1.329  -1.655  0.00  0.00     0.045 A 
ENDROOT
TORSDOF 0
ENDMDL
