MODEL 1
REMARK minimizedAffinity -3.42750931
REMARK minimizedRMSD -1
REMARK  0 active torsions:
REMARK  status: ('A' for Active; 'I' for Inactive)
ROOT
ATOM      1  C1  BNZ d   1       1.722  -0.181   1.025  0.00  0.00     0.000 A 
ATOM      2  C2  BNZ d   1       0.786   0.771   1.331  0.00  0.00     0.000 A 
ATOM      3  C3  BNZ d   1      -0.277   0.998   0.502  0.00  0.00     0.000 A 
ATOM      4  C4  BNZ d   1      -0.381   0.303  -0.649  0.00  0.00     0.000 A 
ATOM      5  C5  BNZ d   1       0.559  -0.653  -0.975  0.00  0.00     0.000 A 
ATOM      6  C6  BNZ d   1       1.607  -0.907  -0.120  0.00  0.00     0.000 A 
ENDROOT
TORSDOF 0
ENDMDL
