MODEL 1
REMARK minimizedAffinity -2.83865094
REMARK minimizedRMSD -1
REMARK  0 active torsions:
REMARK  status: ('A' for Active; 'I' for Inactive)
ROOT
ATOM      1  C1  BNZ d   1       0.536   0.455   1.308  0.00  0.00     0.000 A 
ATOM      2  C2  BNZ d   1       0.547   0.032   0.006  0.00  0.00     0.000 A 
ATOM      3  C3  BNZ d   1      -0.620  -0.153  -0.680  0.00  0.00     0.000 A 
ATOM      4  C4  BNZ d   1      -1.797   0.047  -0.052  0.00  0.00     0.000 A 
ATOM      5  C5  BNZ d   1      -1.825   0.465   1.263  0.00  0.00     0.000 A 
ATOM      6  C6  BNZ d   1      -0.647   0.687   1.939  0.00  0.00     0.000 A 
ENDROOT
TORSDOF 0
ENDMDL
