MODEL 1
REMARK minimizedAffinity -4.95475149
REMARK minimizedRMSD -1
REMARK  0 active torsions:
REMARK  status: ('A' for Active; 'I' for Inactive)
ROOT
ATOM      1  C1  BNZ d   1       0.194   0.190   0.899  0.00  0.00     0.000 A 
ATOM      2  C2  BNZ d   1      -1.023   0.621   1.354  0.00  0.00     0.000 A 
ATOM      3  C3  BNZ d   1      -1.171   1.077   2.634  0.00  0.00     0.000 A 
ATOM      4  C4  BNZ d   1      -0.111   1.064   3.469  0.00  0.00     0.000 A 
ATOM      5  C5  BNZ d   1       1.121   0.624   3.027  0.00  0.00     0.000 A 
ATOM      6  C6  BNZ d   1       1.274   0.203   1.727  0.00  0.00     0.000 A 
ENDROOT
TORSDOF 0
ENDMDL
