MODEL 1
REMARK minimizedAffinity -4.70840597
REMARK minimizedRMSD -1
REMARK  0 active torsions:
REMARK  status: ('A' for Active; 'I' for Inactive)
ROOT
ATOM      1  C1  BNZ d   1      -1.626  -0.334   0.554  0.00  0.00     0.000 A 
ATOM      2  C2  BNZ d   1      -1.665   0.245   1.795  0.00  0.00     0.000 A 
ATOM      3  C3  BNZ d   1      -0.819   1.269   2.116  0.00  0.00     0.000 A 
ATOM      4  C4  BNZ d   1       0.091   1.686   1.213  0.00  0.00     0.000 A 
ATOM      5  C5  BNZ d   1       0.149   1.106  -0.039  0.00  0.00     0.000 A 
ATOM      6  C6  BNZ d   1      -0.730   0.102  -0.373  0.00  0.00     0.000 A 
ENDROOT
TORSDOF 0
ENDMDL
