MODEL 1
REMARK minimizedAffinity -2.9132576
REMARK minimizedRMSD -1
REMARK  0 active torsions:
REMARK  status: ('A' for Active; 'I' for Inactive)
ROOT
ATOM      1  C1  BNZ d   1       0.306   0.357  -0.713  0.00  0.00     0.000 A 
ATOM      2  C2  BNZ d   1       0.645   0.995   0.450  0.00  0.00     0.000 A 
ATOM      3  C3  BNZ d   1      -0.091   0.814   1.588  0.00  0.00     0.000 A 
ATOM      4  C4  BNZ d   1      -1.186   0.027   1.551  0.00  0.00     0.000 A 
ATOM      5  C5  BNZ d   1      -1.546  -0.615   0.383  0.00  0.00     0.000 A 
ATOM      6  C6  BNZ d   1      -0.780  -0.461  -0.750  0.00  0.00     0.000 A 
ENDROOT
TORSDOF 0
ENDMDL
