MODEL 1
REMARK minimizedAffinity -3.94161701
REMARK minimizedRMSD -1
REMARK  0 active torsions:
REMARK  status: ('A' for Active; 'I' for Inactive)
ROOT
ATOM      1  C1  BNZ d   1       0.978   0.301   1.497  0.00  0.00     0.000 A 
ATOM      2  C2  BNZ d   1       1.617  -0.700   0.816  0.00  0.00     0.000 A 
ATOM      3  C3  BNZ d   1       1.003  -1.343  -0.223  0.00  0.00     0.000 A 
ATOM      4  C4  BNZ d   1      -0.263  -1.013  -0.552  0.00  0.00     0.000 A 
ATOM      5  C5  BNZ d   1      -0.924  -0.012   0.132  0.00  0.00     0.000 A 
ATOM      6  C6  BNZ d   1      -0.288   0.660   1.151  0.00  0.00     0.000 A 
ENDROOT
TORSDOF 0
ENDMDL
