MODEL 1
REMARK minimizedAffinity 2.11781955
REMARK minimizedRMSD -1
REMARK  0 active torsions:
REMARK  status: ('A' for Active; 'I' for Inactive)
ROOT
ATOM      1  C1  BNZ d   1      -2.460  -0.847   3.767  0.00  0.00     0.000 A 
ATOM      2  C2  BNZ d   1      -1.684   0.268   3.935  0.00  0.00     0.000 A 
ATOM      3  C3  BNZ d   1      -1.278   1.007   2.859  0.00  0.00     0.000 A 
ATOM      4  C4  BNZ d   1      -1.615   0.608   1.616  0.00  0.00     0.000 A 
ATOM      5  C5  BNZ d   1      -2.389  -0.520   1.429  0.00  0.00     0.000 A 
ATOM      6  C6  BNZ d   1      -2.828  -1.239   2.517  0.00  0.00     0.000 A 
ENDROOT
TORSDOF 0
ENDMDL
