MODEL 1
REMARK minimizedAffinity 9.98041725
REMARK minimizedRMSD -1
REMARK  0 active torsions:
REMARK  status: ('A' for Active; 'I' for Inactive)
ROOT
ATOM      1  C   UNL d   1      -4.811  -1.810  -4.322  0.00  0.00     0.078 C 
ATOM      2  C1  UNL d   1      -4.891  -3.249  -4.736  0.00  0.00    -0.077 A 
ATOM      3  C2  UNL d   1      -5.874  -3.688  -5.631  0.00  0.00    -0.001 A 
ATOM      4  C3  UNL d   1      -5.943  -5.033  -6.000  0.00  0.00     0.003 A 
ATOM      5  C4  UNL d   1      -5.033  -5.949  -5.476  0.00  0.00    -0.005 A 
ATOM      6  C5  UNL d   1      -4.053  -5.522  -4.583  0.00  0.00     0.003 A 
ATOM      7  C6  UNL d   1      -3.983  -4.178  -4.213  0.00  0.00    -0.001 A 
ENDROOT
TORSDOF 0
ENDMDL
