MODEL 1
REMARK minimizedAffinity 3.56767368
REMARK minimizedRMSD -1
REMARK  0 active torsions:
REMARK  status: ('A' for Active; 'I' for Inactive)
ROOT
ATOM      1  C   UNL d   1       1.017  -1.766   5.373  0.00  0.00     0.078 C 
ATOM      2  C1  UNL d   1       1.304  -1.437   3.938  0.00  0.00    -0.077 A 
ATOM      3  C2  UNL d   1       1.859  -2.391   3.076  0.00  0.00    -0.001 A 
ATOM      4  C3  UNL d   1       2.130  -2.067   1.746  0.00  0.00     0.003 A 
ATOM      5  C4  UNL d   1       1.849  -0.790   1.265  0.00  0.00    -0.005 A 
ATOM      6  C5  UNL d   1       1.298   0.167   2.116  0.00  0.00     0.003 A 
ATOM      7  C6  UNL d   1       1.027  -0.155   3.447  0.00  0.00    -0.001 A 
ENDROOT
TORSDOF 0
ENDMDL
