MODEL 1
REMARK minimizedAffinity 8.31463051
REMARK minimizedRMSD -1
REMARK  0 active torsions:
REMARK  status: ('A' for Active; 'I' for Inactive)
ROOT
ATOM      1  C   UNL d   1      -2.593   3.159  -0.708  0.00  0.00     0.078 C 
ATOM      2  C1  UNL d   1      -3.787   3.460   0.147  0.00  0.00    -0.077 A 
ATOM      3  C2  UNL d   1      -4.898   4.132  -0.378  0.00  0.00    -0.001 A 
ATOM      4  C3  UNL d   1      -6.000   4.414   0.432  0.00  0.00     0.003 A 
ATOM      5  C4  UNL d   1      -6.000   4.029   1.772  0.00  0.00    -0.005 A 
ATOM      6  C5  UNL d   1      -4.898   3.362   2.303  0.00  0.00     0.003 A 
ATOM      7  C6  UNL d   1      -3.796   3.079   1.495  0.00  0.00    -0.001 A 
ENDROOT
TORSDOF 0
ENDMDL
