MODEL 1
REMARK minimizedAffinity 7.77194786
REMARK minimizedRMSD -1
REMARK  0 active torsions:
REMARK  status: ('A' for Active; 'I' for Inactive)
ROOT
ATOM      1  C   UNL d   1      -4.803  -1.818  -4.612  0.00  0.00     0.078 C 
ATOM      2  C1  UNL d   1      -4.844  -3.266  -5.001  0.00  0.00    -0.077 A 
ATOM      3  C2  UNL d   1      -5.968  -3.811  -5.633  0.00  0.00    -0.001 A 
ATOM      4  C3  UNL d   1      -5.995  -5.162  -5.981  0.00  0.00     0.003 A 
ATOM      5  C4  UNL d   1      -4.903  -5.980  -5.700  0.00  0.00    -0.005 A 
ATOM      6  C5  UNL d   1      -3.781  -5.447  -5.068  0.00  0.00     0.003 A 
ATOM      7  C6  UNL d   1      -3.751  -4.096  -4.720  0.00  0.00    -0.001 A 
ENDROOT
TORSDOF 0
ENDMDL
