MODEL 1
REMARK minimizedAffinity 9.47879314
REMARK minimizedRMSD -1
REMARK  0 active torsions:
REMARK  status: ('A' for Active; 'I' for Inactive)
ROOT
ATOM      1  C   UNL d   1       3.055   2.379   1.268  0.00  0.00     0.078 C 
ATOM      2  C1  UNL d   1       2.659   0.949   1.484  0.00  0.00    -0.077 A 
ATOM      3  C2  UNL d   1       3.524  -0.098   1.143  0.00  0.00    -0.001 A 
ATOM      4  C3  UNL d   1       3.138  -1.425   1.341  0.00  0.00     0.003 A 
ATOM      5  C4  UNL d   1       1.887  -1.717   1.880  0.00  0.00    -0.005 A 
ATOM      6  C5  UNL d   1       1.019  -0.682   2.220  0.00  0.00     0.003 A 
ATOM      7  C6  UNL d   1       1.402   0.646   2.023  0.00  0.00    -0.001 A 
ENDROOT
TORSDOF 0
ENDMDL
