MODEL 1
REMARK minimizedAffinity 3.54377747
REMARK minimizedRMSD -1
REMARK  0 active torsions:
REMARK  status: ('A' for Active; 'I' for Inactive)
ROOT
ATOM      1  C   UNL d   1       2.656  -0.991   0.807  0.00  0.00     0.078 C 
ATOM      2  C1  UNL d   1       1.876  -1.509   1.978  0.00  0.00    -0.077 A 
ATOM      3  C2  UNL d   1       1.794  -2.882   2.240  0.00  0.00    -0.001 A 
ATOM      4  C3  UNL d   1       1.056  -3.350   3.328  0.00  0.00     0.003 A 
ATOM      5  C4  UNL d   1       0.394  -2.452   4.163  0.00  0.00    -0.005 A 
ATOM      6  C5  UNL d   1       0.468  -1.084   3.909  0.00  0.00     0.003 A 
ATOM      7  C6  UNL d   1       1.205  -0.614   2.821  0.00  0.00    -0.001 A 
ENDROOT
TORSDOF 0
ENDMDL
