MODEL 1
REMARK minimizedAffinity -5.30039167
REMARK minimizedRMSD -1
REMARK  1 active torsions:
REMARK  status: ('A' for Active; 'I' for Inactive)
REMARK    1  A    between atoms: C1_2  and  C2_3 
ROOT
ATOM      1  C2  UNL d   1      -0.913   0.110   0.558  0.00  0.00    -0.081 A 
ATOM      2  C3  UNL d   1       0.462  -0.151   0.524  0.00  0.00     0.006 A 
ATOM      3  C4  UNL d   1       1.127  -0.289  -0.696  0.00  0.00     0.002 A 
ATOM      4  C5  UNL d   1       0.430  -0.161  -1.903  0.00  0.00    -0.080 A 
ATOM      5  C6  UNL d   1       1.138  -0.277  -3.220  0.00  0.00     0.076 C 
ATOM      6  C7  UNL d   1      -0.947   0.082  -1.869  0.00  0.00     0.002 A 
ATOM      7  C8  UNL d   1      -1.612   0.220  -0.649  0.00  0.00     0.006 A 
ENDROOT
BRANCH   1   8
ATOM      8  C1  UNL d   1      -1.621   0.324   1.871  0.00  0.00     0.054 C 
ATOM      9  C   UNL d   1      -0.893   1.346   2.732  0.00  0.00     0.018 C 
ENDBRANCH   1   8
TORSDOF 1
ENDMDL
