MODEL 1
REMARK minimizedAffinity -2.61855268
REMARK minimizedRMSD -1
REMARK  1 active torsions:
REMARK  status: ('A' for Active; 'I' for Inactive)
REMARK    1  A    between atoms: C1_2  and  C2_3 
ROOT
ATOM      1  C2  UNL d   1       0.153   0.570  -1.169  0.00  0.00    -0.081 A 
ATOM      2  C3  UNL d   1      -0.030   1.934  -0.911  0.00  0.00     0.006 A 
ATOM      3  C4  UNL d   1      -0.186   2.392   0.400  0.00  0.00     0.002 A 
ATOM      4  C5  UNL d   1      -0.154   1.496   1.474  0.00  0.00    -0.080 A 
ATOM      5  C6  UNL d   1      -0.290   1.979   2.887  0.00  0.00     0.076 C 
ATOM      6  C7  UNL d   1       0.011   0.131   1.215  0.00  0.00     0.002 A 
ATOM      7  C8  UNL d   1       0.166  -0.328  -0.095  0.00  0.00     0.006 A 
ENDROOT
BRANCH   1   8
ATOM      8  C1  UNL d   1       0.386   0.080  -2.575  0.00  0.00     0.054 C 
ATOM      9  C   UNL d   1       1.107   1.127  -3.413  0.00  0.00     0.018 C 
ENDBRANCH   1   8
TORSDOF 1
ENDMDL
