MODEL 1
REMARK minimizedAffinity -4.05322123
REMARK minimizedRMSD -1
REMARK  1 active torsions:
REMARK  status: ('A' for Active; 'I' for Inactive)
REMARK    1  A    between atoms: C1_2  and  C2_3 
ROOT
ATOM      1  C2  UNL d   1       0.166  -0.140   0.096  0.00  0.00    -0.081 A 
ATOM      2  C3  UNL d   1      -1.116   0.140   0.583  0.00  0.00     0.006 A 
ATOM      3  C4  UNL d   1      -1.285   0.705   1.849  0.00  0.00     0.002 A 
ATOM      4  C5  UNL d   1      -0.176   1.006   2.646  0.00  0.00    -0.080 A 
ATOM      5  C6  UNL d   1      -0.342   1.640   3.995  0.00  0.00     0.076 C 
ATOM      6  C7  UNL d   1       1.105   0.710   2.167  0.00  0.00     0.002 A 
ATOM      7  C8  UNL d   1       1.275   0.145   0.901  0.00  0.00     0.006 A 
ENDROOT
BRANCH   1   8
ATOM      8  C1  UNL d   1       0.355  -0.689  -1.295  0.00  0.00     0.054 C 
ATOM      9  C   UNL d   1       0.958   0.355  -2.225  0.00  0.00     0.018 C 
ENDBRANCH   1   8
TORSDOF 1
ENDMDL
