MODEL 1
REMARK minimizedAffinity -2.71583676
REMARK minimizedRMSD -1
REMARK  1 active torsions:
REMARK  status: ('A' for Active; 'I' for Inactive)
REMARK    1  A    between atoms: C1_2  and  C2_3 
ROOT
ATOM      1  C2  UNL d   1      -1.223   1.008  -1.196  0.00  0.00    -0.081 A 
ATOM      2  C3  UNL d   1       0.143   1.033  -1.505  0.00  0.00     0.006 A 
ATOM      3  C4  UNL d   1       1.059   0.330  -0.719  0.00  0.00     0.002 A 
ATOM      4  C5  UNL d   1       0.626  -0.415   0.382  0.00  0.00    -0.080 A 
ATOM      5  C6  UNL d   1       1.596  -1.199   1.216  0.00  0.00     0.076 C 
ATOM      6  C7  UNL d   1      -0.736  -0.426   0.702  0.00  0.00     0.002 A 
ATOM      7  C8  UNL d   1      -1.653   0.277  -0.083  0.00  0.00     0.006 A 
ENDROOT
BRANCH   1   8
ATOM      8  C1  UNL d   1      -2.221   1.712  -2.079  0.00  0.00     0.054 C 
ATOM      9  C   UNL d   1      -1.829   1.614  -3.546  0.00  0.00     0.018 C 
ENDBRANCH   1   8
TORSDOF 1
ENDMDL
