MODEL 1
REMARK minimizedAffinity -4.10111904
REMARK minimizedRMSD -1
REMARK  1 active torsions:
REMARK  status: ('A' for Active; 'I' for Inactive)
REMARK    1  A    between atoms: C1_2  and  C2_3 
ROOT
ATOM      1  C2  UNL d   1      -0.512   1.329  -0.688  0.00  0.00    -0.081 A 
ATOM      2  C3  UNL d   1       0.835   1.120  -1.006  0.00  0.00     0.006 A 
ATOM      3  C4  UNL d   1       1.589   0.175  -0.306  0.00  0.00     0.002 A 
ATOM      4  C5  UNL d   1       1.006  -0.582   0.717  0.00  0.00    -0.080 A 
ATOM      5  C6  UNL d   1       1.796  -1.621   1.456  0.00  0.00     0.076 C 
ATOM      6  C7  UNL d   1      -0.335  -0.360   1.046  0.00  0.00     0.002 A 
ATOM      7  C8  UNL d   1      -1.089   0.585   0.347  0.00  0.00     0.006 A 
ENDROOT
BRANCH   1   8
ATOM      8  C1  UNL d   1      -1.345   2.302  -1.484  0.00  0.00     0.054 C 
ATOM      9  C   UNL d   1      -2.036   1.612  -2.652  0.00  0.00     0.018 C 
ENDBRANCH   1   8
TORSDOF 1
ENDMDL
