MODEL 1
REMARK minimizedAffinity -2.17907429
REMARK minimizedRMSD -1
REMARK  1 active torsions:
REMARK  status: ('A' for Active; 'I' for Inactive)
REMARK    1  A    between atoms: C1_2  and  C2_3 
ROOT
ATOM      1  C2  UNL d   1      -0.292   1.520  -1.237  0.00  0.00    -0.081 A 
ATOM      2  C3  UNL d   1      -0.798   0.880  -0.099  0.00  0.00     0.006 A 
ATOM      3  C4  UNL d   1      -0.025  -0.058   0.589  0.00  0.00     0.002 A 
ATOM      4  C5  UNL d   1       1.268  -0.367   0.155  0.00  0.00    -0.080 A 
ATOM      5  C6  UNL d   1       2.120  -1.350   0.902  0.00  0.00     0.076 C 
ATOM      6  C7  UNL d   1       1.768   0.259  -0.992  0.00  0.00     0.002 A 
ATOM      7  C8  UNL d   1       0.995   1.197  -1.681  0.00  0.00     0.006 A 
ENDROOT
BRANCH   1   8
ATOM      8  C1  UNL d   1      -1.099   2.580  -1.943  0.00  0.00     0.054 C 
ATOM      9  C   UNL d   1      -1.496   2.132  -3.343  0.00  0.00     0.018 C 
ENDBRANCH   1   8
TORSDOF 1
ENDMDL
