MODEL 1
REMARK minimizedAffinity 0.053728696
REMARK minimizedRMSD -1
REMARK  1 active torsions:
REMARK  status: ('A' for Active; 'I' for Inactive)
REMARK    1  A    between atoms: C1_2  and  C2_3 
ROOT
ATOM      1  C2  UNL d   1      -0.257   1.274  -1.065  0.00  0.00    -0.081 A 
ATOM      2  C3  UNL d   1       1.124   1.319  -1.295  0.00  0.00     0.006 A 
ATOM      3  C4  UNL d   1       1.983   0.451  -0.616  0.00  0.00     0.002 A 
ATOM      4  C5  UNL d   1       1.476  -0.480   0.296  0.00  0.00    -0.080 A 
ATOM      5  C6  UNL d   1       2.384  -1.438   1.009  0.00  0.00     0.076 C 
ATOM      6  C7  UNL d   1       0.098  -0.513   0.538  0.00  0.00     0.002 A 
ATOM      7  C8  UNL d   1      -0.761   0.355  -0.139  0.00  0.00     0.006 A 
ENDROOT
BRANCH   1   8
ATOM      8  C1  UNL d   1      -1.192   2.164  -1.843  0.00  0.00     0.054 C 
ATOM      9  C   UNL d   1      -2.277   1.354  -2.538  0.00  0.00     0.018 C 
ENDBRANCH   1   8
TORSDOF 1
ENDMDL
