MODEL 1
REMARK minimizedAffinity -2.28962684
REMARK minimizedRMSD -1
REMARK  1 active torsions:
REMARK  status: ('A' for Active; 'I' for Inactive)
REMARK    1  A    between atoms: C1_2  and  C2_3 
ROOT
ATOM      1  C2  UNL d   1      -0.322  -0.629   1.115  0.00  0.00    -0.081 A 
ATOM      2  C3  UNL d   1      -0.350   0.490   0.274  0.00  0.00     0.006 A 
ATOM      3  C4  UNL d   1       0.759   0.814  -0.511  0.00  0.00     0.002 A 
ATOM      4  C5  UNL d   1       1.911   0.021  -0.474  0.00  0.00    -0.080 A 
ATOM      5  C6  UNL d   1       3.097   0.341  -1.334  0.00  0.00     0.076 C 
ATOM      6  C7  UNL d   1       1.946  -1.086   0.380  0.00  0.00     0.002 A 
ATOM      7  C8  UNL d   1       0.838  -1.411   1.166  0.00  0.00     0.006 A 
ENDROOT
BRANCH   1   8
ATOM      8  C1  UNL d   1      -1.539  -1.018   1.914  0.00  0.00     0.054 C 
ATOM      9  C   UNL d   1      -1.997   0.120   2.816  0.00  0.00     0.018 C 
ENDBRANCH   1   8
TORSDOF 1
ENDMDL
