MODEL 1
REMARK minimizedAffinity 0.527524352
REMARK minimizedRMSD -1
REMARK  1 active torsions:
REMARK  status: ('A' for Active; 'I' for Inactive)
REMARK    1  A    between atoms: C1_2  and  C2_3 
ROOT
ATOM      1  C2  UNL d   1      -0.994   0.419  -1.336  0.00  0.00    -0.081 A 
ATOM      2  C3  UNL d   1      -2.143  -0.302  -0.992  0.00  0.00     0.006 A 
ATOM      3  C4  UNL d   1      -2.364  -0.695   0.330  0.00  0.00     0.002 A 
ATOM      4  C5  UNL d   1      -1.443  -0.367   1.331  0.00  0.00    -0.080 A 
ATOM      5  C6  UNL d   1      -1.683  -0.756   2.759  0.00  0.00     0.076 C 
ATOM      6  C7  UNL d   1      -0.286   0.338   0.984  0.00  0.00     0.002 A 
ATOM      7  C8  UNL d   1      -0.065   0.731  -0.338  0.00  0.00     0.006 A 
ENDROOT
BRANCH   1   8
ATOM      8  C1  UNL d   1      -0.785   0.900  -2.750  0.00  0.00     0.054 C 
ATOM      9  C   UNL d   1      -2.046   1.544  -3.307  0.00  0.00     0.018 C 
ENDBRANCH   1   8
TORSDOF 1
ENDMDL
