MODEL 1
REMARK minimizedAffinity -3.03024745
REMARK minimizedRMSD -1
REMARK  1 active torsions:
REMARK  status: ('A' for Active; 'I' for Inactive)
REMARK    1  A    between atoms: C1_2  and  C2_3 
ROOT
ATOM      1  C2  UNL d   1      -0.564   0.757  -1.133  0.00  0.00    -0.081 A 
ATOM      2  C3  UNL d   1       0.781   1.138  -1.036  0.00  0.00     0.006 A 
ATOM      3  C4  UNL d   1       1.672   0.396  -0.256  0.00  0.00     0.002 A 
ATOM      4  C5  UNL d   1       1.236  -0.741   0.433  0.00  0.00    -0.080 A 
ATOM      5  C6  UNL d   1       2.189  -1.563   1.249  0.00  0.00     0.076 C 
ATOM      6  C7  UNL d   1      -0.111  -1.111   0.350  0.00  0.00     0.002 A 
ATOM      7  C8  UNL d   1      -1.002  -0.370  -0.429  0.00  0.00     0.006 A 
ENDROOT
BRANCH   1   8
ATOM      8  C1  UNL d   1      -1.512   1.517  -2.025  0.00  0.00     0.054 C 
ATOM      9  C   UNL d   1      -1.217   3.010  -2.002  0.00  0.00     0.018 C 
ENDBRANCH   1   8
TORSDOF 1
ENDMDL
