MODEL 1
REMARK minimizedAffinity -5.92118359
REMARK minimizedRMSD -1
REMARK  1 active torsions:
REMARK  status: ('A' for Active; 'I' for Inactive)
REMARK    1  A    between atoms: C1_2  and  C2_3 
ROOT
ATOM      1  C2  UNL d   1      -0.864  -0.047  -0.177  0.00  0.00    -0.081 A 
ATOM      2  C3  UNL d   1       0.498  -0.223  -0.448  0.00  0.00     0.006 A 
ATOM      3  C4  UNL d   1       1.233  -1.203   0.223  0.00  0.00     0.002 A 
ATOM      4  C5  UNL d   1       0.618  -2.027   1.171  0.00  0.00    -0.080 A 
ATOM      5  C6  UNL d   1       1.388  -3.103   1.877  0.00  0.00     0.076 C 
ATOM      6  C7  UNL d   1      -0.739  -1.840   1.455  0.00  0.00     0.002 A 
ATOM      7  C8  UNL d   1      -1.475  -0.860   0.784  0.00  0.00     0.006 A 
ENDROOT
BRANCH   1   8
ATOM      8  C1  UNL d   1      -1.675   0.964  -0.946  0.00  0.00     0.054 C 
ATOM      9  C   UNL d   1      -2.772   0.292  -1.758  0.00  0.00     0.018 C 
ENDBRANCH   1   8
TORSDOF 1
ENDMDL
