MODEL 1
REMARK minimizedAffinity -3.50152707
REMARK minimizedRMSD -1
REMARK  1 active torsions:
REMARK  status: ('A' for Active; 'I' for Inactive)
REMARK    1  A    between atoms: C1_2  and  C2_3 
ROOT
ATOM      1  C2  UNL d   1      -1.383   1.398  -1.540  0.00  0.00    -0.081 A 
ATOM      2  C3  UNL d   1      -2.459   0.589  -1.157  0.00  0.00     0.006 A 
ATOM      3  C4  UNL d   1      -2.409  -0.138   0.035  0.00  0.00     0.002 A 
ATOM      4  C5  UNL d   1      -1.287  -0.061   0.867  0.00  0.00    -0.080 A 
ATOM      5  C6  UNL d   1      -1.234  -0.812   2.164  0.00  0.00     0.076 C 
ATOM      6  C7  UNL d   1      -0.205   0.734   0.476  0.00  0.00     0.002 A 
ATOM      7  C8  UNL d   1      -0.253   1.460  -0.716  0.00  0.00     0.006 A 
ENDROOT
BRANCH   1   8
ATOM      8  C1  UNL d   1      -1.460   2.233  -2.793  0.00  0.00     0.054 C 
ATOM      9  C   UNL d   1      -2.145   1.476  -3.921  0.00  0.00     0.018 C 
ENDBRANCH   1   8
TORSDOF 1
ENDMDL
