MODEL 1
REMARK minimizedAffinity -5.40167284
REMARK minimizedRMSD -1
REMARK  1 active torsions:
REMARK  status: ('A' for Active; 'I' for Inactive)
REMARK    1  A    between atoms: C1_2  and  C2_3 
ROOT
ATOM      1  C2  UNL d   1      -0.630   0.248   0.082  0.00  0.00    -0.081 A 
ATOM      2  C3  UNL d   1       0.638  -0.318  -0.091  0.00  0.00     0.006 A 
ATOM      3  C4  UNL d   1       1.119  -1.267   0.815  0.00  0.00     0.002 A 
ATOM      4  C5  UNL d   1       0.337  -1.671   1.902  0.00  0.00    -0.080 A 
ATOM      5  C6  UNL d   1       0.830  -2.711   2.864  0.00  0.00     0.076 C 
ATOM      6  C7  UNL d   1      -0.923  -1.092   2.085  0.00  0.00     0.002 A 
ATOM      7  C8  UNL d   1      -1.404  -0.143   1.180  0.00  0.00     0.006 A 
ENDROOT
BRANCH   1   8
ATOM      8  C1  UNL d   1      -1.178   1.224  -0.928  0.00  0.00     0.054 C 
ATOM      9  C   UNL d   1      -2.555   0.799  -1.417  0.00  0.00     0.018 C 
ENDBRANCH   1   8
TORSDOF 1
ENDMDL
