MODEL 1
REMARK minimizedAffinity -2.42029881
REMARK minimizedRMSD -1
REMARK  1 active torsions:
REMARK  status: ('A' for Active; 'I' for Inactive)
REMARK    1  A    between atoms: C1_2  and  C2_3 
ROOT
ATOM      1  C2  UNL d   1      -2.033   0.033   0.210  0.00  0.00    -0.081 A 
ATOM      2  C3  UNL d   1      -3.096  -0.182  -0.675  0.00  0.00     0.006 A 
ATOM      3  C4  UNL d   1      -3.115   0.441  -1.925  0.00  0.00     0.002 A 
ATOM      4  C5  UNL d   1      -2.067   1.283  -2.314  0.00  0.00    -0.080 A 
ATOM      5  C6  UNL d   1      -2.060   1.935  -3.665  0.00  0.00     0.076 C 
ATOM      6  C7  UNL d   1      -1.014   1.512  -1.423  0.00  0.00     0.002 A 
ATOM      7  C8  UNL d   1      -0.995   0.890  -0.173  0.00  0.00     0.006 A 
ENDROOT
BRANCH   1   8
ATOM      8  C1  UNL d   1      -1.979  -0.688   1.532  0.00  0.00     0.054 C 
ATOM      9  C   UNL d   1      -2.405   0.220   2.676  0.00  0.00     0.018 C 
ENDBRANCH   1   8
TORSDOF 1
ENDMDL
