MODEL 1
REMARK minimizedAffinity -5.38681269
REMARK minimizedRMSD -1
REMARK  1 active torsions:
REMARK  status: ('A' for Active; 'I' for Inactive)
REMARK    1  A    between atoms: C1_2  and  C2_3 
ROOT
ATOM      1  C2  UNL d   1      -1.916   0.618  -1.767  0.00  0.00    -0.081 A 
ATOM      2  C3  UNL d   1      -2.938  -0.166  -1.216  0.00  0.00     0.006 A 
ATOM      3  C4  UNL d   1      -2.860  -0.600   0.110  0.00  0.00     0.002 A 
ATOM      4  C5  UNL d   1      -1.765  -0.252   0.908  0.00  0.00    -0.080 A 
ATOM      5  C6  UNL d   1      -1.684  -0.686   2.341  0.00  0.00     0.076 C 
ATOM      6  C7  UNL d   1      -0.737   0.516   0.352  0.00  0.00     0.002 A 
ATOM      7  C8  UNL d   1      -0.813   0.950  -0.973  0.00  0.00     0.006 A 
ENDROOT
BRANCH   1   8
ATOM      8  C1  UNL d   1      -2.028   1.142  -3.176  0.00  0.00     0.054 C 
ATOM      9  C   UNL d   1      -1.546   2.582  -3.270  0.00  0.00     0.018 C 
ENDBRANCH   1   8
TORSDOF 1
ENDMDL
