MODEL 1
REMARK minimizedAffinity 8.12462521
REMARK minimizedRMSD -1
REMARK  1 active torsions:
REMARK  status: ('A' for Active; 'I' for Inactive)
REMARK    1  A    between atoms: C3_4  and  O_7 
ROOT
ATOM      1  C   UNL d   1      -0.087   3.048  -1.036  0.00  0.00    -0.033 A 
ATOM      2  C1  UNL d   1      -0.137   3.286  -2.410  0.00  0.00     0.039 A 
ATOM      3  C2  UNL d   1      -1.173   2.748  -3.177  0.00  0.00    -0.080 A 
ATOM      4  C3  UNL d   1      -2.152   1.976  -2.557  0.00  0.00     0.150 A 
ATOM      5  C4  UNL d   1      -2.110   1.738  -1.187  0.00  0.00    -0.007 A 
ATOM      6  C5  UNL d   1      -1.075   2.275  -0.423  0.00  0.00     0.039 A 
ENDROOT
BRANCH   4   7
ATOM      7  O   UNL d   1      -3.180   1.426  -3.263  0.00  0.00    -0.526 OA
ATOM      8  H5  UNL d   1      -3.063   1.650  -4.202  0.00  0.00     0.418 HD
ENDBRANCH   4   7
TORSDOF 1
ENDMDL
