MODEL 1
REMARK minimizedAffinity 16.0385227
REMARK minimizedRMSD -1
REMARK  1 active torsions:
REMARK  status: ('A' for Active; 'I' for Inactive)
REMARK    1  A    between atoms: C3_4  and  O_7 
ROOT
ATOM      1  C   UNL d   1       1.202  -5.959  -3.864  0.00  0.00    -0.033 A 
ATOM      2  C1  UNL d   1       1.181  -5.995  -5.259  0.00  0.00     0.039 A 
ATOM      3  C2  UNL d   1       1.643  -4.901  -5.994  0.00  0.00    -0.080 A 
ATOM      4  C3  UNL d   1       2.125  -3.781  -5.323  0.00  0.00     0.150 A 
ATOM      5  C4  UNL d   1       2.152  -3.741  -3.932  0.00  0.00    -0.007 A 
ATOM      6  C5  UNL d   1       1.689  -4.833  -3.200  0.00  0.00     0.039 A 
ENDROOT
BRANCH   4   7
ATOM      7  O   UNL d   1       2.582  -2.688  -5.997  0.00  0.00    -0.526 OA
ATOM      8  H5  UNL d   1       2.476  -2.847  -6.949  0.00  0.00     0.418 HD
ENDBRANCH   4   7
TORSDOF 1
ENDMDL
