MODEL 1
REMARK minimizedAffinity 10.007925
REMARK minimizedRMSD -1
REMARK  1 active torsions:
REMARK  status: ('A' for Active; 'I' for Inactive)
REMARK    1  A    between atoms: C3_4  and  O_7 
ROOT
ATOM      1  C   UNL d   1      -4.539   5.499  -0.924  0.00  0.00    -0.033 A 
ATOM      2  C1  UNL d   1      -3.469   5.335  -0.043  0.00  0.00     0.039 A 
ATOM      3  C2  UNL d   1      -3.662   5.499   1.330  0.00  0.00    -0.080 A 
ATOM      4  C3  UNL d   1      -4.928   5.825   1.808  0.00  0.00     0.150 A 
ATOM      5  C4  UNL d   1      -6.000   5.985   0.936  0.00  0.00    -0.007 A 
ATOM      6  C5  UNL d   1      -5.805   5.822  -0.435  0.00  0.00     0.039 A 
ENDROOT
BRANCH   4   7
ATOM      7  O   UNL d   1      -5.164   6.000   3.140  0.00  0.00    -0.526 OA
ATOM      8  H5  UNL d   1      -4.326   5.886   3.618  0.00  0.00     0.418 HD
ENDBRANCH   4   7
TORSDOF 1
ENDMDL
