MODEL 1
REMARK minimizedAffinity 14.1962175
REMARK minimizedRMSD -1
REMARK  1 active torsions:
REMARK  status: ('A' for Active; 'I' for Inactive)
REMARK    1  A    between atoms: C3_4  and  O_7 
ROOT
ATOM      1  C   UNL d   1       3.368  -1.874  -5.993  0.00  0.00    -0.033 A 
ATOM      2  C1  UNL d   1       2.325  -0.946  -5.984  0.00  0.00     0.039 A 
ATOM      3  C2  UNL d   1       0.999  -1.384  -5.982  0.00  0.00    -0.080 A 
ATOM      4  C3  UNL d   1       0.731  -2.750  -5.987  0.00  0.00     0.150 A 
ATOM      5  C4  UNL d   1       1.765  -3.680  -5.991  0.00  0.00    -0.007 A 
ATOM      6  C5  UNL d   1       3.089  -3.241  -5.995  0.00  0.00     0.039 A 
ENDROOT
BRANCH   4   7
ATOM      7  O   UNL d   1      -0.547  -3.225  -5.989  0.00  0.00    -0.526 OA
ATOM      8  H5  UNL d   1      -1.157  -2.469  -6.015  0.00  0.00     0.418 HD
ENDBRANCH   4   7
TORSDOF 1
ENDMDL
