MODEL 1
REMARK minimizedAffinity 12.8674116
REMARK minimizedRMSD -1
REMARK  1 active torsions:
REMARK  status: ('A' for Active; 'I' for Inactive)
REMARK    1  A    between atoms: C3_4  and  O_7 
ROOT
ATOM      1  C   UNL d   1       0.262   2.471   0.337  0.00  0.00    -0.033 A 
ATOM      2  C1  UNL d   1       1.040   3.154  -0.599  0.00  0.00     0.039 A 
ATOM      3  C2  UNL d   1       0.531   3.418  -1.873  0.00  0.00    -0.080 A 
ATOM      4  C3  UNL d   1      -0.755   2.996  -2.196  0.00  0.00     0.150 A 
ATOM      5  C4  UNL d   1      -1.538   2.318  -1.266  0.00  0.00    -0.007 A 
ATOM      6  C5  UNL d   1      -1.028   2.054   0.004  0.00  0.00     0.039 A 
ENDROOT
BRANCH   4   7
ATOM      7  O   UNL d   1      -1.293   3.227  -3.427  0.00  0.00    -0.526 OA
ATOM      8  H5  UNL d   1      -0.628   3.678  -3.973  0.00  0.00     0.418 HD
ENDBRANCH   4   7
TORSDOF 1
ENDMDL
