MODEL 1
REMARK minimizedAffinity 12.6335068
REMARK minimizedRMSD -1
REMARK  1 active torsions:
REMARK  status: ('A' for Active; 'I' for Inactive)
REMARK    1  A    between atoms: C3_4  and  O_7 
ROOT
ATOM      1  C   UNL d   1      -4.118   5.303   2.563  0.00  0.00    -0.033 A 
ATOM      2  C1  UNL d   1      -5.400   5.847   2.458  0.00  0.00     0.039 A 
ATOM      3  C2  UNL d   1      -5.995   5.998   1.204  0.00  0.00    -0.080 A 
ATOM      4  C3  UNL d   1      -5.301   5.599   0.066  0.00  0.00     0.150 A 
ATOM      5  C4  UNL d   1      -4.025   5.052   0.163  0.00  0.00    -0.007 A 
ATOM      6  C5  UNL d   1      -3.432   4.904   1.416  0.00  0.00     0.039 A 
ENDROOT
BRANCH   4   7
ATOM      7  O   UNL d   1      -5.839   5.731  -1.180  0.00  0.00    -0.526 OA
ATOM      8  H5  UNL d   1      -6.712   6.149  -1.095  0.00  0.00     0.418 HD
ENDBRANCH   4   7
TORSDOF 1
ENDMDL
