MODEL 1
REMARK minimizedAffinity 15.5839272
REMARK minimizedRMSD -1
REMARK  1 active torsions:
REMARK  status: ('A' for Active; 'I' for Inactive)
REMARK    1  A    between atoms: C3_4  and  O_7 
ROOT
ATOM      1  C   UNL d   1       2.123  -1.972   1.702  0.00  0.00    -0.033 A 
ATOM      2  C1  UNL d   1       2.348  -1.435   0.433  0.00  0.00     0.039 A 
ATOM      3  C2  UNL d   1       1.968  -2.147  -0.706  0.00  0.00    -0.080 A 
ATOM      4  C3  UNL d   1       1.364  -3.394  -0.562  0.00  0.00     0.150 A 
ATOM      5  C4  UNL d   1       1.133  -3.933   0.699  0.00  0.00    -0.007 A 
ATOM      6  C5  UNL d   1       1.514  -3.220   1.835  0.00  0.00     0.039 A 
ENDROOT
BRANCH   4   7
ATOM      7  O   UNL d   1       0.980  -4.128  -1.644  0.00  0.00    -0.526 OA
ATOM      8  H5  UNL d   1       1.228  -3.643  -2.449  0.00  0.00     0.418 HD
ENDBRANCH   4   7
TORSDOF 1
ENDMDL
