MODEL 1
REMARK minimizedAffinity 10.5325403
REMARK minimizedRMSD -1
REMARK  1 active torsions:
REMARK  status: ('A' for Active; 'I' for Inactive)
REMARK    1  A    between atoms: C3_4  and  O_7 
ROOT
ATOM      1  C   UNL d   1      -1.747   2.518  -1.315  0.00  0.00    -0.033 A 
ATOM      2  C1  UNL d   1      -0.720   2.526  -0.369  0.00  0.00     0.039 A 
ATOM      3  C2  UNL d   1       0.523   3.075  -0.689  0.00  0.00    -0.080 A 
ATOM      4  C3  UNL d   1       0.726   3.612  -1.957  0.00  0.00     0.150 A 
ATOM      5  C4  UNL d   1      -0.293   3.611  -2.904  0.00  0.00    -0.007 A 
ATOM      6  C5  UNL d   1      -1.533   3.062  -2.582  0.00  0.00     0.039 A 
ENDROOT
BRANCH   4   7
ATOM      7  O   UNL d   1       1.924   4.155  -2.317  0.00  0.00    -0.526 OA
ATOM      8  H5  UNL d   1       2.541   4.060  -1.573  0.00  0.00     0.418 HD
ENDBRANCH   4   7
TORSDOF 1
ENDMDL
