MODEL 1
REMARK minimizedAffinity 8.43427944
REMARK minimizedRMSD -1
REMARK  1 active torsions:
REMARK  status: ('A' for Active; 'I' for Inactive)
REMARK    1  A    between atoms: C3_4  and  O_7 
ROOT
ATOM      1  C   UNL d   1      -4.450   5.987  -0.421  0.00  0.00    -0.033 A 
ATOM      2  C1  UNL d   1      -3.379   5.998   0.474  0.00  0.00     0.039 A 
ATOM      3  C2  UNL d   1      -3.616   5.997   1.850  0.00  0.00    -0.080 A 
ATOM      4  C3  UNL d   1      -4.928   5.984   2.317  0.00  0.00     0.150 A 
ATOM      5  C4  UNL d   1      -6.000   5.970   1.430  0.00  0.00    -0.007 A 
ATOM      6  C5  UNL d   1      -5.761   5.972   0.057  0.00  0.00     0.039 A 
ENDROOT
BRANCH   4   7
ATOM      7  O   UNL d   1      -5.210   5.987   3.650  0.00  0.00    -0.526 OA
ATOM      8  H5  UNL d   1      -4.372   6.027   4.142  0.00  0.00     0.418 HD
ENDBRANCH   4   7
TORSDOF 1
ENDMDL
