MODEL 1
REMARK minimizedAffinity 10.1878252
REMARK minimizedRMSD -1
REMARK  1 active torsions:
REMARK  status: ('A' for Active; 'I' for Inactive)
REMARK    1  A    between atoms: C3_4  and  O_7 
ROOT
ATOM      1  C   UNL d   1       1.506  -4.148  -4.363  0.00  0.00    -0.033 A 
ATOM      2  C1  UNL d   1       2.410  -3.244  -3.801  0.00  0.00     0.039 A 
ATOM      3  C2  UNL d   1       2.543  -1.962  -4.339  0.00  0.00    -0.080 A 
ATOM      4  C3  UNL d   1       1.766  -1.597  -5.435  0.00  0.00     0.150 A 
ATOM      5  C4  UNL d   1       0.861  -2.491  -5.997  0.00  0.00    -0.007 A 
ATOM      6  C5  UNL d   1       0.731  -3.771  -5.460  0.00  0.00     0.039 A 
ENDROOT
BRANCH   4   7
ATOM      7  O   UNL d   1       1.865  -0.358  -5.997  0.00  0.00    -0.526 OA
ATOM      8  H5  UNL d   1       2.550   0.141  -5.523  0.00  0.00     0.418 HD
ENDBRANCH   4   7
TORSDOF 1
ENDMDL
