MODEL 1
REMARK minimizedAffinity 6.66547537
REMARK minimizedRMSD -1
REMARK  1 active torsions:
REMARK  status: ('A' for Active; 'I' for Inactive)
REMARK    1  A    between atoms: C3_4  and  O_7 
ROOT
ATOM      1  C   UNL d   1      -3.885   6.000   1.928  0.00  0.00    -0.033 A 
ATOM      2  C1  UNL d   1      -3.182   5.896   0.727  0.00  0.00     0.039 A 
ATOM      3  C2  UNL d   1      -3.873   5.786  -0.481  0.00  0.00    -0.080 A 
ATOM      4  C3  UNL d   1      -5.265   5.784  -0.474  0.00  0.00     0.150 A 
ATOM      5  C4  UNL d   1      -5.972   5.892   0.719  0.00  0.00    -0.007 A 
ATOM      6  C5  UNL d   1      -5.280   6.000   1.924  0.00  0.00     0.039 A 
ENDROOT
BRANCH   4   7
ATOM      7  O   UNL d   1      -5.984   5.675  -1.628  0.00  0.00    -0.526 OA
ATOM      8  H5  UNL d   1      -5.363   5.579  -2.369  0.00  0.00     0.418 HD
ENDBRANCH   4   7
TORSDOF 1
ENDMDL
