MODEL 1
REMARK minimizedAffinity 10.7374554
REMARK minimizedRMSD -1
REMARK  1 active torsions:
REMARK  status: ('A' for Active; 'I' for Inactive)
REMARK    1  A    between atoms: C3_4  and  O_7 
ROOT
ATOM      1  C   UNL d   1      -4.421   5.672  -0.583  0.00  0.00    -0.033 A 
ATOM      2  C1  UNL d   1      -5.687   5.886  -0.034  0.00  0.00     0.039 A 
ATOM      3  C2  UNL d   1      -5.841   5.997   1.349  0.00  0.00    -0.080 A 
ATOM      4  C3  UNL d   1      -4.722   5.894   2.171  0.00  0.00     0.150 A 
ATOM      5  C4  UNL d   1      -3.457   5.686   1.631  0.00  0.00    -0.007 A 
ATOM      6  C5  UNL d   1      -3.306   5.574   0.249  0.00  0.00     0.039 A 
ENDROOT
BRANCH   4   7
ATOM      7  O   UNL d   1      -4.822   5.992   3.527  0.00  0.00    -0.526 OA
ATOM      8  H5  UNL d   1      -5.759   6.107   3.759  0.00  0.00     0.418 HD
ENDBRANCH   4   7
TORSDOF 1
ENDMDL
