MODEL 1
REMARK minimizedAffinity 7.55714321
REMARK minimizedRMSD -1
REMARK  1 active torsions:
REMARK  status: ('A' for Active; 'I' for Inactive)
REMARK    1  A    between atoms: C3_4  and  O_7 
ROOT
ATOM      1  C   UNL d   1      -4.106   5.997   0.413  0.00  0.00    -0.033 A 
ATOM      2  C1  UNL d   1      -3.237   5.997   1.506  0.00  0.00     0.039 A 
ATOM      3  C2  UNL d   1      -3.748   5.997   2.806  0.00  0.00    -0.080 A 
ATOM      4  C3  UNL d   1      -5.126   5.995   2.999  0.00  0.00     0.150 A 
ATOM      5  C4  UNL d   1      -5.998   5.991   1.914  0.00  0.00    -0.007 A 
ATOM      6  C5  UNL d   1      -5.486   5.992   0.617  0.00  0.00     0.039 A 
ENDROOT
BRANCH   4   7
ATOM      7  O   UNL d   1      -5.671   6.000   4.248  0.00  0.00    -0.526 OA
ATOM      8  H5  UNL d   1      -4.950   6.031   4.898  0.00  0.00     0.418 HD
ENDBRANCH   4   7
TORSDOF 1
ENDMDL
