MODEL 1
REMARK minimizedAffinity 7.63112688
REMARK minimizedRMSD -1
REMARK  1 active torsions:
REMARK  status: ('A' for Active; 'I' for Inactive)
REMARK    1  A    between atoms: C3_4  and  O_7 
ROOT
ATOM      1  C   UNL d   1      -1.206   0.872   2.632  0.00  0.00    -0.033 A 
ATOM      2  C1  UNL d   1      -1.313   0.328   1.351  0.00  0.00     0.039 A 
ATOM      3  C2  UNL d   1      -2.569   0.166   0.762  0.00  0.00    -0.080 A 
ATOM      4  C3  UNL d   1      -3.707   0.552   1.463  0.00  0.00     0.150 A 
ATOM      5  C4  UNL d   1      -3.608   1.098   2.739  0.00  0.00    -0.007 A 
ATOM      6  C5  UNL d   1      -2.353   1.258   3.325  0.00  0.00     0.039 A 
ENDROOT
BRANCH   4   7
ATOM      7  O   UNL d   1      -4.954   0.409   0.932  0.00  0.00    -0.526 OA
ATOM      8  H5  UNL d   1      -4.871  -0.008   0.058  0.00  0.00     0.418 HD
ENDBRANCH   4   7
TORSDOF 1
ENDMDL
