MODEL 1
REMARK minimizedAffinity 3.30090189
REMARK minimizedRMSD -1
REMARK  0 active torsions:
REMARK  status: ('A' for Active; 'I' for Inactive)
ROOT
ATOM      1  C1  BNZ d   1      -0.214  -1.453   3.595  0.00  0.00     0.000 A 
ATOM      2  C2  BNZ d   1      -1.438  -2.060   3.505  0.00  0.00     0.000 A 
ATOM      3  C3  BNZ d   1      -2.512  -1.396   2.981  0.00  0.00     0.000 A 
ATOM      4  C4  BNZ d   1      -2.370  -0.114   2.586  0.00  0.00     0.000 A 
ATOM      5  C5  BNZ d   1      -1.145   0.515   2.679  0.00  0.00     0.000 A 
ATOM      6  C6  BNZ d   1      -0.057  -0.169   3.171  0.00  0.00     0.000 A 
ENDROOT
TORSDOF 0
ENDMDL
