MODEL 1
REMARK minimizedAffinity 5.15472507
REMARK minimizedRMSD -1
REMARK  0 active torsions:
REMARK  status: ('A' for Active; 'I' for Inactive)
ROOT
ATOM      1  C1  BNZ d   1       3.582   3.383   0.803  0.00  0.00     0.000 A 
ATOM      2  C2  BNZ d   1       3.828   2.304   1.610  0.00  0.00     0.000 A 
ATOM      3  C3  BNZ d   1       4.052   2.468   2.948  0.00  0.00     0.000 A 
ATOM      4  C4  BNZ d   1       4.071   3.711   3.470  0.00  0.00     0.000 A 
ATOM      5  C5  BNZ d   1       3.835   4.810   2.668  0.00  0.00     0.000 A 
ATOM      6  C6  BNZ d   1       3.571   4.638   1.328  0.00  0.00     0.000 A 
ENDROOT
TORSDOF 0
ENDMDL
