MODEL 1
REMARK minimizedAffinity 5.94760895
REMARK minimizedRMSD -1
REMARK  0 active torsions:
REMARK  status: ('A' for Active; 'I' for Inactive)
ROOT
ATOM      1  C1  BNZ d   1       0.380  -2.258  -5.998  0.00  0.00     0.000 A 
ATOM      2  C2  BNZ d   1       0.382  -0.888  -6.000  0.00  0.00     0.000 A 
ATOM      3  C3  BNZ d   1       1.501  -0.190  -5.640  0.00  0.00     0.000 A 
ATOM      4  C4  BNZ d   1       2.601  -0.860  -5.242  0.00  0.00     0.000 A 
ATOM      5  C5  BNZ d   1       2.612  -2.241  -5.225  0.00  0.00     0.000 A 
ATOM      6  C6  BNZ d   1       1.497  -2.941  -5.625  0.00  0.00     0.000 A 
ENDROOT
TORSDOF 0
ENDMDL
