MODEL 1
REMARK minimizedAffinity 4.43246412
REMARK minimizedRMSD -1
REMARK  0 active torsions:
REMARK  status: ('A' for Active; 'I' for Inactive)
ROOT
ATOM      1  C1  BNZ d   1       4.876   3.903   4.903  0.00  0.00     0.000 A 
ATOM      2  C2  BNZ d   1       6.000   3.193   4.574  0.00  0.00     0.000 A 
ATOM      3  C3  BNZ d   1       5.997   1.826   4.601  0.00  0.00     0.000 A 
ATOM      4  C4  BNZ d   1       4.884   1.174   4.993  0.00  0.00     0.000 A 
ATOM      5  C5  BNZ d   1       3.745   1.876   5.336  0.00  0.00     0.000 A 
ATOM      6  C6  BNZ d   1       3.741   3.250   5.271  0.00  0.00     0.000 A 
ENDROOT
TORSDOF 0
ENDMDL
