MODEL 1
REMARK minimizedAffinity 1.89260423
REMARK minimizedRMSD -1
REMARK  0 active torsions:
REMARK  status: ('A' for Active; 'I' for Inactive)
ROOT
ATOM      1  C1  BNZ d   1       4.885   6.000   3.389  0.00  0.00     0.000 A 
ATOM      2  C2  BNZ d   1       4.492   5.999   2.077  0.00  0.00     0.000 A 
ATOM      3  C3  BNZ d   1       4.093   4.843   1.466  0.00  0.00     0.000 A 
ATOM      4  C4  BNZ d   1       4.124   3.684   2.155  0.00  0.00     0.000 A 
ATOM      5  C5  BNZ d   1       4.526   3.667   3.476  0.00  0.00     0.000 A 
ATOM      6  C6  BNZ d   1       4.890   4.839   4.099  0.00  0.00     0.000 A 
ENDROOT
TORSDOF 0
ENDMDL
