MODEL 1
REMARK minimizedAffinity 3.8373003
REMARK minimizedRMSD -1
REMARK  0 active torsions:
REMARK  status: ('A' for Active; 'I' for Inactive)
ROOT
ATOM      1  C1  BNZ d   1       4.349   4.461   5.683  0.00  0.00     0.000 A 
ATOM      2  C2  BNZ d   1       5.638   4.464   5.220  0.00  0.00     0.000 A 
ATOM      3  C3  BNZ d   1       5.999   5.250   4.162  0.00  0.00     0.000 A 
ATOM      4  C4  BNZ d   1       5.065   6.000   3.543  0.00  0.00     0.000 A 
ATOM      5  C5  BNZ d   1       3.759   6.000   3.992  0.00  0.00     0.000 A 
ATOM      6  C6  BNZ d   1       3.407   5.237   5.082  0.00  0.00     0.000 A 
ENDROOT
TORSDOF 0
ENDMDL
