MODEL 1
REMARK minimizedAffinity 2.2458055
REMARK minimizedRMSD -1
REMARK  0 active torsions:
REMARK  status: ('A' for Active; 'I' for Inactive)
ROOT
ATOM      1  C1  BNZ d   1       1.170  -1.130   3.623  0.00  0.00     0.000 A 
ATOM      2  C2  BNZ d   1       0.233  -0.885   2.655  0.00  0.00     0.000 A 
ATOM      3  C3  BNZ d   1      -0.342   0.349   2.533  0.00  0.00     0.000 A 
ATOM      4  C4  BNZ d   1      -0.009   1.325   3.403  0.00  0.00     0.000 A 
ATOM      5  C5  BNZ d   1       0.928   1.091   4.390  0.00  0.00     0.000 A 
ATOM      6  C6  BNZ d   1       1.533  -0.141   4.485  0.00  0.00     0.000 A 
ENDROOT
TORSDOF 0
ENDMDL
