MODEL 1
REMARK minimizedAffinity 9.10015202
REMARK minimizedRMSD -1
REMARK  0 active torsions:
REMARK  status: ('A' for Active; 'I' for Inactive)
ROOT
ATOM      1  C1  BNZ d   1       1.347   0.130   3.656  0.00  0.00     0.000 A 
ATOM      2  C2  BNZ d   1       0.373   0.724   2.899  0.00  0.00     0.000 A 
ATOM      3  C3  BNZ d   1      -0.424  -0.020   2.075  0.00  0.00     0.000 A 
ATOM      4  C4  BNZ d   1      -0.221  -1.349   1.979  0.00  0.00     0.000 A 
ATOM      5  C5  BNZ d   1       0.764  -1.962   2.729  0.00  0.00     0.000 A 
ATOM      6  C6  BNZ d   1       1.539  -1.216   3.586  0.00  0.00     0.000 A 
ENDROOT
TORSDOF 0
ENDMDL
