MODEL 1
REMARK minimizedAffinity -5.79888201
REMARK minimizedRMSD -1
REMARK  1 active torsions:
REMARK  status: ('A' for Active; 'I' for Inactive)
REMARK    1  A    between atoms: C1_2  and  C2_3 
ROOT
ATOM      1  C2  UNL d   1      -0.012   0.706   0.884  0.00  0.00    -0.077 A 
ATOM      2  C3  UNL d   1      -1.043  -0.226   1.065  0.00  0.00     0.002 A 
ATOM      3  C4  UNL d   1      -2.141   0.082   1.870  0.00  0.00     0.002 A 
ATOM      4  C5  UNL d   1      -2.220   1.324   2.497  0.00  0.00    -0.004 A 
ATOM      5  C6  UNL d   1      -1.199   2.257   2.326  0.00  0.00     0.002 A 
ATOM      6  C7  UNL d   1      -0.100   1.950   1.522  0.00  0.00     0.002 A 
ENDROOT
BRANCH   1   7
ATOM      7  C1  UNL d   1       1.150   0.394  -0.023  0.00  0.00     0.055 C 
ATOM      8  C   UNL d   1       2.478   0.716   0.646  0.00  0.00     0.019 C 
ENDBRANCH   1   7
TORSDOF 1
ENDMDL
