MODEL 1
REMARK minimizedAffinity -5.57152987
REMARK minimizedRMSD -1
REMARK  1 active torsions:
REMARK  status: ('A' for Active; 'I' for Inactive)
REMARK    1  A    between atoms: C1_2  and  C2_3 
ROOT
ATOM      1  C2  UNL d   1      -0.882   1.111   1.949  0.00  0.00    -0.077 A 
ATOM      2  C3  UNL d   1      -1.138   2.404   2.426  0.00  0.00     0.002 A 
ATOM      3  C4  UNL d   1      -2.344   2.695   3.067  0.00  0.00     0.002 A 
ATOM      4  C5  UNL d   1      -3.301   1.697   3.240  0.00  0.00    -0.004 A 
ATOM      5  C6  UNL d   1      -3.057   0.409   2.767  0.00  0.00     0.002 A 
ATOM      6  C7  UNL d   1      -1.853   0.116   2.125  0.00  0.00     0.002 A 
ENDROOT
BRANCH   1   7
ATOM      7  C1  UNL d   1       0.438   0.783   1.301  0.00  0.00     0.055 C 
ATOM      8  C   UNL d   1       1.087  -0.430   1.950  0.00  0.00     0.019 C 
ENDBRANCH   1   7
TORSDOF 1
ENDMDL
