MODEL 1
REMARK minimizedAffinity 0.223774284
REMARK minimizedRMSD -1
REMARK  1 active torsions:
REMARK  status: ('A' for Active; 'I' for Inactive)
REMARK    1  A    between atoms: C1_2  and  C2_3 
ROOT
ATOM      1  C2  UNL d   1      -2.660   1.389   2.367  0.00  0.00    -0.077 A 
ATOM      2  C3  UNL d   1      -2.044   0.139   2.209  0.00  0.00     0.002 A 
ATOM      3  C4  UNL d   1      -0.726   0.054   1.755  0.00  0.00     0.002 A 
ATOM      4  C5  UNL d   1      -0.014   1.214   1.458  0.00  0.00    -0.004 A 
ATOM      5  C6  UNL d   1      -0.618   2.461   1.610  0.00  0.00     0.002 A 
ATOM      6  C7  UNL d   1      -1.935   2.548   2.063  0.00  0.00     0.002 A 
ENDROOT
BRANCH   1   7
ATOM      7  C1  UNL d   1      -4.064   1.485   2.904  0.00  0.00     0.055 C 
ATOM      8  C   UNL d   1      -4.069   1.891   4.371  0.00  0.00     0.019 C 
ENDBRANCH   1   7
TORSDOF 1
ENDMDL
