MODEL 1
REMARK minimizedAffinity -0.231150448
REMARK minimizedRMSD -1
REMARK  1 active torsions:
REMARK  status: ('A' for Active; 'I' for Inactive)
REMARK    1  A    between atoms: C1_2  and  C2_3 
ROOT
ATOM      1  C2  UNL d   1      -1.879   1.485   2.577  0.00  0.00    -0.077 A 
ATOM      2  C3  UNL d   1      -1.885   0.090   2.431  0.00  0.00     0.002 A 
ATOM      3  C4  UNL d   1      -0.876  -0.549   1.708  0.00  0.00     0.002 A 
ATOM      4  C5  UNL d   1       0.148   0.198   1.129  0.00  0.00    -0.004 A 
ATOM      5  C6  UNL d   1       0.162   1.585   1.267  0.00  0.00     0.002 A 
ATOM      6  C7  UNL d   1      -0.846   2.226   1.988  0.00  0.00     0.002 A 
ENDROOT
BRANCH   1   7
ATOM      7  C1  UNL d   1      -2.939   2.171   3.398  0.00  0.00     0.055 C 
ATOM      8  C   UNL d   1      -3.856   1.162   4.074  0.00  0.00     0.019 C 
ENDBRANCH   1   7
TORSDOF 1
ENDMDL
