MODEL 1
REMARK minimizedAffinity -4.18438816
REMARK minimizedRMSD -1
REMARK  1 active torsions:
REMARK  status: ('A' for Active; 'I' for Inactive)
REMARK    1  A    between atoms: C1_2  and  C2_3 
ROOT
ATOM      1  C2  UNL d   1      -1.431   1.438   2.087  0.00  0.00    -0.077 A 
ATOM      2  C3  UNL d   1      -1.683   0.068   2.240  0.00  0.00     0.002 A 
ATOM      3  C4  UNL d   1      -0.802  -0.876   1.708  0.00  0.00     0.002 A 
ATOM      4  C5  UNL d   1       0.338  -0.460   1.024  0.00  0.00    -0.004 A 
ATOM      5  C6  UNL d   1       0.596   0.901   0.865  0.00  0.00     0.002 A 
ATOM      6  C7  UNL d   1      -0.284   1.846   1.395  0.00  0.00     0.002 A 
ENDROOT
BRANCH   1   7
ATOM      7  C1  UNL d   1      -2.354   2.457   2.703  0.00  0.00     0.055 C 
ATOM      8  C   UNL d   1      -3.355   1.801   3.643  0.00  0.00     0.019 C 
ENDBRANCH   1   7
TORSDOF 1
ENDMDL
