MODEL 1
REMARK minimizedAffinity -2.87369967
REMARK minimizedRMSD -1
REMARK  1 active torsions:
REMARK  status: ('A' for Active; 'I' for Inactive)
REMARK    1  A    between atoms: C1_2  and  C2_3 
ROOT
ATOM      1  C2  UNL d   1      -1.784  -0.220   2.071  0.00  0.00    -0.077 A 
ATOM      2  C3  UNL d   1      -0.587  -0.722   1.543  0.00  0.00     0.002 A 
ATOM      3  C4  UNL d   1       0.428   0.148   1.141  0.00  0.00     0.002 A 
ATOM      4  C5  UNL d   1       0.257   1.525   1.266  0.00  0.00    -0.004 A 
ATOM      5  C6  UNL d   1      -0.931   2.035   1.788  0.00  0.00     0.002 A 
ATOM      6  C7  UNL d   1      -1.947   1.167   2.189  0.00  0.00     0.002 A 
ENDROOT
BRANCH   1   7
ATOM      7  C1  UNL d   1      -2.860  -1.158   2.551  0.00  0.00     0.055 C 
ATOM      8  C   UNL d   1      -2.333  -2.105   3.620  0.00  0.00     0.019 C 
ENDBRANCH   1   7
TORSDOF 1
ENDMDL
