MODEL 1
REMARK minimizedAffinity -4.45511436
REMARK minimizedRMSD -1
REMARK  1 active torsions:
REMARK  status: ('A' for Active; 'I' for Inactive)
REMARK    1  A    between atoms: C1_2  and  C2_3 
ROOT
ATOM      1  C2  UNL d   1      -1.919   0.945   2.061  0.00  0.00    -0.077 A 
ATOM      2  C3  UNL d   1      -1.203  -0.036   1.362  0.00  0.00     0.002 A 
ATOM      3  C4  UNL d   1       0.108   0.208   0.947  0.00  0.00     0.002 A 
ATOM      4  C5  UNL d   1       0.714   1.430   1.230  0.00  0.00    -0.004 A 
ATOM      5  C6  UNL d   1       0.009   2.413   1.923  0.00  0.00     0.002 A 
ATOM      6  C7  UNL d   1      -1.301   2.172   2.337  0.00  0.00     0.002 A 
ENDROOT
BRANCH   1   7
ATOM      7  C1  UNL d   1      -3.316   0.666   2.553  0.00  0.00     0.055 C 
ATOM      8  C   UNL d   1      -3.644   1.494   3.787  0.00  0.00     0.019 C 
ENDBRANCH   1   7
TORSDOF 1
ENDMDL
