MODEL 1
REMARK minimizedAffinity 0.352758229
REMARK minimizedRMSD -1
REMARK  1 active torsions:
REMARK  status: ('A' for Active; 'I' for Inactive)
REMARK    1  A    between atoms: C1_2  and  C2_3 
ROOT
ATOM      1  C2  UNL d   1      -1.766   1.566   2.688  0.00  0.00    -0.077 A 
ATOM      2  C3  UNL d   1      -1.593   0.177   2.771  0.00  0.00     0.002 A 
ATOM      3  C4  UNL d   1      -0.709  -0.477   1.910  0.00  0.00     0.002 A 
ATOM      4  C5  UNL d   1       0.010   0.250   0.963  0.00  0.00    -0.004 A 
ATOM      5  C6  UNL d   1      -0.157   1.631   0.872  0.00  0.00     0.002 A 
ATOM      6  C7  UNL d   1      -1.040   2.286   1.730  0.00  0.00     0.002 A 
ENDROOT
BRANCH   1   7
ATOM      7  C1  UNL d   1      -2.682   2.280   3.648  0.00  0.00     0.055 C 
ATOM      8  C   UNL d   1      -3.819   1.377   4.103  0.00  0.00     0.019 C 
ENDBRANCH   1   7
TORSDOF 1
ENDMDL
