MODEL 1
REMARK minimizedAffinity -1.21519518
REMARK minimizedRMSD -1
REMARK  1 active torsions:
REMARK  status: ('A' for Active; 'I' for Inactive)
REMARK    1  A    between atoms: C1_2  and  C2_3 
ROOT
ATOM      1  C2  UNL d   1      -2.926   1.832   2.902  0.00  0.00    -0.077 A 
ATOM      2  C3  UNL d   1      -1.858   2.624   2.458  0.00  0.00     0.002 A 
ATOM      3  C4  UNL d   1      -0.767   2.041   1.811  0.00  0.00     0.002 A 
ATOM      4  C5  UNL d   1      -0.736   0.664   1.598  0.00  0.00    -0.004 A 
ATOM      5  C6  UNL d   1      -1.792  -0.133   2.037  0.00  0.00     0.002 A 
ATOM      6  C7  UNL d   1      -2.883   0.449   2.685  0.00  0.00     0.002 A 
ENDROOT
BRANCH   1   7
ATOM      7  C1  UNL d   1      -4.126   2.466   3.556  0.00  0.00     0.055 C 
ATOM      8  C   UNL d   1      -4.120   2.240   5.061  0.00  0.00     0.019 C 
ENDBRANCH   1   7
TORSDOF 1
ENDMDL
