MODEL 1
REMARK minimizedAffinity -5.91825104
REMARK minimizedRMSD -1
REMARK  1 active torsions:
REMARK  status: ('A' for Active; 'I' for Inactive)
REMARK    1  A    between atoms: C1_2  and  C2_3 
ROOT
ATOM      1  C2  UNL d   1      -1.321   1.866   1.914  0.00  0.00    -0.077 A 
ATOM      2  C3  UNL d   1      -0.203   2.304   1.191  0.00  0.00     0.002 A 
ATOM      3  C4  UNL d   1       0.611   1.387   0.523  0.00  0.00     0.002 A 
ATOM      4  C5  UNL d   1       0.313   0.027   0.568  0.00  0.00    -0.004 A 
ATOM      5  C6  UNL d   1      -0.796  -0.420   1.286  0.00  0.00     0.002 A 
ATOM      6  C7  UNL d   1      -1.610   0.496   1.955  0.00  0.00     0.002 A 
ENDROOT
BRANCH   1   7
ATOM      7  C1  UNL d   1      -2.228   2.858   2.593  0.00  0.00     0.055 C 
ATOM      8  C   UNL d   1      -3.159   2.170   3.581  0.00  0.00     0.019 C 
ENDBRANCH   1   7
TORSDOF 1
ENDMDL
