MODEL 1
REMARK minimizedAffinity -2.39343548
REMARK minimizedRMSD -1
REMARK  1 active torsions:
REMARK  status: ('A' for Active; 'I' for Inactive)
REMARK    1  A    between atoms: C1_2  and  C2_3 
ROOT
ATOM      1  C2  UNL d   1      -1.418   1.741   2.161  0.00  0.00    -0.077 A 
ATOM      2  C3  UNL d   1      -1.591   0.355   2.037  0.00  0.00     0.002 A 
ATOM      3  C4  UNL d   1      -0.580  -0.436   1.487  0.00  0.00     0.002 A 
ATOM      4  C5  UNL d   1       0.611   0.149   1.062  0.00  0.00    -0.004 A 
ATOM      5  C6  UNL d   1       0.791   1.526   1.179  0.00  0.00     0.002 A 
ATOM      6  C7  UNL d   1      -0.218   2.319   1.727  0.00  0.00     0.002 A 
ENDROOT
BRANCH   1   7
ATOM      7  C1  UNL d   1      -2.487   2.589   2.799  0.00  0.00     0.055 C 
ATOM      8  C   UNL d   1      -3.469   1.739   3.592  0.00  0.00     0.019 C 
ENDBRANCH   1   7
TORSDOF 1
ENDMDL
