MODEL 1
REMARK minimizedAffinity 3.33096242
REMARK minimizedRMSD -1
REMARK  1 active torsions:
REMARK  status: ('A' for Active; 'I' for Inactive)
REMARK    1  A    between atoms: C1_2  and  C2_3 
ROOT
ATOM      1  C2  UNL d   1      -0.026   2.365   0.916  0.00  0.00    -0.077 A 
ATOM      2  C3  UNL d   1      -0.844   3.456   1.243  0.00  0.00     0.002 A 
ATOM      3  C4  UNL d   1      -1.927   3.292   2.109  0.00  0.00     0.002 A 
ATOM      4  C5  UNL d   1      -2.199   2.041   2.658  0.00  0.00    -0.004 A 
ATOM      5  C6  UNL d   1      -1.393   0.949   2.338  0.00  0.00     0.002 A 
ATOM      6  C7  UNL d   1      -0.311   1.111   1.471  0.00  0.00     0.002 A 
ENDROOT
BRANCH   1   7
ATOM      7  C1  UNL d   1       1.171   2.549   0.020  0.00  0.00     0.055 C 
ATOM      8  C   UNL d   1       1.948   3.805   0.387  0.00  0.00     0.019 C 
ENDBRANCH   1   7
TORSDOF 1
ENDMDL
