MODEL 1
REMARK minimizedAffinity -1.04022002
REMARK minimizedRMSD -1
REMARK  1 active torsions:
REMARK  status: ('A' for Active; 'I' for Inactive)
REMARK    1  A    between atoms: C1_2  and  C2_3 
ROOT
ATOM      1  C2  UNL d   1      -0.610   1.353   2.452  0.00  0.00    -0.077 A 
ATOM      2  C3  UNL d   1       0.655   1.548   1.880  0.00  0.00     0.002 A 
ATOM      3  C4  UNL d   1       1.119   0.690   0.881  0.00  0.00     0.002 A 
ATOM      4  C5  UNL d   1       0.323  -0.366   0.442  0.00  0.00    -0.004 A 
ATOM      5  C6  UNL d   1      -0.936  -0.570   1.006  0.00  0.00     0.002 A 
ATOM      6  C7  UNL d   1      -1.401   0.286   2.005  0.00  0.00     0.002 A 
ENDROOT
BRANCH   1   7
ATOM      7  C1  UNL d   1      -1.132   2.306   3.494  0.00  0.00     0.055 C 
ATOM      8  C   UNL d   1      -2.643   2.195   3.639  0.00  0.00     0.019 C 
ENDBRANCH   1   7
TORSDOF 1
ENDMDL
