MODEL 1
REMARK minimizedAffinity 1.07359362
REMARK minimizedRMSD -1
REMARK  1 active torsions:
REMARK  status: ('A' for Active; 'I' for Inactive)
REMARK    1  A    between atoms: C1_2  and  C2_3 
ROOT
ATOM      1  C2  UNL d   1       1.728   0.377   0.621  0.00  0.00    -0.077 A 
ATOM      2  C3  UNL d   1       1.043  -0.421   1.548  0.00  0.00     0.002 A 
ATOM      3  C4  UNL d   1      -0.053   0.091   2.246  0.00  0.00     0.002 A 
ATOM      4  C5  UNL d   1      -0.475   1.400   2.021  0.00  0.00    -0.004 A 
ATOM      5  C6  UNL d   1       0.202   2.202   1.103  0.00  0.00     0.002 A 
ATOM      6  C7  UNL d   1       1.298   1.692   0.405  0.00  0.00     0.002 A 
ENDROOT
BRANCH   1   7
ATOM      7  C1  UNL d   1       2.880  -0.189  -0.169  0.00  0.00     0.055 C 
ATOM      8  C   UNL d   1       3.067   0.554  -1.484  0.00  0.00     0.019 C 
ENDBRANCH   1   7
TORSDOF 1
ENDMDL
