MODEL 1
REMARK minimizedAffinity -3.84315801
REMARK minimizedRMSD -1
REMARK  1 active torsions:
REMARK  status: ('A' for Active; 'I' for Inactive)
REMARK    1  A    between atoms: C1_2  and  C2_3 
ROOT
ATOM      1  C2  UNL d   1      -1.778   1.761   2.438  0.00  0.00    -0.077 A 
ATOM      2  C3  UNL d   1      -1.907   0.387   2.195  0.00  0.00     0.002 A 
ATOM      3  C4  UNL d   1      -0.974  -0.280   1.399  0.00  0.00     0.002 A 
ATOM      4  C5  UNL d   1       0.096   0.418   0.843  0.00  0.00    -0.004 A 
ATOM      5  C6  UNL d   1       0.233   1.785   1.078  0.00  0.00     0.002 A 
ATOM      6  C7  UNL d   1      -0.700   2.454   1.873  0.00  0.00     0.002 A 
ENDROOT
BRANCH   1   7
ATOM      7  C1  UNL d   1      -2.755   2.473   3.337  0.00  0.00     0.055 C 
ATOM      8  C   UNL d   1      -3.954   1.592   3.658  0.00  0.00     0.019 C 
ENDBRANCH   1   7
TORSDOF 1
ENDMDL
