MODEL 1
REMARK minimizedAffinity 0.303205252
REMARK minimizedRMSD -1
REMARK  0 active torsions:
REMARK  status: ('A' for Active; 'I' for Inactive)
ROOT
ATOM      1  C   UNL d   1       2.538   0.090   2.078  0.00  0.00     0.172 C 
ATOM      2  N   UNL d   1       2.060  -1.122   2.700  0.00  0.00    -0.070 N 
ATOM      3  C1  UNL d   1       2.404  -2.396   2.334  0.00  0.00    -0.004 A 
ATOM      4  C2  UNL d   1       1.739  -3.269   3.169  0.00  0.00    -0.047 A 
ATOM      5  C3  UNL d   1       0.969  -2.492   4.067  0.00  0.00    -0.047 A 
ATOM      6  C4  UNL d   1       1.186  -1.167   3.754  0.00  0.00    -0.004 A 
ENDROOT
TORSDOF 0
ENDMDL
