MODEL 1
REMARK minimizedAffinity -0.365047783
REMARK minimizedRMSD -1
REMARK  0 active torsions:
REMARK  status: ('A' for Active; 'I' for Inactive)
ROOT
ATOM      1  C   UNL d   1       2.349  -0.599   2.089  0.00  0.00     0.172 C 
ATOM      2  N   UNL d   1       2.239  -1.779   2.914  0.00  0.00    -0.070 N 
ATOM      3  C1  UNL d   1       1.108  -2.196   3.563  0.00  0.00    -0.004 A 
ATOM      4  C2  UNL d   1       1.413  -3.358   4.239  0.00  0.00    -0.047 A 
ATOM      5  C3  UNL d   1       2.775  -3.648   3.988  0.00  0.00    -0.047 A 
ATOM      6  C4  UNL d   1       3.262  -2.655   3.165  0.00  0.00    -0.004 A 
ENDROOT
TORSDOF 0
ENDMDL
