MODEL 1
REMARK minimizedAffinity 1.21554518
REMARK minimizedRMSD -1
REMARK  0 active torsions:
REMARK  status: ('A' for Active; 'I' for Inactive)
ROOT
ATOM      1  C   UNL d   1       2.243  -5.987  -2.274  0.00  0.00     0.172 C 
ATOM      2  N   UNL d   1       3.496  -5.992  -2.992  0.00  0.00    -0.070 N 
ATOM      3  C1  UNL d   1       3.635  -5.996  -4.354  0.00  0.00    -0.004 A 
ATOM      4  C2  UNL d   1       4.983  -6.000  -4.641  0.00  0.00    -0.047 A 
ATOM      5  C3  UNL d   1       5.678  -5.999  -3.408  0.00  0.00    -0.047 A 
ATOM      6  C4  UNL d   1       4.733  -5.994  -2.404  0.00  0.00    -0.004 A 
ENDROOT
TORSDOF 0
ENDMDL
