MODEL 1
REMARK minimizedAffinity 8.86281967
REMARK minimizedRMSD -1
REMARK  1 active torsions:
REMARK  status: ('A' for Active; 'I' for Inactive)
REMARK    1  A    between atoms: C1_2  and  C2_3 
ROOT
ATOM      1  C2  UNL d   1       0.345  -0.276   1.890  0.00  0.00    -0.073 A 
ATOM      2  C3  UNL d   1      -0.157  -0.636   3.146  0.00  0.00    -0.002 A 
ATOM      3  C4  UNL d   1      -1.527  -0.570   3.403  0.00  0.00     0.004 A 
ATOM      4  C5  UNL d   1      -2.409  -0.151   2.407  0.00  0.00    -0.004 A 
ATOM      5  C6  UNL d   1      -1.928   0.202   1.142  0.00  0.00    -0.075 A 
ATOM      6  C7  UNL d   1      -2.863   0.657   0.060  0.00  0.00     0.076 C 
ATOM      7  C8  UNL d   1      -0.550   0.135   0.892  0.00  0.00     0.001 A 
ENDROOT
BRANCH   1   8
ATOM      8  C1  UNL d   1       1.823  -0.352   1.606  0.00  0.00     0.053 C 
ATOM      9  C   UNL d   1       2.139  -0.051   0.150  0.00  0.00     0.018 C 
ENDBRANCH   1   8
TORSDOF 1
ENDMDL
