MODEL 1
REMARK minimizedAffinity -2.04273534
REMARK minimizedRMSD -1
REMARK  1 active torsions:
REMARK  status: ('A' for Active; 'I' for Inactive)
REMARK    1  A    between atoms: C1_2  and  C2_3 
ROOT
ATOM      1  C2  UNL d   1       2.092   0.089  -1.251  0.00  0.00    -0.073 A 
ATOM      2  C3  UNL d   1       1.411  -1.002  -0.699  0.00  0.00    -0.002 A 
ATOM      3  C4  UNL d   1       0.454  -1.688  -1.447  0.00  0.00     0.004 A 
ATOM      4  C5  UNL d   1       0.172  -1.295  -2.756  0.00  0.00    -0.004 A 
ATOM      5  C6  UNL d   1       0.850  -0.215  -3.329  0.00  0.00    -0.075 A 
ATOM      6  C7  UNL d   1       0.557   0.221  -4.735  0.00  0.00     0.076 C 
ATOM      7  C8  UNL d   1       1.808   0.470  -2.571  0.00  0.00     0.001 A 
ENDROOT
BRANCH   1   8
ATOM      8  C1  UNL d   1       3.131   0.829  -0.450  0.00  0.00     0.053 C 
ATOM      9  C   UNL d   1       2.521   1.570   0.729  0.00  0.00     0.018 C 
ENDBRANCH   1   8
TORSDOF 1
ENDMDL
