MODEL 1
REMARK minimizedAffinity -0.396582782
REMARK minimizedRMSD -1
REMARK  1 active torsions:
REMARK  status: ('A' for Active; 'I' for Inactive)
REMARK    1  A    between atoms: C1_2  and  C2_3 
ROOT
ATOM      1  C2  UNL d   1      -1.742  -0.302   1.766  0.00  0.00    -0.073 A 
ATOM      2  C3  UNL d   1      -2.422  -0.753   0.629  0.00  0.00    -0.002 A 
ATOM      3  C4  UNL d   1      -1.744  -0.919  -0.579  0.00  0.00     0.004 A 
ATOM      4  C5  UNL d   1      -0.379  -0.642  -0.662  0.00  0.00    -0.004 A 
ATOM      5  C6  UNL d   1       0.320  -0.201   0.466  0.00  0.00    -0.075 A 
ATOM      6  C7  UNL d   1       1.788   0.103   0.394  0.00  0.00     0.076 C 
ATOM      7  C8  UNL d   1      -0.369  -0.035   1.675  0.00  0.00     0.001 A 
ENDROOT
BRANCH   1   8
ATOM      8  C1  UNL d   1      -2.469  -0.128   3.074  0.00  0.00     0.053 C 
ATOM      9  C   UNL d   1      -2.169  -1.256   4.047  0.00  0.00     0.018 C 
ENDBRANCH   1   8
TORSDOF 1
ENDMDL
