MODEL 1
REMARK minimizedAffinity -0.0623985864
REMARK minimizedRMSD -1
REMARK  1 active torsions:
REMARK  status: ('A' for Active; 'I' for Inactive)
REMARK    1  A    between atoms: C1_2  and  C2_3 
ROOT
ATOM      1  C2  UNL d   1      -0.461  -0.461   2.506  0.00  0.00    -0.073 A 
ATOM      2  C3  UNL d   1       0.437  -0.912   3.480  0.00  0.00    -0.002 A 
ATOM      3  C4  UNL d   1      -0.030  -1.555   4.626  0.00  0.00     0.004 A 
ATOM      4  C5  UNL d   1      -1.398  -1.760   4.808  0.00  0.00    -0.004 A 
ATOM      5  C6  UNL d   1      -2.311  -1.328   3.840  0.00  0.00    -0.075 A 
ATOM      6  C7  UNL d   1      -3.785  -1.540   4.021  0.00  0.00     0.076 C 
ATOM      7  C8  UNL d   1      -1.833  -0.681   2.692  0.00  0.00     0.001 A 
ENDROOT
BRANCH   1   8
ATOM      8  C1  UNL d   1       0.039   0.228   1.263  0.00  0.00     0.053 C 
ATOM      9  C   UNL d   1       0.221  -0.743   0.106  0.00  0.00     0.018 C 
ENDBRANCH   1   8
TORSDOF 1
ENDMDL
