MODEL 1
REMARK minimizedAffinity 1.32938051
REMARK minimizedRMSD -1
REMARK  0 active torsions:
REMARK  status: ('A' for Active; 'I' for Inactive)
ROOT
ATOM      1  C   UNL d   1       0.040  -1.879   0.811  0.00  0.00    -0.002 A 
ATOM      2  C1  UNL d   1      -0.237  -2.149  -0.522  0.00  0.00     0.010 A 
ATOM      3  C2  UNL d   1      -0.254  -1.122  -1.467  0.00  0.00     0.041 A 
ATOM      4  C3  UNL d   1       0.019   0.195  -1.046  0.00  0.00    -0.075 A 
ATOM      5  S   UNL d   1       0.055   1.613  -2.026  0.00  0.00     0.015 SA
ATOM      6  C4  UNL d   1       0.441   2.611  -0.700  0.00  0.00     0.022 A 
ATOM      7  C5  UNL d   1       0.543   1.896   0.470  0.00  0.00     0.026 A 
ATOM      8  C6  UNL d   1       0.302   0.492   0.290  0.00  0.00    -0.082 A 
ATOM      9  C7  UNL d   1       0.310  -0.572   1.224  0.00  0.00     0.045 A 
ENDROOT
TORSDOF 0
ENDMDL
