MODEL 1
REMARK minimizedAffinity -3.682827
REMARK minimizedRMSD -1
REMARK  0 active torsions:
REMARK  status: ('A' for Active; 'I' for Inactive)
ROOT
ATOM      1  C   UNL d   1      -0.579  -2.619   1.479  0.00  0.00    -0.002 A 
ATOM      2  C1  UNL d   1       0.088  -2.953   0.309  0.00  0.00     0.010 A 
ATOM      3  C2  UNL d   1       0.545  -1.959  -0.557  0.00  0.00     0.041 A 
ATOM      4  C3  UNL d   1       0.321  -0.608  -0.224  0.00  0.00    -0.075 A 
ATOM      5  S   UNL d   1       0.792   0.779  -1.132  0.00  0.00     0.015 SA
ATOM      6  C4  UNL d   1       0.120   1.849   0.012  0.00  0.00     0.022 A 
ATOM      7  C5  UNL d   1      -0.455   1.181   1.067  0.00  0.00     0.026 A 
ATOM      8  C6  UNL d   1      -0.348  -0.246   0.949  0.00  0.00    -0.082 A 
ATOM      9  C7  UNL d   1      -0.800  -1.278   1.806  0.00  0.00     0.045 A 
ENDROOT
TORSDOF 0
ENDMDL
