MODEL 1
REMARK minimizedAffinity -3.14043021
REMARK minimizedRMSD -1
REMARK  0 active torsions:
REMARK  status: ('A' for Active; 'I' for Inactive)
ROOT
ATOM      1  C   UNL d   1       0.197   1.080  -1.674  0.00  0.00    -0.002 A 
ATOM      2  C1  UNL d   1       0.572  -0.056  -2.378  0.00  0.00     0.010 A 
ATOM      3  C2  UNL d   1       0.434  -1.323  -1.807  0.00  0.00     0.041 A 
ATOM      4  C3  UNL d   1      -0.094  -1.430  -0.505  0.00  0.00    -0.075 A 
ATOM      5  S   UNL d   1      -0.355  -2.877   0.395  0.00  0.00     0.015 SA
ATOM      6  C4  UNL d   1      -0.971  -2.022   1.734  0.00  0.00     0.022 A 
ATOM      7  C5  UNL d   1      -0.984  -0.664   1.517  0.00  0.00     0.026 A 
ATOM      8  C6  UNL d   1      -0.479  -0.301   0.223  0.00  0.00    -0.082 A 
ATOM      9  C7  UNL d   1      -0.326   0.969  -0.383  0.00  0.00     0.045 A 
ENDROOT
TORSDOF 0
ENDMDL
