MODEL 1
REMARK minimizedAffinity -1.04961777
REMARK minimizedRMSD -1
REMARK  0 active torsions:
REMARK  status: ('A' for Active; 'I' for Inactive)
ROOT
ATOM      1  C   UNL d   1       0.116  -3.000   0.096  0.00  0.00    -0.002 A 
ATOM      2  C1  UNL d   1      -0.203  -2.298   1.250  0.00  0.00     0.010 A 
ATOM      3  C2  UNL d   1      -0.222  -0.902   1.250  0.00  0.00     0.041 A 
ATOM      4  C3  UNL d   1       0.084  -0.216   0.059  0.00  0.00    -0.075 A 
ATOM      5  S   UNL d   1       0.122   1.491  -0.178  0.00  0.00     0.015 SA
ATOM      6  C4  UNL d   1       0.561   1.329  -1.816  0.00  0.00     0.022 A 
ATOM      7  C5  UNL d   1       0.680   0.012  -2.191  0.00  0.00     0.026 A 
ATOM      8  C6  UNL d   1       0.407  -0.901  -1.117  0.00  0.00    -0.082 A 
ATOM      9  C7  UNL d   1       0.420  -2.316  -1.084  0.00  0.00     0.045 A 
ENDROOT
TORSDOF 0
ENDMDL
