MODEL 1
REMARK minimizedAffinity -3.90232944
REMARK minimizedRMSD -1
REMARK  0 active torsions:
REMARK  status: ('A' for Active; 'I' for Inactive)
ROOT
ATOM      1  C   UNL d   1      -0.466  -3.689  -0.138  0.00  0.00    -0.002 A 
ATOM      2  C1  UNL d   1      -0.164  -3.590  -1.488  0.00  0.00     0.010 A 
ATOM      3  C2  UNL d   1       0.059  -2.343  -2.076  0.00  0.00     0.041 A 
ATOM      4  C3  UNL d   1      -0.026  -1.187  -1.276  0.00  0.00    -0.075 A 
ATOM      5  S   UNL d   1       0.208   0.445  -1.780  0.00  0.00     0.015 SA
ATOM      6  C4  UNL d   1      -0.087   1.049  -0.213  0.00  0.00     0.022 A 
ATOM      7  C5  UNL d   1      -0.360   0.044   0.684  0.00  0.00     0.026 A 
ATOM      8  C6  UNL d   1      -0.329  -1.261   0.086  0.00  0.00    -0.082 A 
ATOM      9  C7  UNL d   1      -0.550  -2.540   0.653  0.00  0.00     0.045 A 
ENDROOT
TORSDOF 0
ENDMDL
