MODEL 1
REMARK minimizedAffinity 4.5902853
REMARK minimizedRMSD -1
REMARK  0 active torsions:
REMARK  status: ('A' for Active; 'I' for Inactive)
ROOT
ATOM      1  C   UNL d   1      -1.334  -2.027   1.932  0.00  0.00    -0.002 A 
ATOM      2  C1  UNL d   1      -0.759  -0.856   2.404  0.00  0.00     0.010 A 
ATOM      3  C2  UNL d   1       0.025  -0.061   1.565  0.00  0.00     0.041 A 
ATOM      4  C3  UNL d   1       0.220  -0.466   0.230  0.00  0.00    -0.075 A 
ATOM      5  S   UNL d   1       1.140   0.350  -0.979  0.00  0.00     0.015 SA
ATOM      6  C4  UNL d   1       0.789  -0.837  -2.152  0.00  0.00     0.022 A 
ATOM      7  C5  UNL d   1      -0.008  -1.838  -1.650  0.00  0.00     0.026 A 
ATOM      8  C6  UNL d   1      -0.350  -1.640  -0.269  0.00  0.00    -0.082 A 
ATOM      9  C7  UNL d   1      -1.138  -2.425   0.606  0.00  0.00     0.045 A 
ENDROOT
TORSDOF 0
ENDMDL
