MODEL 1
REMARK minimizedAffinity -1.13780534
REMARK minimizedRMSD -1
REMARK  0 active torsions:
REMARK  status: ('A' for Active; 'I' for Inactive)
ROOT
ATOM      1  C   UNL d   1      -0.803  -2.159   0.959  0.00  0.00    -0.002 A 
ATOM      2  C1  UNL d   1       0.016  -2.501  -0.108  0.00  0.00     0.010 A 
ATOM      3  C2  UNL d   1       0.726  -1.519  -0.801  0.00  0.00     0.041 A 
ATOM      4  C3  UNL d   1       0.602  -0.175  -0.399  0.00  0.00    -0.075 A 
ATOM      5  S   UNL d   1       1.378   1.196  -1.099  0.00  0.00     0.015 SA
ATOM      6  C4  UNL d   1       0.642   2.268   0.003  0.00  0.00     0.022 A 
ATOM      7  C5  UNL d   1      -0.179   1.613   0.890  0.00  0.00     0.026 A 
ATOM      8  C6  UNL d   1      -0.215   0.194   0.674  0.00  0.00    -0.082 A 
ATOM      9  C7  UNL d   1      -0.924  -0.824   1.356  0.00  0.00     0.045 A 
ENDROOT
TORSDOF 0
ENDMDL
