MODEL 1
REMARK minimizedAffinity -3.76346421
REMARK minimizedRMSD -1
REMARK  0 active torsions:
REMARK  status: ('A' for Active; 'I' for Inactive)
ROOT
ATOM      1  C   UNL d   1      -0.046  -3.414  -1.259  0.00  0.00    -0.002 A 
ATOM      2  C1  UNL d   1       0.340  -2.519  -2.247  0.00  0.00     0.010 A 
ATOM      3  C2  UNL d   1       0.539  -1.170  -1.946  0.00  0.00     0.041 A 
ATOM      4  C3  UNL d   1       0.344  -0.732  -0.621  0.00  0.00    -0.075 A 
ATOM      5  S   UNL d   1       0.530   0.873  -0.019  0.00  0.00     0.015 SA
ATOM      6  C4  UNL d   1       0.103   0.408   1.564  0.00  0.00     0.022 A 
ATOM      7  C5  UNL d   1      -0.178  -0.935   1.650  0.00  0.00     0.026 A 
ATOM      8  C6  UNL d   1      -0.044  -1.614   0.392  0.00  0.00    -0.082 A 
ATOM      9  C7  UNL d   1      -0.238  -2.975   0.054  0.00  0.00     0.045 A 
ENDROOT
TORSDOF 0
ENDMDL
