MODEL 1
REMARK minimizedAffinity -1.85645628
REMARK minimizedRMSD -1
REMARK  0 active torsions:
REMARK  status: ('A' for Active; 'I' for Inactive)
ROOT
ATOM      1  C   UNL d   1       0.306   3.061  -0.843  0.00  0.00    -0.002 A 
ATOM      2  C1  UNL d   1       1.433   2.927  -0.045  0.00  0.00     0.010 A 
ATOM      3  C2  UNL d   1       1.609   1.794   0.752  0.00  0.00     0.041 A 
ATOM      4  C3  UNL d   1       0.625   0.787   0.731  0.00  0.00    -0.075 A 
ATOM      5  S   UNL d   1       0.628  -0.689   1.623  0.00  0.00     0.015 SA
ATOM      6  C4  UNL d   1      -0.866  -1.177   0.965  0.00  0.00     0.022 A 
ATOM      7  C5  UNL d   1      -1.369  -0.249   0.084  0.00  0.00     0.026 A 
ATOM      8  C6  UNL d   1      -0.518   0.898  -0.065  0.00  0.00    -0.082 A 
ATOM      9  C7  UNL d   1      -0.668   2.059  -0.861  0.00  0.00     0.045 A 
ENDROOT
TORSDOF 0
ENDMDL
