MODEL 1
REMARK minimizedAffinity -3.24873805
REMARK minimizedRMSD -1
REMARK  0 active torsions:
REMARK  status: ('A' for Active; 'I' for Inactive)
ROOT
ATOM      1  C   UNL d   1      -0.091  -3.370  -0.715  0.00  0.00    -0.002 A 
ATOM      2  C1  UNL d   1       0.029  -3.144  -2.079  0.00  0.00     0.010 A 
ATOM      3  C2  UNL d   1       0.090  -1.843  -2.581  0.00  0.00     0.041 A 
ATOM      4  C3  UNL d   1       0.030  -0.761  -1.680  0.00  0.00    -0.075 A 
ATOM      5  S   UNL d   1       0.087   0.918  -2.067  0.00  0.00     0.015 SA
ATOM      6  C4  UNL d   1      -0.045   1.375  -0.430  0.00  0.00     0.022 A 
ATOM      7  C5  UNL d   1      -0.133   0.286   0.404  0.00  0.00     0.026 A 
ATOM      8  C6  UNL d   1      -0.091  -0.963  -0.302  0.00  0.00    -0.082 A 
ATOM      9  C7  UNL d   1      -0.151  -2.294   0.176  0.00  0.00     0.045 A 
ENDROOT
TORSDOF 0
ENDMDL
