MODEL 1
REMARK minimizedAffinity -3.46991587
REMARK minimizedRMSD -1
REMARK  0 active torsions:
REMARK  status: ('A' for Active; 'I' for Inactive)
ROOT
ATOM      1  C   UNL d   1       0.057  -3.414   0.351  0.00  0.00    -0.002 A 
ATOM      2  C1  UNL d   1      -0.116  -2.985  -0.957  0.00  0.00     0.010 A 
ATOM      3  C2  UNL d   1       0.084  -1.645  -1.297  0.00  0.00     0.041 A 
ATOM      4  C3  UNL d   1       0.467  -0.737  -0.291  0.00  0.00    -0.075 A 
ATOM      5  S   UNL d   1       0.770   0.951  -0.475  0.00  0.00     0.015 SA
ATOM      6  C4  UNL d   1       1.137   1.141   1.178  0.00  0.00     0.022 A 
ATOM      7  C5  UNL d   1       1.036  -0.044   1.868  0.00  0.00     0.026 A 
ATOM      8  C6  UNL d   1       0.649  -1.145   1.033  0.00  0.00    -0.082 A 
ATOM      9  C7  UNL d   1       0.438  -2.510   1.346  0.00  0.00     0.045 A 
ENDROOT
TORSDOF 0
ENDMDL
