MODEL 1
REMARK minimizedAffinity -0.030642787
REMARK minimizedRMSD -1
REMARK  0 active torsions:
REMARK  status: ('A' for Active; 'I' for Inactive)
ROOT
ATOM      1  C   UNL d   1      -1.102  -1.284   1.112  0.00  0.00    -0.002 A 
ATOM      2  C1  UNL d   1      -0.095  -1.813   0.318  0.00  0.00     0.010 A 
ATOM      3  C2  UNL d   1       0.855  -0.979  -0.274  0.00  0.00     0.041 A 
ATOM      4  C3  UNL d   1       0.776   0.410  -0.049  0.00  0.00    -0.075 A 
ATOM      5  S   UNL d   1       1.831   1.625  -0.670  0.00  0.00     0.015 SA
ATOM      6  C4  UNL d   1       0.970   2.874   0.106  0.00  0.00     0.022 A 
ATOM      7  C5  UNL d   1      -0.099   2.394   0.825  0.00  0.00     0.026 A 
ATOM      8  C6  UNL d   1      -0.228   0.966   0.748  0.00  0.00    -0.082 A 
ATOM      9  C7  UNL d   1      -1.177   0.094   1.332  0.00  0.00     0.045 A 
ENDROOT
TORSDOF 0
ENDMDL
