MODEL 1
REMARK minimizedAffinity -4.23593855
REMARK minimizedRMSD -1
REMARK  1 active torsions:
REMARK  status: ('A' for Active; 'I' for Inactive)
REMARK    1  A    between atoms: N_2  and  C1_3 
ROOT
ATOM      1  C1  UNL d   1      -2.451   0.619   0.689  0.00  0.00     0.143 A 
ATOM      2  C2  UNL d   1      -1.388  -0.275   0.525  0.00  0.00    -0.057 A 
ATOM      3  C3  UNL d   1      -0.085   0.182   0.294  0.00  0.00     0.033 A 
ATOM      4  C4  UNL d   1       0.174   1.545   0.194  0.00  0.00    -0.042 A 
ATOM      5  C5  UNL d   1      -0.872   2.451   0.329  0.00  0.00     0.033 A 
ATOM      6  C6  UNL d   1      -2.170   1.989   0.566  0.00  0.00    -0.057 A 
ENDROOT
BRANCH   1   7
ATOM      7  N   UNL d   1      -3.785   0.225   0.823  0.00  0.00    -0.732 N 
ATOM      8  C   UNL d   1      -4.827   1.208   1.024  0.00  0.00     0.284 C 
ATOM      9  H3  UNL d   1      -4.036  -0.522   0.179  0.00  0.00     0.395 HD
ENDBRANCH   1   7
TORSDOF 1
ENDMDL
