MODEL 1
REMARK minimizedAffinity -3.9446013
REMARK minimizedRMSD -1
REMARK  1 active torsions:
REMARK  status: ('A' for Active; 'I' for Inactive)
REMARK    1  A    between atoms: N_2  and  C1_3 
ROOT
ATOM      1  C1  UNL d   1      -2.634   1.502   0.356  0.00  0.00     0.143 A 
ATOM      2  C2  UNL d   1      -1.345   2.046   0.397  0.00  0.00    -0.057 A 
ATOM      3  C3  UNL d   1      -0.226   1.243   0.652  0.00  0.00     0.033 A 
ATOM      4  C4  UNL d   1      -0.380  -0.117   0.898  0.00  0.00    -0.042 A 
ATOM      5  C5  UNL d   1      -1.654  -0.674   0.887  0.00  0.00     0.033 A 
ATOM      6  C6  UNL d   1      -2.766   0.131   0.626  0.00  0.00    -0.057 A 
ENDROOT
BRANCH   1   7
ATOM      7  N   UNL d   1      -3.795   2.264   0.206  0.00  0.00    -0.732 N 
ATOM      8  C   UNL d   1      -5.033   1.852   0.832  0.00  0.00     0.284 C 
ATOM      9  H3  UNL d   1      -3.613   3.264   0.261  0.00  0.00     0.395 HD
ENDBRANCH   1   7
TORSDOF 1
ENDMDL
