MODEL 1
REMARK minimizedAffinity 1.73808575
REMARK minimizedRMSD -1
REMARK  1 active torsions:
REMARK  status: ('A' for Active; 'I' for Inactive)
REMARK    1  A    between atoms: N_2  and  C1_3 
ROOT
ATOM      1  C1  UNL d   1      -2.287   2.379   0.918  0.00  0.00     0.143 A 
ATOM      2  C2  UNL d   1      -1.282   2.730   0.011  0.00  0.00    -0.057 A 
ATOM      3  C3  UNL d   1      -0.129   1.948  -0.134  0.00  0.00     0.033 A 
ATOM      4  C4  UNL d   1       0.052   0.813   0.650  0.00  0.00    -0.042 A 
ATOM      5  C5  UNL d   1      -0.923   0.460   1.576  0.00  0.00     0.033 A 
ATOM      6  C6  UNL d   1      -2.074   1.241   1.711  0.00  0.00    -0.057 A 
ENDROOT
BRANCH   1   7
ATOM      7  N   UNL d   1      -3.410   3.168   1.178  0.00  0.00    -0.732 N 
ATOM      8  C   UNL d   1      -4.741   2.666   0.914  0.00  0.00     0.284 C 
ATOM      9  H3  UNL d   1      -3.327   3.687   2.050  0.00  0.00     0.395 HD
ENDBRANCH   1   7
TORSDOF 1
ENDMDL
