MODEL 1
REMARK minimizedAffinity -4.80063725
REMARK minimizedRMSD -1
REMARK  1 active torsions:
REMARK  status: ('A' for Active; 'I' for Inactive)
REMARK    1  A    between atoms: N_2  and  C1_3 
ROOT
ATOM      1  C1  UNL d   1      -3.328   1.885   0.331  0.00  0.00     0.143 A 
ATOM      2  C2  UNL d   1      -3.337   0.629   0.947  0.00  0.00    -0.057 A 
ATOM      3  C3  UNL d   1      -2.154  -0.094   1.140  0.00  0.00     0.033 A 
ATOM      4  C4  UNL d   1      -0.939   0.416   0.692  0.00  0.00    -0.042 A 
ATOM      5  C5  UNL d   1      -0.910   1.651   0.054  0.00  0.00     0.033 A 
ATOM      6  C6  UNL d   1      -2.094   2.371  -0.129  0.00  0.00    -0.057 A 
ENDROOT
BRANCH   1   7
ATOM      7  N   UNL d   1      -4.482   2.608   0.022  0.00  0.00    -0.732 N 
ATOM      8  C   UNL d   1      -5.736   2.313   0.682  0.00  0.00     0.284 C 
ATOM      9  H3  UNL d   1      -4.298   3.602  -0.096  0.00  0.00     0.395 HD
ENDBRANCH   1   7
TORSDOF 1
ENDMDL
