MODEL 1
REMARK minimizedAffinity -1.19123948
REMARK minimizedRMSD -1
REMARK  1 active torsions:
REMARK  status: ('A' for Active; 'I' for Inactive)
REMARK    1  A    between atoms: N_2  and  C1_3 
ROOT
ATOM      1  C1  UNL d   1      -3.051   2.487   0.372  0.00  0.00     0.143 A 
ATOM      2  C2  UNL d   1      -1.946   3.309   0.127  0.00  0.00    -0.057 A 
ATOM      3  C3  UNL d   1      -0.642   2.798   0.149  0.00  0.00     0.033 A 
ATOM      4  C4  UNL d   1      -0.418   1.458   0.447  0.00  0.00    -0.042 A 
ATOM      5  C5  UNL d   1      -1.500   0.628   0.718  0.00  0.00     0.033 A 
ATOM      6  C6  UNL d   1      -2.800   1.142   0.687  0.00  0.00    -0.057 A 
ENDROOT
BRANCH   1   7
ATOM      7  N   UNL d   1      -4.364   2.955   0.461  0.00  0.00    -0.732 N 
ATOM      8  C   UNL d   1      -5.452   2.047   0.752  0.00  0.00     0.284 C 
ATOM      9  H3  UNL d   1      -4.426   3.848   0.945  0.00  0.00     0.395 HD
ENDBRANCH   1   7
TORSDOF 1
ENDMDL
