MODEL 1
REMARK minimizedAffinity -2.99416947
REMARK minimizedRMSD -1
REMARK  1 active torsions:
REMARK  status: ('A' for Active; 'I' for Inactive)
REMARK    1  A    between atoms: N_2  and  C1_3 
ROOT
ATOM      1  C1  UNL d   1      -3.037   1.334   0.490  0.00  0.00     0.143 A 
ATOM      2  C2  UNL d   1      -1.987   2.222   0.231  0.00  0.00    -0.057 A 
ATOM      3  C3  UNL d   1      -0.652   1.842   0.420  0.00  0.00     0.033 A 
ATOM      4  C4  UNL d   1      -0.345   0.573   0.901  0.00  0.00    -0.042 A 
ATOM      5  C5  UNL d   1      -1.374  -0.317   1.188  0.00  0.00     0.033 A 
ATOM      6  C6  UNL d   1      -2.704   0.066   0.991  0.00  0.00    -0.057 A 
ENDROOT
BRANCH   1   7
ATOM      7  N   UNL d   1      -4.387   1.685   0.415  0.00  0.00    -0.732 N 
ATOM      8  C   UNL d   1      -5.377   0.977   1.199  0.00  0.00     0.284 C 
ATOM      9  H3  UNL d   1      -4.526   2.692   0.383  0.00  0.00     0.395 HD
ENDBRANCH   1   7
TORSDOF 1
ENDMDL
