MODEL 1
REMARK minimizedAffinity -2.20859957
REMARK minimizedRMSD -1
REMARK  1 active torsions:
REMARK  status: ('A' for Active; 'I' for Inactive)
REMARK    1  A    between atoms: N_2  and  C1_3 
ROOT
ATOM      1  C1  UNL d   1      -3.108   2.074   1.103  0.00  0.00     0.143 A 
ATOM      2  C2  UNL d   1      -3.165   0.735   1.501  0.00  0.00    -0.057 A 
ATOM      3  C3  UNL d   1      -2.007  -0.046   1.590  0.00  0.00     0.033 A 
ATOM      4  C4  UNL d   1      -0.770   0.493   1.252  0.00  0.00    -0.042 A 
ATOM      5  C5  UNL d   1      -0.692   1.815   0.829  0.00  0.00     0.033 A 
ATOM      6  C6  UNL d   1      -1.852   2.592   0.749  0.00  0.00    -0.057 A 
ENDROOT
BRANCH   1   7
ATOM      7  N   UNL d   1      -4.236   2.874   0.900  0.00  0.00    -0.732 N 
ATOM      8  C   UNL d   1      -5.565   2.311   0.994  0.00  0.00     0.284 C 
ATOM      9  H3  UNL d   1      -4.142   3.793   1.328  0.00  0.00     0.395 HD
ENDBRANCH   1   7
TORSDOF 1
ENDMDL
