MODEL 1
REMARK minimizedAffinity -2.59273887
REMARK minimizedRMSD -1
REMARK  1 active torsions:
REMARK  status: ('A' for Active; 'I' for Inactive)
REMARK    1  A    between atoms: N_2  and  C1_3 
ROOT
ATOM      1  C1  UNL d   1      -1.502   1.399   0.311  0.00  0.00     0.143 A 
ATOM      2  C2  UNL d   1      -1.933   0.102   0.611  0.00  0.00    -0.057 A 
ATOM      3  C3  UNL d   1      -3.295  -0.221   0.644  0.00  0.00     0.033 A 
ATOM      4  C4  UNL d   1      -4.254   0.759   0.407  0.00  0.00    -0.042 A 
ATOM      5  C5  UNL d   1      -3.849   2.060   0.132  0.00  0.00     0.033 A 
ATOM      6  C6  UNL d   1      -2.487   2.374   0.093  0.00  0.00    -0.057 A 
ENDROOT
BRANCH   1   7
ATOM      7  N   UNL d   1      -0.166   1.805   0.359  0.00  0.00    -0.732 N 
ATOM      8  C   UNL d   1       0.839   0.963   0.973  0.00  0.00     0.284 C 
ATOM      9  H3  UNL d   1       0.136   2.251  -0.504  0.00  0.00     0.395 HD
ENDBRANCH   1   7
TORSDOF 1
ENDMDL
