MODEL 1
REMARK minimizedAffinity 5.50990248
REMARK minimizedRMSD -1
REMARK  0 active torsions:
REMARK  status: ('A' for Active; 'I' for Inactive)
ROOT
ATOM      1  C4' PXY d   1       1.465  -2.567   3.672  0.00  0.00     0.077 C 
ATOM      2  C1' PXY d   1       3.020   2.984   3.244  0.00  0.00     0.077 C 
ATOM      3  C1  PXY d   1       2.602   1.530   3.348  0.00  0.00    -0.082 A 
ATOM      4  C2  PXY d   1       2.947   0.825   4.414  0.00  0.00     0.003 A 
ATOM      5  C3  PXY d   1       2.605  -0.499   4.509  0.00  0.00     0.003 A 
ATOM      6  C4  PXY d   1       1.857  -1.094   3.529  0.00  0.00    -0.082 A 
ATOM      7  C5  PXY d   1       1.492  -0.379   2.444  0.00  0.00     0.003 A 
ATOM      8  C6  PXY d   1       1.884   0.953   2.346  0.00  0.00     0.003 A 
ENDROOT
TORSDOF 0
ENDMDL
