MODEL 1
REMARK minimizedAffinity -1.53048599
REMARK minimizedRMSD -1
REMARK  0 active torsions:
REMARK  status: ('A' for Active; 'I' for Inactive)
ROOT
ATOM      1  C4' PXY d   1       0.550   3.200   0.628  0.00  0.00     0.077 C 
ATOM      2  C1' PXY d   1       1.443  -2.478   0.007  0.00  0.00     0.077 C 
ATOM      3  C1  PXY d   1       1.217  -0.989   0.180  0.00  0.00    -0.082 A 
ATOM      4  C2  PXY d   1       0.092  -0.443  -0.254  0.00  0.00     0.003 A 
ATOM      5  C3  PXY d   1      -0.114   0.907  -0.135  0.00  0.00     0.003 A 
ATOM      6  C4  PXY d   1       0.817   1.699   0.483  0.00  0.00    -0.082 A 
ATOM      7  C5  PXY d   1       1.962   1.148   0.938  0.00  0.00     0.003 A 
ATOM      8  C6  PXY d   1       2.170  -0.218   0.770  0.00  0.00     0.003 A 
ENDROOT
TORSDOF 0
ENDMDL
