MODEL 1
REMARK minimizedAffinity -4.84254408
REMARK minimizedRMSD -1
REMARK  0 active torsions:
REMARK  status: ('A' for Active; 'I' for Inactive)
ROOT
ATOM      1  C4' PXY d   1       3.181  -0.107   1.324  0.00  0.00     0.077 C 
ATOM      2  C1' PXY d   1      -2.213   0.208  -0.732  0.00  0.00     0.077 C 
ATOM      3  C1  PXY d   1      -0.802   0.116  -0.185  0.00  0.00    -0.082 A 
ATOM      4  C2  PXY d   1      -0.004   1.169  -0.251  0.00  0.00     0.003 A 
ATOM      5  C3  PXY d   1       1.285   1.093   0.209  0.00  0.00     0.003 A 
ATOM      6  C4  PXY d   1       1.746  -0.057   0.793  0.00  0.00    -0.082 A 
ATOM      7  C5  PXY d   1       0.934  -1.132   0.874  0.00  0.00     0.003 A 
ATOM      8  C6  PXY d   1      -0.357  -1.048   0.363  0.00  0.00     0.003 A 
ENDROOT
TORSDOF 0
ENDMDL
