MODEL 1
REMARK minimizedAffinity -4.67939186
REMARK minimizedRMSD -1
REMARK  0 active torsions:
REMARK  status: ('A' for Active; 'I' for Inactive)
ROOT
ATOM      1  C4' PXY d   1      -2.551  -0.208  -2.811  0.00  0.00     0.077 C 
ATOM      2  C1' PXY d   1       1.848   0.728   0.821  0.00  0.00     0.077 C 
ATOM      3  C1  PXY d   1       0.688   0.477  -0.122  0.00  0.00    -0.082 A 
ATOM      4  C2  PXY d   1       0.908   0.399  -1.424  0.00  0.00     0.003 A 
ATOM      5  C3  PXY d   1      -0.134   0.204  -2.294  0.00  0.00     0.003 A 
ATOM      6  C4  PXY d   1      -1.408   0.035  -1.821  0.00  0.00    -0.082 A 
ATOM      7  C5  PXY d   1      -1.640   0.102  -0.493  0.00  0.00     0.003 A 
ATOM      8  C6  PXY d   1      -0.574   0.342   0.369  0.00  0.00     0.003 A 
ENDROOT
TORSDOF 0
ENDMDL
