MODEL 1
REMARK minimizedAffinity -4.2277894
REMARK minimizedRMSD -1
REMARK  0 active torsions:
REMARK  status: ('A' for Active; 'I' for Inactive)
ROOT
ATOM      1  C4' PXY d   1      -2.243   0.360  -1.117  0.00  0.00     0.077 C 
ATOM      2  C1' PXY d   1       3.177  -0.331   0.768  0.00  0.00     0.077 C 
ATOM      3  C1  PXY d   1       1.756  -0.162   0.269  0.00  0.00    -0.082 A 
ATOM      4  C2  PXY d   1       1.275   1.054   0.063  0.00  0.00     0.003 A 
ATOM      5  C3  PXY d   1      -0.018   1.226  -0.358  0.00  0.00     0.003 A 
ATOM      6  C4  PXY d   1      -0.811   0.142  -0.622  0.00  0.00    -0.082 A 
ATOM      7  C5  PXY d   1      -0.324  -1.102  -0.425  0.00  0.00     0.003 A 
ATOM      8  C6  PXY d   1       0.978  -1.255   0.042  0.00  0.00     0.003 A 
ENDROOT
TORSDOF 0
ENDMDL
