MODEL 1
REMARK minimizedAffinity -2.87170672
REMARK minimizedRMSD -1
REMARK  0 active torsions:
REMARK  status: ('A' for Active; 'I' for Inactive)
ROOT
ATOM      1  C4' PXY d   1       3.391  -0.324   1.109  0.00  0.00     0.077 C 
ATOM      2  C1' PXY d   1      -1.970  -0.253  -1.053  0.00  0.00     0.077 C 
ATOM      3  C1  PXY d   1      -0.566  -0.283  -0.482  0.00  0.00    -0.082 A 
ATOM      4  C2  PXY d   1       0.034   0.851  -0.160  0.00  0.00     0.003 A 
ATOM      5  C3  PXY d   1       1.316   0.843   0.327  0.00  0.00     0.003 A 
ATOM      6  C4  PXY d   1       1.970  -0.341   0.538  0.00  0.00    -0.082 A 
ATOM      7  C5  PXY d   1       1.360  -1.503   0.223  0.00  0.00     0.003 A 
ATOM      8  C6  PXY d   1       0.074  -1.472  -0.310  0.00  0.00     0.003 A 
ENDROOT
TORSDOF 0
ENDMDL
