MODEL 1
REMARK minimizedAffinity -2.8228004
REMARK minimizedRMSD -1
REMARK  0 active torsions:
REMARK  status: ('A' for Active; 'I' for Inactive)
ROOT
ATOM      1  C4' PXY d   1      -1.884   0.440  -1.045  0.00  0.00     0.077 C 
ATOM      2  C1' PXY d   1       3.478   0.080   1.083  0.00  0.00     0.077 C 
ATOM      3  C1  PXY d   1       2.071   0.187   0.529  0.00  0.00    -0.082 A 
ATOM      4  C2  PXY d   1       1.360  -0.911   0.335  0.00  0.00     0.003 A 
ATOM      5  C3  PXY d   1       0.097  -0.836  -0.195  0.00  0.00     0.003 A 
ATOM      6  C4  PXY d   1      -0.463   0.381  -0.480  0.00  0.00    -0.082 A 
ATOM      7  C5  PXY d   1       0.253   1.507  -0.274  0.00  0.00     0.003 A 
ATOM      8  C6  PXY d   1       1.548   1.406   0.226  0.00  0.00     0.003 A 
ENDROOT
TORSDOF 0
ENDMDL
