MODEL 1
REMARK minimizedAffinity 0.51593411
REMARK minimizedRMSD -1
REMARK  0 active torsions:
REMARK  status: ('A' for Active; 'I' for Inactive)
ROOT
ATOM      1  C4' PXY d   1      -0.749  -2.566   1.948  0.00  0.00     0.077 C 
ATOM      2  C1' PXY d   1       1.481   2.468   0.189  0.00  0.00     0.077 C 
ATOM      3  C1  PXY d   1       0.908   1.144   0.655  0.00  0.00    -0.082 A 
ATOM      4  C2  PXY d   1      -0.214   0.693   0.118  0.00  0.00     0.003 A 
ATOM      5  C3  PXY d   1      -0.763  -0.487   0.550  0.00  0.00     0.003 A 
ATOM      6  C4  PXY d   1      -0.129  -1.239   1.503  0.00  0.00    -0.082 A 
ATOM      7  C5  PXY d   1       1.021  -0.790   2.047  0.00  0.00     0.003 A 
ATOM      8  C6  PXY d   1       1.541   0.430   1.625  0.00  0.00     0.003 A 
ENDROOT
TORSDOF 0
ENDMDL
