MODEL 1
REMARK minimizedAffinity -0.673649311
REMARK minimizedRMSD -1
REMARK  0 active torsions:
REMARK  status: ('A' for Active; 'I' for Inactive)
ROOT
ATOM      1  C4' PXY d   1       0.521   0.778   0.827  0.00  0.00     0.077 C 
ATOM      2  C1' PXY d   1      -3.616  -0.927  -2.832  0.00  0.00     0.077 C 
ATOM      3  C1  PXY d   1      -2.541  -0.477  -1.864  0.00  0.00    -0.082 A 
ATOM      4  C2  PXY d   1      -1.352  -0.122  -2.325  0.00  0.00     0.003 A 
ATOM      5  C3  PXY d   1      -0.358   0.257  -1.461  0.00  0.00     0.003 A 
ATOM      6  C4  PXY d   1      -0.599   0.326  -0.115  0.00  0.00    -0.082 A 
ATOM      7  C5  PXY d   1      -1.812  -0.024   0.363  0.00  0.00     0.003 A 
ATOM      8  C6  PXY d   1      -2.795  -0.446  -0.527  0.00  0.00     0.003 A 
ENDROOT
TORSDOF 0
ENDMDL
