MODEL 1
REMARK minimizedAffinity -3.56483102
REMARK minimizedRMSD -1
REMARK  0 active torsions:
REMARK  status: ('A' for Active; 'I' for Inactive)
ROOT
ATOM      1  C4' PXY d   1       3.670  -0.485   0.728  0.00  0.00     0.077 C 
ATOM      2  C1' PXY d   1      -2.027   0.251   0.079  0.00  0.00     0.077 C 
ATOM      3  C1  PXY d   1      -0.530   0.069   0.243  0.00  0.00    -0.082 A 
ATOM      4  C2  PXY d   1      -0.036  -1.143   0.435  0.00  0.00     0.003 A 
ATOM      5  C3  PXY d   1       1.311  -1.322   0.617  0.00  0.00     0.003 A 
ATOM      6  C4  PXY d   1       2.167  -0.255   0.549  0.00  0.00    -0.082 A 
ATOM      7  C5  PXY d   1       1.671   0.983   0.342  0.00  0.00     0.003 A 
ATOM      8  C6  PXY d   1       0.297   1.149   0.201  0.00  0.00     0.003 A 
ENDROOT
TORSDOF 0
ENDMDL
