MODEL 1
REMARK minimizedAffinity -4.73546743
REMARK minimizedRMSD -1
REMARK  0 active torsions:
REMARK  status: ('A' for Active; 'I' for Inactive)
ROOT
ATOM      1  C4' PXY d   1       0.749   2.497  -0.101  0.00  0.00     0.077 C 
ATOM      2  C1' PXY d   1       1.055  -2.923   1.887  0.00  0.00     0.077 C 
ATOM      3  C1  PXY d   1       0.985  -1.498   1.373  0.00  0.00    -0.082 A 
ATOM      4  C2  PXY d   1      -0.142  -1.048   0.846  0.00  0.00     0.003 A 
ATOM      5  C3  PXY d   1      -0.214   0.228   0.348  0.00  0.00     0.003 A 
ATOM      6  C4  PXY d   1       0.863   1.068   0.439  0.00  0.00    -0.082 A 
ATOM      7  C5  PXY d   1       2.013   0.620   0.985  0.00  0.00     0.003 A 
ATOM      8  C6  PXY d   1       2.078  -0.691   1.448  0.00  0.00     0.003 A 
ENDROOT
TORSDOF 0
ENDMDL
