MODEL 1
REMARK minimizedAffinity -3.65595961
REMARK minimizedRMSD -1
REMARK  0 active torsions:
REMARK  status: ('A' for Active; 'I' for Inactive)
ROOT
ATOM      1  C4' PXY d   1      -1.931  -0.114  -0.601  0.00  0.00     0.077 C 
ATOM      2  C1' PXY d   1       3.571  -0.241   1.167  0.00  0.00     0.077 C 
ATOM      3  C1  PXY d   1       2.128  -0.195   0.706  0.00  0.00    -0.082 A 
ATOM      4  C2  PXY d   1       1.410  -1.307   0.692  0.00  0.00     0.003 A 
ATOM      5  C3  PXY d   1       0.113  -1.289   0.248  0.00  0.00     0.003 A 
ATOM      6  C4  PXY d   1      -0.472  -0.112  -0.135  0.00  0.00    -0.082 A 
ATOM      7  C5  PXY d   1       0.250   1.028  -0.113  0.00  0.00     0.003 A 
ATOM      8  C6  PXY d   1       1.578   0.982   0.302  0.00  0.00     0.003 A 
ENDROOT
TORSDOF 0
ENDMDL
