MODEL 1
REMARK minimizedAffinity -3.16455913
REMARK minimizedRMSD -1
REMARK  0 active torsions:
REMARK  status: ('A' for Active; 'I' for Inactive)
ROOT
ATOM      1  C4' PXY d   1      -2.785   0.540  -1.427  0.00  0.00     0.077 C 
ATOM      2  C1' PXY d   1       2.312  -1.552   0.322  0.00  0.00     0.077 C 
ATOM      3  C1  PXY d   1       0.969  -1.015  -0.133  0.00  0.00    -0.082 A 
ATOM      4  C2  PXY d   1       0.922  -0.070  -1.058  0.00  0.00     0.003 A 
ATOM      5  C3  PXY d   1      -0.282   0.450  -1.458  0.00  0.00     0.003 A 
ATOM      6  C4  PXY d   1      -1.453  -0.039  -0.944  0.00  0.00    -0.082 A 
ATOM      7  C5  PXY d   1      -1.414  -1.011  -0.008  0.00  0.00     0.003 A 
ATOM      8  C6  PXY d   1      -0.179  -1.496   0.415  0.00  0.00     0.003 A 
ENDROOT
TORSDOF 0
ENDMDL
