MODEL 1
REMARK minimizedAffinity 6.61980724
REMARK minimizedRMSD -1
REMARK  3 active torsions:
REMARK  status: ('A' for Active; 'I' for Inactive)
REMARK    1  A    between atoms: C3'_2  and  C2'_3 
REMARK    2  A    between atoms: C2'_3  and  C1'_4 
REMARK    3  A    between atoms: C1'_4  and  C1_5 
ROOT
ATOM      1  C1  N4B d   1       0.403   0.418   0.386  0.00  0.00    -0.075 A 
ATOM      2  C2  N4B d   1       1.689  -0.165   0.384  0.00  0.00     0.002 A 
ATOM      3  C3  N4B d   1       1.849  -1.474   0.000  0.00  0.00     0.002 A 
ATOM      4  C4  N4B d   1       0.740  -2.222  -0.365  0.00  0.00    -0.004 A 
ATOM      5  C5  N4B d   1      -0.496  -1.644  -0.384  0.00  0.00     0.002 A 
ATOM      6  C6  N4B d   1      -0.671  -0.329  -0.005  0.00  0.00     0.002 A 
ENDROOT
BRANCH   1   7
ATOM      7  C1' N4B d   1       0.167   1.819   0.879  0.00  0.00     0.057 C 
BRANCH   7   8
ATOM      8  C2' N4B d   1      -0.763   1.775   2.088  0.00  0.00     0.009 C 
BRANCH   8   9
ATOM      9  C3' N4B d   1      -0.136   2.422   3.311  0.00  0.00     0.004 C 
ATOM     10  C4' N4B d   1       1.049   1.661   3.828  0.00  0.00     0.003 C 
ENDBRANCH   8   9
ENDBRANCH   7   8
ENDBRANCH   1   7
TORSDOF 3
ENDMDL
