MODEL 1
REMARK minimizedAffinity 3.44202232
REMARK minimizedRMSD -1
REMARK  3 active torsions:
REMARK  status: ('A' for Active; 'I' for Inactive)
REMARK    1  A    between atoms: C3'_2  and  C2'_3 
REMARK    2  A    between atoms: C2'_3  and  C1'_4 
REMARK    3  A    between atoms: C1'_4  and  C1_5 
ROOT
ATOM      1  C1  N4B d   1       3.413  -0.716  -1.256  0.00  0.00    -0.075 A 
ATOM      2  C2  N4B d   1       3.372  -1.707  -2.261  0.00  0.00     0.002 A 
ATOM      3  C3  N4B d   1       2.773  -2.917  -2.009  0.00  0.00     0.002 A 
ATOM      4  C4  N4B d   1       2.227  -3.164  -0.759  0.00  0.00    -0.004 A 
ATOM      5  C5  N4B d   1       2.248  -2.193   0.199  0.00  0.00     0.002 A 
ATOM      6  C6  N4B d   1       2.844  -0.971  -0.042  0.00  0.00     0.002 A 
ENDROOT
BRANCH   1   7
ATOM      7  C1' N4B d   1       4.133   0.589  -1.456  0.00  0.00     0.057 C 
BRANCH   7   8
ATOM      8  C2' N4B d   1       3.692   1.575  -0.378  0.00  0.00     0.009 C 
BRANCH   8   9
ATOM      9  C3' N4B d   1       4.588   2.800  -0.328  0.00  0.00     0.004 C 
ATOM     10  C4' N4B d   1       6.000   2.505  -0.739  0.00  0.00     0.003 C 
ENDBRANCH   8   9
ENDBRANCH   7   8
ENDBRANCH   1   7
TORSDOF 3
ENDMDL
