MODEL 1
REMARK minimizedAffinity 2.94339585
REMARK minimizedRMSD -1
REMARK  3 active torsions:
REMARK  status: ('A' for Active; 'I' for Inactive)
REMARK    1  A    between atoms: C3'_2  and  C2'_3 
REMARK    2  A    between atoms: C2'_3  and  C1'_4 
REMARK    3  A    between atoms: C1'_4  and  C1_5 
ROOT
ATOM      1  C1  N4B d   1       2.326   2.383   2.126  0.00  0.00    -0.075 A 
ATOM      2  C2  N4B d   1       1.773   1.800   3.287  0.00  0.00     0.002 A 
ATOM      3  C3  N4B d   1       0.485   1.323   3.269  0.00  0.00     0.002 A 
ATOM      4  C4  N4B d   1      -0.271   1.433   2.112  0.00  0.00    -0.004 A 
ATOM      5  C5  N4B d   1       0.279   1.975   0.987  0.00  0.00     0.002 A 
ATOM      6  C6  N4B d   1       1.573   2.455   0.990  0.00  0.00     0.002 A 
ENDROOT
BRANCH   1   7
ATOM      7  C1' N4B d   1       3.699   2.997   2.122  0.00  0.00     0.057 C 
BRANCH   7   8
ATOM      8  C2' N4B d   1       3.872   3.845   3.379  0.00  0.00     0.009 C 
BRANCH   8   9
ATOM      9  C3' N4B d   1       4.974   3.312   4.277  0.00  0.00     0.004 C 
ATOM     10  C4' N4B d   1       5.357   4.274   5.362  0.00  0.00     0.003 C 
ENDBRANCH   8   9
ENDBRANCH   7   8
ENDBRANCH   1   7
TORSDOF 3
ENDMDL
