MODEL 1
REMARK minimizedAffinity -0.740215838
REMARK minimizedRMSD -1
REMARK  3 active torsions:
REMARK  status: ('A' for Active; 'I' for Inactive)
REMARK    1  A    between atoms: C3'_2  and  C2'_3 
REMARK    2  A    between atoms: C2'_3  and  C1'_4 
REMARK    3  A    between atoms: C1'_4  and  C1_5 
ROOT
ATOM      1  C1  N4B d   1       2.076   0.222  -0.335  0.00  0.00    -0.075 A 
ATOM      2  C2  N4B d   1       0.704   0.512  -0.162  0.00  0.00     0.002 A 
ATOM      3  C3  N4B d   1      -0.221  -0.503  -0.193  0.00  0.00     0.002 A 
ATOM      4  C4  N4B d   1       0.198  -1.806  -0.413  0.00  0.00    -0.004 A 
ATOM      5  C5  N4B d   1       1.526  -2.081  -0.553  0.00  0.00     0.002 A 
ATOM      6  C6  N4B d   1       2.468  -1.072  -0.521  0.00  0.00     0.002 A 
ENDROOT
BRANCH   1   7
ATOM      7  C1' N4B d   1       3.115   1.308  -0.395  0.00  0.00     0.057 C 
BRANCH   7   8
ATOM      8  C2' N4B d   1       4.187   0.919  -1.409  0.00  0.00     0.009 C 
BRANCH   8   9
ATOM      9  C3' N4B d   1       5.341   1.907  -1.423  0.00  0.00     0.004 C 
ATOM     10  C4' N4B d   1       5.995   2.055  -0.082  0.00  0.00     0.003 C 
ENDBRANCH   8   9
ENDBRANCH   7   8
ENDBRANCH   1   7
TORSDOF 3
ENDMDL
