MODEL 1
REMARK minimizedAffinity -1.59259403
REMARK minimizedRMSD -1
REMARK  3 active torsions:
REMARK  status: ('A' for Active; 'I' for Inactive)
REMARK    1  A    between atoms: C3'_2  and  C2'_3 
REMARK    2  A    between atoms: C2'_3  and  C1'_4 
REMARK    3  A    between atoms: C1'_4  and  C1_5 
ROOT
ATOM      1  C1  N4B d   1       1.790   1.915   0.655  0.00  0.00    -0.075 A 
ATOM      2  C2  N4B d   1       2.033   2.015   2.043  0.00  0.00     0.002 A 
ATOM      3  C3  N4B d   1       1.027   2.417   2.888  0.00  0.00     0.002 A 
ATOM      4  C4  N4B d   1      -0.217   2.740   2.369  0.00  0.00    -0.004 A 
ATOM      5  C5  N4B d   1      -0.450   2.616   1.030  0.00  0.00     0.002 A 
ATOM      6  C6  N4B d   1       0.550   2.210   0.170  0.00  0.00     0.002 A 
ENDROOT
BRANCH   1   7
ATOM      7  C1' N4B d   1       2.882   1.562  -0.318  0.00  0.00     0.057 C 
BRANCH   7   8
ATOM      8  C2' N4B d   1       3.176   0.068  -0.222  0.00  0.00     0.009 C 
BRANCH   8   9
ATOM      9  C3' N4B d   1       1.948  -0.773  -0.527  0.00  0.00     0.004 C 
ATOM     10  C4' N4B d   1       2.087  -2.193  -0.065  0.00  0.00     0.003 C 
ENDBRANCH   8   9
ENDBRANCH   7   8
ENDBRANCH   1   7
TORSDOF 3
ENDMDL
