MODEL 1
REMARK minimizedAffinity 2.05391812
REMARK minimizedRMSD -1
REMARK  0 active torsions:
REMARK  status: ('A' for Active; 'I' for Inactive)
ROOT
ATOM      1  C   UNL d   1       0.861  -5.990  -5.546  0.00  0.00     0.020 A 
ATOM      2  C1  UNL d   1      -0.457  -5.997  -6.000  0.00  0.00     0.020 A 
ATOM      3  C2  UNL d   1      -1.511  -6.000  -5.084  0.00  0.00     0.034 A 
ATOM      4  C3  UNL d   1      -1.249  -5.996  -3.709  0.00  0.00     0.017 A 
ATOM      5  C4  UNL d   1       0.075  -5.989  -3.254  0.00  0.00     0.017 A 
ATOM      6  C5  UNL d   1       1.126  -5.986  -4.176  0.00  0.00     0.034 A 
ATOM      7 Cl   UNL d   1       0.477  -5.984  -1.573  0.00  0.00    -0.070 Cl
ATOM      8 Cl1  UNL d   1      -2.601  -6.000  -2.633  0.00  0.00    -0.070 Cl
ENDROOT
TORSDOF 0
ENDMDL
