MODEL 1
REMARK minimizedAffinity 3.92302728
REMARK minimizedRMSD -1
REMARK  0 active torsions:
REMARK  status: ('A' for Active; 'I' for Inactive)
ROOT
ATOM      1  C   UNL d   1      -2.568  -5.999  -3.721  0.00  0.00     0.020 A 
ATOM      2  C1  UNL d   1      -2.423  -6.000  -5.108  0.00  0.00     0.020 A 
ATOM      3  C2  UNL d   1      -1.147  -6.000  -5.676  0.00  0.00     0.034 A 
ATOM      4  C3  UNL d   1      -0.012  -5.998  -4.857  0.00  0.00     0.017 A 
ATOM      5  C4  UNL d   1      -0.159  -5.997  -3.466  0.00  0.00     0.017 A 
ATOM      6  C5  UNL d   1      -1.438  -5.998  -2.902  0.00  0.00     0.034 A 
ATOM      7 Cl   UNL d   1       1.195  -5.996  -2.391  0.00  0.00    -0.070 Cl
ATOM      8 Cl1  UNL d   1       1.535  -5.998  -5.628  0.00  0.00    -0.070 Cl
ENDROOT
TORSDOF 0
ENDMDL
