MODEL 1
REMARK minimizedAffinity 4.59363794
REMARK minimizedRMSD -1
REMARK  0 active torsions:
REMARK  status: ('A' for Active; 'I' for Inactive)
ROOT
ATOM      1  C   UNL d   1      -5.089  -0.684  -1.356  0.00  0.00     0.020 A 
ATOM      2  C1  UNL d   1      -5.056  -0.293  -2.694  0.00  0.00     0.020 A 
ATOM      3  C2  UNL d   1      -4.066   0.584  -3.142  0.00  0.00     0.034 A 
ATOM      4  C3  UNL d   1      -3.104   1.074  -2.251  0.00  0.00     0.017 A 
ATOM      5  C4  UNL d   1      -3.137   0.681  -0.908  0.00  0.00     0.017 A 
ATOM      6  C5  UNL d   1      -4.131  -0.198  -0.465  0.00  0.00     0.034 A 
ATOM      7 Cl   UNL d   1      -1.985   1.243   0.251  0.00  0.00    -0.070 Cl
ATOM      8 Cl1  UNL d   1      -1.909   2.155  -2.873  0.00  0.00    -0.070 Cl
ENDROOT
TORSDOF 0
ENDMDL
