MODEL 1
REMARK minimizedAffinity 4.18353271
REMARK minimizedRMSD -1
REMARK  0 active torsions:
REMARK  status: ('A' for Active; 'I' for Inactive)
ROOT
ATOM      1  C   UNL d   1      -1.244  -5.899  -1.643  0.00  0.00     0.020 A 
ATOM      2  C1  UNL d   1      -2.203  -5.897  -2.655  0.00  0.00     0.020 A 
ATOM      3  C2  UNL d   1      -1.806  -5.927  -3.994  0.00  0.00     0.034 A 
ATOM      4  C3  UNL d   1      -0.447  -5.959  -4.324  0.00  0.00     0.017 A 
ATOM      5  C4  UNL d   1       0.516  -5.961  -3.308  0.00  0.00     0.017 A 
ATOM      6  C5  UNL d   1       0.113  -5.931  -1.969  0.00  0.00     0.034 A 
ATOM      7 Cl   UNL d   1       2.212  -6.000  -3.637  0.00  0.00    -0.070 Cl
ATOM      8 Cl1  UNL d   1      -0.028  -5.996  -6.000  0.00  0.00    -0.070 Cl
ENDROOT
TORSDOF 0
ENDMDL
