MODEL 1
REMARK minimizedAffinity -0.716652274
REMARK minimizedRMSD -1
REMARK  0 active torsions:
REMARK  status: ('A' for Active; 'I' for Inactive)
ROOT
ATOM      1  C   UNL d   1      -3.106  -5.998  -3.423  0.00  0.00     0.020 A 
ATOM      2  C1  UNL d   1      -2.497  -5.999  -2.169  0.00  0.00     0.020 A 
ATOM      3  C2  UNL d   1      -1.104  -5.999  -2.070  0.00  0.00     0.034 A 
ATOM      4  C3  UNL d   1      -0.316  -5.998  -3.227  0.00  0.00     0.017 A 
ATOM      5  C4  UNL d   1      -0.929  -5.997  -4.485  0.00  0.00     0.017 A 
ATOM      6  C5  UNL d   1      -2.324  -5.997  -4.579  0.00  0.00     0.034 A 
ATOM      7 Cl   UNL d   1      -0.023  -5.996  -5.957  0.00  0.00    -0.070 Cl
ATOM      8 Cl1  UNL d   1       1.401  -5.999  -3.030  0.00  0.00    -0.070 Cl
ENDROOT
TORSDOF 0
ENDMDL
