MODEL 1
REMARK minimizedAffinity 5.25572586
REMARK minimizedRMSD -1
REMARK  0 active torsions:
REMARK  status: ('A' for Active; 'I' for Inactive)
ROOT
ATOM      1  C   UNL d   1       5.992   4.369  -0.643  0.00  0.00     0.020 A 
ATOM      2  C1  UNL d   1       4.858   4.815   0.035  0.00  0.00     0.020 A 
ATOM      3  C2  UNL d   1       3.725   4.003   0.112  0.00  0.00     0.034 A 
ATOM      4  C3  UNL d   1       3.723   2.739  -0.491  0.00  0.00     0.017 A 
ATOM      5  C4  UNL d   1       4.861   2.292  -1.171  0.00  0.00     0.017 A 
ATOM      6  C5  UNL d   1       5.993   3.110  -1.245  0.00  0.00     0.034 A 
ATOM      7 Cl   UNL d   1       4.934   0.746  -1.939  0.00  0.00    -0.070 Cl
ATOM      8 Cl1  UNL d   1       2.287   1.787  -0.356  0.00  0.00    -0.070 Cl
ENDROOT
TORSDOF 0
ENDMDL
