MODEL 1
REMARK minimizedAffinity 5.32762814
REMARK minimizedRMSD -1
REMARK  0 active torsions:
REMARK  status: ('A' for Active; 'I' for Inactive)
ROOT
ATOM      1  C   UNL d   1       2.748   0.954  -0.048  0.00  0.00     0.020 A 
ATOM      2  C1  UNL d   1       3.252  -0.045   0.785  0.00  0.00     0.020 A 
ATOM      3  C2  UNL d   1       2.436  -1.111   1.169  0.00  0.00     0.034 A 
ATOM      4  C3  UNL d   1       1.112  -1.181   0.721  0.00  0.00     0.017 A 
ATOM      5  C4  UNL d   1       0.607  -0.178  -0.114  0.00  0.00     0.017 A 
ATOM      6  C5  UNL d   1       1.428   0.887  -0.497  0.00  0.00     0.034 A 
ATOM      7 Cl   UNL d   1      -1.017  -0.197  -0.708  0.00  0.00    -0.070 Cl
ATOM      8 Cl1  UNL d   1       0.160  -2.528   1.236  0.00  0.00    -0.070 Cl
ENDROOT
TORSDOF 0
ENDMDL
