MODEL 1
REMARK minimizedAffinity -1.16198659
REMARK minimizedRMSD -1
REMARK  0 active torsions:
REMARK  status: ('A' for Active; 'I' for Inactive)
ROOT
ATOM      1  C   UNL d   1      -0.675  -5.937  -6.000  0.00  0.00     0.020 A 
ATOM      2  C1  UNL d   1       0.617  -5.948  -5.477  0.00  0.00     0.020 A 
ATOM      3  C2  UNL d   1       0.810  -5.964  -4.094  0.00  0.00     0.034 A 
ATOM      4  C3  UNL d   1      -0.291  -5.969  -3.229  0.00  0.00     0.017 A 
ATOM      5  C4  UNL d   1      -1.588  -5.958  -3.756  0.00  0.00     0.017 A 
ATOM      6  C5  UNL d   1      -1.775  -5.941  -5.141  0.00  0.00     0.034 A 
ATOM      7 Cl   UNL d   1      -2.995  -5.963  -2.753  0.00  0.00    -0.070 Cl
ATOM      8 Cl1  UNL d   1       0.022  -5.990  -1.530  0.00  0.00    -0.070 Cl
ENDROOT
TORSDOF 0
ENDMDL
