MODEL 1
REMARK minimizedAffinity 3.45172215
REMARK minimizedRMSD -1
REMARK  0 active torsions:
REMARK  status: ('A' for Active; 'I' for Inactive)
ROOT
ATOM      1  C   UNL d   1      -6.000  -5.216   5.938  0.00  0.00     0.020 A 
ATOM      2  C1  UNL d   1      -5.964  -3.824   5.997  0.00  0.00     0.020 A 
ATOM      3  C2  UNL d   1      -5.791  -3.080   4.828  0.00  0.00     0.034 A 
ATOM      4  C3  UNL d   1      -5.653  -3.728   3.595  0.00  0.00     0.017 A 
ATOM      5  C4  UNL d   1      -5.690  -5.126   3.537  0.00  0.00     0.017 A 
ATOM      6  C5  UNL d   1      -5.863  -5.866   4.710  0.00  0.00     0.034 A 
ATOM      7 Cl   UNL d   1      -5.527  -5.996   2.052  0.00  0.00    -0.070 Cl
ATOM      8 Cl1  UNL d   1      -5.443  -2.745   2.189  0.00  0.00    -0.070 Cl
ENDROOT
TORSDOF 0
ENDMDL
