MODEL 1
REMARK minimizedAffinity 4.76498222
REMARK minimizedRMSD -1
REMARK  0 active torsions:
REMARK  status: ('A' for Active; 'I' for Inactive)
ROOT
ATOM      1  C   UNL d   1       0.757  -0.864   1.017  0.00  0.00     0.020 A 
ATOM      2  C1  UNL d   1       1.793  -0.055   0.551  0.00  0.00     0.020 A 
ATOM      3  C2  UNL d   1       2.870   0.249   1.385  0.00  0.00     0.034 A 
ATOM      4  C3  UNL d   1       2.915  -0.255   2.690  0.00  0.00     0.017 A 
ATOM      5  C4  UNL d   1       1.875  -1.067   3.157  0.00  0.00     0.017 A 
ATOM      6  C5  UNL d   1       0.798  -1.369   2.317  0.00  0.00     0.034 A 
ATOM      7 Cl   UNL d   1       1.860  -1.727   4.754  0.00  0.00    -0.070 Cl
ATOM      8 Cl1  UNL d   1       4.278   0.162   3.667  0.00  0.00    -0.070 Cl
ENDROOT
TORSDOF 0
ENDMDL
