MODEL 1
REMARK minimizedAffinity 3.8231678
REMARK minimizedRMSD -1
REMARK  0 active torsions:
REMARK  status: ('A' for Active; 'I' for Inactive)
ROOT
ATOM      1  C   UNL d   1      -0.492  -5.614  -5.891  0.00  0.00     0.020 A 
ATOM      2  C1  UNL d   1      -1.831  -5.990  -5.999  0.00  0.00     0.020 A 
ATOM      3  C2  UNL d   1      -2.647  -6.000  -4.866  0.00  0.00     0.034 A 
ATOM      4  C3  UNL d   1      -2.126  -5.633  -3.620  0.00  0.00     0.017 A 
ATOM      5  C4  UNL d   1      -0.782  -5.255  -3.512  0.00  0.00     0.017 A 
ATOM      6  C5  UNL d   1       0.031  -5.247  -4.650  0.00  0.00     0.034 A 
ATOM      7 Cl   UNL d   1      -0.068  -4.790  -2.009  0.00  0.00    -0.070 Cl
ATOM      8 Cl1  UNL d   1      -3.193  -5.667  -2.261  0.00  0.00    -0.070 Cl
ENDROOT
TORSDOF 0
ENDMDL
