MODEL 1
REMARK minimizedAffinity -1.6839093
REMARK minimizedRMSD -1
REMARK  0 active torsions:
REMARK  status: ('A' for Active; 'I' for Inactive)
ROOT
ATOM      1  C   UNL d   1      -0.078  -5.982  -5.684  0.00  0.00     0.020 A 
ATOM      2  C1  UNL d   1       0.715  -5.985  -4.537  0.00  0.00     0.020 A 
ATOM      3  C2  UNL d   1       0.117  -5.990  -3.275  0.00  0.00     0.034 A 
ATOM      4  C3  UNL d   1      -1.277  -5.993  -3.157  0.00  0.00     0.017 A 
ATOM      5  C4  UNL d   1      -2.072  -5.989  -4.308  0.00  0.00     0.017 A 
ATOM      6  C5  UNL d   1      -1.469  -5.984  -5.570  0.00  0.00     0.034 A 
ATOM      7 Cl   UNL d   1      -3.799  -5.992  -4.242  0.00  0.00    -0.070 Cl
ATOM      8 Cl1  UNL d   1      -1.948  -6.000  -1.564  0.00  0.00    -0.070 Cl
ENDROOT
TORSDOF 0
ENDMDL
