MODEL 1
REMARK minimizedAffinity -2.83697128
REMARK minimizedRMSD -1
REMARK  0 active torsions:
REMARK  status: ('A' for Active; 'I' for Inactive)
ROOT
ATOM      1  C   UNL d   1      -1.061  -5.985  -6.000  0.00  0.00     0.020 A 
ATOM      2  C1  UNL d   1       0.073  -5.995  -5.188  0.00  0.00     0.020 A 
ATOM      3  C2  UNL d   1      -0.063  -6.000  -3.799  0.00  0.00     0.034 A 
ATOM      4  C3  UNL d   1      -1.336  -5.994  -3.216  0.00  0.00     0.017 A 
ATOM      5  C4  UNL d   1      -2.473  -5.983  -4.032  0.00  0.00     0.017 A 
ATOM      6  C5  UNL d   1      -2.331  -5.979  -5.423  0.00  0.00     0.034 A 
ATOM      7 Cl   UNL d   1      -4.077  -5.975  -3.386  0.00  0.00    -0.070 Cl
ATOM      8 Cl1  UNL d   1      -1.430  -6.000  -1.491  0.00  0.00    -0.070 Cl
ENDROOT
TORSDOF 0
ENDMDL
