MODEL 1
REMARK minimizedAffinity -0.19023259
REMARK minimizedRMSD -1
REMARK  0 active torsions:
REMARK  status: ('A' for Active; 'I' for Inactive)
ROOT
ATOM      1  C   UNL d   1      -0.198  -5.999  -5.669  0.00  0.00     0.020 A 
ATOM      2  C1  UNL d   1      -1.580  -5.999  -5.859  0.00  0.00     0.020 A 
ATOM      3  C2  UNL d   1      -2.436  -5.999  -4.755  0.00  0.00     0.034 A 
ATOM      4  C3  UNL d   1      -1.911  -5.999  -3.457  0.00  0.00     0.017 A 
ATOM      5  C4  UNL d   1      -0.524  -5.998  -3.269  0.00  0.00     0.017 A 
ATOM      6  C5  UNL d   1       0.328  -5.998  -4.377  0.00  0.00     0.034 A 
ATOM      7 Cl   UNL d   1       0.197  -5.997  -1.698  0.00  0.00    -0.070 Cl
ATOM      8 Cl1  UNL d   1      -3.028  -5.998  -2.139  0.00  0.00    -0.070 Cl
ENDROOT
TORSDOF 0
ENDMDL
