MODEL 1
REMARK minimizedAffinity 2.6844101
REMARK minimizedRMSD -1
REMARK  0 active torsions:
REMARK  status: ('A' for Active; 'I' for Inactive)
ROOT
ATOM      1  C   UNL d   1      -4.018  -5.993  -1.144  0.00  0.00     0.020 A 
ATOM      2  C1  UNL d   1      -5.407  -5.988  -1.022  0.00  0.00     0.020 A 
ATOM      3  C2  UNL d   1      -5.996  -5.969   0.244  0.00  0.00     0.034 A 
ATOM      4  C3  UNL d   1      -5.197  -5.956   1.393  0.00  0.00     0.017 A 
ATOM      5  C4  UNL d   1      -3.803  -5.962   1.269  0.00  0.00     0.017 A 
ATOM      6  C5  UNL d   1      -3.218  -5.980  -0.001  0.00  0.00     0.034 A 
ATOM      7 Cl   UNL d   1      -2.750  -5.946   2.640  0.00  0.00    -0.070 Cl
ATOM      8 Cl1  UNL d   1      -5.993  -5.934   2.926  0.00  0.00    -0.070 Cl
ENDROOT
TORSDOF 0
ENDMDL
