MODEL 1
REMARK minimizedAffinity 1.76420629
REMARK minimizedRMSD -1
REMARK  0 active torsions:
REMARK  status: ('A' for Active; 'I' for Inactive)
ROOT
ATOM      1  C   UNL d   1      -1.138  -5.989  -5.628  0.00  0.00     0.020 A 
ATOM      2  C1  UNL d   1       0.076  -5.431  -5.230  0.00  0.00     0.020 A 
ATOM      3  C2  UNL d   1       0.207  -4.884  -3.952  0.00  0.00     0.034 A 
ATOM      4  C3  UNL d   1      -0.877  -4.893  -3.067  0.00  0.00     0.017 A 
ATOM      5  C4  UNL d   1      -2.096  -5.453  -3.468  0.00  0.00     0.017 A 
ATOM      6  C5  UNL d   1      -2.222  -6.000  -4.749  0.00  0.00     0.034 A 
ATOM      7 Cl   UNL d   1      -3.479  -5.502  -2.432  0.00  0.00    -0.070 Cl
ATOM      8 Cl1  UNL d   1      -0.644  -4.200  -1.502  0.00  0.00    -0.070 Cl
ENDROOT
TORSDOF 0
ENDMDL
