MODEL 1
REMARK minimizedAffinity 0.0586833507
REMARK minimizedRMSD -1
REMARK  0 active torsions:
REMARK  status: ('A' for Active; 'I' for Inactive)
ROOT
ATOM      1  C   UNL d   1      -0.113  -5.974  -5.999  0.00  0.00     0.020 A 
ATOM      2  C1  UNL d   1      -1.504  -5.975  -5.915  0.00  0.00     0.020 A 
ATOM      3  C2  UNL d   1      -2.128  -5.983  -4.666  0.00  0.00     0.034 A 
ATOM      4  C3  UNL d   1      -1.360  -5.991  -3.496  0.00  0.00     0.017 A 
ATOM      5  C4  UNL d   1       0.037  -5.990  -3.581  0.00  0.00     0.017 A 
ATOM      6  C5  UNL d   1       0.656  -5.982  -4.835  0.00  0.00     0.034 A 
ATOM      7 Cl   UNL d   1       1.051  -5.999  -2.182  0.00  0.00    -0.070 Cl
ATOM      8 Cl1  UNL d   1      -2.199  -6.000  -1.985  0.00  0.00    -0.070 Cl
ENDROOT
TORSDOF 0
ENDMDL
