MODEL 1
REMARK minimizedAffinity 2.00274158
REMARK minimizedRMSD -1
REMARK  0 active torsions:
REMARK  status: ('A' for Active; 'I' for Inactive)
ROOT
ATOM      1  C   UNL d   1      -5.636   0.401  -2.590  0.00  0.00     0.020 A 
ATOM      2  C1  UNL d   1      -4.623   1.351  -2.712  0.00  0.00     0.020 A 
ATOM      3  C2  UNL d   1      -3.813   1.653  -1.616  0.00  0.00     0.034 A 
ATOM      4  C3  UNL d   1      -4.014   1.004  -0.392  0.00  0.00     0.017 A 
ATOM      5  C4  UNL d   1      -5.031   0.050  -0.271  0.00  0.00     0.017 A 
ATOM      6  C5  UNL d   1      -5.840  -0.248  -1.372  0.00  0.00     0.034 A 
ATOM      7 Cl   UNL d   1      -5.340  -0.793   1.206  0.00  0.00    -0.070 Cl
ATOM      8 Cl1  UNL d   1      -2.975   1.426   0.922  0.00  0.00    -0.070 Cl
ENDROOT
TORSDOF 0
ENDMDL
