MODEL 1
REMARK minimizedAffinity -1.7939378
REMARK minimizedRMSD -1
REMARK  0 active torsions:
REMARK  status: ('A' for Active; 'I' for Inactive)
ROOT
ATOM      1  C   UNL d   1      -3.017  -5.973  -4.723  0.00  0.00     0.020 A 
ATOM      2  C1  UNL d   1      -2.362  -5.908  -5.953  0.00  0.00     0.020 A 
ATOM      3  C2  UNL d   1      -0.967  -5.866  -6.000  0.00  0.00     0.034 A 
ATOM      4  C3  UNL d   1      -0.222  -5.890  -4.816  0.00  0.00     0.017 A 
ATOM      5  C4  UNL d   1      -0.880  -5.956  -3.582  0.00  0.00     0.017 A 
ATOM      6  C5  UNL d   1      -2.277  -5.998  -3.540  0.00  0.00     0.034 A 
ATOM      7 Cl   UNL d   1      -0.028  -5.990  -2.078  0.00  0.00    -0.070 Cl
ATOM      8 Cl1  UNL d   1       1.500  -5.837  -4.949  0.00  0.00    -0.070 Cl
ENDROOT
TORSDOF 0
ENDMDL
