MODEL 1
REMARK minimizedAffinity -5.77628613
REMARK minimizedRMSD -1
REMARK  2 active torsions:
REMARK  status: ('A' for Active; 'I' for Inactive)
REMARK    1  A    between atoms: C2'_3  and  C1'_4 
REMARK    2  A    between atoms: C1'_4  and  C1_5 
ROOT
ATOM      1  C1  I4B d   1      -0.461   0.070   0.032  0.00  0.00    -0.075 A 
ATOM      2  C2  I4B d   1      -0.086  -1.247  -0.054  0.00  0.00     0.003 A 
ATOM      3  C3  I4B d   1       1.260  -1.621   0.175  0.00  0.00     0.002 A 
ATOM      4  C4  I4B d   1       2.202  -0.647   0.435  0.00  0.00    -0.004 A 
ATOM      5  C5  I4B d   1       1.816   0.686   0.544  0.00  0.00     0.002 A 
ATOM      6  C6  I4B d   1       0.474   1.046   0.353  0.00  0.00     0.003 A 
ENDROOT
BRANCH   1   7
ATOM      7  C1' I4B d   1      -1.885   0.434  -0.248  0.00  0.00     0.060 C 
BRANCH   7   8
ATOM      8  C2' I4B d   1      -2.529   0.839   1.062  0.00  0.00    -0.013 C 
ATOM      9  C4' I4B d   1      -3.070   2.243   0.992  0.00  0.00     0.013 C 
ATOM     10  C3' I4B d   1      -3.618  -0.146   1.366  0.00  0.00     0.013 C 
ENDBRANCH   7   8
ENDBRANCH   1   7
TORSDOF 2
ENDMDL
