MODEL 1
REMARK minimizedAffinity -4.01253796
REMARK minimizedRMSD -1
REMARK  2 active torsions:
REMARK  status: ('A' for Active; 'I' for Inactive)
REMARK    1  A    between atoms: C2'_3  and  C1'_4 
REMARK    2  A    between atoms: C1'_4  and  C1_5 
ROOT
ATOM      1  C1  I4B d   1      -0.483   0.158  -0.172  0.00  0.00    -0.075 A 
ATOM      2  C2  I4B d   1      -0.736  -1.177  -0.364  0.00  0.00     0.003 A 
ATOM      3  C3  I4B d   1       0.331  -2.107  -0.409  0.00  0.00     0.002 A 
ATOM      4  C4  I4B d   1       1.631  -1.654  -0.308  0.00  0.00    -0.004 A 
ATOM      5  C5  I4B d   1       1.885  -0.303  -0.090  0.00  0.00     0.002 A 
ATOM      6  C6  I4B d   1       0.821   0.607  -0.009  0.00  0.00     0.003 A 
ENDROOT
BRANCH   1   7
ATOM      7  C1' I4B d   1      -1.631   1.116  -0.163  0.00  0.00     0.060 C 
BRANCH   7   8
ATOM      8  C2' I4B d   1      -2.662   0.599   0.820  0.00  0.00    -0.013 C 
ATOM      9  C4' I4B d   1      -2.773   1.502   2.020  0.00  0.00     0.013 C 
ATOM     10  C3' I4B d   1      -3.974   0.491   0.100  0.00  0.00     0.013 C 
ENDBRANCH   7   8
ENDBRANCH   1   7
TORSDOF 2
ENDMDL
