MODEL 1
REMARK minimizedAffinity -3.67114115
REMARK minimizedRMSD -1
REMARK  2 active torsions:
REMARK  status: ('A' for Active; 'I' for Inactive)
REMARK    1  A    between atoms: C2'_3  and  C1'_4 
REMARK    2  A    between atoms: C1'_4  and  C1_5 
ROOT
ATOM      1  C1  I4B d   1      -0.117   0.005  -0.064  0.00  0.00    -0.075 A 
ATOM      2  C2  I4B d   1      -0.247  -1.181  -0.741  0.00  0.00     0.003 A 
ATOM      3  C3  I4B d   1       0.784  -2.151  -0.685  0.00  0.00     0.002 A 
ATOM      4  C4  I4B d   1       1.940  -1.874   0.015  0.00  0.00    -0.004 A 
ATOM      5  C5  I4B d   1       2.061  -0.680   0.721  0.00  0.00     0.002 A 
ATOM      6  C6  I4B d   1       1.021   0.261   0.691  0.00  0.00     0.003 A 
ENDROOT
BRANCH   1   7
ATOM      7  C1' I4B d   1      -1.210   1.021  -0.172  0.00  0.00     0.060 C 
BRANCH   7   8
ATOM      8  C2' I4B d   1      -2.513   0.345   0.201  0.00  0.00    -0.013 C 
ATOM      9  C4' I4B d   1      -2.987   0.787   1.561  0.00  0.00     0.013 C 
ATOM     10  C3' I4B d   1      -3.524   0.672  -0.857  0.00  0.00     0.013 C 
ENDBRANCH   7   8
ENDBRANCH   1   7
TORSDOF 2
ENDMDL
