MODEL 1
REMARK minimizedAffinity -4.78262329
REMARK minimizedRMSD -1
REMARK  0 active torsions:
REMARK  status: ('A' for Active; 'I' for Inactive)
ROOT
ATOM      1  C1  DEN d   1      -0.712   0.357  -0.628  0.00  0.00     0.130 A 
ATOM      2  C2  DEN d   1       0.740   0.201  -0.637  0.00  0.00    -0.031 A 
ATOM      3  C3  DEN d   1       1.178  -0.070   0.747  0.00  0.00     0.027 A 
ATOM      4  C4  DEN d   1      -0.244  -0.266   2.890  0.00  0.00     0.027 A 
ATOM      5  C5  DEN d   1      -1.522  -0.198   3.399  0.00  0.00    -0.003 A 
ATOM      6  C6  DEN d   1      -2.607   0.091   2.614  0.00  0.00     0.001 A 
ATOM      7  C7  DEN d   1      -2.439   0.278   1.268  0.00  0.00     0.017 A 
ATOM      8  C8  DEN d   1      -1.153   0.219   0.748  0.00  0.00    -0.094 A 
ATOM      9  C9  DEN d   1      -0.071  -0.086   1.556  0.00  0.00    -0.072 A 
ENDROOT
TORSDOF 0
ENDMDL
