MODEL 1
REMARK minimizedAffinity -2.57730842
REMARK minimizedRMSD -1
REMARK  0 active torsions:
REMARK  status: ('A' for Active; 'I' for Inactive)
ROOT
ATOM      1  C1  DEN d   1      -2.233   0.957   0.089  0.00  0.00     0.130 A 
ATOM      2  C2  DEN d   1      -2.930   0.987   1.371  0.00  0.00    -0.031 A 
ATOM      3  C3  DEN d   1      -1.939   0.734   2.436  0.00  0.00     0.027 A 
ATOM      4  C4  DEN d   1       0.596   0.307   2.225  0.00  0.00     0.027 A 
ATOM      5  C5  DEN d   1       1.642   0.176   1.339  0.00  0.00    -0.003 A 
ATOM      6  C6  DEN d   1       1.466   0.261  -0.017  0.00  0.00     0.001 A 
ATOM      7  C7  DEN d   1       0.222   0.529  -0.524  0.00  0.00     0.017 A 
ATOM      8  C8  DEN d   1      -0.839   0.655   0.363  0.00  0.00    -0.094 A 
ATOM      9  C9  DEN d   1      -0.638   0.578   1.730  0.00  0.00    -0.072 A 
ENDROOT
TORSDOF 0
ENDMDL
