MODEL 1
REMARK minimizedAffinity -2.80972433
REMARK minimizedRMSD -1
REMARK  0 active torsions:
REMARK  status: ('A' for Active; 'I' for Inactive)
ROOT
ATOM      1  C1  DEN d   1      -1.680   0.775  -0.424  0.00  0.00     0.130 A 
ATOM      2  C2  DEN d   1      -0.859   0.575  -1.614  0.00  0.00    -0.031 A 
ATOM      3  C3  DEN d   1       0.516   0.262  -1.174  0.00  0.00     0.027 A 
ATOM      4  C4  DEN d   1       1.445   0.061   1.223  0.00  0.00     0.027 A 
ATOM      5  C5  DEN d   1       1.130   0.156   2.561  0.00  0.00    -0.003 A 
ATOM      6  C6  DEN d   1      -0.124   0.494   2.994  0.00  0.00     0.001 A 
ATOM      7  C7  DEN d   1      -1.123   0.706   2.080  0.00  0.00     0.017 A 
ATOM      8  C8  DEN d   1      -0.812   0.619   0.730  0.00  0.00    -0.094 A 
ATOM      9  C9  DEN d   1       0.460   0.264   0.313  0.00  0.00    -0.072 A 
ENDROOT
TORSDOF 0
ENDMDL
