MODEL 1
REMARK minimizedAffinity 0.496788174
REMARK minimizedRMSD -1
REMARK  0 active torsions:
REMARK  status: ('A' for Active; 'I' for Inactive)
ROOT
ATOM      1  C1  DEN d   1      -0.262   0.255  -1.111  0.00  0.00     0.130 A 
ATOM      2  C2  DEN d   1       1.155  -0.002  -0.868  0.00  0.00    -0.031 A 
ATOM      3  C3  DEN d   1       1.386   0.057   0.590  0.00  0.00     0.027 A 
ATOM      4  C4  DEN d   1      -0.306   0.512   2.483  0.00  0.00     0.027 A 
ATOM      5  C5  DEN d   1      -1.623   0.798   2.767  0.00  0.00    -0.003 A 
ATOM      6  C6  DEN d   1      -2.564   0.955   1.784  0.00  0.00     0.001 A 
ATOM      7  C7  DEN d   1      -2.211   0.782   0.472  0.00  0.00     0.017 A 
ATOM      8  C8  DEN d   1      -0.883   0.501   0.177  0.00  0.00    -0.094 A 
ATOM      9  C9  DEN d   1       0.051   0.335   1.186  0.00  0.00    -0.072 A 
ENDROOT
TORSDOF 0
ENDMDL
