MODEL 1
REMARK minimizedAffinity 8.75360775
REMARK minimizedRMSD -1
REMARK  0 active torsions:
REMARK  status: ('A' for Active; 'I' for Inactive)
ROOT
ATOM      1  C1  DEN d   1       1.234  -1.450   0.493  0.00  0.00     0.130 A 
ATOM      2  C2  DEN d   1       0.736  -2.223   1.627  0.00  0.00    -0.031 A 
ATOM      3  C3  DEN d   1       0.470  -1.287   2.738  0.00  0.00     0.027 A 
ATOM      4  C4  DEN d   1       0.777   1.273   2.810  0.00  0.00     0.027 A 
ATOM      5  C5  DEN d   1       1.185   2.375   2.092  0.00  0.00    -0.003 A 
ATOM      6  C6  DEN d   1       1.666   2.277   0.814  0.00  0.00     0.001 A 
ATOM      7  C7  DEN d   1       1.709   1.054   0.197  0.00  0.00     0.017 A 
ATOM      8  C8  DEN d   1       1.306  -0.063   0.917  0.00  0.00    -0.094 A 
ATOM      9  C9  DEN d   1       0.811   0.059   2.204  0.00  0.00    -0.072 A 
ENDROOT
TORSDOF 0
ENDMDL
