MODEL 1
REMARK minimizedAffinity 1.86143434
REMARK minimizedRMSD -1
REMARK  0 active torsions:
REMARK  status: ('A' for Active; 'I' for Inactive)
ROOT
ATOM      1  C1  DEN d   1      -0.192   0.599   2.573  0.00  0.00     0.130 A 
ATOM      2  C2  DEN d   1       1.234   0.284   2.552  0.00  0.00    -0.031 A 
ATOM      3  C3  DEN d   1       1.642   0.109   1.143  0.00  0.00     0.027 A 
ATOM      4  C4  DEN d   1       0.213   0.297  -0.996  0.00  0.00     0.027 A 
ATOM      5  C5  DEN d   1      -1.054   0.534  -1.482  0.00  0.00    -0.003 A 
ATOM      6  C6  DEN d   1      -2.120   0.774  -0.656  0.00  0.00     0.001 A 
ATOM      7  C7  DEN d   1      -1.930   0.827   0.699  0.00  0.00     0.017 A 
ATOM      8  C8  DEN d   1      -0.658   0.581   1.198  0.00  0.00    -0.094 A 
ATOM      9  C9  DEN d   1       0.410   0.353   0.346  0.00  0.00    -0.072 A 
ENDROOT
TORSDOF 0
ENDMDL
