MODEL 1
REMARK minimizedAffinity -0.636339188
REMARK minimizedRMSD -1
REMARK  0 active torsions:
REMARK  status: ('A' for Active; 'I' for Inactive)
ROOT
ATOM      1  C1  DEN d   1       2.335  -1.227  -2.728  0.00  0.00     0.130 A 
ATOM      2  C2  DEN d   1       1.644  -2.352  -3.352  0.00  0.00    -0.031 A 
ATOM      3  C3  DEN d   1       0.283  -2.424  -2.784  0.00  0.00     0.027 A 
ATOM      4  C4  DEN d   1      -0.817  -0.909  -1.011  0.00  0.00     0.027 A 
ATOM      5  C5  DEN d   1      -0.621   0.172  -0.180  0.00  0.00    -0.003 A 
ATOM      6  C6  DEN d   1       0.575   0.836  -0.116  0.00  0.00     0.001 A 
ATOM      7  C7  DEN d   1       1.608   0.453  -0.930  0.00  0.00     0.017 A 
ATOM      8  C8  DEN d   1       1.421  -0.640  -1.765  0.00  0.00    -0.094 A 
ATOM      9  C9  DEN d   1       0.200  -1.290  -1.824  0.00  0.00    -0.072 A 
ENDROOT
TORSDOF 0
ENDMDL
