MODEL 1
REMARK minimizedAffinity -2.59072638
REMARK minimizedRMSD -1
REMARK  0 active torsions:
REMARK  status: ('A' for Active; 'I' for Inactive)
ROOT
ATOM      1  C1  DEN d   1       0.640   0.691  -0.673  0.00  0.00     0.130 A 
ATOM      2  C2  DEN d   1      -0.405  -0.013   0.066  0.00  0.00    -0.031 A 
ATOM      3  C3  DEN d   1      -0.720  -1.258  -0.662  0.00  0.00     0.027 A 
ATOM      4  C4  DEN d   1       0.307  -2.163  -2.848  0.00  0.00     0.027 A 
ATOM      5  C5  DEN d   1       1.220  -1.910  -3.848  0.00  0.00    -0.003 A 
ATOM      6  C6  DEN d   1       1.973  -0.767  -3.878  0.00  0.00     0.001 A 
ATOM      7  C7  DEN d   1       1.859   0.147  -2.864  0.00  0.00     0.017 A 
ATOM      8  C8  DEN d   1       0.935  -0.097  -1.856  0.00  0.00    -0.094 A 
ATOM      9  C9  DEN d   1       0.192  -1.265  -1.838  0.00  0.00    -0.072 A 
ENDROOT
TORSDOF 0
ENDMDL
