MODEL 1
REMARK minimizedAffinity -5.72256899
REMARK minimizedRMSD -1
REMARK  0 active torsions:
REMARK  status: ('A' for Active; 'I' for Inactive)
ROOT
ATOM      1  C1  DEN d   1      -0.919  -1.162  -0.416  0.00  0.00     0.130 A 
ATOM      2  C2  DEN d   1      -1.346   0.220  -0.218  0.00  0.00    -0.031 A 
ATOM      3  C3  DEN d   1      -0.643   1.062  -1.205  0.00  0.00     0.027 A 
ATOM      4  C4  DEN d   1       1.056   0.363  -3.017  0.00  0.00     0.027 A 
ATOM      5  C5  DEN d   1       1.741  -0.699  -3.562  0.00  0.00    -0.003 A 
ATOM      6  C6  DEN d   1       1.615  -1.975  -3.080  0.00  0.00     0.001 A 
ATOM      7  C7  DEN d   1       0.750  -2.228  -2.048  0.00  0.00     0.017 A 
ATOM      8  C8  DEN d   1       0.061  -1.160  -1.488  0.00  0.00    -0.094 A 
ATOM      9  C9  DEN d   1       0.192   0.120  -1.998  0.00  0.00    -0.072 A 
ENDROOT
TORSDOF 0
ENDMDL
