MODEL 1
REMARK minimizedAffinity -0.464384556
REMARK minimizedRMSD -1
REMARK  0 active torsions:
REMARK  status: ('A' for Active; 'I' for Inactive)
ROOT
ATOM      1  C1  DEN d   1       0.276   0.599  -0.626  0.00  0.00     0.130 A 
ATOM      2  C2  DEN d   1      -1.057   0.073  -0.344  0.00  0.00    -0.031 A 
ATOM      3  C3  DEN d   1      -1.314  -1.043  -1.276  0.00  0.00     0.027 A 
ATOM      4  C4  DEN d   1       0.215  -2.007  -3.115  0.00  0.00     0.027 A 
ATOM      5  C5  DEN d   1       1.438  -1.882  -3.738  0.00  0.00    -0.003 A 
ATOM      6  C6  DEN d   1       2.337  -0.908  -3.393  0.00  0.00     0.001 A 
ATOM      7  C7  DEN d   1       2.046  -0.048  -2.367  0.00  0.00     0.017 A 
ATOM      8  C8  DEN d   1       0.813  -0.163  -1.739  0.00  0.00    -0.094 A 
ATOM      9  C9  DEN d   1      -0.078  -1.162  -2.095  0.00  0.00    -0.072 A 
ENDROOT
TORSDOF 0
ENDMDL
