MODEL 1
REMARK minimizedAffinity -5.65326214
REMARK minimizedRMSD -1
REMARK  0 active torsions:
REMARK  status: ('A' for Active; 'I' for Inactive)
ROOT
ATOM      1  C1  DEN d   1       1.171   0.306   0.965  0.00  0.00     0.130 A 
ATOM      2  C2  DEN d   1       1.220   0.615  -0.461  0.00  0.00    -0.031 A 
ATOM      3  C3  DEN d   1      -0.167   0.771  -0.943  0.00  0.00     0.027 A 
ATOM      4  C4  DEN d   1      -2.374   0.571   0.376  0.00  0.00     0.027 A 
ATOM      5  C5  DEN d   1      -2.924   0.311   1.612  0.00  0.00    -0.003 A 
ATOM      6  C6  DEN d   1      -2.155   0.000   2.702  0.00  0.00     0.001 A 
ATOM      7  C7  DEN d   1      -0.790  -0.014   2.588  0.00  0.00     0.017 A 
ATOM      8  C8  DEN d   1      -0.229   0.240   1.344  0.00  0.00    -0.094 A 
ATOM      9  C9  DEN d   1      -1.023   0.564   0.257  0.00  0.00    -0.072 A 
ENDROOT
TORSDOF 0
ENDMDL
