MODEL 1
REMARK minimizedAffinity -4.97035313
REMARK minimizedRMSD -1
REMARK  0 active torsions:
REMARK  status: ('A' for Active; 'I' for Inactive)
ROOT
ATOM      1  C1  DEN d   1      -2.420   0.283   2.648  0.00  0.00     0.130 A 
ATOM      2  C2  DEN d   1      -1.467   0.034   3.727  0.00  0.00    -0.031 A 
ATOM      3  C3  DEN d   1      -0.107   0.071   3.151  0.00  0.00     0.027 A 
ATOM      4  C4  DEN d   1       0.611   0.489   0.710  0.00  0.00     0.027 A 
ATOM      5  C5  DEN d   1       0.157   0.737  -0.567  0.00  0.00    -0.003 A 
ATOM      6  C6  DEN d   1      -1.177   0.817  -0.865  0.00  0.00     0.001 A 
ATOM      7  C7  DEN d   1      -2.105   0.691   0.135  0.00  0.00     0.017 A 
ATOM      8  C8  DEN d   1      -1.655   0.434   1.424  0.00  0.00    -0.094 A 
ATOM      9  C9  DEN d   1      -0.302   0.369   1.707  0.00  0.00    -0.072 A 
ENDROOT
TORSDOF 0
ENDMDL
