MODEL 1
REMARK minimizedAffinity 3.51237321
REMARK minimizedRMSD -1
REMARK  0 active torsions:
REMARK  status: ('A' for Active; 'I' for Inactive)
ROOT
ATOM      1  C1  DEN d   1      -1.437   0.527  -0.955  0.00  0.00     0.130 A 
ATOM      2  C2  DEN d   1      -2.640   0.759  -0.161  0.00  0.00    -0.031 A 
ATOM      3  C3  DEN d   1      -2.251   0.765   1.264  0.00  0.00     0.027 A 
ATOM      4  C4  DEN d   1       0.084   0.444   2.311  0.00  0.00     0.027 A 
ATOM      5  C5  DEN d   1       1.413   0.206   2.038  0.00  0.00    -0.003 A 
ATOM      6  C6  DEN d   1       1.876   0.026   0.762  0.00  0.00     0.001 A 
ATOM      7  C7  DEN d   1       1.010   0.126  -0.295  0.00  0.00     0.017 A 
ATOM      8  C8  DEN d   1      -0.333   0.359  -0.028  0.00  0.00    -0.094 A 
ATOM      9  C9  DEN d   1      -0.779   0.550   1.269  0.00  0.00    -0.072 A 
ENDROOT
TORSDOF 0
ENDMDL
