MODEL 1
REMARK minimizedAffinity -0.555292785
REMARK minimizedRMSD -1
REMARK  0 active torsions:
REMARK  status: ('A' for Active; 'I' for Inactive)
ROOT
ATOM      1  C1  DEN d   1      -2.443  -0.990   1.245  0.00  0.00     0.130 A 
ATOM      2  C2  DEN d   1      -3.166  -0.298   2.308  0.00  0.00    -0.031 A 
ATOM      3  C3  DEN d   1      -2.188   0.477   3.097  0.00  0.00     0.027 A 
ATOM      4  C4  DEN d   1       0.363   0.676   2.773  0.00  0.00     0.027 A 
ATOM      5  C5  DEN d   1       1.434   0.262   2.012  0.00  0.00    -0.003 A 
ATOM      6  C6  DEN d   1       1.294  -0.617   0.971  0.00  0.00     0.001 A 
ATOM      7  C7  DEN d   1       0.048  -1.077   0.635  0.00  0.00     0.017 A 
ATOM      8  C8  DEN d   1      -1.036  -0.670   1.402  0.00  0.00    -0.094 A 
ATOM      9  C9  DEN d   1      -0.875   0.229   2.443  0.00  0.00    -0.072 A 
ENDROOT
TORSDOF 0
ENDMDL
