MODEL 1
REMARK minimizedAffinity 11.2179832
REMARK minimizedRMSD -1
REMARK  1 active torsions:
REMARK  status: ('A' for Active; 'I' for Inactive)
REMARK    1  A    between atoms: C1_2  and  C2_3 
ROOT
ATOM      1  C2  UNL d   1       0.818   1.034   2.263  0.00  0.00    -0.077 A 
ATOM      2  C3  UNL d   1       0.358   2.280   1.812  0.00  0.00     0.002 A 
ATOM      3  C4  UNL d   1       0.977   2.912   0.732  0.00  0.00     0.002 A 
ATOM      4  C5  UNL d   1       2.054   2.304   0.091  0.00  0.00    -0.004 A 
ATOM      5  C6  UNL d   1       2.520   1.066   0.533  0.00  0.00     0.002 A 
ATOM      6  C7  UNL d   1       1.904   0.434   1.614  0.00  0.00     0.002 A 
ENDROOT
BRANCH   1   7
ATOM      7  C1  UNL d   1       0.121   0.329   3.397  0.00  0.00     0.055 C 
ATOM      8  C   UNL d   1       1.013  -0.737   4.018  0.00  0.00     0.019 C 
ENDBRANCH   1   7
TORSDOF 1
ENDMDL
