MODEL 1
REMARK minimizedAffinity 10.1355143
REMARK minimizedRMSD -1
REMARK  1 active torsions:
REMARK  status: ('A' for Active; 'I' for Inactive)
REMARK    1  A    between atoms: C1_2  and  C2_3 
ROOT
ATOM      1  C2  UNL d   1       5.270   3.905  -4.190  0.00  0.00    -0.077 A 
ATOM      2  C3  UNL d   1       3.872   4.003  -4.179  0.00  0.00     0.002 A 
ATOM      3  C4  UNL d   1       3.216   4.854  -5.071  0.00  0.00     0.002 A 
ATOM      4  C5  UNL d   1       3.950   5.610  -5.982  0.00  0.00    -0.004 A 
ATOM      5  C6  UNL d   1       5.342   5.521  -5.999  0.00  0.00     0.002 A 
ATOM      6  C7  UNL d   1       5.999   4.672  -5.108  0.00  0.00     0.002 A 
ENDROOT
BRANCH   1   7
ATOM      7  C1  UNL d   1       5.976   2.951  -3.262  0.00  0.00     0.055 C 
ATOM      8  C   UNL d   1       4.983   2.152  -2.430  0.00  0.00     0.019 C 
ENDBRANCH   1   7
TORSDOF 1
ENDMDL
