MODEL 1
REMARK minimizedAffinity 17.2660847
REMARK minimizedRMSD -1
REMARK  1 active torsions:
REMARK  status: ('A' for Active; 'I' for Inactive)
REMARK    1  A    between atoms: C1_2  and  C2_3 
ROOT
ATOM      1  C2  UNL d   1      -2.306  -2.810  -0.944  0.00  0.00    -0.077 A 
ATOM      2  C3  UNL d   1      -3.530  -3.363  -1.344  0.00  0.00     0.002 A 
ATOM      3  C4  UNL d   1      -3.868  -3.426  -2.697  0.00  0.00     0.002 A 
ATOM      4  C5  UNL d   1      -2.986  -2.942  -3.661  0.00  0.00    -0.004 A 
ATOM      5  C6  UNL d   1      -1.766  -2.389  -3.273  0.00  0.00     0.002 A 
ATOM      6  C7  UNL d   1      -1.427  -2.323  -1.921  0.00  0.00     0.002 A 
ENDROOT
BRANCH   1   7
ATOM      7  C1  UNL d   1      -1.918  -2.785   0.512  0.00  0.00     0.055 C 
ATOM      8  C   UNL d   1      -0.422  -2.999   0.690  0.00  0.00     0.019 C 
ENDBRANCH   1   7
TORSDOF 1
ENDMDL
