MODEL 1
REMARK minimizedAffinity 4.69343328
REMARK minimizedRMSD -1
REMARK  1 active torsions:
REMARK  status: ('A' for Active; 'I' for Inactive)
REMARK    1  A    between atoms: C1_2  and  C2_3 
ROOT
ATOM      1  C2  UNL d   1       2.806   0.595   1.276  0.00  0.00    -0.077 A 
ATOM      2  C3  UNL d   1       3.194   1.518   0.295  0.00  0.00     0.002 A 
ATOM      3  C4  UNL d   1       2.540   1.556  -0.938  0.00  0.00     0.002 A 
ATOM      4  C5  UNL d   1       1.491   0.676  -1.199  0.00  0.00    -0.004 A 
ATOM      5  C6  UNL d   1       1.099  -0.247  -0.231  0.00  0.00     0.002 A 
ATOM      6  C7  UNL d   1       1.753  -0.287   1.001  0.00  0.00     0.002 A 
ENDROOT
BRANCH   1   7
ATOM      7  C1  UNL d   1       3.478   0.586   2.624  0.00  0.00     0.055 C 
ATOM      8  C   UNL d   1       4.935   0.161   2.514  0.00  0.00     0.019 C 
ENDBRANCH   1   7
TORSDOF 1
ENDMDL
