MODEL 1
REMARK minimizedAffinity 14.6050348
REMARK minimizedRMSD -1
REMARK  1 active torsions:
REMARK  status: ('A' for Active; 'I' for Inactive)
REMARK    1  A    between atoms: C1_2  and  C2_3 
ROOT
ATOM      1  C2  UNL d   1      -3.771  -3.409  -2.185  0.00  0.00    -0.077 A 
ATOM      2  C3  UNL d   1      -4.952  -3.340  -2.938  0.00  0.00     0.002 A 
ATOM      3  C4  UNL d   1      -5.898  -4.365  -2.863  0.00  0.00     0.002 A 
ATOM      4  C5  UNL d   1      -5.674  -5.462  -2.033  0.00  0.00    -0.004 A 
ATOM      5  C6  UNL d   1      -4.502  -5.540  -1.282  0.00  0.00     0.002 A 
ATOM      6  C7  UNL d   1      -3.555  -4.518  -1.357  0.00  0.00     0.002 A 
ENDROOT
BRANCH   1   7
ATOM      7  C1  UNL d   1      -2.773  -2.281  -2.227  0.00  0.00     0.055 C 
ATOM      8  C   UNL d   1      -2.358  -1.857  -0.826  0.00  0.00     0.019 C 
ENDBRANCH   1   7
TORSDOF 1
ENDMDL
