MODEL 1
REMARK minimizedAffinity 3.10066938
REMARK minimizedRMSD -1
REMARK  1 active torsions:
REMARK  status: ('A' for Active; 'I' for Inactive)
REMARK    1  A    between atoms: C1_2  and  C2_3 
ROOT
ATOM      1  C2  UNL d   1      -3.810  -3.865  -2.676  0.00  0.00    -0.077 A 
ATOM      2  C3  UNL d   1      -3.789  -5.122  -2.056  0.00  0.00     0.002 A 
ATOM      3  C4  UNL d   1      -4.865  -6.000  -2.200  0.00  0.00     0.002 A 
ATOM      4  C5  UNL d   1      -5.968  -5.632  -2.968  0.00  0.00    -0.004 A 
ATOM      5  C6  UNL d   1      -6.000  -4.383  -3.587  0.00  0.00     0.002 A 
ATOM      6  C7  UNL d   1      -4.925  -3.504  -3.443  0.00  0.00     0.002 A 
ENDROOT
BRANCH   1   7
ATOM      7  C1  UNL d   1      -2.629  -2.937  -2.562  0.00  0.00     0.055 C 
ATOM      8  C   UNL d   1      -2.322  -2.608  -1.108  0.00  0.00     0.019 C 
ENDBRANCH   1   7
TORSDOF 1
ENDMDL
