MODEL 1
REMARK minimizedAffinity 9.04153824
REMARK minimizedRMSD -1
REMARK  1 active torsions:
REMARK  status: ('A' for Active; 'I' for Inactive)
REMARK    1  A    between atoms: C1_2  and  C2_3 
ROOT
ATOM      1  C2  UNL d   1       3.322   3.554  -4.617  0.00  0.00    -0.077 A 
ATOM      2  C3  UNL d   1       2.207   3.603  -5.465  0.00  0.00     0.002 A 
ATOM      3  C4  UNL d   1       1.778   4.820  -5.997  0.00  0.00     0.002 A 
ATOM      4  C5  UNL d   1       2.460   5.996  -5.691  0.00  0.00    -0.004 A 
ATOM      5  C6  UNL d   1       3.568   5.958  -4.847  0.00  0.00     0.002 A 
ATOM      6  C7  UNL d   1       3.998   4.742  -4.313  0.00  0.00     0.002 A 
ENDROOT
BRANCH   1   7
ATOM      7  C1  UNL d   1       3.816   2.236  -4.081  0.00  0.00     0.055 C 
ATOM      8  C   UNL d   1       4.273   2.362  -2.635  0.00  0.00     0.019 C 
ENDBRANCH   1   7
TORSDOF 1
ENDMDL
