MODEL 1
REMARK minimizedAffinity 5.87572289
REMARK minimizedRMSD -1
REMARK  1 active torsions:
REMARK  status: ('A' for Active; 'I' for Inactive)
REMARK    1  A    between atoms: C1_2  and  C2_3 
ROOT
ATOM      1  C2  UNL d   1      -4.946   1.412   3.814  0.00  0.00    -0.077 A 
ATOM      2  C3  UNL d   1      -5.551   0.780   4.910  0.00  0.00     0.002 A 
ATOM      3  C4  UNL d   1      -5.999   1.531   5.999  0.00  0.00     0.002 A 
ATOM      4  C5  UNL d   1      -5.850   2.917   6.000  0.00  0.00    -0.004 A 
ATOM      5  C6  UNL d   1      -5.248   3.553   4.915  0.00  0.00     0.002 A 
ATOM      6  C7  UNL d   1      -4.799   2.805   3.827  0.00  0.00     0.002 A 
ENDROOT
BRANCH   1   7
ATOM      7  C1  UNL d   1      -4.507   0.609   2.617  0.00  0.00     0.055 C 
ATOM      8  C   UNL d   1      -3.480  -0.445   3.004  0.00  0.00     0.019 C 
ENDBRANCH   1   7
TORSDOF 1
ENDMDL
