MODEL 1
REMARK minimizedAffinity 12.7703581
REMARK minimizedRMSD -1
REMARK  1 active torsions:
REMARK  status: ('A' for Active; 'I' for Inactive)
REMARK    1  A    between atoms: C1_2  and  C2_3 
ROOT
ATOM      1  C2  UNL d   1       2.385   0.892   0.576  0.00  0.00    -0.077 A 
ATOM      2  C3  UNL d   1       2.417   2.049   1.366  0.00  0.00     0.002 A 
ATOM      3  C4  UNL d   1       1.458   2.252   2.361  0.00  0.00     0.002 A 
ATOM      4  C5  UNL d   1       0.463   1.301   2.576  0.00  0.00    -0.004 A 
ATOM      5  C6  UNL d   1       0.422   0.147   1.794  0.00  0.00     0.002 A 
ATOM      6  C7  UNL d   1       1.379  -0.057   0.799  0.00  0.00     0.002 A 
ENDROOT
BRANCH   1   7
ATOM      7  C1  UNL d   1       3.448   0.647  -0.464  0.00  0.00     0.055 C 
ATOM      8  C   UNL d   1       4.423   1.813  -0.543  0.00  0.00     0.019 C 
ENDBRANCH   1   7
TORSDOF 1
ENDMDL
