MODEL 1
REMARK minimizedAffinity 8.67125034
REMARK minimizedRMSD -1
REMARK  1 active torsions:
REMARK  status: ('A' for Active; 'I' for Inactive)
REMARK    1  A    between atoms: C1_2  and  C2_3 
ROOT
ATOM      1  C2  UNL d   1      -0.274  -3.868  -4.423  0.00  0.00    -0.077 A 
ATOM      2  C3  UNL d   1      -1.100  -3.439  -3.374  0.00  0.00     0.002 A 
ATOM      3  C4  UNL d   1      -2.388  -2.968  -3.637  0.00  0.00     0.002 A 
ATOM      4  C5  UNL d   1      -2.862  -2.925  -4.946  0.00  0.00    -0.004 A 
ATOM      5  C6  UNL d   1      -2.048  -3.348  -5.996  0.00  0.00     0.002 A 
ATOM      6  C7  UNL d   1      -0.760  -3.818  -5.735  0.00  0.00     0.002 A 
ENDROOT
BRANCH   1   7
ATOM      7  C1  UNL d   1       1.097  -4.423  -4.137  0.00  0.00     0.055 C 
ATOM      8  C   UNL d   1       2.186  -3.436  -4.529  0.00  0.00     0.019 C 
ENDBRANCH   1   7
TORSDOF 1
ENDMDL
