MODEL 1
REMARK minimizedAffinity 3.77485228
REMARK minimizedRMSD -1
REMARK  1 active torsions:
REMARK  status: ('A' for Active; 'I' for Inactive)
REMARK    1  A    between atoms: C1_2  and  C2_3 
ROOT
ATOM      1  C2  UNL d   1      -3.945   1.831   3.704  0.00  0.00    -0.077 A 
ATOM      2  C3  UNL d   1      -4.108   0.442   3.612  0.00  0.00     0.002 A 
ATOM      3  C4  UNL d   1      -3.177  -0.335   2.920  0.00  0.00     0.002 A 
ATOM      4  C5  UNL d   1      -2.075   0.268   2.318  0.00  0.00    -0.004 A 
ATOM      5  C6  UNL d   1      -1.905   1.649   2.401  0.00  0.00     0.002 A 
ATOM      6  C7  UNL d   1      -2.835   2.427   3.092  0.00  0.00     0.002 A 
ENDROOT
BRANCH   1   7
ATOM      7  C1  UNL d   1      -4.921   2.665   4.492  0.00  0.00     0.055 C 
ATOM      8  C   UNL d   1      -4.890   2.304   5.970  0.00  0.00     0.019 C 
ENDBRANCH   1   7
TORSDOF 1
ENDMDL
