MODEL 1
REMARK minimizedAffinity -2.15118885
REMARK minimizedRMSD -1
REMARK  0 active torsions:
REMARK  status: ('A' for Active; 'I' for Inactive)
ROOT
ATOM      1  O1  BZF d   1       0.957  -0.359  -0.217  0.00  0.00    -0.204 OA
ATOM      2  C2  BZF d   1       0.004   0.253   0.575  0.00  0.00     0.174 A 
ATOM      3  C3  BZF d   1      -1.149  -0.445   0.560  0.00  0.00    -0.012 A 
ATOM      4  C3A BZF d   1      -0.874  -1.612  -0.221  0.00  0.00    -0.107 A 
ATOM      5  C4  BZF d   1      -1.620  -2.696  -0.585  0.00  0.00     0.055 A 
ATOM      6  C5  BZF d   1      -1.075  -3.624  -1.414  0.00  0.00    -0.016 A 
ATOM      7  C6  BZF d   1       0.209  -3.498  -1.902  0.00  0.00     0.022 A 
ATOM      8  C7  BZF d   1       0.990  -2.442  -1.565  0.00  0.00     0.029 A 
ATOM      9  C7A BZF d   1       0.453  -1.519  -0.700  0.00  0.00     0.058 A 
ENDROOT
TORSDOF 0
ENDMDL
