MODEL 1
REMARK minimizedAffinity -4.61488819
REMARK minimizedRMSD -1
REMARK  0 active torsions:
REMARK  status: ('A' for Active; 'I' for Inactive)
ROOT
ATOM      1  O1  BZF d   1       2.065   0.646   0.484  0.00  0.00    -0.204 OA
ATOM      2  C2  BZF d   1       2.738   1.840   0.659  0.00  0.00     0.174 A 
ATOM      3  C3  BZF d   1       1.898   2.887   0.527  0.00  0.00    -0.012 A 
ATOM      4  C3A BZF d   1       0.602   2.309   0.343  0.00  0.00    -0.107 A 
ATOM      5  C4  BZF d   1      -0.645   2.836   0.171  0.00  0.00     0.055 A 
ATOM      6  C5  BZF d   1      -1.691   1.999  -0.054  0.00  0.00    -0.016 A 
ATOM      7  C6  BZF d   1      -1.525   0.631  -0.119  0.00  0.00     0.022 A 
ATOM      8  C7  BZF d   1      -0.308   0.061   0.050  0.00  0.00     0.029 A 
ATOM      9  C7A BZF d   1       0.746   0.902   0.311  0.00  0.00     0.058 A 
ENDROOT
TORSDOF 0
ENDMDL
