MODEL 1
REMARK minimizedAffinity -4.50075769
REMARK minimizedRMSD -1
REMARK  0 active torsions:
REMARK  status: ('A' for Active; 'I' for Inactive)
ROOT
ATOM      1  O1  BZF d   1       0.743  -0.653   0.289  0.00  0.00    -0.204 OA
ATOM      2  C2  BZF d   1      -0.609  -0.931   0.352  0.00  0.00     0.174 A 
ATOM      3  C3  BZF d   1      -1.326   0.207   0.453  0.00  0.00    -0.012 A 
ATOM      4  C3A BZF d   1      -0.368   1.266   0.360  0.00  0.00    -0.107 A 
ATOM      5  C4  BZF d   1      -0.469   2.627   0.379  0.00  0.00     0.055 A 
ATOM      6  C5  BZF d   1       0.666   3.374   0.341  0.00  0.00    -0.016 A 
ATOM      7  C6  BZF d   1       1.916   2.793   0.290  0.00  0.00     0.022 A 
ATOM      8  C7  BZF d   1       2.066   1.446   0.264  0.00  0.00     0.029 A 
ATOM      9  C7A BZF d   1       0.920   0.689   0.269  0.00  0.00     0.058 A 
ENDROOT
TORSDOF 0
ENDMDL
