MODEL 1
REMARK minimizedAffinity -4.99254894
REMARK minimizedRMSD -1
REMARK  0 active torsions:
REMARK  status: ('A' for Active; 'I' for Inactive)
ROOT
ATOM      1  O1  BZF d   1      -1.126  -1.044   0.376  0.00  0.00    -0.204 OA
ATOM      2  C2  BZF d   1      -0.041  -1.863   0.129  0.00  0.00     0.174 A 
ATOM      3  C3  BZF d   1       1.051  -1.132  -0.174  0.00  0.00    -0.012 A 
ATOM      4  C3A BZF d   1       0.645   0.231  -0.022  0.00  0.00    -0.107 A 
ATOM      5  C4  BZF d   1       1.292   1.425  -0.168  0.00  0.00     0.055 A 
ATOM      6  C5  BZF d   1       0.591   2.579  -0.016  0.00  0.00    -0.016 A 
ATOM      7  C6  BZF d   1      -0.758   2.576   0.275  0.00  0.00     0.022 A 
ATOM      8  C7  BZF d   1      -1.441   1.417   0.434  0.00  0.00     0.029 A 
ATOM      9  C7A BZF d   1      -0.728   0.249   0.314  0.00  0.00     0.058 A 
ENDROOT
TORSDOF 0
ENDMDL
