MODEL 1
REMARK minimizedAffinity -5.52499008
REMARK minimizedRMSD -1
REMARK  0 active torsions:
REMARK  status: ('A' for Active; 'I' for Inactive)
ROOT
ATOM      1  O1  BZF d   1      -0.659   2.815  -0.177  0.00  0.00    -0.204 OA
ATOM      2  C2  BZF d   1       0.494   3.189  -0.839  0.00  0.00     0.174 A 
ATOM      3  C3  BZF d   1       1.324   2.136  -0.986  0.00  0.00    -0.012 A 
ATOM      4  C3A BZF d   1       0.606   1.015  -0.461  0.00  0.00    -0.107 A 
ATOM      5  C4  BZF d   1       0.897  -0.314  -0.341  0.00  0.00     0.055 A 
ATOM      6  C5  BZF d   1       0.009  -1.130   0.286  0.00  0.00    -0.016 A 
ATOM      7  C6  BZF d   1      -1.174  -0.651   0.808  0.00  0.00     0.022 A 
ATOM      8  C7  BZF d   1      -1.509   0.658   0.709  0.00  0.00     0.029 A 
ATOM      9  C7A BZF d   1      -0.629   1.480   0.048  0.00  0.00     0.058 A 
ENDROOT
TORSDOF 0
ENDMDL
