MODEL 1
REMARK minimizedAffinity -5.24143791
REMARK minimizedRMSD -1
REMARK  0 active torsions:
REMARK  status: ('A' for Active; 'I' for Inactive)
ROOT
ATOM      1  O1  BZF d   1       0.534  -0.693  -0.066  0.00  0.00    -0.204 OA
ATOM      2  C2  BZF d   1      -0.762  -0.964   0.329  0.00  0.00     0.174 A 
ATOM      3  C3  BZF d   1      -1.439   0.179   0.562  0.00  0.00    -0.012 A 
ATOM      4  C3A BZF d   1      -0.537   1.231   0.207  0.00  0.00    -0.107 A 
ATOM      5  C4  BZF d   1      -0.636   2.593   0.204  0.00  0.00     0.055 A 
ATOM      6  C5  BZF d   1       0.452   3.334  -0.131  0.00  0.00    -0.016 A 
ATOM      7  C6  BZF d   1       1.656   2.748  -0.463  0.00  0.00     0.022 A 
ATOM      8  C7  BZF d   1       1.802   1.400  -0.479  0.00  0.00     0.029 A 
ATOM      9  C7A BZF d   1       0.694   0.648  -0.173  0.00  0.00     0.058 A 
ENDROOT
TORSDOF 0
ENDMDL
