MODEL 1
REMARK minimizedAffinity -5.67077732
REMARK minimizedRMSD -1
REMARK  0 active torsions:
REMARK  status: ('A' for Active; 'I' for Inactive)
ROOT
ATOM      1  O1  BZF d   1      -1.281  -0.657   0.580  0.00  0.00    -0.204 OA
ATOM      2  C2  BZF d   1      -0.202  -1.520   0.539  0.00  0.00     0.174 A 
ATOM      3  C3  BZF d   1       0.907  -0.879   0.119  0.00  0.00    -0.012 A 
ATOM      4  C3A BZF d   1       0.518   0.490  -0.029  0.00  0.00    -0.107 A 
ATOM      5  C4  BZF d   1       1.186   1.620  -0.404  0.00  0.00     0.055 A 
ATOM      6  C5  BZF d   1       0.498   2.787  -0.517  0.00  0.00    -0.016 A 
ATOM      7  C6  BZF d   1      -0.857   2.858  -0.268  0.00  0.00     0.022 A 
ATOM      8  C7  BZF d   1      -1.561   1.764   0.112  0.00  0.00     0.029 A 
ATOM      9  C7A BZF d   1      -0.863   0.591   0.259  0.00  0.00     0.058 A 
ENDROOT
TORSDOF 0
ENDMDL
