MODEL 1
REMARK minimizedAffinity -3.59463596
REMARK minimizedRMSD -1
REMARK  0 active torsions:
REMARK  status: ('A' for Active; 'I' for Inactive)
ROOT
ATOM      1  O1  BZF d   1       1.257  -0.821  -0.340  0.00  0.00    -0.204 OA
ATOM      2  C2  BZF d   1       0.267  -1.784  -0.350  0.00  0.00     0.174 A 
ATOM      3  C3  BZF d   1      -0.953  -1.217  -0.258  0.00  0.00    -0.012 A 
ATOM      4  C3A BZF d   1      -0.715   0.194  -0.280  0.00  0.00    -0.107 A 
ATOM      5  C4  BZF d   1      -1.534   1.285  -0.235  0.00  0.00     0.055 A 
ATOM      6  C5  BZF d   1      -0.981   2.526  -0.200  0.00  0.00    -0.016 A 
ATOM      7  C6  BZF d   1       0.386   2.711  -0.204  0.00  0.00     0.022 A 
ATOM      8  C7  BZF d   1       1.239   1.660  -0.253  0.00  0.00     0.029 A 
ATOM      9  C7A BZF d   1       0.683   0.406  -0.321  0.00  0.00     0.058 A 
ENDROOT
TORSDOF 0
ENDMDL
