MODEL 1
REMARK minimizedAffinity -2.13211966
REMARK minimizedRMSD -1
REMARK  0 active torsions:
REMARK  status: ('A' for Active; 'I' for Inactive)
ROOT
ATOM      1  O1  BZF d   1       0.635  -0.130  -0.681  0.00  0.00    -0.204 OA
ATOM      2  C2  BZF d   1      -0.563  -0.668  -0.255  0.00  0.00     0.174 A 
ATOM      3  C3  BZF d   1      -1.283   0.245   0.428  0.00  0.00    -0.012 A 
ATOM      4  C3A BZF d   1      -0.525   1.456   0.349  0.00  0.00    -0.107 A 
ATOM      5  C4  BZF d   1      -0.726   2.722   0.820  0.00  0.00     0.055 A 
ATOM      6  C5  BZF d   1       0.242   3.658   0.635  0.00  0.00    -0.016 A 
ATOM      7  C6  BZF d   1       1.424   3.361  -0.012  0.00  0.00     0.022 A 
ATOM      8  C7  BZF d   1       1.667   2.121  -0.502  0.00  0.00     0.029 A 
ATOM      9  C7A BZF d   1       0.677   1.182  -0.344  0.00  0.00     0.058 A 
ENDROOT
TORSDOF 0
ENDMDL
