MODEL 1
REMARK minimizedAffinity -2.21791267
REMARK minimizedRMSD -1
REMARK  0 active torsions:
REMARK  status: ('A' for Active; 'I' for Inactive)
ROOT
ATOM      1  O1  BZF d   1       1.111  -1.184   0.693  0.00  0.00    -0.204 OA
ATOM      2  C2  BZF d   1       2.321  -0.531   0.559  0.00  0.00     0.174 A 
ATOM      3  C3  BZF d   1       2.132   0.789   0.361  0.00  0.00    -0.012 A 
ATOM      4  C3A BZF d   1       0.719   0.988   0.465  0.00  0.00    -0.107 A 
ATOM      5  C4  BZF d   1      -0.083   2.089   0.378  0.00  0.00     0.055 A 
ATOM      6  C5  BZF d   1      -1.431   1.932   0.453  0.00  0.00    -0.016 A 
ATOM      7  C6  BZF d   1      -2.010   0.690   0.610  0.00  0.00     0.022 A 
ATOM      8  C7  BZF d   1      -1.255  -0.432   0.706  0.00  0.00     0.029 A 
ATOM      9  C7A BZF d   1       0.109  -0.272   0.664  0.00  0.00     0.058 A 
ENDROOT
TORSDOF 0
ENDMDL
