MODEL 1
REMARK minimizedAffinity -3.96507359
REMARK minimizedRMSD -1
REMARK  0 active torsions:
REMARK  status: ('A' for Active; 'I' for Inactive)
ROOT
ATOM      1  O1  BZF d   1      -1.237  -0.243   0.535  0.00  0.00    -0.204 OA
ATOM      2  C2  BZF d   1      -0.523  -1.391   0.253  0.00  0.00     0.174 A 
ATOM      3  C3  BZF d   1       0.696  -1.088  -0.238  0.00  0.00    -0.012 A 
ATOM      4  C3A BZF d   1       0.782   0.339  -0.176  0.00  0.00    -0.107 A 
ATOM      5  C4  BZF d   1       1.757   1.237  -0.508  0.00  0.00     0.055 A 
ATOM      6  C5  BZF d   1       1.497   2.566  -0.395  0.00  0.00    -0.016 A 
ATOM      7  C6  BZF d   1       0.274   3.032   0.040  0.00  0.00     0.022 A 
ATOM      8  C7  BZF d   1      -0.722   2.180   0.385  0.00  0.00     0.029 A 
ATOM      9  C7A BZF d   1      -0.452   0.836   0.304  0.00  0.00     0.058 A 
ENDROOT
TORSDOF 0
ENDMDL
