MODEL 1
REMARK minimizedAffinity -2.54610634
REMARK minimizedRMSD -1
REMARK  0 active torsions:
REMARK  status: ('A' for Active; 'I' for Inactive)
ROOT
ATOM      1  O1  BZF d   1      -0.195  -1.020   0.508  0.00  0.00    -0.204 OA
ATOM      2  C2  BZF d   1       1.165  -1.201   0.348  0.00  0.00     0.174 A 
ATOM      3  C3  BZF d   1       1.767  -0.040   0.020  0.00  0.00    -0.012 A 
ATOM      4  C3A BZF d   1       0.731   0.947   0.063  0.00  0.00    -0.107 A 
ATOM      5  C4  BZF d   1       0.709   2.295  -0.153  0.00  0.00     0.055 A 
ATOM      6  C5  BZF d   1      -0.479   2.952  -0.103  0.00  0.00    -0.016 A 
ATOM      7  C6  BZF d   1      -1.663   2.293   0.154  0.00  0.00     0.022 A 
ATOM      8  C7  BZF d   1      -1.691   0.957   0.379  0.00  0.00     0.029 A 
ATOM      9  C7A BZF d   1      -0.488   0.295   0.362  0.00  0.00     0.058 A 
ENDROOT
TORSDOF 0
ENDMDL
