MODEL 1
REMARK minimizedAffinity -3.53758574
REMARK minimizedRMSD -1
REMARK  0 active torsions:
REMARK  status: ('A' for Active; 'I' for Inactive)
ROOT
ATOM      1  O1  BZF d   1       1.221   2.554  -0.153  0.00  0.00    -0.204 OA
ATOM      2  C2  BZF d   1       0.033   3.256  -0.080  0.00  0.00     0.174 A 
ATOM      3  C3  BZF d   1      -1.010   2.417   0.081  0.00  0.00    -0.012 A 
ATOM      4  C3A BZF d   1      -0.429   1.115   0.203  0.00  0.00    -0.107 A 
ATOM      5  C4  BZF d   1      -0.952  -0.132   0.398  0.00  0.00     0.055 A 
ATOM      6  C5  BZF d   1      -0.119  -1.205   0.398  0.00  0.00    -0.016 A 
ATOM      7  C6  BZF d   1       1.240  -1.069   0.202  0.00  0.00     0.022 A 
ATOM      8  C7  BZF d   1       1.806   0.148   0.010  0.00  0.00     0.029 A 
ATOM      9  C7A BZF d   1       0.970   1.237   0.042  0.00  0.00     0.058 A 
ENDROOT
TORSDOF 0
ENDMDL
