MODEL 1
REMARK minimizedAffinity -1.713853
REMARK minimizedRMSD -1
REMARK  0 active torsions:
REMARK  status: ('A' for Active; 'I' for Inactive)
ROOT
ATOM      1  O1  BZF d   1       0.776   2.996  -0.734  0.00  0.00    -0.204 OA
ATOM      2  C2  BZF d   1       0.420   3.763   0.359  0.00  0.00     0.174 A 
ATOM      3  C3  BZF d   1      -0.268   3.027   1.256  0.00  0.00    -0.012 A 
ATOM      4  C3A BZF d   1      -0.267   1.696   0.730  0.00  0.00    -0.107 A 
ATOM      5  C4  BZF d   1      -0.779   0.511   1.175  0.00  0.00     0.055 A 
ATOM      6  C5  BZF d   1      -0.669  -0.592   0.389  0.00  0.00    -0.016 A 
ATOM      7  C6  BZF d   1      -0.060  -0.545  -0.848  0.00  0.00     0.022 A 
ATOM      8  C7  BZF d   1       0.467   0.607  -1.330  0.00  0.00     0.029 A 
ATOM      9  C7A BZF d   1       0.387   1.716  -0.523  0.00  0.00     0.058 A 
ENDROOT
TORSDOF 0
ENDMDL
