MODEL 1
REMARK minimizedAffinity 16.4841003
REMARK minimizedRMSD -1
REMARK  0 active torsions:
REMARK  status: ('A' for Active; 'I' for Inactive)
ROOT
ATOM      1  O1  BZF d   1       0.918  -4.197  -3.769  0.00  0.00    -0.204 OA
ATOM      2  C2  BZF d   1       0.183  -5.135  -3.071  0.00  0.00     0.174 A 
ATOM      3  C3  BZF d   1       0.733  -5.372  -1.863  0.00  0.00    -0.012 A 
ATOM      4  C3A BZF d   1       1.831  -4.460  -1.764  0.00  0.00    -0.107 A 
ATOM      5  C4  BZF d   1       2.754  -4.204  -0.790  0.00  0.00     0.055 A 
ATOM      6  C5  BZF d   1       3.740  -3.302  -1.036  0.00  0.00    -0.016 A 
ATOM      7  C6  BZF d   1       3.836  -2.643  -2.244  0.00  0.00     0.022 A 
ATOM      8  C7  BZF d   1       2.941  -2.860  -3.238  0.00  0.00     0.029 A 
ATOM      9  C7A BZF d   1       1.924  -3.746  -2.981  0.00  0.00     0.058 A 
ENDROOT
TORSDOF 0
ENDMDL
