MODEL 1
REMARK minimizedAffinity -3.92399621
REMARK minimizedRMSD -1
REMARK  1 active torsions:
REMARK  status: ('A' for Active; 'I' for Inactive)
REMARK    1  A    between atoms: C1_2  and  C2_3 
ROOT
ATOM      1  C2  UNL d   1       1.459   3.765  -0.764  0.00  0.00    -0.073 A 
ATOM      2  C3  UNL d   1       1.553   3.387  -2.108  0.00  0.00    -0.002 A 
ATOM      3  C4  UNL d   1       1.529   2.038  -2.464  0.00  0.00     0.004 A 
ATOM      4  C5  UNL d   1       1.404   1.055  -1.482  0.00  0.00    -0.004 A 
ATOM      5  C6  UNL d   1       1.297   1.414  -0.135  0.00  0.00    -0.075 A 
ATOM      6  C7  UNL d   1       1.164   0.368   0.934  0.00  0.00     0.076 C 
ATOM      7  C8  UNL d   1       1.325   2.770   0.215  0.00  0.00     0.001 A 
ENDROOT
BRANCH   1   8
ATOM      8  C1  UNL d   1       1.478   5.221  -0.375  0.00  0.00     0.053 C 
ATOM      9  C   UNL d   1       2.541   6.000  -1.134  0.00  0.00     0.018 C 
ENDBRANCH   1   8
TORSDOF 1
ENDMDL
