MODEL 1
REMARK minimizedAffinity -3.32650232
REMARK minimizedRMSD -1
REMARK  1 active torsions:
REMARK  status: ('A' for Active; 'I' for Inactive)
REMARK    1  A    between atoms: C1_2  and  C2_3 
ROOT
ATOM      1  C2  UNL d   1       1.615   2.739  -1.284  0.00  0.00    -0.073 A 
ATOM      2  C3  UNL d   1       1.324   1.580  -2.014  0.00  0.00    -0.002 A 
ATOM      3  C4  UNL d   1       1.056   0.380  -1.354  0.00  0.00     0.004 A 
ATOM      4  C5  UNL d   1       1.068   0.327   0.039  0.00  0.00    -0.004 A 
ATOM      5  C6  UNL d   1       1.344   1.476   0.787  0.00  0.00    -0.075 A 
ATOM      6  C7  UNL d   1       1.363   1.435   2.287  0.00  0.00     0.076 C 
ATOM      7  C8  UNL d   1       1.616   2.677   0.117  0.00  0.00     0.001 A 
ENDROOT
BRANCH   1   8
ATOM      8  C1  UNL d   1       1.899   4.038  -1.991  0.00  0.00     0.053 C 
ATOM      9  C   UNL d   1       2.268   5.148  -1.019  0.00  0.00     0.018 C 
ENDBRANCH   1   8
TORSDOF 1
ENDMDL
