MODEL 1
REMARK minimizedAffinity 0.698093235
REMARK minimizedRMSD -1
REMARK  1 active torsions:
REMARK  status: ('A' for Active; 'I' for Inactive)
REMARK    1  A    between atoms: C1_2  and  C2_3 
ROOT
ATOM      1  C2  UNL d   1       1.200   3.157  -0.977  0.00  0.00    -0.073 A 
ATOM      2  C3  UNL d   1       1.238   3.107  -2.375  0.00  0.00    -0.002 A 
ATOM      3  C4  UNL d   1       1.320   1.880  -3.035  0.00  0.00     0.004 A 
ATOM      4  C5  UNL d   1       1.358   0.692  -2.305  0.00  0.00    -0.004 A 
ATOM      5  C6  UNL d   1       1.310   0.721  -0.907  0.00  0.00    -0.075 A 
ATOM      6  C7  UNL d   1       1.352  -0.548  -0.108  0.00  0.00     0.076 C 
ATOM      7  C8  UNL d   1       1.230   1.957  -0.252  0.00  0.00     0.001 A 
ENDROOT
BRANCH   1   8
ATOM      8  C1  UNL d   1       1.105   4.480  -0.261  0.00  0.00     0.053 C 
ATOM      9  C   UNL d   1       1.869   5.577  -0.985  0.00  0.00     0.018 C 
ENDBRANCH   1   8
TORSDOF 1
ENDMDL
