MODEL 1
REMARK minimizedAffinity -1.97299659
REMARK minimizedRMSD -1
REMARK  1 active torsions:
REMARK  status: ('A' for Active; 'I' for Inactive)
REMARK    1  A    between atoms: C1_2  and  C2_3 
ROOT
ATOM      1  C2  UNL d   1       1.383   2.541  -1.088  0.00  0.00    -0.073 A 
ATOM      2  C3  UNL d   1       0.964   1.414  -1.803  0.00  0.00    -0.002 A 
ATOM      3  C4  UNL d   1       0.884   0.170  -1.175  0.00  0.00     0.004 A 
ATOM      4  C5  UNL d   1       1.215   0.042   0.174  0.00  0.00    -0.004 A 
ATOM      5  C6  UNL d   1       1.625   1.159   0.908  0.00  0.00    -0.075 A 
ATOM      6  C7  UNL d   1       1.987   1.038   2.360  0.00  0.00     0.076 C 
ATOM      7  C8  UNL d   1       1.705   2.404   0.270  0.00  0.00     0.001 A 
ENDROOT
BRANCH   1   8
ATOM      8  C1  UNL d   1       1.464   3.887  -1.760  0.00  0.00     0.053 C 
ATOM      9  C   UNL d   1       1.737   5.005  -0.766  0.00  0.00     0.018 C 
ENDBRANCH   1   8
TORSDOF 1
ENDMDL
