MODEL 1
REMARK minimizedAffinity -0.067310147
REMARK minimizedRMSD -1
REMARK  1 active torsions:
REMARK  status: ('A' for Active; 'I' for Inactive)
REMARK    1  A    between atoms: C1_2  and  C2_3 
ROOT
ATOM      1  C2  UNL d   1       1.643   1.435   0.614  0.00  0.00    -0.073 A 
ATOM      2  C3  UNL d   1       1.594   0.077   0.281  0.00  0.00    -0.002 A 
ATOM      3  C4  UNL d   1       1.309  -0.318  -1.027  0.00  0.00     0.004 A 
ATOM      4  C5  UNL d   1       1.077   0.639  -2.014  0.00  0.00    -0.004 A 
ATOM      5  C6  UNL d   1       1.133   2.001  -1.704  0.00  0.00    -0.075 A 
ATOM      6  C7  UNL d   1       0.884   3.043  -2.754  0.00  0.00     0.076 C 
ATOM      7  C8  UNL d   1       1.417   2.390  -0.388  0.00  0.00     0.001 A 
ENDROOT
BRANCH   1   8
ATOM      8  C1  UNL d   1       1.956   1.867   2.024  0.00  0.00     0.053 C 
ATOM      9  C   UNL d   1       1.873   3.376   2.190  0.00  0.00     0.018 C 
ENDBRANCH   1   8
TORSDOF 1
ENDMDL
