MODEL 1
REMARK minimizedAffinity 9.77329636
REMARK minimizedRMSD -1
REMARK  1 active torsions:
REMARK  status: ('A' for Active; 'I' for Inactive)
REMARK    1  A    between atoms: C1_2  and  C2_3 
ROOT
ATOM      1  C2  UNL d   1      -1.533   0.091   5.981  0.00  0.00    -0.073 A 
ATOM      2  C3  UNL d   1      -1.967  -1.239   5.997  0.00  0.00    -0.002 A 
ATOM      3  C4  UNL d   1      -1.042  -2.283   6.000  0.00  0.00     0.004 A 
ATOM      4  C5  UNL d   1       0.326  -2.009   5.994  0.00  0.00    -0.004 A 
ATOM      5  C6  UNL d   1       0.780  -0.686   5.991  0.00  0.00    -0.075 A 
ATOM      6  C7  UNL d   1       2.248  -0.374   5.983  0.00  0.00     0.076 C 
ATOM      7  C8  UNL d   1      -0.156   0.357   5.985  0.00  0.00     0.001 A 
ENDROOT
BRANCH   1   8
ATOM      8  C1  UNL d   1      -2.529   1.222   5.984  0.00  0.00     0.053 C 
ATOM      9  C   UNL d   1      -2.825   1.725   4.580  0.00  0.00     0.018 C 
ENDBRANCH   1   8
TORSDOF 1
ENDMDL
