MODEL 1
REMARK minimizedAffinity 0.918172717
REMARK minimizedRMSD -1
REMARK  1 active torsions:
REMARK  status: ('A' for Active; 'I' for Inactive)
REMARK    1  A    between atoms: C1_2  and  C2_3 
ROOT
ATOM      1  C2  UNL d   1       0.707  -2.235  -1.362  0.00  0.00    -0.073 A 
ATOM      2  C3  UNL d   1       1.654  -2.444  -0.353  0.00  0.00    -0.002 A 
ATOM      3  C4  UNL d   1       2.419  -1.381   0.127  0.00  0.00     0.004 A 
ATOM      4  C5  UNL d   1       2.241  -0.098  -0.390  0.00  0.00    -0.004 A 
ATOM      5  C6  UNL d   1       1.291   0.134  -1.390  0.00  0.00    -0.075 A 
ATOM      6  C7  UNL d   1       1.088   1.507  -1.959  0.00  0.00     0.076 C 
ATOM      7  C8  UNL d   1       0.528  -0.940  -1.869  0.00  0.00     0.001 A 
ENDROOT
BRANCH   1   8
ATOM      8  C1  UNL d   1      -0.126  -3.379  -1.879  0.00  0.00     0.053 C 
ATOM      9  C   UNL d   1      -0.832  -4.123  -0.757  0.00  0.00     0.018 C 
ENDBRANCH   1   8
TORSDOF 1
ENDMDL
