MODEL 1
REMARK minimizedAffinity -2.05724239
REMARK minimizedRMSD -1
REMARK  1 active torsions:
REMARK  status: ('A' for Active; 'I' for Inactive)
REMARK    1  A    between atoms: C1_2  and  C2_3 
ROOT
ATOM      1  C2  UNL d   1       1.263   2.298  -1.149  0.00  0.00    -0.073 A 
ATOM      2  C3  UNL d   1       1.006   2.118   0.215  0.00  0.00    -0.002 A 
ATOM      3  C4  UNL d   1       1.139   3.186   1.104  0.00  0.00     0.004 A 
ATOM      4  C5  UNL d   1       1.521   4.444   0.638  0.00  0.00    -0.004 A 
ATOM      5  C6  UNL d   1       1.770   4.646  -0.723  0.00  0.00    -0.075 A 
ATOM      6  C7  UNL d   1       2.185   5.993  -1.239  0.00  0.00     0.076 C 
ATOM      7  C8  UNL d   1       1.638   3.569  -1.609  0.00  0.00     0.001 A 
ENDROOT
BRANCH   1   8
ATOM      8  C1  UNL d   1       1.115   1.150  -2.114  0.00  0.00     0.053 C 
ATOM      9  C   UNL d   1       1.097  -0.193  -1.402  0.00  0.00     0.018 C 
ENDBRANCH   1   8
TORSDOF 1
ENDMDL
