MODEL 1
REMARK minimizedAffinity -5.85839176
REMARK minimizedRMSD -1
REMARK  1 active torsions:
REMARK  status: ('A' for Active; 'I' for Inactive)
REMARK    1  A    between atoms: C1_2  and  C2_3 
ROOT
ATOM      1  C2  UNL d   1       1.333   3.092   0.951  0.00  0.00    -0.073 A 
ATOM      2  C3  UNL d   1       1.639   3.910  -0.142  0.00  0.00    -0.002 A 
ATOM      3  C4  UNL d   1       1.619   3.392  -1.438  0.00  0.00     0.004 A 
ATOM      4  C5  UNL d   1       1.287   2.054  -1.654  0.00  0.00    -0.004 A 
ATOM      5  C6  UNL d   1       0.966   1.224  -0.575  0.00  0.00    -0.075 A 
ATOM      6  C7  UNL d   1       0.609  -0.217  -0.791  0.00  0.00     0.076 C 
ATOM      7  C8  UNL d   1       0.991   1.751   0.723  0.00  0.00     0.001 A 
ENDROOT
BRANCH   1   8
ATOM      8  C1  UNL d   1       1.346   3.648   2.352  0.00  0.00     0.053 C 
ATOM      9  C   UNL d   1       2.553   3.169   3.144  0.00  0.00     0.018 C 
ENDBRANCH   1   8
TORSDOF 1
ENDMDL
