MODEL 1
REMARK minimizedAffinity 3.09629464
REMARK minimizedRMSD -1
REMARK  1 active torsions:
REMARK  status: ('A' for Active; 'I' for Inactive)
REMARK    1  A    between atoms: C1_2  and  C2_3 
ROOT
ATOM      1  C2  UNL d   1       1.474   3.080  -1.015  0.00  0.00    -0.073 A 
ATOM      2  C3  UNL d   1       1.346   3.262   0.367  0.00  0.00    -0.002 A 
ATOM      3  C4  UNL d   1       1.142   2.166   1.206  0.00  0.00     0.004 A 
ATOM      4  C5  UNL d   1       1.071   0.879   0.675  0.00  0.00    -0.004 A 
ATOM      5  C6  UNL d   1       1.208   0.675  -0.702  0.00  0.00    -0.075 A 
ATOM      6  C7  UNL d   1       1.131  -0.703  -1.289  0.00  0.00     0.076 C 
ATOM      7  C8  UNL d   1       1.410   1.781  -1.539  0.00  0.00     0.001 A 
ENDROOT
BRANCH   1   8
ATOM      8  C1  UNL d   1       1.701   4.260  -1.925  0.00  0.00     0.053 C 
ATOM      9  C   UNL d   1       2.011   5.529  -1.147  0.00  0.00     0.018 C 
ENDBRANCH   1   8
TORSDOF 1
ENDMDL
