MODEL 1
REMARK minimizedAffinity -0.632749736
REMARK minimizedRMSD -1
REMARK  1 active torsions:
REMARK  status: ('A' for Active; 'I' for Inactive)
REMARK    1  A    between atoms: C1_2  and  C2_3 
ROOT
ATOM      1  C2  UNL d   1       0.925   0.123  -1.606  0.00  0.00    -0.073 A 
ATOM      2  C3  UNL d   1       1.019  -0.225  -0.253  0.00  0.00    -0.002 A 
ATOM      3  C4  UNL d   1       1.268   0.754   0.710  0.00  0.00     0.004 A 
ATOM      4  C5  UNL d   1       1.420   2.088   0.333  0.00  0.00    -0.004 A 
ATOM      5  C6  UNL d   1       1.318   2.457  -1.013  0.00  0.00    -0.075 A 
ATOM      6  C7  UNL d   1       1.481   3.887  -1.435  0.00  0.00     0.076 C 
ATOM      7  C8  UNL d   1       1.070   1.468  -1.974  0.00  0.00     0.001 A 
ENDROOT
BRANCH   1   8
ATOM      8  C1  UNL d   1       0.650  -0.929  -2.649  0.00  0.00     0.053 C 
ATOM      9  C   UNL d   1       1.810  -1.089  -3.618  0.00  0.00     0.018 C 
ENDBRANCH   1   8
TORSDOF 1
ENDMDL
