MODEL 1
REMARK minimizedAffinity -1.59260154
REMARK minimizedRMSD -1
REMARK  1 active torsions:
REMARK  status: ('A' for Active; 'I' for Inactive)
REMARK    1  A    between atoms: C1_2  and  C2_3 
ROOT
ATOM      1  C2  UNL d   1       1.417   3.084  -0.917  0.00  0.00    -0.073 A 
ATOM      2  C3  UNL d   1       0.893   2.925   0.372  0.00  0.00    -0.002 A 
ATOM      3  C4  UNL d   1       0.604   1.651   0.863  0.00  0.00     0.004 A 
ATOM      4  C5  UNL d   1       0.841   0.525   0.075  0.00  0.00    -0.004 A 
ATOM      5  C6  UNL d   1       1.374   0.662  -1.210  0.00  0.00    -0.075 A 
ATOM      6  C7  UNL d   1       1.633  -0.540  -2.071  0.00  0.00     0.076 C 
ATOM      7  C8  UNL d   1       1.660   1.945  -1.697  0.00  0.00     0.001 A 
ENDROOT
BRANCH   1   8
ATOM      8  C1  UNL d   1       1.737   4.457  -1.449  0.00  0.00     0.053 C 
ATOM      9  C   UNL d   1       1.772   5.502  -0.346  0.00  0.00     0.018 C 
ENDBRANCH   1   8
TORSDOF 1
ENDMDL
