MODEL 1
REMARK minimizedAffinity -2.27290344
REMARK minimizedRMSD -1
REMARK  1 active torsions:
REMARK  status: ('A' for Active; 'I' for Inactive)
REMARK    1  A    between atoms: C1_2  and  C2_3 
ROOT
ATOM      1  C2  UNL d   1       1.242   3.917  -1.126  0.00  0.00    -0.073 A 
ATOM      2  C3  UNL d   1       0.540   3.285  -2.159  0.00  0.00    -0.002 A 
ATOM      3  C4  UNL d   1       0.355   1.902  -2.142  0.00  0.00     0.004 A 
ATOM      4  C5  UNL d   1       0.861   1.139  -1.090  0.00  0.00    -0.004 A 
ATOM      5  C6  UNL d   1       1.555   1.754  -0.043  0.00  0.00    -0.075 A 
ATOM      6  C7  UNL d   1       2.108   0.947   1.095  0.00  0.00     0.076 C 
ATOM      7  C8  UNL d   1       1.739   3.143  -0.069  0.00  0.00     0.001 A 
ENDROOT
BRANCH   1   8
ATOM      8  C1  UNL d   1       1.439   5.411  -1.137  0.00  0.00     0.053 C 
ATOM      9  C   UNL d   1       2.907   5.791  -1.249  0.00  0.00     0.018 C 
ENDBRANCH   1   8
TORSDOF 1
ENDMDL
