MODEL 1
REMARK minimizedAffinity -5.13385868
REMARK minimizedRMSD -1
REMARK  1 active torsions:
REMARK  status: ('A' for Active; 'I' for Inactive)
REMARK    1  A    between atoms: C1_2  and  C2_3 
ROOT
ATOM      1  C2  UNL d   1      -0.305   0.562  -0.231  0.00  0.00    -0.077 A 
ATOM      2  C3  UNL d   1       0.337   0.502   1.014  0.00  0.00     0.002 A 
ATOM      3  C4  UNL d   1      -0.397   0.636   2.194  0.00  0.00     0.002 A 
ATOM      4  C5  UNL d   1      -1.777   0.827   2.140  0.00  0.00    -0.004 A 
ATOM      5  C6  UNL d   1      -2.424   0.890   0.907  0.00  0.00     0.002 A 
ATOM      6  C7  UNL d   1      -1.691   0.757  -0.274  0.00  0.00     0.002 A 
ENDROOT
BRANCH   1   7
ATOM      7  C1  UNL d   1       0.478   0.368  -1.504  0.00  0.00     0.055 C 
ATOM      8  C   UNL d   1       0.233  -1.011  -2.100  0.00  0.00     0.019 C 
ENDBRANCH   1   7
TORSDOF 1
ENDMDL
