MODEL 1
REMARK minimizedAffinity -1.58697248
REMARK minimizedRMSD -1
REMARK  1 active torsions:
REMARK  status: ('A' for Active; 'I' for Inactive)
REMARK    1  A    between atoms: C1_2  and  C2_3 
ROOT
ATOM      1  C2  UNL d   1       0.656   0.045  -2.517  0.00  0.00    -0.077 A 
ATOM      2  C3  UNL d   1       0.117  -1.152  -3.007  0.00  0.00     0.002 A 
ATOM      3  C4  UNL d   1       0.917  -2.047  -3.721  0.00  0.00     0.002 A 
ATOM      4  C5  UNL d   1       2.260  -1.755  -3.947  0.00  0.00    -0.004 A 
ATOM      5  C6  UNL d   1       2.805  -0.566  -3.465  0.00  0.00     0.002 A 
ATOM      6  C7  UNL d   1       2.007   0.330  -2.752  0.00  0.00     0.002 A 
ENDROOT
BRANCH   1   7
ATOM      7  C1  UNL d   1      -0.192   0.988  -1.704  0.00  0.00     0.055 C 
ATOM      8  C   UNL d   1      -0.004   0.756  -0.212  0.00  0.00     0.019 C 
ENDBRANCH   1   7
TORSDOF 1
ENDMDL
