MODEL 1
REMARK minimizedAffinity -2.11712003
REMARK minimizedRMSD -1
REMARK  1 active torsions:
REMARK  status: ('A' for Active; 'I' for Inactive)
REMARK    1  A    between atoms: C1_2  and  C2_3 
ROOT
ATOM      1  C2  UNL d   1      -0.678   0.286   0.392  0.00  0.00    -0.077 A 
ATOM      2  C3  UNL d   1       0.448   0.307   1.226  0.00  0.00     0.002 A 
ATOM      3  C4  UNL d   1       0.307   0.523   2.598  0.00  0.00     0.002 A 
ATOM      4  C5  UNL d   1      -0.959   0.714   3.148  0.00  0.00    -0.004 A 
ATOM      5  C6  UNL d   1      -2.085   0.696   2.327  0.00  0.00     0.002 A 
ATOM      6  C7  UNL d   1      -1.946   0.482   0.955  0.00  0.00     0.002 A 
ENDROOT
BRANCH   1   7
ATOM      7  C1  UNL d   1      -0.533   0.005  -1.081  0.00  0.00     0.055 C 
ATOM      8  C   UNL d   1       0.853   0.386  -1.583  0.00  0.00     0.019 C 
ENDBRANCH   1   7
TORSDOF 1
ENDMDL
