MODEL 1
REMARK minimizedAffinity -2.66520882
REMARK minimizedRMSD -1
REMARK  1 active torsions:
REMARK  status: ('A' for Active; 'I' for Inactive)
REMARK    1  A    between atoms: C1_2  and  C2_3 
ROOT
ATOM      1  C2  UNL d   1      -1.244   0.596   2.263  0.00  0.00    -0.077 A 
ATOM      2  C3  UNL d   1      -0.035   0.375   2.936  0.00  0.00     0.002 A 
ATOM      3  C4  UNL d   1       1.120   0.046   2.223  0.00  0.00     0.002 A 
ATOM      4  C5  UNL d   1       1.078  -0.060   0.835  0.00  0.00    -0.004 A 
ATOM      5  C6  UNL d   1      -0.121   0.156   0.156  0.00  0.00     0.002 A 
ATOM      6  C7  UNL d   1      -1.277   0.483   0.867  0.00  0.00     0.002 A 
ENDROOT
BRANCH   1   7
ATOM      7  C1  UNL d   1      -2.480   0.998   3.025  0.00  0.00     0.055 C 
ATOM      8  C   UNL d   1      -3.546   1.560   2.095  0.00  0.00     0.019 C 
ENDBRANCH   1   7
TORSDOF 1
ENDMDL
