MODEL 1
REMARK minimizedAffinity -3.71965671
REMARK minimizedRMSD -1
REMARK  1 active torsions:
REMARK  status: ('A' for Active; 'I' for Inactive)
REMARK    1  A    between atoms: C1_2  and  C2_3 
ROOT
ATOM      1  C2  UNL d   1      -1.217   0.541   0.325  0.00  0.00    -0.077 A 
ATOM      2  C3  UNL d   1      -1.524   0.765   1.674  0.00  0.00     0.002 A 
ATOM      3  C4  UNL d   1      -0.527   0.681   2.648  0.00  0.00     0.002 A 
ATOM      4  C5  UNL d   1       0.783   0.379   2.283  0.00  0.00    -0.004 A 
ATOM      5  C6  UNL d   1       1.098   0.153   0.943  0.00  0.00     0.002 A 
ATOM      6  C7  UNL d   1       0.102   0.235  -0.032  0.00  0.00     0.002 A 
ENDROOT
BRANCH   1   7
ATOM      7  C1  UNL d   1      -2.281   0.679  -0.733  0.00  0.00     0.055 C 
ATOM      8  C   UNL d   1      -3.669   0.435  -0.157  0.00  0.00     0.019 C 
ENDBRANCH   1   7
TORSDOF 1
ENDMDL
