MODEL 1
REMARK minimizedAffinity -1.51695395
REMARK minimizedRMSD -1
REMARK  1 active torsions:
REMARK  status: ('A' for Active; 'I' for Inactive)
REMARK    1  A    between atoms: C1_2  and  C2_3 
ROOT
ATOM      1  C2  UNL d   1      -0.122   0.715   2.622  0.00  0.00    -0.077 A 
ATOM      2  C3  UNL d   1      -1.490   0.428   2.516  0.00  0.00     0.002 A 
ATOM      3  C4  UNL d   1      -2.442   1.366   2.918  0.00  0.00     0.002 A 
ATOM      4  C5  UNL d   1      -2.037   2.599   3.424  0.00  0.00    -0.004 A 
ATOM      5  C6  UNL d   1      -0.679   2.894   3.535  0.00  0.00     0.002 A 
ATOM      6  C7  UNL d   1       0.275   1.957   3.135  0.00  0.00     0.002 A 
ENDROOT
BRANCH   1   7
ATOM      7  C1  UNL d   1       0.906  -0.276   2.143  0.00  0.00     0.055 C 
ATOM      8  C   UNL d   1       1.391   0.062   0.741  0.00  0.00     0.019 C 
ENDBRANCH   1   7
TORSDOF 1
ENDMDL
