MODEL 1
REMARK minimizedAffinity -3.84283614
REMARK minimizedRMSD -1
REMARK  1 active torsions:
REMARK  status: ('A' for Active; 'I' for Inactive)
REMARK    1  A    between atoms: C1_2  and  C2_3 
ROOT
ATOM      1  C2  UNL d   1       0.055   0.474  -0.447  0.00  0.00    -0.077 A 
ATOM      2  C3  UNL d   1      -1.339   0.624  -0.446  0.00  0.00     0.002 A 
ATOM      3  C4  UNL d   1      -2.042   0.687   0.759  0.00  0.00     0.002 A 
ATOM      4  C5  UNL d   1      -1.359   0.606   1.971  0.00  0.00    -0.004 A 
ATOM      5  C6  UNL d   1       0.027   0.455   1.980  0.00  0.00     0.002 A 
ATOM      6  C7  UNL d   1       0.731   0.390   0.777  0.00  0.00     0.002 A 
ENDROOT
BRANCH   1   7
ATOM      7  C1  UNL d   1       0.819   0.454  -1.745  0.00  0.00     0.055 C 
ATOM      8  C   UNL d   1       0.768  -0.920  -2.397  0.00  0.00     0.019 C 
ENDBRANCH   1   7
TORSDOF 1
ENDMDL
