MODEL 1
REMARK minimizedAffinity -2.18798685
REMARK minimizedRMSD -1
REMARK  1 active torsions:
REMARK  status: ('A' for Active; 'I' for Inactive)
REMARK    1  A    between atoms: C1_2  and  C2_3 
ROOT
ATOM      1  C2  UNL d   1       0.136   0.214  -0.920  0.00  0.00    -0.077 A 
ATOM      2  C3  UNL d   1      -0.848  -0.036   0.047  0.00  0.00     0.002 A 
ATOM      3  C4  UNL d   1      -0.501  -0.147   1.395  0.00  0.00     0.002 A 
ATOM      4  C5  UNL d   1       0.828  -0.005   1.788  0.00  0.00    -0.004 A 
ATOM      5  C6  UNL d   1       1.814   0.242   0.834  0.00  0.00     0.002 A 
ATOM      6  C7  UNL d   1       1.469   0.352  -0.514  0.00  0.00     0.002 A 
ENDROOT
BRANCH   1   7
ATOM      7  C1  UNL d   1      -0.243   0.383  -2.368  0.00  0.00     0.055 C 
ATOM      8  C   UNL d   1       0.717  -0.364  -3.282  0.00  0.00     0.019 C 
ENDBRANCH   1   7
TORSDOF 1
ENDMDL
