MODEL 1
REMARK minimizedAffinity -4.58606386
REMARK minimizedRMSD -1
REMARK  1 active torsions:
REMARK  status: ('A' for Active; 'I' for Inactive)
REMARK    1  A    between atoms: C1_2  and  C2_3 
ROOT
ATOM      1  C2  UNL d   1      -1.397   0.563   0.810  0.00  0.00    -0.077 A 
ATOM      2  C3  UNL d   1      -0.722   0.385   2.026  0.00  0.00     0.002 A 
ATOM      3  C4  UNL d   1       0.668   0.263   2.050  0.00  0.00     0.002 A 
ATOM      4  C5  UNL d   1       1.396   0.321   0.863  0.00  0.00    -0.004 A 
ATOM      5  C6  UNL d   1       0.734   0.496  -0.351  0.00  0.00     0.002 A 
ATOM      6  C7  UNL d   1      -0.656   0.617  -0.378  0.00  0.00     0.002 A 
ENDROOT
BRANCH   1   7
ATOM      7  C1  UNL d   1      -2.892   0.745   0.786  0.00  0.00     0.055 C 
ATOM      8  C   UNL d   1      -3.429   1.095   2.166  0.00  0.00     0.019 C 
ENDBRANCH   1   7
TORSDOF 1
ENDMDL
