MODEL 1
REMARK minimizedAffinity -3.58513284
REMARK minimizedRMSD -1
REMARK  1 active torsions:
REMARK  status: ('A' for Active; 'I' for Inactive)
REMARK    1  A    between atoms: C1_2  and  C2_3 
ROOT
ATOM      1  C2  UNL d   1       0.177   0.139   0.047  0.00  0.00    -0.077 A 
ATOM      2  C3  UNL d   1      -0.913   0.358   0.902  0.00  0.00     0.002 A 
ATOM      3  C4  UNL d   1      -0.738   0.339   2.287  0.00  0.00     0.002 A 
ATOM      4  C5  UNL d   1       0.524   0.105   2.829  0.00  0.00    -0.004 A 
ATOM      5  C6  UNL d   1       1.613  -0.116   1.987  0.00  0.00     0.002 A 
ATOM      6  C7  UNL d   1       1.440  -0.099   0.603  0.00  0.00     0.002 A 
ENDROOT
BRANCH   1   7
ATOM      7  C1  UNL d   1       0.000   0.208  -1.447  0.00  0.00     0.055 C 
ATOM      8  C   UNL d   1       0.721  -0.937  -2.143  0.00  0.00     0.019 C 
ENDBRANCH   1   7
TORSDOF 1
ENDMDL
