MODEL 1
REMARK minimizedAffinity -2.38485456
REMARK minimizedRMSD -1
REMARK  0 active torsions:
REMARK  status: ('A' for Active; 'I' for Inactive)
ROOT
ATOM      1  C   UNL d   1      -2.840   1.503  -2.543  0.00  0.00    -0.002 A 
ATOM      2  C1  UNL d   1      -3.590   1.371  -3.703  0.00  0.00     0.010 A 
ATOM      3  C2  UNL d   1      -3.585   2.376  -4.671  0.00  0.00     0.041 A 
ATOM      4  C3  UNL d   1      -2.803   3.528  -4.453  0.00  0.00    -0.075 A 
ATOM      5  S   UNL d   1      -2.641   4.888  -5.501  0.00  0.00     0.015 SA
ATOM      6  C4  UNL d   1      -1.571   5.676  -4.434  0.00  0.00     0.022 A 
ATOM      7  C5  UNL d   1      -1.333   4.935  -3.301  0.00  0.00     0.026 A 
ATOM      8  C6  UNL d   1      -2.038   3.684  -3.294  0.00  0.00    -0.082 A 
ATOM      9  C7  UNL d   1      -2.066   2.647  -2.330  0.00  0.00     0.045 A 
ENDROOT
TORSDOF 0
ENDMDL
