MODEL 1
REMARK minimizedAffinity 12.8162317
REMARK minimizedRMSD -1
REMARK  0 active torsions:
REMARK  status: ('A' for Active; 'I' for Inactive)
ROOT
ATOM      1  C   UNL d   1      -2.416   5.484  -4.192  0.00  0.00    -0.002 A 
ATOM      2  C1  UNL d   1      -2.779   4.280  -4.779  0.00  0.00     0.010 A 
ATOM      3  C2  UNL d   1      -3.499   3.327  -4.057  0.00  0.00     0.041 A 
ATOM      4  C3  UNL d   1      -3.853   3.607  -2.722  0.00  0.00    -0.075 A 
ATOM      5  S   UNL d   1      -4.735   2.590  -1.645  0.00  0.00     0.015 SA
ATOM      6  C4  UNL d   1      -4.651   3.729  -0.381  0.00  0.00     0.022 A 
ATOM      7  C5  UNL d   1      -3.971   4.864  -0.754  0.00  0.00     0.026 A 
ATOM      8  C6  UNL d   1      -3.500   4.813  -2.110  0.00  0.00    -0.082 A 
ATOM      9  C7  UNL d   1      -2.769   5.759  -2.868  0.00  0.00     0.045 A 
ENDROOT
TORSDOF 0
ENDMDL
