MODEL 1
REMARK minimizedAffinity 10.0563726
REMARK minimizedRMSD -1
REMARK  0 active torsions:
REMARK  status: ('A' for Active; 'I' for Inactive)
ROOT
ATOM      1  C   UNL d   1      -4.225   0.206  -4.435  0.00  0.00    -0.002 A 
ATOM      2  C1  UNL d   1      -3.228  -0.242  -3.581  0.00  0.00     0.010 A 
ATOM      3  C2  UNL d   1      -2.444   0.666  -2.866  0.00  0.00     0.041 A 
ATOM      4  C3  UNL d   1      -2.683   2.045  -3.025  0.00  0.00    -0.075 A 
ATOM      5  S   UNL d   1      -1.848   3.341  -2.252  0.00  0.00     0.015 SA
ATOM      6  C4  UNL d   1      -2.797   4.519  -3.037  0.00  0.00     0.022 A 
ATOM      7  C5  UNL d   1      -3.732   3.956  -3.873  0.00  0.00     0.026 A 
ATOM      8  C6  UNL d   1      -3.682   2.520  -3.880  0.00  0.00    -0.082 A 
ATOM      9  C7  UNL d   1      -4.459   1.575  -4.591  0.00  0.00     0.045 A 
ENDROOT
TORSDOF 0
ENDMDL
