MODEL 1
REMARK minimizedAffinity 3.30210876
REMARK minimizedRMSD -1
REMARK  0 active torsions:
REMARK  status: ('A' for Active; 'I' for Inactive)
ROOT
ATOM      1  C   UNL d   1      -2.905  -0.247   4.504  0.00  0.00    -0.002 A 
ATOM      2  C1  UNL d   1      -3.746  -0.066   3.416  0.00  0.00     0.010 A 
ATOM      3  C2  UNL d   1      -3.334  -0.425   2.131  0.00  0.00     0.041 A 
ATOM      4  C3  UNL d   1      -2.049  -0.977   1.957  0.00  0.00    -0.075 A 
ATOM      5  S   UNL d   1      -1.330  -1.492   0.477  0.00  0.00     0.015 SA
ATOM      6  C4  UNL d   1       0.110  -1.966   1.255  0.00  0.00     0.022 A 
ATOM      7  C5  UNL d   1       0.061  -1.743   2.611  0.00  0.00     0.026 A 
ATOM      8  C6  UNL d   1      -1.184  -1.171   3.038  0.00  0.00    -0.082 A 
ATOM      9  C7  UNL d   1      -1.631  -0.795   4.328  0.00  0.00     0.045 A 
ENDROOT
TORSDOF 0
ENDMDL
