MODEL 1
REMARK minimizedAffinity -1.61195874
REMARK minimizedRMSD -1
REMARK  0 active torsions:
REMARK  status: ('A' for Active; 'I' for Inactive)
ROOT
ATOM      1  C   UNL d   1      -1.919   0.707  -2.210  0.00  0.00    -0.002 A 
ATOM      2  C1  UNL d   1      -2.244   1.501  -1.119  0.00  0.00     0.010 A 
ATOM      3  C2  UNL d   1      -2.583   2.844  -1.294  0.00  0.00     0.041 A 
ATOM      4  C3  UNL d   1      -2.592   3.380  -2.597  0.00  0.00    -0.075 A 
ATOM      5  S   UNL d   1      -2.976   4.998  -3.052  0.00  0.00     0.015 SA
ATOM      6  C4  UNL d   1      -2.720   4.673  -4.705  0.00  0.00     0.022 A 
ATOM      7  C5  UNL d   1      -2.349   3.367  -4.922  0.00  0.00     0.026 A 
ATOM      8  C6  UNL d   1      -2.270   2.600  -3.711  0.00  0.00    -0.082 A 
ATOM      9  C7  UNL d   1      -1.930   1.242  -3.500  0.00  0.00     0.045 A 
ENDROOT
TORSDOF 0
ENDMDL
