MODEL 1
REMARK minimizedAffinity -1.69665837
REMARK minimizedRMSD -1
REMARK  1 active torsions:
REMARK  status: ('A' for Active; 'I' for Inactive)
REMARK    1  A    between atoms: C3_4  and  O_7 
ROOT
ATOM      1  C   UNL d   1       3.241   6.000  -4.953  0.00  0.00    -0.033 A 
ATOM      2  C1  UNL d   1       4.524   6.000  -5.503  0.00  0.00     0.039 A 
ATOM      3  C2  UNL d   1       5.344   4.878  -5.367  0.00  0.00    -0.080 A 
ATOM      4  C3  UNL d   1       4.868   3.763  -4.682  0.00  0.00     0.150 A 
ATOM      5  C4  UNL d   1       3.589   3.755  -4.135  0.00  0.00    -0.007 A 
ATOM      6  C5  UNL d   1       2.773   4.877  -4.271  0.00  0.00     0.039 A 
ENDROOT
BRANCH   4   7
ATOM      7  O   UNL d   1       5.633   2.646  -4.520  0.00  0.00    -0.526 OA
ATOM      8  H5  UNL d   1       6.501   2.807  -4.925  0.00  0.00     0.418 HD
ENDBRANCH   4   7
TORSDOF 1
ENDMDL
