MODEL 1
REMARK minimizedAffinity 5.49492741
REMARK minimizedRMSD -1
REMARK  1 active torsions:
REMARK  status: ('A' for Active; 'I' for Inactive)
REMARK    1  A    between atoms: C3_4  and  O_7 
ROOT
ATOM      1  C   UNL d   1      -5.757  -4.855  -3.858  0.00  0.00    -0.033 A 
ATOM      2  C1  UNL d   1      -5.641  -3.680  -3.113  0.00  0.00     0.039 A 
ATOM      3  C2  UNL d   1      -4.509  -3.459  -2.326  0.00  0.00    -0.080 A 
ATOM      4  C3  UNL d   1      -3.501  -4.419  -2.294  0.00  0.00     0.150 A 
ATOM      5  C4  UNL d   1      -3.608  -5.590  -3.038  0.00  0.00    -0.007 A 
ATOM      6  C5  UNL d   1      -4.740  -5.809  -3.822  0.00  0.00     0.039 A 
ENDROOT
BRANCH   4   7
ATOM      7  O   UNL d   1      -2.380  -4.250  -1.537  0.00  0.00    -0.526 OA
ATOM      8  H5  UNL d   1      -2.457  -3.409  -1.056  0.00  0.00     0.418 HD
ENDBRANCH   4   7
TORSDOF 1
ENDMDL
