MODEL 1
REMARK minimizedAffinity 7.81119108
REMARK minimizedRMSD -1
REMARK  1 active torsions:
REMARK  status: ('A' for Active; 'I' for Inactive)
REMARK    1  A    between atoms: C3_4  and  O_7 
ROOT
ATOM      1  C   UNL d   1       0.772   0.727   2.393  0.00  0.00    -0.033 A 
ATOM      2  C1  UNL d   1      -0.332   1.440   2.862  0.00  0.00     0.039 A 
ATOM      3  C2  UNL d   1      -0.613   2.709   2.352  0.00  0.00    -0.080 A 
ATOM      4  C3  UNL d   1       0.216   3.252   1.374  0.00  0.00     0.150 A 
ATOM      5  C4  UNL d   1       1.316   2.545   0.900  0.00  0.00    -0.007 A 
ATOM      6  C5  UNL d   1       1.596   1.278   1.411  0.00  0.00     0.039 A 
ENDROOT
BRANCH   4   7
ATOM      7  O   UNL d   1      -0.015   4.489   0.850  0.00  0.00    -0.526 OA
ATOM      8  H5  UNL d   1      -0.791   4.871   1.293  0.00  0.00     0.418 HD
ENDBRANCH   4   7
TORSDOF 1
ENDMDL
