MODEL 1
REMARK minimizedAffinity 3.36785412
REMARK minimizedRMSD -1
REMARK  1 active torsions:
REMARK  status: ('A' for Active; 'I' for Inactive)
REMARK    1  A    between atoms: C3_4  and  O_7 
ROOT
ATOM      1  C   UNL d   1       1.200  -0.609  -0.519  0.00  0.00    -0.033 A 
ATOM      2  C1  UNL d   1       1.856   0.605  -0.305  0.00  0.00     0.039 A 
ATOM      3  C2  UNL d   1       1.533   1.721  -1.080  0.00  0.00    -0.080 A 
ATOM      4  C3  UNL d   1       0.553   1.611  -2.062  0.00  0.00     0.150 A 
ATOM      5  C4  UNL d   1      -0.107   0.406  -2.278  0.00  0.00    -0.007 A 
ATOM      6  C5  UNL d   1       0.218  -0.708  -1.505  0.00  0.00     0.039 A 
ENDROOT
BRANCH   4   7
ATOM      7  O   UNL d   1       0.207   2.671  -2.846  0.00  0.00    -0.526 OA
ATOM      8  H5  UNL d   1       0.766   3.429  -2.603  0.00  0.00     0.418 HD
ENDBRANCH   4   7
TORSDOF 1
ENDMDL
