MODEL 1
REMARK minimizedAffinity 0.852948666
REMARK minimizedRMSD -1
REMARK  1 active torsions:
REMARK  status: ('A' for Active; 'I' for Inactive)
REMARK    1  A    between atoms: C3_4  and  O_7 
ROOT
ATOM      1  C   UNL d   1      -0.648  -2.311   0.343  0.00  0.00    -0.033 A 
ATOM      2  C1  UNL d   1      -1.796  -2.041  -0.404  0.00  0.00     0.039 A 
ATOM      3  C2  UNL d   1      -2.381  -3.046  -1.178  0.00  0.00    -0.080 A 
ATOM      4  C3  UNL d   1      -1.809  -4.315  -1.194  0.00  0.00     0.150 A 
ATOM      5  C4  UNL d   1      -0.667  -4.592  -0.449  0.00  0.00    -0.007 A 
ATOM      6  C5  UNL d   1      -0.085  -3.587   0.321  0.00  0.00     0.039 A 
ENDROOT
BRANCH   4   7
ATOM      7  O   UNL d   1      -2.341  -5.327  -1.937  0.00  0.00    -0.526 OA
ATOM      8  H5  UNL d   1      -3.109  -4.982  -2.421  0.00  0.00     0.418 HD
ENDBRANCH   4   7
TORSDOF 1
ENDMDL
