MODEL 1
REMARK minimizedAffinity -2.91500759
REMARK minimizedRMSD -1
REMARK  1 active torsions:
REMARK  status: ('A' for Active; 'I' for Inactive)
REMARK    1  A    between atoms: C3_4  and  O_7 
ROOT
ATOM      1  C   UNL d   1      -5.726  -0.259   4.798  0.00  0.00    -0.033 A 
ATOM      2  C1  UNL d   1      -5.237   0.269   3.601  0.00  0.00     0.039 A 
ATOM      3  C2  UNL d   1      -4.549   1.484   3.602  0.00  0.00    -0.080 A 
ATOM      4  C3  UNL d   1      -4.357   2.160   4.804  0.00  0.00     0.150 A 
ATOM      5  C4  UNL d   1      -4.839   1.638   6.000  0.00  0.00    -0.007 A 
ATOM      6  C5  UNL d   1      -5.526   0.425   5.997  0.00  0.00     0.039 A 
ENDROOT
BRANCH   4   7
ATOM      7  O   UNL d   1      -3.696   3.351   4.854  0.00  0.00    -0.526 OA
ATOM      8  H5  UNL d   1      -3.446   3.602   3.949  0.00  0.00     0.418 HD
ENDBRANCH   4   7
TORSDOF 1
ENDMDL
