MODEL 1
REMARK minimizedAffinity -0.705506384
REMARK minimizedRMSD -1
REMARK  1 active torsions:
REMARK  status: ('A' for Active; 'I' for Inactive)
REMARK    1  A    between atoms: C3_4  and  O_7 
ROOT
ATOM      1  C   UNL d   1       0.930  -1.672   0.532  0.00  0.00    -0.033 A 
ATOM      2  C1  UNL d   1       0.160  -1.323   1.643  0.00  0.00     0.039 A 
ATOM      3  C2  UNL d   1       0.218  -0.026   2.156  0.00  0.00    -0.080 A 
ATOM      4  C3  UNL d   1       1.049   0.912   1.549  0.00  0.00     0.150 A 
ATOM      5  C4  UNL d   1       1.817   0.572   0.440  0.00  0.00    -0.007 A 
ATOM      6  C5  UNL d   1       1.758  -0.724  -0.070  0.00  0.00     0.039 A 
ENDROOT
BRANCH   4   7
ATOM      7  O   UNL d   1       1.144   2.189   2.017  0.00  0.00    -0.526 OA
ATOM      8  H5  UNL d   1       0.579   2.271   2.804  0.00  0.00     0.418 HD
ENDBRANCH   4   7
TORSDOF 1
ENDMDL
