MODEL 1
REMARK minimizedAffinity 8.19237995
REMARK minimizedRMSD -1
REMARK  1 active torsions:
REMARK  status: ('A' for Active; 'I' for Inactive)
REMARK    1  A    between atoms: C3_4  and  O_7 
ROOT
ATOM      1  C   UNL d   1      -5.779  -4.393  -2.618  0.00  0.00    -0.033 A 
ATOM      2  C1  UNL d   1      -4.633  -3.729  -2.177  0.00  0.00     0.039 A 
ATOM      3  C2  UNL d   1      -3.369  -4.200  -2.538  0.00  0.00    -0.080 A 
ATOM      4  C3  UNL d   1      -3.265  -5.333  -3.340  0.00  0.00     0.150 A 
ATOM      5  C4  UNL d   1      -4.403  -5.997  -3.786  0.00  0.00    -0.007 A 
ATOM      6  C5  UNL d   1      -5.664  -5.527  -3.424  0.00  0.00     0.039 A 
ENDROOT
BRANCH   4   7
ATOM      7  O   UNL d   1      -2.053  -5.832  -3.714  0.00  0.00    -0.526 OA
ATOM      8  H5  UNL d   1      -1.357  -5.288  -3.309  0.00  0.00     0.418 HD
ENDBRANCH   4   7
TORSDOF 1
ENDMDL
