MODEL 1
REMARK minimizedAffinity 4.93010902
REMARK minimizedRMSD -1
REMARK  1 active torsions:
REMARK  status: ('A' for Active; 'I' for Inactive)
REMARK    1  A    between atoms: C3_4  and  O_7 
ROOT
ATOM      1  C   UNL d   1       1.580   1.005   2.331  0.00  0.00    -0.033 A 
ATOM      2  C1  UNL d   1       0.359   1.533   2.754  0.00  0.00     0.039 A 
ATOM      3  C2  UNL d   1      -0.070   2.773   2.278  0.00  0.00    -0.080 A 
ATOM      4  C3  UNL d   1       0.730   3.474   1.380  0.00  0.00     0.150 A 
ATOM      5  C4  UNL d   1       1.946   2.953   0.952  0.00  0.00    -0.007 A 
ATOM      6  C5  UNL d   1       2.373   1.714   1.429  0.00  0.00     0.039 A 
ENDROOT
BRANCH   4   7
ATOM      7  O   UNL d   1       0.356   4.691   0.892  0.00  0.00    -0.526 OA
ATOM      8  H5  UNL d   1      -0.492   4.938   1.298  0.00  0.00     0.418 HD
ENDBRANCH   4   7
TORSDOF 1
ENDMDL
