MODEL 1
REMARK minimizedAffinity 0.942273617
REMARK minimizedRMSD -1
REMARK  1 active torsions:
REMARK  status: ('A' for Active; 'I' for Inactive)
REMARK    1  A    between atoms: C3_4  and  O_7 
ROOT
ATOM      1  C   UNL d   1       1.842  -0.649  -0.932  0.00  0.00    -0.033 A 
ATOM      2  C1  UNL d   1       2.560   0.533  -0.739  0.00  0.00     0.039 A 
ATOM      3  C2  UNL d   1       2.264   1.664  -1.502  0.00  0.00    -0.080 A 
ATOM      4  C3  UNL d   1       1.249   1.601  -2.452  0.00  0.00     0.150 A 
ATOM      5  C4  UNL d   1       0.528   0.428  -2.648  0.00  0.00    -0.007 A 
ATOM      6  C5  UNL d   1       0.825  -0.701  -1.886  0.00  0.00     0.039 A 
ENDROOT
BRANCH   4   7
ATOM      7  O   UNL d   1       0.927   2.678  -3.224  0.00  0.00    -0.526 OA
ATOM      8  H5  UNL d   1       1.528   3.408  -2.999  0.00  0.00     0.418 HD
ENDBRANCH   4   7
TORSDOF 1
ENDMDL
