MODEL 1
REMARK minimizedAffinity 3.35100627
REMARK minimizedRMSD -1
REMARK  1 active torsions:
REMARK  status: ('A' for Active; 'I' for Inactive)
REMARK    1  A    between atoms: C3_4  and  O_7 
ROOT
ATOM      1  C   UNL d   1       1.346   3.463   0.983  0.00  0.00    -0.033 A 
ATOM      2  C1  UNL d   1       1.685   3.427  -0.371  0.00  0.00     0.039 A 
ATOM      3  C2  UNL d   1       2.103   2.229  -0.955  0.00  0.00    -0.080 A 
ATOM      4  C3  UNL d   1       2.176   1.078  -0.177  0.00  0.00     0.150 A 
ATOM      5  C4  UNL d   1       1.836   1.106   1.172  0.00  0.00    -0.007 A 
ATOM      6  C5  UNL d   1       1.420   2.303   1.754  0.00  0.00     0.039 A 
ENDROOT
BRANCH   4   7
ATOM      7  O   UNL d   1       2.582  -0.113  -0.702  0.00  0.00    -0.526 OA
ATOM      8  H5  UNL d   1       2.812   0.025  -1.636  0.00  0.00     0.418 HD
ENDBRANCH   4   7
TORSDOF 1
ENDMDL
