MODEL 1
REMARK minimizedAffinity 3.65797949
REMARK minimizedRMSD -1
REMARK  1 active torsions:
REMARK  status: ('A' for Active; 'I' for Inactive)
REMARK    1  A    between atoms: C3_4  and  O_7 
ROOT
ATOM      1  C   UNL d   1       1.655  -0.530  -1.402  0.00  0.00    -0.033 A 
ATOM      2  C1  UNL d   1       2.282   0.711  -1.268  0.00  0.00     0.039 A 
ATOM      3  C2  UNL d   1       1.898   1.780  -2.079  0.00  0.00    -0.080 A 
ATOM      4  C3  UNL d   1       0.887   1.597  -3.019  0.00  0.00     0.150 A 
ATOM      5  C4  UNL d   1       0.256   0.365  -3.155  0.00  0.00    -0.007 A 
ATOM      6  C5  UNL d   1       0.641  -0.702  -2.345  0.00  0.00     0.039 A 
ENDROOT
BRANCH   4   7
ATOM      7  O   UNL d   1       0.482   2.609  -3.837  0.00  0.00    -0.526 OA
ATOM      8  H5  UNL d   1       1.026   3.393  -3.649  0.00  0.00     0.418 HD
ENDBRANCH   4   7
TORSDOF 1
ENDMDL
