MODEL 1
REMARK minimizedAffinity -1.12839508
REMARK minimizedRMSD -1
REMARK  1 active torsions:
REMARK  status: ('A' for Active; 'I' for Inactive)
REMARK    1  A    between atoms: C3_4  and  O_7 
ROOT
ATOM      1  C   UNL d   1      -2.505  -4.917  -2.354  0.00  0.00    -0.033 A 
ATOM      2  C1  UNL d   1      -3.150  -4.392  -1.232  0.00  0.00     0.039 A 
ATOM      3  C2  UNL d   1      -2.664  -4.668   0.047  0.00  0.00    -0.080 A 
ATOM      4  C3  UNL d   1      -1.534  -5.468   0.191  0.00  0.00     0.150 A 
ATOM      5  C4  UNL d   1      -0.884  -5.991  -0.922  0.00  0.00    -0.007 A 
ATOM      6  C5  UNL d   1      -1.372  -5.715  -2.199  0.00  0.00     0.039 A 
ENDROOT
BRANCH   4   7
ATOM      7  O   UNL d   1      -1.025  -5.768   1.420  0.00  0.00    -0.526 OA
ATOM      8  H5  UNL d   1      -1.593  -5.362   2.096  0.00  0.00     0.418 HD
ENDBRANCH   4   7
TORSDOF 1
ENDMDL
