MODEL 1
REMARK minimizedAffinity 4.08689165
REMARK minimizedRMSD -1
REMARK  1 active torsions:
REMARK  status: ('A' for Active; 'I' for Inactive)
REMARK    1  A    between atoms: C3_4  and  O_7 
ROOT
ATOM      1  C   UNL d   1      -0.060   1.064  -3.536  0.00  0.00    -0.033 A 
ATOM      2  C1  UNL d   1       0.727   1.946  -2.793  0.00  0.00     0.039 A 
ATOM      3  C2  UNL d   1       1.475   1.476  -1.712  0.00  0.00    -0.080 A 
ATOM      4  C3  UNL d   1       1.428   0.124  -1.385  0.00  0.00     0.150 A 
ATOM      5  C4  UNL d   1       0.649  -0.761  -2.123  0.00  0.00    -0.007 A 
ATOM      6  C5  UNL d   1      -0.098  -0.290  -3.201  0.00  0.00     0.039 A 
ENDROOT
BRANCH   4   7
ATOM      7  O   UNL d   1       2.137  -0.381  -0.335  0.00  0.00    -0.526 OA
ATOM      8  H5  UNL d   1       2.606   0.351   0.100  0.00  0.00     0.418 HD
ENDBRANCH   4   7
TORSDOF 1
ENDMDL
