MODEL 1
REMARK minimizedAffinity 1.91685617
REMARK minimizedRMSD -1
REMARK  1 active torsions:
REMARK  status: ('A' for Active; 'I' for Inactive)
REMARK    1  A    between atoms: C3_4  and  O_7 
ROOT
ATOM      1  C   UNL d   1       2.678   1.334   1.899  0.00  0.00    -0.033 A 
ATOM      2  C1  UNL d   1       2.160   1.844   3.091  0.00  0.00     0.039 A 
ATOM      3  C2  UNL d   1       0.780   1.980   3.253  0.00  0.00    -0.080 A 
ATOM      4  C3  UNL d   1      -0.070   1.602   2.218  0.00  0.00     0.150 A 
ATOM      5  C4  UNL d   1       0.438   1.090   1.029  0.00  0.00    -0.007 A 
ATOM      6  C5  UNL d   1       1.817   0.955   0.868  0.00  0.00     0.039 A 
ENDROOT
BRANCH   4   7
ATOM      7  O   UNL d   1      -1.424   1.721   2.328  0.00  0.00    -0.526 OA
ATOM      8  H5  UNL d   1      -1.629   2.117   3.191  0.00  0.00     0.418 HD
ENDBRANCH   4   7
TORSDOF 1
ENDMDL
