MODEL 1
REMARK minimizedAffinity -2.96353316
REMARK minimizedRMSD -1
REMARK  0 active torsions:
REMARK  status: ('A' for Active; 'I' for Inactive)
ROOT
ATOM      1  C   UNL d   1       2.298   0.376  -3.410  0.00  0.00     0.172 C 
ATOM      2  N   UNL d   1       0.918   0.046  -3.677  0.00  0.00    -0.070 N 
ATOM      3  C1  UNL d   1       0.186  -0.912  -3.027  0.00  0.00    -0.004 A 
ATOM      4  C2  UNL d   1      -1.080  -0.918  -3.572  0.00  0.00    -0.047 A 
ATOM      5  C3  UNL d   1      -1.109   0.070  -4.584  0.00  0.00    -0.047 A 
ATOM      6  C4  UNL d   1       0.140   0.651  -4.628  0.00  0.00    -0.004 A 
ENDROOT
TORSDOF 0
ENDMDL
