MODEL 1
REMARK minimizedAffinity -3.23335028
REMARK minimizedRMSD -1
REMARK  0 active torsions:
REMARK  status: ('A' for Active; 'I' for Inactive)
ROOT
ATOM      1  C   UNL d   1       0.379  -0.703  -0.180  0.00  0.00     0.172 C 
ATOM      2  N   UNL d   1      -0.111   0.161   0.868  0.00  0.00    -0.070 N 
ATOM      3  C1  UNL d   1       0.638   1.063   1.576  0.00  0.00    -0.004 A 
ATOM      4  C2  UNL d   1      -0.195   1.687   2.479  0.00  0.00    -0.047 A 
ATOM      5  C3  UNL d   1      -1.489   1.142   2.309  0.00  0.00    -0.047 A 
ATOM      6  C4  UNL d   1      -1.409   0.199   1.306  0.00  0.00    -0.004 A 
ENDROOT
TORSDOF 0
ENDMDL
