MODEL 1
REMARK minimizedAffinity -3.3478601
REMARK minimizedRMSD -1
REMARK  0 active torsions:
REMARK  status: ('A' for Active; 'I' for Inactive)
ROOT
ATOM      1  C   UNL d   1       0.319  -0.670  -0.644  0.00  0.00     0.172 C 
ATOM      2  N   UNL d   1      -0.115   0.059   0.524  0.00  0.00    -0.070 N 
ATOM      3  C1  UNL d   1      -1.402   0.140   0.982  0.00  0.00    -0.004 A 
ATOM      4  C2  UNL d   1      -1.399   0.925   2.115  0.00  0.00    -0.047 A 
ATOM      5  C3  UNL d   1      -0.063   1.330   2.346  0.00  0.00    -0.047 A 
ATOM      6  C4  UNL d   1       0.711   0.780   1.346  0.00  0.00    -0.004 A 
ENDROOT
TORSDOF 0
ENDMDL
