MODEL 1
REMARK minimizedAffinity -3.38341379
REMARK minimizedRMSD -1
REMARK  0 active torsions:
REMARK  status: ('A' for Active; 'I' for Inactive)
ROOT
ATOM      1  C   UNL d   1       0.086  -0.349  -0.350  0.00  0.00     0.172 C 
ATOM      2  N   UNL d   1      -0.372   0.205   0.902  0.00  0.00    -0.070 N 
ATOM      3  C1  UNL d   1      -1.589  -0.033   1.483  0.00  0.00    -0.004 A 
ATOM      4  C2  UNL d   1      -1.640   0.677   2.663  0.00  0.00    -0.047 A 
ATOM      5  C3  UNL d   1      -0.411   1.366   2.796  0.00  0.00    -0.047 A 
ATOM      6  C4  UNL d   1       0.355   1.056   1.692  0.00  0.00    -0.004 A 
ENDROOT
TORSDOF 0
ENDMDL
