MODEL 1
REMARK minimizedAffinity -2.52219009
REMARK minimizedRMSD -1
REMARK  0 active torsions:
REMARK  status: ('A' for Active; 'I' for Inactive)
ROOT
ATOM      1  C   UNL d   1       0.679  -0.167  -0.743  0.00  0.00     0.172 C 
ATOM      2  N   UNL d   1       0.334   0.367   0.554  0.00  0.00    -0.070 N 
ATOM      3  C1  UNL d   1       1.220   0.668   1.554  0.00  0.00    -0.004 A 
ATOM      4  C2  UNL d   1       0.498   1.151   2.625  0.00  0.00    -0.047 A 
ATOM      5  C3  UNL d   1      -0.868   1.137   2.256  0.00  0.00    -0.047 A 
ATOM      6  C4  UNL d   1      -0.941   0.647   0.969  0.00  0.00    -0.004 A 
ENDROOT
TORSDOF 0
ENDMDL
