MODEL 1
REMARK minimizedAffinity -3.55902505
REMARK minimizedRMSD -1
REMARK  0 active torsions:
REMARK  status: ('A' for Active; 'I' for Inactive)
ROOT
ATOM      1  C   UNL d   1      -1.016  -0.735  -4.498  0.00  0.00     0.172 C 
ATOM      2  N   UNL d   1       0.061   0.211  -4.324  0.00  0.00    -0.070 N 
ATOM      3  C1  UNL d   1       1.205   0.267  -5.074  0.00  0.00    -0.004 A 
ATOM      4  C2  UNL d   1       1.975   1.304  -4.594  0.00  0.00    -0.047 A 
ATOM      5  C3  UNL d   1       1.270   1.892  -3.518  0.00  0.00    -0.047 A 
ATOM      6  C4  UNL d   1       0.088   1.196  -3.372  0.00  0.00    -0.004 A 
ENDROOT
TORSDOF 0
ENDMDL
