MODEL 1
REMARK minimizedAffinity -3.98180532
REMARK minimizedRMSD -1
REMARK  0 active torsions:
REMARK  status: ('A' for Active; 'I' for Inactive)
ROOT
ATOM      1  C   UNL d   1      -0.062  -0.692  -0.738  0.00  0.00     0.172 C 
ATOM      2  N   UNL d   1      -0.465  -0.035   0.483  0.00  0.00    -0.070 N 
ATOM      3  C1  UNL d   1       0.375   0.572   1.378  0.00  0.00    -0.004 A 
ATOM      4  C2  UNL d   1      -0.395   1.077   2.404  0.00  0.00    -0.047 A 
ATOM      5  C3  UNL d   1      -1.744   0.762   2.116  0.00  0.00    -0.047 A 
ATOM      6  C4  UNL d   1      -1.759   0.073   0.921  0.00  0.00    -0.004 A 
ENDROOT
TORSDOF 0
ENDMDL
