MODEL 1
REMARK minimizedAffinity -3.86215019
REMARK minimizedRMSD -1
REMARK  0 active torsions:
REMARK  status: ('A' for Active; 'I' for Inactive)
ROOT
ATOM      1  C   UNL d   1       1.160  -0.634  -0.013  0.00  0.00     0.172 C 
ATOM      2  N   UNL d   1       0.579  -0.102   1.197  0.00  0.00    -0.070 N 
ATOM      3  C1  UNL d   1       1.074  -0.274   2.463  0.00  0.00    -0.004 A 
ATOM      4  C2  UNL d   1       0.237   0.387   3.336  0.00  0.00    -0.047 A 
ATOM      5  C3  UNL d   1      -0.796   0.976   2.569  0.00  0.00    -0.047 A 
ATOM      6  C4  UNL d   1      -0.560   0.657   1.249  0.00  0.00    -0.004 A 
ENDROOT
TORSDOF 0
ENDMDL
