MODEL 1
REMARK minimizedAffinity -2.22297168
REMARK minimizedRMSD -1
REMARK  0 active torsions:
REMARK  status: ('A' for Active; 'I' for Inactive)
ROOT
ATOM      1  C   UNL d   1      -1.009   0.441   3.761  0.00  0.00    -0.002 A 
ATOM      2  C1  UNL d   1      -2.308   0.708   3.353  0.00  0.00     0.010 A 
ATOM      3  C2  UNL d   1      -2.626   0.779   1.995  0.00  0.00     0.041 A 
ATOM      4  C3  UNL d   1      -1.607   0.573   1.045  0.00  0.00    -0.075 A 
ATOM      5  S   UNL d   1      -1.763   0.611  -0.671  0.00  0.00     0.015 SA
ATOM      6  C4  UNL d   1      -0.109   0.273  -0.904  0.00  0.00     0.022 A 
ATOM      7  C5  UNL d   1       0.561   0.131   0.288  0.00  0.00     0.026 A 
ATOM      8  C6  UNL d   1      -0.291   0.301   1.431  0.00  0.00    -0.082 A 
ATOM      9  C7  UNL d   1      -0.000   0.237   2.815  0.00  0.00     0.045 A 
ENDROOT
TORSDOF 0
ENDMDL
