MODEL 1
REMARK minimizedAffinity 0.931661069
REMARK minimizedRMSD -1
REMARK  0 active torsions:
REMARK  status: ('A' for Active; 'I' for Inactive)
ROOT
ATOM      1  C   UNL d   1      -1.206  -1.490   2.604  0.00  0.00    -0.002 A 
ATOM      2  C1  UNL d   1      -0.491  -0.586   3.376  0.00  0.00     0.010 A 
ATOM      3  C2  UNL d   1       0.207   0.464   2.777  0.00  0.00     0.041 A 
ATOM      4  C3  UNL d   1       0.173   0.593   1.375  0.00  0.00    -0.075 A 
ATOM      5  S   UNL d   1       0.952   1.801   0.422  0.00  0.00     0.015 SA
ATOM      6  C4  UNL d   1       0.353   1.146  -1.033  0.00  0.00     0.022 A 
ATOM      7  C5  UNL d   1      -0.424   0.032  -0.816  0.00  0.00     0.026 A 
ATOM      8  C6  UNL d   1      -0.541  -0.305   0.575  0.00  0.00    -0.082 A 
ATOM      9  C7  UNL d   1      -1.238  -1.359   1.213  0.00  0.00     0.045 A 
ENDROOT
TORSDOF 0
ENDMDL
