MODEL 1
REMARK minimizedAffinity -0.44119674
REMARK minimizedRMSD -1
REMARK  0 active torsions:
REMARK  status: ('A' for Active; 'I' for Inactive)
ROOT
ATOM      1  C   UNL d   1       1.470  -1.499  -3.853  0.00  0.00    -0.002 A 
ATOM      2  C1  UNL d   1       2.220  -0.332  -3.827  0.00  0.00     0.010 A 
ATOM      3  C2  UNL d   1       1.959   0.659  -2.877  0.00  0.00     0.041 A 
ATOM      4  C3  UNL d   1       0.923   0.453  -1.945  0.00  0.00    -0.075 A 
ATOM      5  S   UNL d   1       0.425   1.526  -0.691  0.00  0.00     0.015 SA
ATOM      6  C4  UNL d   1      -0.794   0.460  -0.160  0.00  0.00     0.022 A 
ATOM      7  C5  UNL d   1      -0.834  -0.692  -0.910  0.00  0.00     0.026 A 
ATOM      8  C6  UNL d   1       0.155  -0.715  -1.951  0.00  0.00    -0.082 A 
ATOM      9  C7  UNL d   1       0.444  -1.700  -2.926  0.00  0.00     0.045 A 
ENDROOT
TORSDOF 0
ENDMDL
