MODEL 1
REMARK minimizedAffinity -0.627307534
REMARK minimizedRMSD -1
REMARK  0 active torsions:
REMARK  status: ('A' for Active; 'I' for Inactive)
ROOT
ATOM      1  C   UNL d   1      -3.258   1.159   2.505  0.00  0.00    -0.002 A 
ATOM      2  C1  UNL d   1      -3.523   1.052   1.147  0.00  0.00     0.010 A 
ATOM      3  C2  UNL d   1      -2.491   0.809   0.239  0.00  0.00     0.041 A 
ATOM      4  C3  UNL d   1      -1.175   0.672   0.724  0.00  0.00    -0.075 A 
ATOM      5  S   UNL d   1       0.248   0.371  -0.202  0.00  0.00     0.015 SA
ATOM      6  C4  UNL d   1       1.241   0.377   1.183  0.00  0.00     0.022 A 
ATOM      7  C5  UNL d   1       0.521   0.602   2.333  0.00  0.00     0.026 A 
ATOM      8  C6  UNL d   1      -0.883   0.775   2.087  0.00  0.00    -0.082 A 
ATOM      9  C7  UNL d   1      -1.952   1.023   2.982  0.00  0.00     0.045 A 
ENDROOT
TORSDOF 0
ENDMDL
