MODEL 1
REMARK minimizedAffinity -3.08547449
REMARK minimizedRMSD -1
REMARK  0 active torsions:
REMARK  status: ('A' for Active; 'I' for Inactive)
ROOT
ATOM      1  C   UNL d   1      -2.446  -0.667   2.978  0.00  0.00    -0.002 A 
ATOM      2  C1  UNL d   1      -3.079  -0.348   1.785  0.00  0.00     0.010 A 
ATOM      3  C2  UNL d   1      -2.348   0.146   0.703  0.00  0.00     0.041 A 
ATOM      4  C3  UNL d   1      -0.956   0.314   0.841  0.00  0.00    -0.075 A 
ATOM      5  S   UNL d   1       0.143   0.902  -0.350  0.00  0.00     0.015 SA
ATOM      6  C4  UNL d   1       1.479   0.744   0.696  0.00  0.00     0.022 A 
ATOM      7  C5  UNL d   1       1.114   0.256   1.928  0.00  0.00     0.026 A 
ATOM      8  C6  UNL d   1      -0.295  -0.001   2.032  0.00  0.00    -0.082 A 
ATOM      9  C7  UNL d   1      -1.065  -0.498   3.111  0.00  0.00     0.045 A 
ENDROOT
TORSDOF 0
ENDMDL
