MODEL 1
REMARK minimizedAffinity -5.01971722
REMARK minimizedRMSD -1
REMARK  0 active torsions:
REMARK  status: ('A' for Active; 'I' for Inactive)
ROOT
ATOM      1  C   UNL d   1      -1.861  -0.212   3.230  0.00  0.00    -0.002 A 
ATOM      2  C1  UNL d   1      -2.963   0.197   2.493  0.00  0.00     0.010 A 
ATOM      3  C2  UNL d   1      -2.832   0.524   1.141  0.00  0.00     0.041 A 
ATOM      4  C3  UNL d   1      -1.563   0.429   0.537  0.00  0.00    -0.075 A 
ATOM      5  S   UNL d   1      -1.164   0.777  -1.104  0.00  0.00     0.015 SA
ATOM      6  C4  UNL d   1       0.478   0.389  -0.865  0.00  0.00     0.022 A 
ATOM      7  C5  UNL d   1       0.734   0.002   0.429  0.00  0.00     0.026 A 
ATOM      8  C6  UNL d   1      -0.439   0.018   1.259  0.00  0.00    -0.082 A 
ATOM      9  C7  UNL d   1      -0.604  -0.305   2.627  0.00  0.00     0.045 A 
ENDROOT
TORSDOF 0
ENDMDL
