MODEL 1
REMARK minimizedAffinity -1.90404439
REMARK minimizedRMSD -1
REMARK  0 active torsions:
REMARK  status: ('A' for Active; 'I' for Inactive)
ROOT
ATOM      1  C   UNL d   1      -2.244  -0.483   2.918  0.00  0.00    -0.002 A 
ATOM      2  C1  UNL d   1      -1.136  -0.025   3.616  0.00  0.00     0.010 A 
ATOM      3  C2  UNL d   1      -0.025   0.476   2.936  0.00  0.00     0.041 A 
ATOM      4  C3  UNL d   1      -0.047   0.512   1.528  0.00  0.00    -0.075 A 
ATOM      5  S   UNL d   1       1.199   1.085   0.483  0.00  0.00     0.015 SA
ATOM      6  C4  UNL d   1       0.289   0.737  -0.916  0.00  0.00     0.022 A 
ATOM      7  C5  UNL d   1      -0.938   0.196  -0.611  0.00  0.00     0.026 A 
ATOM      8  C6  UNL d   1      -1.152   0.058   0.802  0.00  0.00    -0.082 A 
ATOM      9  C7  UNL d   1      -2.263  -0.446   1.521  0.00  0.00     0.045 A 
ENDROOT
TORSDOF 0
ENDMDL
