MODEL 1
REMARK minimizedAffinity -4.19922781
REMARK minimizedRMSD -1
REMARK  0 active torsions:
REMARK  status: ('A' for Active; 'I' for Inactive)
ROOT
ATOM      1  C   UNL d   1      -1.305  -0.709   3.294  0.00  0.00    -0.002 A 
ATOM      2  C1  UNL d   1       0.040  -0.711   2.955  0.00  0.00     0.010 A 
ATOM      3  C2  UNL d   1       0.451  -0.318   1.679  0.00  0.00     0.041 A 
ATOM      4  C3  UNL d   1      -0.522   0.082   0.743  0.00  0.00    -0.075 A 
ATOM      5  S   UNL d   1      -0.252   0.604  -0.878  0.00  0.00     0.015 SA
ATOM      6  C4  UNL d   1      -1.916   0.842  -1.158  0.00  0.00     0.022 A 
ATOM      7  C5  UNL d   1      -2.674   0.536  -0.052  0.00  0.00     0.026 A 
ATOM      8  C6  UNL d   1      -1.883   0.093   1.062  0.00  0.00    -0.082 A 
ATOM      9  C7  UNL d   1      -2.268  -0.311   2.363  0.00  0.00     0.045 A 
ENDROOT
TORSDOF 0
ENDMDL
