MODEL 1
REMARK minimizedAffinity -0.253277183
REMARK minimizedRMSD -1
REMARK  0 active torsions:
REMARK  status: ('A' for Active; 'I' for Inactive)
ROOT
ATOM      1  C   UNL d   1      -0.388   0.033   3.126  0.00  0.00    -0.002 A 
ATOM      2  C1  UNL d   1      -1.472  -0.595   2.530  0.00  0.00     0.010 A 
ATOM      3  C2  UNL d   1      -1.523  -0.762   1.144  0.00  0.00     0.041 A 
ATOM      4  C3  UNL d   1      -0.454  -0.283   0.361  0.00  0.00    -0.075 A 
ATOM      5  S   UNL d   1      -0.299  -0.376  -1.354  0.00  0.00     0.015 SA
ATOM      6  C4  UNL d   1       1.210   0.416  -1.335  0.00  0.00     0.022 A 
ATOM      7  C5  UNL d   1       1.601   0.751  -0.060  0.00  0.00     0.026 A 
ATOM      8  C6  UNL d   1       0.648   0.353   0.938  0.00  0.00    -0.082 A 
ATOM      9  C7  UNL d   1       0.670   0.507   2.345  0.00  0.00     0.045 A 
ENDROOT
TORSDOF 0
ENDMDL
