MODEL 1
REMARK minimizedAffinity -2.34742522
REMARK minimizedRMSD -1
REMARK  0 active torsions:
REMARK  status: ('A' for Active; 'I' for Inactive)
ROOT
ATOM      1  C   UNL d   1      -1.479  -0.593   2.943  0.00  0.00    -0.002 A 
ATOM      2  C1  UNL d   1      -0.127  -0.873   2.804  0.00  0.00     0.010 A 
ATOM      3  C2  UNL d   1       0.529  -0.625   1.597  0.00  0.00     0.041 A 
ATOM      4  C3  UNL d   1      -0.203  -0.083   0.522  0.00  0.00    -0.075 A 
ATOM      5  S   UNL d   1       0.391   0.305  -1.049  0.00  0.00     0.015 SA
ATOM      6  C4  UNL d   1      -1.135   0.853  -1.573  0.00  0.00     0.022 A 
ATOM      7  C5  UNL d   1      -2.087   0.749  -0.586  0.00  0.00     0.026 A 
ATOM      8  C6  UNL d   1      -1.565   0.209   0.638  0.00  0.00    -0.082 A 
ATOM      9  C7  UNL d   1      -2.202  -0.055   1.875  0.00  0.00     0.045 A 
ENDROOT
TORSDOF 0
ENDMDL
