MODEL 1
REMARK minimizedAffinity 3.07985067
REMARK minimizedRMSD -1
REMARK  1 active torsions:
REMARK  status: ('A' for Active; 'I' for Inactive)
REMARK    1  A    between atoms: C1_2  and  C2_3 
ROOT
ATOM      1  C2  UNL d   1      -1.462   1.495   1.883  0.00  0.00    -0.081 A 
ATOM      2  C3  UNL d   1      -1.292   0.185   2.349  0.00  0.00     0.006 A 
ATOM      3  C4  UNL d   1      -0.252  -0.610   1.863  0.00  0.00     0.002 A 
ATOM      4  C5  UNL d   1       0.640  -0.108   0.910  0.00  0.00    -0.080 A 
ATOM      5  C6  UNL d   1       1.779  -0.941   0.402  0.00  0.00     0.076 C 
ATOM      6  C7  UNL d   1       0.460   1.194   0.431  0.00  0.00     0.002 A 
ATOM      7  C8  UNL d   1      -0.580   1.990   0.916  0.00  0.00     0.006 A 
ENDROOT
BRANCH   1   8
ATOM      8  C1  UNL d   1      -2.543   2.377   2.453  0.00  0.00     0.054 C 
ATOM      9  C   UNL d   1      -2.620   3.705   1.714  0.00  0.00     0.018 C 
ENDBRANCH   1   8
TORSDOF 1
ENDMDL
