MODEL 1
REMARK minimizedAffinity 1.76348352
REMARK minimizedRMSD -1
REMARK  1 active torsions:
REMARK  status: ('A' for Active; 'I' for Inactive)
REMARK    1  A    between atoms: C1_2  and  C2_3 
ROOT
ATOM      1  C2  UNL d   1       0.843   0.805   0.671  0.00  0.00    -0.081 A 
ATOM      2  C3  UNL d   1       0.378   2.117   0.514  0.00  0.00     0.006 A 
ATOM      3  C4  UNL d   1      -0.729   2.567   1.236  0.00  0.00     0.002 A 
ATOM      4  C5  UNL d   1      -1.385   1.717   2.134  0.00  0.00    -0.080 A 
ATOM      5  C6  UNL d   1      -2.556   2.197   2.938  0.00  0.00     0.076 C 
ATOM      6  C7  UNL d   1      -0.931   0.402   2.278  0.00  0.00     0.002 A 
ATOM      7  C8  UNL d   1       0.176  -0.049   1.556  0.00  0.00     0.006 A 
ENDROOT
BRANCH   1   8
ATOM      8  C1  UNL d   1       2.076   0.337  -0.058  0.00  0.00     0.054 C 
ATOM      9  C   UNL d   1       2.414   1.257  -1.222  0.00  0.00     0.018 C 
ENDBRANCH   1   8
TORSDOF 1
ENDMDL
