MODEL 1
REMARK minimizedAffinity 6.12570477
REMARK minimizedRMSD -1
REMARK  1 active torsions:
REMARK  status: ('A' for Active; 'I' for Inactive)
REMARK    1  A    between atoms: C1_2  and  C2_3 
ROOT
ATOM      1  C2  UNL d   1       0.200   0.302   1.365  0.00  0.00    -0.081 A 
ATOM      2  C3  UNL d   1       0.852   1.226   0.540  0.00  0.00     0.006 A 
ATOM      3  C4  UNL d   1       0.297   2.488   0.314  0.00  0.00     0.002 A 
ATOM      4  C5  UNL d   1      -0.914   2.849   0.914  0.00  0.00    -0.080 A 
ATOM      5  C6  UNL d   1      -1.505   4.211   0.703  0.00  0.00     0.076 C 
ATOM      6  C7  UNL d   1      -1.574   1.919   1.723  0.00  0.00     0.002 A 
ATOM      7  C8  UNL d   1      -1.020   0.657   1.950  0.00  0.00     0.006 A 
ENDROOT
BRANCH   1   8
ATOM      8  C1  UNL d   1       0.828  -1.036   1.663  0.00  0.00     0.054 C 
ATOM      9  C   UNL d   1       0.038  -1.795   2.719  0.00  0.00     0.018 C 
ENDBRANCH   1   8
TORSDOF 1
ENDMDL
