MODEL 1
REMARK minimizedAffinity 2.64510512
REMARK minimizedRMSD -1
REMARK  1 active torsions:
REMARK  status: ('A' for Active; 'I' for Inactive)
REMARK    1  A    between atoms: C1_2  and  C2_3 
ROOT
ATOM      1  C2  UNL d   1      -0.951   0.936   1.205  0.00  0.00    -0.081 A 
ATOM      2  C3  UNL d   1      -2.025   0.124   1.587  0.00  0.00     0.006 A 
ATOM      3  C4  UNL d   1      -1.813  -1.209   1.947  0.00  0.00     0.002 A 
ATOM      4  C5  UNL d   1      -0.522  -1.749   1.937  0.00  0.00    -0.080 A 
ATOM      5  C6  UNL d   1      -0.276  -3.170   2.350  0.00  0.00     0.076 C 
ATOM      6  C7  UNL d   1       0.549  -0.943   1.539  0.00  0.00     0.002 A 
ATOM      7  C8  UNL d   1       0.337   0.390   1.179  0.00  0.00     0.006 A 
ENDROOT
BRANCH   1   8
ATOM      8  C1  UNL d   1      -1.169   2.392   0.879  0.00  0.00     0.054 C 
ATOM      9  C   UNL d   1      -0.569   3.294   1.949  0.00  0.00     0.018 C 
ENDBRANCH   1   8
TORSDOF 1
ENDMDL
