MODEL 1
REMARK minimizedAffinity 2.30090475
REMARK minimizedRMSD -1
REMARK  1 active torsions:
REMARK  status: ('A' for Active; 'I' for Inactive)
REMARK    1  A    between atoms: C1_2  and  C2_3 
ROOT
ATOM      1  C2  UNL d   1      -1.150   1.879   1.343  0.00  0.00    -0.081 A 
ATOM      2  C3  UNL d   1      -1.184   0.507   1.622  0.00  0.00     0.006 A 
ATOM      3  C4  UNL d   1      -0.065  -0.293   1.380  0.00  0.00     0.002 A 
ATOM      4  C5  UNL d   1       1.108   0.265   0.862  0.00  0.00    -0.080 A 
ATOM      5  C6  UNL d   1       2.326  -0.578   0.626  0.00  0.00     0.076 C 
ATOM      6  C7  UNL d   1       1.137   1.632   0.566  0.00  0.00     0.002 A 
ATOM      7  C8  UNL d   1       0.018   2.433   0.807  0.00  0.00     0.006 A 
ENDROOT
BRANCH   1   8
ATOM      8  C1  UNL d   1      -2.333   2.756   1.663  0.00  0.00     0.054 C 
ATOM      9  C   UNL d   1      -2.975   3.303   0.396  0.00  0.00     0.018 C 
ENDBRANCH   1   8
TORSDOF 1
ENDMDL
