MODEL 1
REMARK minimizedAffinity 11.5181131
REMARK minimizedRMSD -1
REMARK  1 active torsions:
REMARK  status: ('A' for Active; 'I' for Inactive)
REMARK    1  A    between atoms: C1_2  and  C2_3 
ROOT
ATOM      1  C2  UNL d   1      -0.045   1.667   1.934  0.00  0.00    -0.081 A 
ATOM      2  C3  UNL d   1      -0.017   0.798   3.031  0.00  0.00     0.006 A 
ATOM      3  C4  UNL d   1       1.106   0.004   3.277  0.00  0.00     0.002 A 
ATOM      4  C5  UNL d   1       2.222   0.072   2.436  0.00  0.00    -0.080 A 
ATOM      5  C6  UNL d   1       3.446  -0.752   2.707  0.00  0.00     0.076 C 
ATOM      6  C7  UNL d   1       2.187   0.928   1.330  0.00  0.00     0.002 A 
ATOM      7  C8  UNL d   1       1.064   1.721   1.082  0.00  0.00     0.006 A 
ENDROOT
BRANCH   1   8
ATOM      8  C1  UNL d   1      -1.229   2.571   1.702  0.00  0.00     0.054 C 
ATOM      9  C   UNL d   1      -2.388   2.210   2.620  0.00  0.00     0.018 C 
ENDBRANCH   1   8
TORSDOF 1
ENDMDL
