MODEL 1
REMARK minimizedAffinity 2.47129607
REMARK minimizedRMSD -1
REMARK  1 active torsions:
REMARK  status: ('A' for Active; 'I' for Inactive)
REMARK    1  A    between atoms: C1_2  and  C2_3 
ROOT
ATOM      1  C2  UNL d   1      -1.646   1.727   2.149  0.00  0.00    -0.081 A 
ATOM      2  C3  UNL d   1      -1.830   0.342   2.049  0.00  0.00     0.006 A 
ATOM      3  C4  UNL d   1      -0.857  -0.459   1.447  0.00  0.00     0.002 A 
ATOM      4  C5  UNL d   1       0.318   0.108   0.943  0.00  0.00    -0.080 A 
ATOM      5  C6  UNL d   1       1.384  -0.745   0.323  0.00  0.00     0.076 C 
ATOM      6  C7  UNL d   1       0.494   1.493   1.027  0.00  0.00     0.002 A 
ATOM      7  C8  UNL d   1      -0.479   2.296   1.628  0.00  0.00     0.006 A 
ENDROOT
BRANCH   1   8
ATOM      8  C1  UNL d   1      -2.664   2.586   2.854  0.00  0.00     0.054 C 
ATOM      9  C   UNL d   1      -3.798   1.746   3.423  0.00  0.00     0.018 C 
ENDBRANCH   1   8
TORSDOF 1
ENDMDL
