MODEL 1
REMARK minimizedAffinity -0.349559009
REMARK minimizedRMSD -1
REMARK  1 active torsions:
REMARK  status: ('A' for Active; 'I' for Inactive)
REMARK    1  A    between atoms: C1_2  and  C2_3 
ROOT
ATOM      1  C2  UNL d   1      -0.522   2.623   1.508  0.00  0.00    -0.081 A 
ATOM      2  C3  UNL d   1       0.190   1.418   1.538  0.00  0.00     0.006 A 
ATOM      3  C4  UNL d   1      -0.443   0.230   1.913  0.00  0.00     0.002 A 
ATOM      4  C5  UNL d   1      -1.800   0.227   2.256  0.00  0.00    -0.080 A 
ATOM      5  C6  UNL d   1      -2.499  -1.046   2.630  0.00  0.00     0.076 C 
ATOM      6  C7  UNL d   1      -2.507   1.434   2.243  0.00  0.00     0.002 A 
ATOM      7  C8  UNL d   1      -1.874   2.621   1.869  0.00  0.00     0.006 A 
ENDROOT
BRANCH   1   8
ATOM      8  C1  UNL d   1       0.141   3.894   1.043  0.00  0.00     0.054 C 
ATOM      9  C   UNL d   1       1.500   3.612   0.417  0.00  0.00     0.018 C 
ENDBRANCH   1   8
TORSDOF 1
ENDMDL
