MODEL 1
REMARK minimizedAffinity 1.97700143
REMARK minimizedRMSD -1
REMARK  1 active torsions:
REMARK  status: ('A' for Active; 'I' for Inactive)
REMARK    1  A    between atoms: C1_2  and  C2_3 
ROOT
ATOM      1  C2  UNL d   1       1.258   2.773   1.028  0.00  0.00    -0.081 A 
ATOM      2  C3  UNL d   1       0.101   3.514   0.758  0.00  0.00     0.006 A 
ATOM      3  C4  UNL d   1      -1.156   3.021   1.118  0.00  0.00     0.002 A 
ATOM      4  C5  UNL d   1      -1.276   1.783   1.759  0.00  0.00    -0.080 A 
ATOM      5  C6  UNL d   1      -2.616   1.256   2.177  0.00  0.00     0.076 C 
ATOM      6  C7  UNL d   1      -0.122   1.035   2.012  0.00  0.00     0.002 A 
ATOM      7  C8  UNL d   1       1.135   1.527   1.653  0.00  0.00     0.006 A 
ENDROOT
BRANCH   1   8
ATOM      8  C1  UNL d   1       2.619   3.331   0.700  0.00  0.00     0.054 C 
ATOM      9  C   UNL d   1       2.650   4.844   0.860  0.00  0.00     0.018 C 
ENDBRANCH   1   8
TORSDOF 1
ENDMDL
