MODEL 1
REMARK minimizedAffinity 0.173118904
REMARK minimizedRMSD -1
REMARK  0 active torsions:
REMARK  status: ('A' for Active; 'I' for Inactive)
ROOT
ATOM      1  C   UNL d   1       4.889   5.507  -2.108  0.00  0.00     0.020 A 
ATOM      2  C1  UNL d   1       5.674   4.355  -2.070  0.00  0.00     0.020 A 
ATOM      3  C2  UNL d   1       6.000   3.693  -3.256  0.00  0.00     0.034 A 
ATOM      4  C3  UNL d   1       5.539   4.181  -4.484  0.00  0.00     0.017 A 
ATOM      5  C4  UNL d   1       4.751   5.337  -4.521  0.00  0.00     0.017 A 
ATOM      6  C5  UNL d   1       4.429   5.997  -3.331  0.00  0.00     0.034 A 
ATOM      7 Cl   UNL d   1       4.146   6.000  -5.998  0.00  0.00    -0.070 Cl
ATOM      8 Cl1  UNL d   1       5.980   3.312  -5.910  0.00  0.00    -0.070 Cl
ENDROOT
TORSDOF 0
ENDMDL
