MODEL 1
REMARK minimizedAffinity 7.32485485
REMARK minimizedRMSD -1
REMARK  0 active torsions:
REMARK  status: ('A' for Active; 'I' for Inactive)
ROOT
ATOM      1  C   UNL d   1       5.998   5.869  -4.007  0.00  0.00     0.020 A 
ATOM      2  C1  UNL d   1       4.798   6.000  -4.705  0.00  0.00     0.020 A 
ATOM      3  C2  UNL d   1       3.598   5.598  -4.113  0.00  0.00     0.034 A 
ATOM      4  C3  UNL d   1       3.596   5.064  -2.819  0.00  0.00     0.017 A 
ATOM      5  C4  UNL d   1       4.801   4.933  -2.119  0.00  0.00     0.017 A 
ATOM      6  C5  UNL d   1       5.999   5.337  -2.717  0.00  0.00     0.034 A 
ATOM      7 Cl   UNL d   1       4.878   4.282  -0.520  0.00  0.00    -0.070 Cl
ATOM      8 Cl1  UNL d   1       2.076   4.588  -2.149  0.00  0.00    -0.070 Cl
ENDROOT
TORSDOF 0
ENDMDL
