MODEL 1
REMARK minimizedAffinity 3.85863638
REMARK minimizedRMSD -1
REMARK  0 active torsions:
REMARK  status: ('A' for Active; 'I' for Inactive)
ROOT
ATOM      1  C   UNL d   1       5.999   4.903  -2.083  0.00  0.00     0.020 A 
ATOM      2  C1  UNL d   1       4.805   4.925  -1.363  0.00  0.00     0.020 A 
ATOM      3  C2  UNL d   1       3.611   5.267  -2.002  0.00  0.00     0.034 A 
ATOM      4  C3  UNL d   1       3.608   5.587  -3.364  0.00  0.00     0.017 A 
ATOM      5  C4  UNL d   1       4.807   5.565  -4.086  0.00  0.00     0.017 A 
ATOM      6  C5  UNL d   1       6.000   5.222  -3.442  0.00  0.00     0.034 A 
ATOM      7 Cl   UNL d   1       4.883   5.948  -5.770  0.00  0.00    -0.070 Cl
ATOM      8 Cl1  UNL d   1       2.095   6.000  -4.089  0.00  0.00    -0.070 Cl
ENDROOT
TORSDOF 0
ENDMDL
