MODEL 1
REMARK minimizedAffinity 8.20840645
REMARK minimizedRMSD -1
REMARK  0 active torsions:
REMARK  status: ('A' for Active; 'I' for Inactive)
ROOT
ATOM      1  C   UNL d   1       6.000   4.837  -1.393  0.00  0.00     0.020 A 
ATOM      2  C1  UNL d   1       4.981   5.706  -1.003  0.00  0.00     0.020 A 
ATOM      3  C2  UNL d   1       3.935   5.994  -1.881  0.00  0.00     0.034 A 
ATOM      4  C3  UNL d   1       3.904   5.414  -3.154  0.00  0.00     0.017 A 
ATOM      5  C4  UNL d   1       4.926   4.542  -3.545  0.00  0.00     0.017 A 
ATOM      6  C5  UNL d   1       5.972   4.256  -2.662  0.00  0.00     0.034 A 
ATOM      7 Cl   UNL d   1       4.956   3.787  -5.100  0.00  0.00    -0.070 Cl
ATOM      8 Cl1  UNL d   1       2.579   5.815  -4.188  0.00  0.00    -0.070 Cl
ENDROOT
TORSDOF 0
ENDMDL
