MODEL 1
REMARK minimizedAffinity 5.12345695
REMARK minimizedRMSD -1
REMARK  0 active torsions:
REMARK  status: ('A' for Active; 'I' for Inactive)
ROOT
ATOM      1  C   UNL d   1       4.517   5.776  -1.521  0.00  0.00     0.020 A 
ATOM      2  C1  UNL d   1       5.558   4.855  -1.405  0.00  0.00     0.020 A 
ATOM      3  C2  UNL d   1       6.000   4.157  -2.531  0.00  0.00     0.034 A 
ATOM      4  C3  UNL d   1       5.402   4.379  -3.777  0.00  0.00     0.017 A 
ATOM      5  C4  UNL d   1       4.358   5.304  -3.892  0.00  0.00     0.017 A 
ATOM      6  C5  UNL d   1       3.919   6.000  -2.761  0.00  0.00     0.034 A 
ATOM      7 Cl   UNL d   1       3.571   5.631  -5.395  0.00  0.00    -0.070 Cl
ATOM      8 Cl1  UNL d   1       6.000   3.480  -5.126  0.00  0.00    -0.070 Cl
ENDROOT
TORSDOF 0
ENDMDL
