MODEL 1
REMARK minimizedAffinity -0.33459729
REMARK minimizedRMSD -1
REMARK  0 active torsions:
REMARK  status: ('A' for Active; 'I' for Inactive)
ROOT
ATOM      1  C   UNL d   1       4.075   5.995  -1.556  0.00  0.00     0.020 A 
ATOM      2  C1  UNL d   1       5.458   5.996  -1.731  0.00  0.00     0.020 A 
ATOM      3  C2  UNL d   1       6.000   5.998  -3.018  0.00  0.00     0.034 A 
ATOM      4  C3  UNL d   1       5.158   5.998  -4.136  0.00  0.00     0.017 A 
ATOM      5  C4  UNL d   1       3.769   5.997  -3.960  0.00  0.00     0.017 A 
ATOM      6  C5  UNL d   1       3.232   5.996  -2.669  0.00  0.00     0.034 A 
ATOM      7 Cl   UNL d   1       2.666   5.997  -5.291  0.00  0.00    -0.070 Cl
ATOM      8 Cl1  UNL d   1       5.896   6.000  -5.698  0.00  0.00    -0.070 Cl
ENDROOT
TORSDOF 0
ENDMDL
