MODEL 1
REMARK minimizedAffinity -0.558189094
REMARK minimizedRMSD -1
REMARK  0 active torsions:
REMARK  status: ('A' for Active; 'I' for Inactive)
ROOT
ATOM      1  C   UNL d   1       3.375   4.316  -1.559  0.00  0.00     0.020 A 
ATOM      2  C1  UNL d   1       2.143   4.491  -2.188  0.00  0.00     0.020 A 
ATOM      3  C2  UNL d   1       2.088   5.012  -3.482  0.00  0.00     0.034 A 
ATOM      4  C3  UNL d   1       3.267   5.361  -4.152  0.00  0.00     0.017 A 
ATOM      5  C4  UNL d   1       4.503   5.185  -3.519  0.00  0.00     0.017 A 
ATOM      6  C5  UNL d   1       4.552   4.662  -2.223  0.00  0.00     0.034 A 
ATOM      7 Cl   UNL d   1       6.000   5.592  -4.281  0.00  0.00    -0.070 Cl
ATOM      8 Cl1  UNL d   1       3.124   6.000  -5.751  0.00  0.00    -0.070 Cl
ENDROOT
TORSDOF 0
ENDMDL
