MODEL 1
REMARK minimizedAffinity -0.988546133
REMARK minimizedRMSD -1
REMARK  0 active torsions:
REMARK  status: ('A' for Active; 'I' for Inactive)
ROOT
ATOM      1  C   UNL d   1       5.963   5.120  -5.272  0.00  0.00     0.020 A 
ATOM      2  C1  UNL d   1       4.746   5.154  -5.953  0.00  0.00     0.020 A 
ATOM      3  C2  UNL d   1       3.566   5.428  -5.259  0.00  0.00     0.034 A 
ATOM      4  C3  UNL d   1       3.599   5.668  -3.880  0.00  0.00     0.017 A 
ATOM      5  C4  UNL d   1       4.820   5.633  -3.198  0.00  0.00     0.017 A 
ATOM      6  C5  UNL d   1       5.999   5.359  -3.898  0.00  0.00     0.034 A 
ATOM      7 Cl   UNL d   1       4.940   5.919  -1.498  0.00  0.00    -0.070 Cl
ATOM      8 Cl1  UNL d   1       2.100   6.000  -3.087  0.00  0.00    -0.070 Cl
ENDROOT
TORSDOF 0
ENDMDL
