MODEL 1
REMARK minimizedAffinity 9.20918083
REMARK minimizedRMSD -1
REMARK  0 active torsions:
REMARK  status: ('A' for Active; 'I' for Inactive)
ROOT
ATOM      1  C   UNL d   1       4.436   5.937  -1.947  0.00  0.00     0.020 A 
ATOM      2  C1  UNL d   1       5.541   5.112  -1.741  0.00  0.00     0.020 A 
ATOM      3  C2  UNL d   1       5.994   4.282  -2.769  0.00  0.00     0.034 A 
ATOM      4  C3  UNL d   1       5.341   4.274  -4.007  0.00  0.00     0.017 A 
ATOM      5  C4  UNL d   1       4.232   5.103  -4.213  0.00  0.00     0.017 A 
ATOM      6  C5  UNL d   1       3.783   5.932  -3.181  0.00  0.00     0.034 A 
ATOM      7 Cl   UNL d   1       3.376   5.149  -5.714  0.00  0.00    -0.070 Cl
ATOM      8 Cl1  UNL d   1       5.956   3.223  -5.233  0.00  0.00    -0.070 Cl
ENDROOT
TORSDOF 0
ENDMDL
