MODEL 1
REMARK minimizedAffinity 5.02508307
REMARK minimizedRMSD -1
REMARK  0 active torsions:
REMARK  status: ('A' for Active; 'I' for Inactive)
ROOT
ATOM      1  C   UNL d   1       5.998   3.254  -4.503  0.00  0.00     0.020 A 
ATOM      2  C1  UNL d   1       4.914   3.251  -5.380  0.00  0.00     0.020 A 
ATOM      3  C2  UNL d   1       3.830   4.101  -5.152  0.00  0.00     0.034 A 
ATOM      4  C3  UNL d   1       3.828   4.959  -4.046  0.00  0.00     0.017 A 
ATOM      5  C4  UNL d   1       4.917   4.962  -3.167  0.00  0.00     0.017 A 
ATOM      6  C5  UNL d   1       6.000   4.108  -3.400  0.00  0.00     0.034 A 
ATOM      7 Cl   UNL d   1       4.986   5.992  -1.781  0.00  0.00    -0.070 Cl
ATOM      8 Cl1  UNL d   1       2.454   5.984  -3.826  0.00  0.00    -0.070 Cl
ENDROOT
TORSDOF 0
ENDMDL
