MODEL 1
REMARK minimizedAffinity 4.90025234
REMARK minimizedRMSD -1
REMARK  0 active torsions:
REMARK  status: ('A' for Active; 'I' for Inactive)
ROOT
ATOM      1  C   UNL d   1       5.422   4.676  -1.747  0.00  0.00     0.020 A 
ATOM      2  C1  UNL d   1       5.997   5.619  -2.598  0.00  0.00     0.020 A 
ATOM      3  C2  UNL d   1       5.337   5.997  -3.769  0.00  0.00     0.034 A 
ATOM      4  C3  UNL d   1       4.098   5.433  -4.092  0.00  0.00     0.017 A 
ATOM      5  C4  UNL d   1       3.521   4.487  -3.237  0.00  0.00     0.017 A 
ATOM      6  C5  UNL d   1       4.186   4.111  -2.066  0.00  0.00     0.034 A 
ATOM      7 Cl   UNL d   1       1.994   3.747  -3.569  0.00  0.00    -0.070 Cl
ATOM      8 Cl1  UNL d   1       3.337   5.948  -5.556  0.00  0.00    -0.070 Cl
ENDROOT
TORSDOF 0
ENDMDL
