MODEL 1
REMARK minimizedAffinity 3.90539765
REMARK minimizedRMSD -1
REMARK  0 active torsions:
REMARK  status: ('A' for Active; 'I' for Inactive)
ROOT
ATOM      1  C   UNL d   1       2.418   4.323  -2.421  0.00  0.00     0.020 A 
ATOM      2  C1  UNL d   1       2.418   3.992  -3.776  0.00  0.00     0.020 A 
ATOM      3  C2  UNL d   1       3.534   4.279  -4.564  0.00  0.00     0.034 A 
ATOM      4  C3  UNL d   1       4.655   4.899  -4.000  0.00  0.00     0.017 A 
ATOM      5  C4  UNL d   1       4.653   5.232  -2.640  0.00  0.00     0.017 A 
ATOM      6  C5  UNL d   1       3.533   4.941  -1.855  0.00  0.00     0.034 A 
ATOM      7 Cl   UNL d   1       5.998   5.998  -1.872  0.00  0.00    -0.070 Cl
ATOM      8 Cl1  UNL d   1       6.000   5.225  -5.034  0.00  0.00    -0.070 Cl
ENDROOT
TORSDOF 0
ENDMDL
