MODEL 1
REMARK minimizedAffinity 3.97240257
REMARK minimizedRMSD -1
REMARK  0 active torsions:
REMARK  status: ('A' for Active; 'I' for Inactive)
ROOT
ATOM      1  C   UNL d   1      -0.949  -1.776  -3.417  0.00  0.00     0.020 A 
ATOM      2  C1  UNL d   1      -0.221  -1.902  -2.235  0.00  0.00     0.020 A 
ATOM      3  C2  UNL d   1       0.165  -3.166  -1.784  0.00  0.00     0.034 A 
ATOM      4  C3  UNL d   1      -0.176  -4.309  -2.516  0.00  0.00     0.017 A 
ATOM      5  C4  UNL d   1      -0.907  -4.182  -3.703  0.00  0.00     0.017 A 
ATOM      6  C5  UNL d   1      -1.291  -2.913  -4.150  0.00  0.00     0.034 A 
ATOM      7 Cl   UNL d   1      -1.364  -5.546  -4.660  0.00  0.00    -0.070 Cl
ATOM      8 Cl1  UNL d   1       0.335  -5.840  -1.899  0.00  0.00    -0.070 Cl
ENDROOT
TORSDOF 0
ENDMDL
