MODEL 1
REMARK minimizedAffinity -0.914745808
REMARK minimizedRMSD -1
REMARK  0 active torsions:
REMARK  status: ('A' for Active; 'I' for Inactive)
ROOT
ATOM      1  C   UNL d   1       5.986   4.062  -5.259  0.00  0.00     0.020 A 
ATOM      2  C1  UNL d   1       4.970   4.689  -5.980  0.00  0.00     0.020 A 
ATOM      3  C2  UNL d   1       3.899   5.281  -5.307  0.00  0.00     0.034 A 
ATOM      4  C3  UNL d   1       3.842   5.247  -3.909  0.00  0.00     0.017 A 
ATOM      5  C4  UNL d   1       4.862   4.618  -3.186  0.00  0.00     0.017 A 
ATOM      6  C5  UNL d   1       5.932   4.027  -3.865  0.00  0.00     0.034 A 
ATOM      7 Cl   UNL d   1       4.861   4.537  -1.460  0.00  0.00    -0.070 Cl
ATOM      8 Cl1  UNL d   1       2.488   5.999  -3.142  0.00  0.00    -0.070 Cl
ENDROOT
TORSDOF 0
ENDMDL
