MODEL 1
REMARK minimizedAffinity -0.787461102
REMARK minimizedRMSD -1
REMARK  0 active torsions:
REMARK  status: ('A' for Active; 'I' for Inactive)
ROOT
ATOM      1  C   UNL d   1       5.992   4.080  -5.223  0.00  0.00     0.020 A 
ATOM      2  C1  UNL d   1       4.893   4.501  -5.971  0.00  0.00     0.020 A 
ATOM      3  C2  UNL d   1       3.799   5.091  -5.333  0.00  0.00     0.034 A 
ATOM      4  C3  UNL d   1       3.802   5.260  -3.944  0.00  0.00     0.017 A 
ATOM      5  C4  UNL d   1       4.905   4.836  -3.194  0.00  0.00     0.017 A 
ATOM      6  C5  UNL d   1       5.998   4.247  -3.838  0.00  0.00     0.034 A 
ATOM      7 Cl   UNL d   1       4.981   5.012  -1.476  0.00  0.00    -0.070 Cl
ATOM      8 Cl1  UNL d   1       2.415   5.996  -3.222  0.00  0.00    -0.070 Cl
ENDROOT
TORSDOF 0
ENDMDL
