MODEL 1
REMARK minimizedAffinity 2.84337354
REMARK minimizedRMSD -1
REMARK  0 active torsions:
REMARK  status: ('A' for Active; 'I' for Inactive)
ROOT
ATOM      1  C   UNL d   1       5.997   2.134  -4.534  0.00  0.00     0.020 A 
ATOM      2  C1  UNL d   1       5.276   2.527  -5.661  0.00  0.00     0.020 A 
ATOM      3  C2  UNL d   1       4.558   3.724  -5.648  0.00  0.00     0.034 A 
ATOM      4  C3  UNL d   1       4.558   4.533  -4.506  0.00  0.00     0.017 A 
ATOM      5  C4  UNL d   1       5.282   4.138  -3.375  0.00  0.00     0.017 A 
ATOM      6  C5  UNL d   1       6.000   2.938  -3.393  0.00  0.00     0.034 A 
ATOM      7 Cl   UNL d   1       5.330   5.083  -1.928  0.00  0.00    -0.070 Cl
ATOM      8 Cl1  UNL d   1       3.647   6.000  -4.560  0.00  0.00    -0.070 Cl
ENDROOT
TORSDOF 0
ENDMDL
