MODEL 1
REMARK minimizedAffinity -0.518023431
REMARK minimizedRMSD -1
REMARK  0 active torsions:
REMARK  status: ('A' for Active; 'I' for Inactive)
ROOT
ATOM      1  C   UNL d   1       5.983   3.910  -5.187  0.00  0.00     0.020 A 
ATOM      2  C1  UNL d   1       4.887   4.255  -5.977  0.00  0.00     0.020 A 
ATOM      3  C2  UNL d   1       3.788   4.898  -5.403  0.00  0.00     0.034 A 
ATOM      4  C3  UNL d   1       3.783   5.198  -4.036  0.00  0.00     0.017 A 
ATOM      5  C4  UNL d   1       4.884   4.851  -3.244  0.00  0.00     0.017 A 
ATOM      6  C5  UNL d   1       5.982   4.207  -3.824  0.00  0.00     0.034 A 
ATOM      7 Cl   UNL d   1       4.950   5.188  -1.550  0.00  0.00    -0.070 Cl
ATOM      8 Cl1  UNL d   1       2.391   5.994  -3.393  0.00  0.00    -0.070 Cl
ENDROOT
TORSDOF 0
ENDMDL
