MODEL 1
REMARK minimizedAffinity 3.1234653
REMARK minimizedRMSD -1
REMARK  1 active torsions:
REMARK  status: ('A' for Active; 'I' for Inactive)
REMARK    1  A    between atoms: C1_2  and  C2_3 
ROOT
ATOM      1  C2  UNL d   1      -0.337   1.512   1.520  0.00  0.00    -0.077 A 
ATOM      2  C3  UNL d   1      -0.263   1.823   2.885  0.00  0.00     0.002 A 
ATOM      3  C4  UNL d   1       0.491   1.027   3.751  0.00  0.00     0.002 A 
ATOM      4  C5  UNL d   1       1.179  -0.080   3.260  0.00  0.00    -0.004 A 
ATOM      5  C6  UNL d   1       1.110  -0.399   1.904  0.00  0.00     0.002 A 
ATOM      6  C7  UNL d   1       0.356   0.395   1.038  0.00  0.00     0.002 A 
ENDROOT
BRANCH   1   7
ATOM      7  C1  UNL d   1      -1.109   2.397   0.577  0.00  0.00     0.055 C 
ATOM      8  C   UNL d   1      -0.320   3.649   0.222  0.00  0.00     0.019 C 
ENDBRANCH   1   7
TORSDOF 1
ENDMDL
