MODEL 1
REMARK minimizedAffinity -1.24300611
REMARK minimizedRMSD -1
REMARK  1 active torsions:
REMARK  status: ('A' for Active; 'I' for Inactive)
REMARK    1  A    between atoms: C1_2  and  C2_3 
ROOT
ATOM      1  C2  UNL d   1      -0.896   2.374   0.279  0.00  0.00    -0.077 A 
ATOM      2  C3  UNL d   1      -0.134   1.699  -0.685  0.00  0.00     0.002 A 
ATOM      3  C4  UNL d   1       0.545   2.413  -1.675  0.00  0.00     0.002 A 
ATOM      4  C5  UNL d   1       0.473   3.804  -1.706  0.00  0.00    -0.004 A 
ATOM      5  C6  UNL d   1      -0.284   4.484  -0.752  0.00  0.00     0.002 A 
ATOM      6  C7  UNL d   1      -0.965   3.772   0.236  0.00  0.00     0.002 A 
ENDROOT
BRANCH   1   7
ATOM      7  C1  UNL d   1      -1.589   1.609   1.376  0.00  0.00     0.055 C 
ATOM      8  C   UNL d   1      -0.587   0.896   2.272  0.00  0.00     0.019 C 
ENDBRANCH   1   7
TORSDOF 1
ENDMDL
