MODEL 1
REMARK minimizedAffinity 2.24944925
REMARK minimizedRMSD -1
REMARK  1 active torsions:
REMARK  status: ('A' for Active; 'I' for Inactive)
REMARK    1  A    between atoms: C1_2  and  C2_3 
ROOT
ATOM      1  C2  UNL d   1      -1.194   2.284   1.133  0.00  0.00    -0.077 A 
ATOM      2  C3  UNL d   1      -2.367   1.600   1.482  0.00  0.00     0.002 A 
ATOM      3  C4  UNL d   1      -2.298   0.353   2.107  0.00  0.00     0.002 A 
ATOM      4  C5  UNL d   1      -1.060  -0.218   2.391  0.00  0.00    -0.004 A 
ATOM      5  C6  UNL d   1       0.113   0.454   2.046  0.00  0.00     0.002 A 
ATOM      6  C7  UNL d   1       0.046   1.699   1.421  0.00  0.00     0.002 A 
ENDROOT
BRANCH   1   7
ATOM      7  C1  UNL d   1      -1.266   3.651   0.504  0.00  0.00     0.055 C 
ATOM      8  C   UNL d   1      -0.286   3.780  -0.653  0.00  0.00     0.019 C 
ENDBRANCH   1   7
TORSDOF 1
ENDMDL
