MODEL 1
REMARK minimizedAffinity 0.754487753
REMARK minimizedRMSD -1
REMARK  1 active torsions:
REMARK  status: ('A' for Active; 'I' for Inactive)
REMARK    1  A    between atoms: C1_2  and  C2_3 
ROOT
ATOM      1  C2  UNL d   1      -0.361   1.562   1.113  0.00  0.00    -0.077 A 
ATOM      2  C3  UNL d   1      -0.408   2.042  -0.203  0.00  0.00     0.002 A 
ATOM      3  C4  UNL d   1       0.650   1.799  -1.082  0.00  0.00     0.002 A 
ATOM      4  C5  UNL d   1       1.759   1.071  -0.655  0.00  0.00    -0.004 A 
ATOM      5  C6  UNL d   1       1.816   0.591   0.653  0.00  0.00     0.002 A 
ATOM      6  C7  UNL d   1       0.760   0.835   1.533  0.00  0.00     0.002 A 
ENDROOT
BRANCH   1   7
ATOM      7  C1  UNL d   1      -1.522   1.781   2.047  0.00  0.00     0.055 C 
ATOM      8  C   UNL d   1      -2.375   0.527   2.175  0.00  0.00     0.019 C 
ENDBRANCH   1   7
TORSDOF 1
ENDMDL
