MODEL 1
REMARK minimizedAffinity 4.77221012
REMARK minimizedRMSD -1
REMARK  1 active torsions:
REMARK  status: ('A' for Active; 'I' for Inactive)
REMARK    1  A    between atoms: C1_2  and  C2_3 
ROOT
ATOM      1  C2  UNL d   1      -1.392   2.486   0.737  0.00  0.00    -0.077 A 
ATOM      2  C3  UNL d   1      -1.086   3.851   0.820  0.00  0.00     0.002 A 
ATOM      3  C4  UNL d   1      -0.265   4.450  -0.137  0.00  0.00     0.002 A 
ATOM      4  C5  UNL d   1       0.253   3.693  -1.186  0.00  0.00    -0.004 A 
ATOM      5  C6  UNL d   1      -0.044   2.333  -1.276  0.00  0.00     0.002 A 
ATOM      6  C7  UNL d   1      -0.864   1.733  -0.319  0.00  0.00     0.002 A 
ENDROOT
BRANCH   1   7
ATOM      7  C1  UNL d   1      -2.318   1.848   1.741  0.00  0.00     0.055 C 
ATOM      8  C   UNL d   1      -1.846   0.452   2.120  0.00  0.00     0.019 C 
ENDBRANCH   1   7
TORSDOF 1
ENDMDL
