MODEL 1
REMARK minimizedAffinity 4.82823467
REMARK minimizedRMSD -1
REMARK  1 active torsions:
REMARK  status: ('A' for Active; 'I' for Inactive)
REMARK    1  A    between atoms: C1_2  and  C2_3 
ROOT
ATOM      1  C2  UNL d   1      -3.144  -2.713   5.344  0.00  0.00    -0.077 A 
ATOM      2  C3  UNL d   1      -2.623  -2.187   4.154  0.00  0.00     0.002 A 
ATOM      3  C4  UNL d   1      -1.424  -2.675   3.631  0.00  0.00     0.002 A 
ATOM      4  C5  UNL d   1      -0.739  -3.694   4.289  0.00  0.00    -0.004 A 
ATOM      5  C6  UNL d   1      -1.247  -4.223   5.475  0.00  0.00     0.002 A 
ATOM      6  C7  UNL d   1      -2.445  -3.735   5.999  0.00  0.00     0.002 A 
ENDROOT
BRANCH   1   7
ATOM      7  C1  UNL d   1      -4.462  -2.222   5.884  0.00  0.00     0.055 C 
ATOM      8  C   UNL d   1      -5.609  -2.574   4.947  0.00  0.00     0.019 C 
ENDBRANCH   1   7
TORSDOF 1
ENDMDL
