MODEL 1
REMARK minimizedAffinity 4.26694155
REMARK minimizedRMSD -1
REMARK  1 active torsions:
REMARK  status: ('A' for Active; 'I' for Inactive)
REMARK    1  A    between atoms: C1_2  and  C2_3 
ROOT
ATOM      1  C2  UNL d   1      -1.545  -2.012   3.601  0.00  0.00    -0.077 A 
ATOM      2  C3  UNL d   1      -2.855  -2.068   4.098  0.00  0.00     0.002 A 
ATOM      3  C4  UNL d   1      -3.237  -3.092   4.967  0.00  0.00     0.002 A 
ATOM      4  C5  UNL d   1      -2.316  -4.064   5.349  0.00  0.00    -0.004 A 
ATOM      5  C6  UNL d   1      -1.011  -4.019   4.858  0.00  0.00     0.002 A 
ATOM      6  C7  UNL d   1      -0.628  -2.996   3.989  0.00  0.00     0.002 A 
ENDROOT
BRANCH   1   7
ATOM      7  C1  UNL d   1      -1.117  -0.880   2.703  0.00  0.00     0.055 C 
ATOM      8  C   UNL d   1      -2.239   0.130   2.513  0.00  0.00     0.019 C 
ENDBRANCH   1   7
TORSDOF 1
ENDMDL
