MODEL 1
REMARK minimizedAffinity 5.08010006
REMARK minimizedRMSD -1
REMARK  1 active torsions:
REMARK  status: ('A' for Active; 'I' for Inactive)
REMARK    1  A    between atoms: C1_2  and  C2_3 
ROOT
ATOM      1  C2  UNL d   1       0.411   1.284  -0.182  0.00  0.00    -0.077 A 
ATOM      2  C3  UNL d   1       1.451   0.418   0.183  0.00  0.00     0.002 A 
ATOM      3  C4  UNL d   1       1.688   0.126   1.527  0.00  0.00     0.002 A 
ATOM      4  C5  UNL d   1       0.888   0.692   2.517  0.00  0.00    -0.004 A 
ATOM      5  C6  UNL d   1      -0.148   1.556   2.165  0.00  0.00     0.002 A 
ATOM      6  C7  UNL d   1      -0.386   1.850   0.821  0.00  0.00     0.002 A 
ENDROOT
BRANCH   1   7
ATOM      7  C1  UNL d   1       0.122   1.562  -1.634  0.00  0.00     0.055 C 
ATOM      8  C   UNL d   1       0.136   3.056  -1.925  0.00  0.00     0.019 C 
ENDBRANCH   1   7
TORSDOF 1
ENDMDL
