MODEL 1
REMARK minimizedAffinity 4.93857098
REMARK minimizedRMSD -1
REMARK  1 active torsions:
REMARK  status: ('A' for Active; 'I' for Inactive)
REMARK    1  A    between atoms: C1_2  and  C2_3 
ROOT
ATOM      1  C2  UNL d   1      -0.194   1.792   1.165  0.00  0.00    -0.077 A 
ATOM      2  C3  UNL d   1       0.903   1.046   1.618  0.00  0.00     0.002 A 
ATOM      3  C4  UNL d   1       1.694   0.334   0.714  0.00  0.00     0.002 A 
ATOM      4  C5  UNL d   1       1.400   0.365  -0.647  0.00  0.00    -0.004 A 
ATOM      5  C6  UNL d   1       0.309   1.102  -1.107  0.00  0.00     0.002 A 
ATOM      6  C7  UNL d   1      -0.484   1.813  -0.205  0.00  0.00     0.002 A 
ENDROOT
BRANCH   1   7
ATOM      7  C1  UNL d   1      -1.020   2.600   2.132  0.00  0.00     0.055 C 
ATOM      8  C   UNL d   1      -0.361   2.664   3.502  0.00  0.00     0.019 C 
ENDBRANCH   1   7
TORSDOF 1
ENDMDL
