MODEL 1
REMARK minimizedAffinity 11.3193407
REMARK minimizedRMSD -1
REMARK  1 active torsions:
REMARK  status: ('A' for Active; 'I' for Inactive)
REMARK    1  A    between atoms: C1_2  and  C2_3 
ROOT
ATOM      1  C2  UNL d   1       0.563   0.937   1.606  0.00  0.00    -0.077 A 
ATOM      2  C3  UNL d   1       1.074   2.155   2.075  0.00  0.00     0.002 A 
ATOM      3  C4  UNL d   1       0.286   2.995   2.864  0.00  0.00     0.002 A 
ATOM      4  C5  UNL d   1      -1.016   2.625   3.194  0.00  0.00    -0.004 A 
ATOM      5  C6  UNL d   1      -1.535   1.416   2.730  0.00  0.00     0.002 A 
ATOM      6  C7  UNL d   1      -0.749   0.576   1.941  0.00  0.00     0.002 A 
ENDROOT
BRANCH   1   7
ATOM      7  C1  UNL d   1       1.428   0.007   0.797  0.00  0.00     0.055 C 
ATOM      8  C   UNL d   1       2.856  -0.017   1.321  0.00  0.00     0.019 C 
ENDBRANCH   1   7
TORSDOF 1
ENDMDL
