MODEL 1
REMARK minimizedAffinity 5.58075142
REMARK minimizedRMSD -1
REMARK  0 active torsions:
REMARK  status: ('A' for Active; 'I' for Inactive)
ROOT
ATOM      1  C   UNL d   1      -3.316   2.933  -2.497  0.00  0.00    -0.002 A 
ATOM      2  C1  UNL d   1      -2.707   2.316  -3.581  0.00  0.00     0.010 A 
ATOM      3  C2  UNL d   1      -1.712   1.356  -3.385  0.00  0.00     0.041 A 
ATOM      4  C3  UNL d   1      -1.337   1.022  -2.068  0.00  0.00    -0.075 A 
ATOM      5  S   UNL d   1      -0.144  -0.126  -1.587  0.00  0.00     0.015 SA
ATOM      6  C4  UNL d   1      -0.415   0.175   0.069  0.00  0.00     0.022 A 
ATOM      7  C5  UNL d   1      -1.389   1.126   0.267  0.00  0.00     0.026 A 
ATOM      8  C6  UNL d   1      -1.937   1.629  -0.961  0.00  0.00    -0.082 A 
ATOM      9  C7  UNL d   1      -2.942   2.599  -1.193  0.00  0.00     0.045 A 
ENDROOT
TORSDOF 0
ENDMDL
