MODEL 1
REMARK minimizedAffinity -1.12934601
REMARK minimizedRMSD -1
REMARK  0 active torsions:
REMARK  status: ('A' for Active; 'I' for Inactive)
ROOT
ATOM      1  C   UNL d   1       3.405  -4.364  -1.626  0.00  0.00    -0.002 A 
ATOM      2  C1  UNL d   1       2.633  -5.449  -2.014  0.00  0.00     0.010 A 
ATOM      3  C2  UNL d   1       2.772  -6.000  -3.290  0.00  0.00     0.041 A 
ATOM      4  C3  UNL d   1       3.711  -5.437  -4.176  0.00  0.00    -0.075 A 
ATOM      5  S   UNL d   1       4.055  -5.946  -5.787  0.00  0.00     0.015 SA
ATOM      6  C4  UNL d   1       5.236  -4.735  -5.997  0.00  0.00     0.022 A 
ATOM      7  C5  UNL d   1       5.377  -3.952  -4.876  0.00  0.00     0.026 A 
ATOM      8  C6  UNL d   1       4.501  -4.344  -3.808  0.00  0.00    -0.082 A 
ATOM      9  C7  UNL d   1       4.336  -3.808  -2.508  0.00  0.00     0.045 A 
ENDROOT
TORSDOF 0
ENDMDL
