MODEL 1
REMARK minimizedAffinity -2.98890686
REMARK minimizedRMSD -1
REMARK  0 active torsions:
REMARK  status: ('A' for Active; 'I' for Inactive)
ROOT
ATOM      1  C   UNL d   1       4.245  -0.169  -4.127  0.00  0.00    -0.002 A 
ATOM      2  C1  UNL d   1       3.592  -0.204  -5.351  0.00  0.00     0.010 A 
ATOM      3  C2  UNL d   1       3.363  -1.419  -6.000  0.00  0.00     0.041 A 
ATOM      4  C3  UNL d   1       3.805  -2.610  -5.391  0.00  0.00    -0.075 A 
ATOM      5  S   UNL d   1       3.634  -4.214  -6.000  0.00  0.00     0.015 SA
ATOM      6  C4  UNL d   1       4.423  -4.891  -4.649  0.00  0.00     0.022 A 
ATOM      7  C5  UNL d   1       4.814  -3.931  -3.746  0.00  0.00     0.026 A 
ATOM      8  C6  UNL d   1       4.464  -2.601  -4.158  0.00  0.00    -0.082 A 
ATOM      9  C7  UNL d   1       4.681  -1.353  -3.526  0.00  0.00     0.045 A 
ENDROOT
TORSDOF 0
ENDMDL
