MODEL 1
REMARK minimizedAffinity -4.07655144
REMARK minimizedRMSD -1
REMARK  0 active torsions:
REMARK  status: ('A' for Active; 'I' for Inactive)
ROOT
ATOM      1  C   UNL d   1       4.773  -0.711  -4.123  0.00  0.00    -0.002 A 
ATOM      2  C1  UNL d   1       4.126  -0.663  -5.349  0.00  0.00     0.010 A 
ATOM      3  C2  UNL d   1       3.748  -1.840  -5.999  0.00  0.00     0.041 A 
ATOM      4  C3  UNL d   1       4.032  -3.077  -5.389  0.00  0.00    -0.075 A 
ATOM      5  S   UNL d   1       3.663  -4.647  -6.000  0.00  0.00     0.015 SA
ATOM      6  C4  UNL d   1       4.354  -5.418  -4.646  0.00  0.00     0.022 A 
ATOM      7  C5  UNL d   1       4.860  -4.515  -3.741  0.00  0.00     0.026 A 
ATOM      8  C6  UNL d   1       4.682  -3.151  -4.154  0.00  0.00    -0.082 A 
ATOM      9  C7  UNL d   1       5.053  -1.941  -3.520  0.00  0.00     0.045 A 
ENDROOT
TORSDOF 0
ENDMDL
