MODEL 1
REMARK minimizedAffinity 10.1352749
REMARK minimizedRMSD -1
REMARK  0 active torsions:
REMARK  status: ('A' for Active; 'I' for Inactive)
ROOT
ATOM      1  C   UNL d   1       2.781   1.716   4.245  0.00  0.00    -0.002 A 
ATOM      2  C1  UNL d   1       2.984   2.691   3.278  0.00  0.00     0.010 A 
ATOM      3  C2  UNL d   1       2.616   2.462   1.951  0.00  0.00     0.041 A 
ATOM      4  C3  UNL d   1       2.034   1.226   1.608  0.00  0.00    -0.075 A 
ATOM      5  S   UNL d   1       1.504   0.724   0.047  0.00  0.00     0.015 SA
ATOM      6  C4  UNL d   1       0.996  -0.796   0.626  0.00  0.00     0.022 A 
ATOM      7  C5  UNL d   1       1.217  -0.934   1.976  0.00  0.00     0.026 A 
ATOM      8  C6  UNL d   1       1.819   0.229   2.564  0.00  0.00    -0.082 A 
ATOM      9  C7  UNL d   1       2.203   0.491   3.901  0.00  0.00     0.045 A 
ENDROOT
TORSDOF 0
ENDMDL
