MODEL 1
REMARK minimizedAffinity 2.56898046
REMARK minimizedRMSD -1
REMARK  0 active torsions:
REMARK  status: ('A' for Active; 'I' for Inactive)
ROOT
ATOM      1  C   UNL d   1      -2.341  -1.360  -3.634  0.00  0.00    -0.002 A 
ATOM      2  C1  UNL d   1      -2.377   0.024  -3.542  0.00  0.00     0.010 A 
ATOM      3  C2  UNL d   1      -1.896   0.673  -2.403  0.00  0.00     0.041 A 
ATOM      4  C3  UNL d   1      -1.372  -0.100  -1.348  0.00  0.00    -0.075 A 
ATOM      5  S   UNL d   1      -0.727   0.477   0.143  0.00  0.00     0.015 SA
ATOM      6  C4  UNL d   1      -0.387  -1.100   0.692  0.00  0.00     0.022 A 
ATOM      7  C5  UNL d   1      -0.751  -2.056  -0.226  0.00  0.00     0.026 A 
ATOM      8  C6  UNL d   1      -1.325  -1.496  -1.418  0.00  0.00    -0.082 A 
ATOM      9  C7  UNL d   1      -1.820  -2.124  -2.585  0.00  0.00     0.045 A 
ENDROOT
TORSDOF 0
ENDMDL
