MODEL 1
REMARK minimizedAffinity -1.28063929
REMARK minimizedRMSD -1
REMARK  0 active torsions:
REMARK  status: ('A' for Active; 'I' for Inactive)
ROOT
ATOM      1  C1  BNZ d   1       1.137  -1.139   3.462  0.00  0.00     0.000 A 
ATOM      2  C2  BNZ d   1       2.127  -1.898   2.897  0.00  0.00     0.000 A 
ATOM      3  C3  BNZ d   1       1.873  -2.677   1.803  0.00  0.00     0.000 A 
ATOM      4  C4  BNZ d   1       0.623  -2.727   1.300  0.00  0.00     0.000 A 
ATOM      5  C5  BNZ d   1      -0.388  -1.975   1.864  0.00  0.00     0.000 A 
ATOM      6  C6  BNZ d   1      -0.120  -1.162   2.941  0.00  0.00     0.000 A 
ENDROOT
TORSDOF 0
ENDMDL
