MODEL 1
REMARK minimizedAffinity 2.98711467
REMARK minimizedRMSD -1
REMARK  0 active torsions:
REMARK  status: ('A' for Active; 'I' for Inactive)
ROOT
ATOM      1  C1  BNZ d   1       3.089  -3.238   2.149  0.00  0.00     0.000 A 
ATOM      2  C2  BNZ d   1       1.744  -3.032   1.989  0.00  0.00     0.000 A 
ATOM      3  C3  BNZ d   1       1.280  -2.073   1.133  0.00  0.00     0.000 A 
ATOM      4  C4  BNZ d   1       2.159  -1.295   0.470  0.00  0.00     0.000 A 
ATOM      5  C5  BNZ d   1       3.517  -1.483   0.628  0.00  0.00     0.000 A 
ATOM      6  C6  BNZ d   1       3.981  -2.475   1.460  0.00  0.00     0.000 A 
ENDROOT
TORSDOF 0
ENDMDL
