MODEL 1
REMARK minimizedAffinity 1.1261555
REMARK minimizedRMSD -1
REMARK  0 active torsions:
REMARK  status: ('A' for Active; 'I' for Inactive)
ROOT
ATOM      1  C1  BNZ d   1       0.182  -1.961   0.781  0.00  0.00     0.000 A 
ATOM      2  C2  BNZ d   1      -0.834  -1.204   1.301  0.00  0.00     0.000 A 
ATOM      3  C3  BNZ d   1      -0.960  -1.035   2.651  0.00  0.00     0.000 A 
ATOM      4  C4  BNZ d   1      -0.097  -1.656   3.481  0.00  0.00     0.000 A 
ATOM      5  C5  BNZ d   1       0.927  -2.430   2.972  0.00  0.00     0.000 A 
ATOM      6  C6  BNZ d   1       1.074  -2.566   1.611  0.00  0.00     0.000 A 
ENDROOT
TORSDOF 0
ENDMDL
