MODEL 1
REMARK minimizedAffinity 3.12192106
REMARK minimizedRMSD -1
REMARK  0 active torsions:
REMARK  status: ('A' for Active; 'I' for Inactive)
ROOT
ATOM      1  C1  BNZ d   1       1.777  -1.535   0.442  0.00  0.00     0.000 A 
ATOM      2  C2  BNZ d   1       2.592  -2.622   0.275  0.00  0.00     0.000 A 
ATOM      3  C3  BNZ d   1       2.629  -3.620   1.209  0.00  0.00     0.000 A 
ATOM      4  C4  BNZ d   1       1.882  -3.509   2.327  0.00  0.00     0.000 A 
ATOM      5  C5  BNZ d   1       1.062  -2.414   2.514  0.00  0.00     0.000 A 
ATOM      6  C6  BNZ d   1       0.999  -1.431   1.553  0.00  0.00     0.000 A 
ENDROOT
TORSDOF 0
ENDMDL
