MODEL 1
REMARK minimizedAffinity 3.39562178
REMARK minimizedRMSD -1
REMARK  0 active torsions:
REMARK  status: ('A' for Active; 'I' for Inactive)
ROOT
ATOM      1  C1  BNZ d   1       5.959   2.281  -0.485  0.00  0.00     0.000 A 
ATOM      2  C2  BNZ d   1       5.951   2.638   0.837  0.00  0.00     0.000 A 
ATOM      3  C3  BNZ d   1       5.991   1.688   1.819  0.00  0.00     0.000 A 
ATOM      4  C4  BNZ d   1       6.000   0.383   1.479  0.00  0.00     0.000 A 
ATOM      5  C5  BNZ d   1       5.999   0.007   0.150  0.00  0.00     0.000 A 
ATOM      6  C6  BNZ d   1       5.998   0.967  -0.835  0.00  0.00     0.000 A 
ENDROOT
TORSDOF 0
ENDMDL
