MODEL 1
REMARK minimizedAffinity -1.37300098
REMARK minimizedRMSD -1
REMARK  0 active torsions:
REMARK  status: ('A' for Active; 'I' for Inactive)
ROOT
ATOM      1  C1  BNZ d   1       0.807  -2.471   2.867  0.00  0.00     0.000 A 
ATOM      2  C2  BNZ d   1       1.765  -3.155   2.168  0.00  0.00     0.000 A 
ATOM      3  C3  BNZ d   1       1.538  -4.430   1.732  0.00  0.00     0.000 A 
ATOM      4  C4  BNZ d   1       0.370  -5.034   2.030  0.00  0.00     0.000 A 
ATOM      5  C5  BNZ d   1      -0.603  -4.362   2.742  0.00  0.00     0.000 A 
ATOM      6  C6  BNZ d   1      -0.386  -3.064   3.146  0.00  0.00     0.000 A 
ENDROOT
TORSDOF 0
ENDMDL
