MODEL 1
REMARK minimizedAffinity 4.57391882
REMARK minimizedRMSD -1
REMARK  0 active torsions:
REMARK  status: ('A' for Active; 'I' for Inactive)
ROOT
ATOM      1  C1  BNZ d   1       3.556  -4.984   1.907  0.00  0.00     0.000 A 
ATOM      2  C2  BNZ d   1       2.742  -4.903   0.809  0.00  0.00     0.000 A 
ATOM      3  C3  BNZ d   1       2.051  -3.757   0.533  0.00  0.00     0.000 A 
ATOM      4  C4  BNZ d   1       2.142  -2.708   1.376  0.00  0.00     0.000 A 
ATOM      5  C5  BNZ d   1       2.951  -2.777   2.492  0.00  0.00     0.000 A 
ATOM      6  C6  BNZ d   1       3.676  -3.919   2.746  0.00  0.00     0.000 A 
ENDROOT
TORSDOF 0
ENDMDL
