MODEL 1
REMARK minimizedAffinity 5.41336775
REMARK minimizedRMSD -1
REMARK  0 active torsions:
REMARK  status: ('A' for Active; 'I' for Inactive)
ROOT
ATOM      1  C1  BNZ d   1       0.709  -2.076   0.804  0.00  0.00     0.000 A 
ATOM      2  C2  BNZ d   1      -0.219  -1.614   1.699  0.00  0.00     0.000 A 
ATOM      3  C3  BNZ d   1       0.035  -1.628   3.041  0.00  0.00     0.000 A 
ATOM      4  C4  BNZ d   1       1.199  -2.141   3.490  0.00  0.00     0.000 A 
ATOM      5  C5  BNZ d   1       2.141  -2.619   2.601  0.00  0.00     0.000 A 
ATOM      6  C6  BNZ d   1       1.897  -2.567   1.248  0.00  0.00     0.000 A 
ENDROOT
TORSDOF 0
ENDMDL
