MODEL 1
REMARK minimizedAffinity -2.01690459
REMARK minimizedRMSD -1
REMARK  1 active torsions:
REMARK  status: ('A' for Active; 'I' for Inactive)
REMARK    1  A    between atoms: N_2  and  C1_3 
ROOT
ATOM      1  C1  UNL d   1      -0.252  -1.116   0.635  0.00  0.00     0.143 A 
ATOM      2  C2  UNL d   1      -1.276  -0.183   0.443  0.00  0.00    -0.057 A 
ATOM      3  C3  UNL d   1      -1.021   1.067  -0.133  0.00  0.00     0.033 A 
ATOM      4  C4  UNL d   1       0.273   1.418  -0.503  0.00  0.00    -0.042 A 
ATOM      5  C5  UNL d   1       1.311   0.516  -0.299  0.00  0.00     0.033 A 
ATOM      6  C6  UNL d   1       1.049  -0.733   0.272  0.00  0.00    -0.057 A 
ENDROOT
BRANCH   1   7
ATOM      7  N   UNL d   1      -0.424  -2.337   1.293  0.00  0.00    -0.732 N 
ATOM      8  C   UNL d   1      -1.735  -2.943   1.390  0.00  0.00     0.284 C 
ATOM      9  H3  UNL d   1       0.325  -2.995   1.092  0.00  0.00     0.395 HD
ENDBRANCH   1   7
TORSDOF 1
ENDMDL
