MODEL 1
REMARK minimizedAffinity -4.44135666
REMARK minimizedRMSD -1
REMARK  1 active torsions:
REMARK  status: ('A' for Active; 'I' for Inactive)
REMARK    1  A    between atoms: N_2  and  C1_3 
ROOT
ATOM      1  C1  UNL d   1       0.091   0.463   0.137  0.00  0.00     0.143 A 
ATOM      2  C2  UNL d   1      -1.220  -0.016   0.236  0.00  0.00    -0.057 A 
ATOM      3  C3  UNL d   1      -1.482  -1.347   0.580  0.00  0.00     0.033 A 
ATOM      4  C4  UNL d   1      -0.434  -2.234   0.804  0.00  0.00    -0.042 A 
ATOM      5  C5  UNL d   1       0.877  -1.786   0.687  0.00  0.00     0.033 A 
ATOM      6  C6  UNL d   1       1.133  -0.453   0.350  0.00  0.00    -0.057 A 
ENDROOT
BRANCH   1   7
ATOM      7  N   UNL d   1       0.418   1.750  -0.297  0.00  0.00    -0.732 N 
ATOM      8  C   UNL d   1       0.890   1.975  -1.646  0.00  0.00     0.284 C 
ATOM      9  H3  UNL d   1      -0.240   2.451   0.036  0.00  0.00     0.395 HD
ENDBRANCH   1   7
TORSDOF 1
ENDMDL
