MODEL 1
REMARK minimizedAffinity -2.48691225
REMARK minimizedRMSD -1
REMARK  1 active torsions:
REMARK  status: ('A' for Active; 'I' for Inactive)
REMARK    1  A    between atoms: N_2  and  C1_3 
ROOT
ATOM      1  C1  UNL d   1       0.390   0.322  -0.179  0.00  0.00     0.143 A 
ATOM      2  C2  UNL d   1       1.307  -0.732  -0.258  0.00  0.00    -0.057 A 
ATOM      3  C3  UNL d   1       1.008  -1.995   0.268  0.00  0.00     0.033 A 
ATOM      4  C4  UNL d   1      -0.205  -2.218   0.910  0.00  0.00    -0.042 A 
ATOM      5  C5  UNL d   1      -1.121  -1.178   1.022  0.00  0.00     0.033 A 
ATOM      6  C6  UNL d   1      -0.820   0.079   0.489  0.00  0.00    -0.057 A 
ENDROOT
BRANCH   1   7
ATOM      7  N   UNL d   1       0.667   1.627  -0.595  0.00  0.00    -0.732 N 
ATOM      8  C   UNL d   1       0.796   1.940  -2.002  0.00  0.00     0.284 C 
ATOM      9  H3  UNL d   1       0.154   2.323  -0.059  0.00  0.00     0.395 HD
ENDBRANCH   1   7
TORSDOF 1
ENDMDL
