MODEL 1
REMARK minimizedAffinity -5.40191221
REMARK minimizedRMSD -1
REMARK  1 active torsions:
REMARK  status: ('A' for Active; 'I' for Inactive)
REMARK    1  A    between atoms: N_2  and  C1_3 
ROOT
ATOM      1  C1  UNL d   1       0.079  -0.155  -0.146  0.00  0.00     0.143 A 
ATOM      2  C2  UNL d   1       0.753  -1.350   0.130  0.00  0.00    -0.057 A 
ATOM      3  C3  UNL d   1       0.071  -2.474   0.610  0.00  0.00     0.033 A 
ATOM      4  C4  UNL d   1      -1.298  -2.415   0.849  0.00  0.00    -0.042 A 
ATOM      5  C5  UNL d   1      -1.984  -1.231   0.606  0.00  0.00     0.033 A 
ATOM      6  C6  UNL d   1      -1.298  -0.113   0.121  0.00  0.00    -0.057 A 
ENDROOT
BRANCH   1   7
ATOM      7  N   UNL d   1       0.717   1.027  -0.530  0.00  0.00    -0.732 N 
ATOM      8  C   UNL d   1       0.729   1.441  -1.917  0.00  0.00     0.284 C 
ATOM      9  H3  UNL d   1       0.558   1.786   0.129  0.00  0.00     0.395 HD
ENDBRANCH   1   7
TORSDOF 1
ENDMDL
