MODEL 1
REMARK minimizedAffinity -2.85434484
REMARK minimizedRMSD -1
REMARK  1 active torsions:
REMARK  status: ('A' for Active; 'I' for Inactive)
REMARK    1  A    between atoms: N_2  and  C1_3 
ROOT
ATOM      1  C1  UNL d   1       0.471   0.640  -0.693  0.00  0.00     0.143 A 
ATOM      2  C2  UNL d   1      -0.864   0.838  -0.323  0.00  0.00    -0.057 A 
ATOM      3  C3  UNL d   1      -1.583  -0.153   0.356  0.00  0.00     0.033 A 
ATOM      4  C4  UNL d   1      -0.988  -1.374   0.652  0.00  0.00    -0.042 A 
ATOM      5  C5  UNL d   1       0.330  -1.602   0.272  0.00  0.00     0.033 A 
ATOM      6  C6  UNL d   1       1.046  -0.607  -0.400  0.00  0.00    -0.057 A 
ENDROOT
BRANCH   1   7
ATOM      7  N   UNL d   1       1.210   1.548  -1.455  0.00  0.00    -0.732 N 
ATOM      8  C   UNL d   1       0.610   2.218  -2.589  0.00  0.00     0.284 C 
ATOM      9  H3  UNL d   1       1.799   2.148  -0.882  0.00  0.00     0.395 HD
ENDBRANCH   1   7
TORSDOF 1
ENDMDL
