MODEL 1
REMARK minimizedAffinity -2.7849133
REMARK minimizedRMSD -1
REMARK  1 active torsions:
REMARK  status: ('A' for Active; 'I' for Inactive)
REMARK    1  A    between atoms: N_2  and  C1_3 
ROOT
ATOM      1  C1  UNL d   1       0.385   1.089  -1.223  0.00  0.00     0.143 A 
ATOM      2  C2  UNL d   1       1.588   1.784  -1.382  0.00  0.00    -0.057 A 
ATOM      3  C3  UNL d   1       1.942   2.353  -2.611  0.00  0.00     0.033 A 
ATOM      4  C4  UNL d   1       1.108   2.211  -3.715  0.00  0.00    -0.042 A 
ATOM      5  C5  UNL d   1      -0.081   1.503  -3.588  0.00  0.00     0.033 A 
ATOM      6  C6  UNL d   1      -0.432   0.943  -2.356  0.00  0.00    -0.057 A 
ENDROOT
BRANCH   1   7
ATOM      7  N   UNL d   1       0.023   0.417  -0.053  0.00  0.00    -0.732 N 
ATOM      8  C   UNL d   1       0.213  -1.013   0.064  0.00  0.00     0.284 C 
ATOM      9  H3  UNL d   1       0.266   0.939   0.786  0.00  0.00     0.395 HD
ENDBRANCH   1   7
TORSDOF 1
ENDMDL
