MODEL 1
REMARK minimizedAffinity -3.6451273
REMARK minimizedRMSD -1
REMARK  1 active torsions:
REMARK  status: ('A' for Active; 'I' for Inactive)
REMARK    1  A    between atoms: N_2  and  C1_3 
ROOT
ATOM      1  C1  UNL d   1      -0.211   0.053  -0.371  0.00  0.00     0.143 A 
ATOM      2  C2  UNL d   1      -1.470  -0.441  -0.015  0.00  0.00    -0.057 A 
ATOM      3  C3  UNL d   1      -1.604  -1.626   0.720  0.00  0.00     0.033 A 
ATOM      4  C4  UNL d   1      -0.477  -2.355   1.087  0.00  0.00    -0.042 A 
ATOM      5  C5  UNL d   1       0.783  -1.896   0.722  0.00  0.00     0.033 A 
ATOM      6  C6  UNL d   1       0.911  -0.709  -0.006  0.00  0.00    -0.057 A 
ENDROOT
BRANCH   1   7
ATOM      7  N   UNL d   1      -0.016   1.171  -1.185  0.00  0.00    -0.732 N 
ATOM      8  C   UNL d   1       0.991   1.161  -2.225  0.00  0.00     0.284 C 
ATOM      9  H3  UNL d   1      -0.893   1.609  -1.460  0.00  0.00     0.395 HD
ENDBRANCH   1   7
TORSDOF 1
ENDMDL
