MODEL 1
REMARK minimizedAffinity -2.86654353
REMARK minimizedRMSD -1
REMARK  1 active torsions:
REMARK  status: ('A' for Active; 'I' for Inactive)
REMARK    1  A    between atoms: N_2  and  C1_3 
ROOT
ATOM      1  C1  UNL d   1      -0.218  -0.420   0.452  0.00  0.00     0.143 A 
ATOM      2  C2  UNL d   1      -1.371  -0.167  -0.299  0.00  0.00    -0.057 A 
ATOM      3  C3  UNL d   1      -2.479  -1.021  -0.238  0.00  0.00     0.033 A 
ATOM      4  C4  UNL d   1      -2.442  -2.163   0.555  0.00  0.00    -0.042 A 
ATOM      5  C5  UNL d   1      -1.297  -2.447   1.291  0.00  0.00     0.033 A 
ATOM      6  C6  UNL d   1      -0.197  -1.587   1.232  0.00  0.00    -0.057 A 
ENDROOT
BRANCH   1   7
ATOM      7  N   UNL d   1       0.952   0.338   0.360  0.00  0.00    -0.732 N 
ATOM      8  C   UNL d   1       1.434   0.795  -0.926  0.00  0.00     0.284 C 
ATOM      9  H3  UNL d   1       1.027   1.030   1.102  0.00  0.00     0.395 HD
ENDBRANCH   1   7
TORSDOF 1
ENDMDL
