MODEL 1
REMARK minimizedAffinity -5.05696106
REMARK minimizedRMSD -1
REMARK  1 active torsions:
REMARK  status: ('A' for Active; 'I' for Inactive)
REMARK    1  A    between atoms: N_2  and  C1_3 
ROOT
ATOM      1  C1  UNL d   1      -0.467   0.123   0.337  0.00  0.00     0.143 A 
ATOM      2  C2  UNL d   1      -0.165  -1.242   0.384  0.00  0.00    -0.057 A 
ATOM      3  C3  UNL d   1      -0.980  -2.143   1.079  0.00  0.00     0.033 A 
ATOM      4  C4  UNL d   1      -2.101  -1.688   1.767  0.00  0.00    -0.042 A 
ATOM      5  C5  UNL d   1      -2.407  -0.332   1.755  0.00  0.00     0.033 A 
ATOM      6  C6  UNL d   1      -1.592   0.562   1.053  0.00  0.00    -0.057 A 
ENDROOT
BRANCH   1   7
ATOM      7  N   UNL d   1       0.358   1.082  -0.255  0.00  0.00    -0.732 N 
ATOM      8  C   UNL d   1       0.419   1.215  -1.695  0.00  0.00     0.284 C 
ATOM      9  H3  UNL d   1       0.342   1.969   0.243  0.00  0.00     0.395 HD
ENDBRANCH   1   7
TORSDOF 1
ENDMDL
