MODEL 1
REMARK minimizedAffinity -4.10389185
REMARK minimizedRMSD -1
REMARK  1 active torsions:
REMARK  status: ('A' for Active; 'I' for Inactive)
REMARK    1  A    between atoms: N_2  and  C1_3 
ROOT
ATOM      1  C1  UNL d   1      -3.511  -3.479  -4.943  0.00  0.00     0.143 A 
ATOM      2  C2  UNL d   1      -4.069  -2.587  -5.865  0.00  0.00    -0.057 A 
ATOM      3  C3  UNL d   1      -5.194  -1.818  -5.543  0.00  0.00     0.033 A 
ATOM      4  C4  UNL d   1      -5.801  -1.950  -4.299  0.00  0.00    -0.042 A 
ATOM      5  C5  UNL d   1      -5.279  -2.849  -3.375  0.00  0.00     0.033 A 
ATOM      6  C6  UNL d   1      -4.151  -3.609  -3.700  0.00  0.00    -0.057 A 
ENDROOT
BRANCH   1   7
ATOM      7  N   UNL d   1      -2.453  -4.342  -5.237  0.00  0.00    -0.732 N 
ATOM      8  C   UNL d   1      -2.648  -5.776  -5.228  0.00  0.00     0.284 C 
ATOM      9  H3  UNL d   1      -1.880  -4.006  -6.007  0.00  0.00     0.395 HD
ENDBRANCH   1   7
TORSDOF 1
ENDMDL
