MODEL 1
REMARK minimizedAffinity 13.019206
REMARK minimizedRMSD -1
REMARK  1 active torsions:
REMARK  status: ('A' for Active; 'I' for Inactive)
REMARK    1  A    between atoms: C1_2  and  C2_3 
ROOT
ATOM      1  C2  UNL d   1       0.172   1.480  -4.628  0.00  0.00    -0.077 A 
ATOM      2  C3  UNL d   1       0.370   1.881  -3.299  0.00  0.00     0.002 A 
ATOM      3  C4  UNL d   1       0.354   0.940  -2.268  0.00  0.00     0.002 A 
ATOM      4  C5  UNL d   1       0.144  -0.407  -2.555  0.00  0.00    -0.004 A 
ATOM      5  C6  UNL d   1      -0.056  -0.815  -3.873  0.00  0.00     0.002 A 
ATOM      6  C7  UNL d   1      -0.041   0.124  -4.905  0.00  0.00     0.002 A 
ENDROOT
BRANCH   1   7
ATOM      7  C1  UNL d   1       0.238   2.487  -5.747  0.00  0.00     0.055 C 
ATOM      8  C   UNL d   1       1.669   2.940  -6.000  0.00  0.00     0.019 C 
ENDBRANCH   1   7
TORSDOF 1
ENDMDL
