MODEL 1
REMARK minimizedAffinity 2.82158566
REMARK minimizedRMSD -1
REMARK  1 active torsions:
REMARK  status: ('A' for Active; 'I' for Inactive)
REMARK    1  A    between atoms: C1_2  and  C2_3 
ROOT
ATOM      1  C2  UNL d   1       2.284   2.586  -2.282  0.00  0.00    -0.077 A 
ATOM      2  C3  UNL d   1       2.194   1.595  -1.294  0.00  0.00     0.002 A 
ATOM      3  C4  UNL d   1       1.550   0.386  -1.563  0.00  0.00     0.002 A 
ATOM      4  C5  UNL d   1       0.995   0.155  -2.820  0.00  0.00    -0.004 A 
ATOM      5  C6  UNL d   1       1.077   1.135  -3.809  0.00  0.00     0.002 A 
ATOM      6  C7  UNL d   1       1.720   2.345  -3.541  0.00  0.00     0.002 A 
ENDROOT
BRANCH   1   7
ATOM      7  C1  UNL d   1       3.022   3.871  -2.009  0.00  0.00     0.055 C 
ATOM      8  C   UNL d   1       3.447   4.550  -3.303  0.00  0.00     0.019 C 
ENDBRANCH   1   7
TORSDOF 1
ENDMDL
