MODEL 1
REMARK minimizedAffinity 6.5141263
REMARK minimizedRMSD -1
REMARK  1 active torsions:
REMARK  status: ('A' for Active; 'I' for Inactive)
REMARK    1  A    between atoms: C1_2  and  C2_3 
ROOT
ATOM      1  C2  UNL d   1      -1.393  -4.381   0.933  0.00  0.00    -0.077 A 
ATOM      2  C3  UNL d   1      -2.218  -3.493   1.636  0.00  0.00     0.002 A 
ATOM      3  C4  UNL d   1      -3.095  -2.649   0.951  0.00  0.00     0.002 A 
ATOM      4  C5  UNL d   1      -3.157  -2.689  -0.441  0.00  0.00    -0.004 A 
ATOM      5  C6  UNL d   1      -2.339  -3.568  -1.149  0.00  0.00     0.002 A 
ATOM      6  C7  UNL d   1      -1.462  -4.411  -0.466  0.00  0.00     0.002 A 
ENDROOT
BRANCH   1   7
ATOM      7  C1  UNL d   1      -0.483  -5.326   1.673  0.00  0.00     0.055 C 
ATOM      8  C   UNL d   1       0.981  -4.991   1.427  0.00  0.00     0.019 C 
ENDBRANCH   1   7
TORSDOF 1
ENDMDL
