MODEL 1
REMARK minimizedAffinity 9.04157162
REMARK minimizedRMSD -1
REMARK  1 active torsions:
REMARK  status: ('A' for Active; 'I' for Inactive)
REMARK    1  A    between atoms: C1_2  and  C2_3 
ROOT
ATOM      1  C2  UNL d   1      -0.120   0.803  -1.798  0.00  0.00    -0.077 A 
ATOM      2  C3  UNL d   1       0.870   1.117  -0.856  0.00  0.00     0.002 A 
ATOM      3  C4  UNL d   1       2.219   1.101  -1.216  0.00  0.00     0.002 A 
ATOM      4  C5  UNL d   1       2.590   0.777  -2.519  0.00  0.00    -0.004 A 
ATOM      5  C6  UNL d   1       1.613   0.462  -3.463  0.00  0.00     0.002 A 
ATOM      6  C7  UNL d   1       0.265   0.475  -3.105  0.00  0.00     0.002 A 
ENDROOT
BRANCH   1   7
ATOM      7  C1  UNL d   1      -1.577   0.867  -1.424  0.00  0.00     0.055 C 
ATOM      8  C   UNL d   1      -1.873   0.011  -0.201  0.00  0.00     0.019 C 
ENDBRANCH   1   7
TORSDOF 1
ENDMDL
