MODEL 1
REMARK minimizedAffinity 10.000886
REMARK minimizedRMSD -1
REMARK  1 active torsions:
REMARK  status: ('A' for Active; 'I' for Inactive)
REMARK    1  A    between atoms: C1_2  and  C2_3 
ROOT
ATOM      1  C2  UNL d   1       1.615   1.993  -2.915  0.00  0.00    -0.077 A 
ATOM      2  C3  UNL d   1       0.345   1.436  -3.122  0.00  0.00     0.002 A 
ATOM      3  C4  UNL d   1       0.000   0.221  -2.524  0.00  0.00     0.002 A 
ATOM      4  C5  UNL d   1       0.918  -0.443  -1.714  0.00  0.00    -0.004 A 
ATOM      5  C6  UNL d   1       2.185   0.101  -1.504  0.00  0.00     0.002 A 
ATOM      6  C7  UNL d   1       2.531   1.314  -2.101  0.00  0.00     0.002 A 
ENDROOT
BRANCH   1   7
ATOM      7  C1  UNL d   1       1.971   3.326  -3.518  0.00  0.00     0.055 C 
ATOM      8  C   UNL d   1       2.697   4.211  -2.516  0.00  0.00     0.019 C 
ENDBRANCH   1   7
TORSDOF 1
ENDMDL
