MODEL 1
REMARK minimizedAffinity 9.18364906
REMARK minimizedRMSD -1
REMARK  1 active torsions:
REMARK  status: ('A' for Active; 'I' for Inactive)
REMARK    1  A    between atoms: C1_2  and  C2_3 
ROOT
ATOM      1  C2  UNL d   1      -3.451   3.961   4.069  0.00  0.00    -0.077 A 
ATOM      2  C3  UNL d   1      -4.526   4.393   4.859  0.00  0.00     0.002 A 
ATOM      3  C4  UNL d   1      -4.341   5.389   5.820  0.00  0.00     0.002 A 
ATOM      4  C5  UNL d   1      -3.084   5.964   5.997  0.00  0.00    -0.004 A 
ATOM      5  C6  UNL d   1      -2.008   5.540   5.219  0.00  0.00     0.002 A 
ATOM      6  C7  UNL d   1      -2.191   4.544   4.258  0.00  0.00     0.002 A 
ENDROOT
BRANCH   1   7
ATOM      7  C1  UNL d   1      -3.659   2.922   2.999  0.00  0.00     0.055 C 
ATOM      8  C   UNL d   1      -2.905   1.639   3.319  0.00  0.00     0.019 C 
ENDBRANCH   1   7
TORSDOF 1
ENDMDL
