MODEL 1
REMARK minimizedAffinity 4.54373217
REMARK minimizedRMSD -1
REMARK  1 active torsions:
REMARK  status: ('A' for Active; 'I' for Inactive)
REMARK    1  A    between atoms: C1_2  and  C2_3 
ROOT
ATOM      1  C2  UNL d   1       1.472   0.794  -3.769  0.00  0.00    -0.077 A 
ATOM      2  C3  UNL d   1       2.773   0.440  -3.385  0.00  0.00     0.002 A 
ATOM      3  C4  UNL d   1       3.088   0.267  -2.036  0.00  0.00     0.002 A 
ATOM      4  C5  UNL d   1       2.107   0.441  -1.062  0.00  0.00    -0.004 A 
ATOM      5  C6  UNL d   1       0.811   0.795  -1.434  0.00  0.00     0.002 A 
ATOM      6  C7  UNL d   1       0.495   0.970  -2.782  0.00  0.00     0.002 A 
ENDROOT
BRANCH   1   7
ATOM      7  C1  UNL d   1       1.118   0.934  -5.227  0.00  0.00     0.055 C 
ATOM      8  C   UNL d   1       2.222   1.641  -5.999  0.00  0.00     0.019 C 
ENDBRANCH   1   7
TORSDOF 1
ENDMDL
