MODEL 1
REMARK minimizedAffinity 9.00757599
REMARK minimizedRMSD -1
REMARK  1 active torsions:
REMARK  status: ('A' for Active; 'I' for Inactive)
REMARK    1  A    between atoms: C1_2  and  C2_3 
ROOT
ATOM      1  C2  UNL d   1       1.127   0.750  -3.569  0.00  0.00    -0.077 A 
ATOM      2  C3  UNL d   1       2.134   1.538  -2.995  0.00  0.00     0.002 A 
ATOM      3  C4  UNL d   1       2.752   1.139  -1.809  0.00  0.00     0.002 A 
ATOM      4  C5  UNL d   1       2.374  -0.049  -1.189  0.00  0.00    -0.004 A 
ATOM      5  C6  UNL d   1       1.372  -0.839  -1.751  0.00  0.00     0.002 A 
ATOM      6  C7  UNL d   1       0.751  -0.442  -2.936  0.00  0.00     0.002 A 
ENDROOT
BRANCH   1   7
ATOM      7  C1  UNL d   1       0.493   1.153  -4.875  0.00  0.00     0.055 C 
ATOM      8  C   UNL d   1       1.518   1.195  -5.998  0.00  0.00     0.019 C 
ENDBRANCH   1   7
TORSDOF 1
ENDMDL
