MODEL 1
REMARK minimizedAffinity 10.6726704
REMARK minimizedRMSD -1
REMARK  1 active torsions:
REMARK  status: ('A' for Active; 'I' for Inactive)
REMARK    1  A    between atoms: C1_2  and  C2_3 
ROOT
ATOM      1  C2  UNL d   1       1.893   2.989  -3.711  0.00  0.00    -0.077 A 
ATOM      2  C3  UNL d   1       2.090   1.941  -2.801  0.00  0.00     0.002 A 
ATOM      3  C4  UNL d   1       1.327   0.776  -2.889  0.00  0.00     0.002 A 
ATOM      4  C5  UNL d   1       0.364   0.646  -3.888  0.00  0.00    -0.004 A 
ATOM      5  C6  UNL d   1       0.158   1.683  -4.796  0.00  0.00     0.002 A 
ATOM      6  C7  UNL d   1       0.920   2.849  -4.709  0.00  0.00     0.002 A 
ENDROOT
BRANCH   1   7
ATOM      7  C1  UNL d   1       2.749   4.227  -3.648  0.00  0.00     0.055 C 
ATOM      8  C   UNL d   1       2.961   4.681  -2.211  0.00  0.00     0.019 C 
ENDBRANCH   1   7
TORSDOF 1
ENDMDL
