MODEL 1
REMARK minimizedAffinity 0.860470295
REMARK minimizedRMSD -1
REMARK  1 active torsions:
REMARK  status: ('A' for Active; 'I' for Inactive)
REMARK    1  A    between atoms: C1_2  and  C2_3 
ROOT
ATOM      1  C2  UNL d   1       1.540   1.186  -2.674  0.00  0.00    -0.077 A 
ATOM      2  C3  UNL d   1       2.376   2.302  -2.823  0.00  0.00     0.002 A 
ATOM      3  C4  UNL d   1       2.700   2.776  -4.095  0.00  0.00     0.002 A 
ATOM      4  C5  UNL d   1       2.191   2.143  -5.228  0.00  0.00    -0.004 A 
ATOM      5  C6  UNL d   1       1.361   1.032  -5.090  0.00  0.00     0.002 A 
ATOM      6  C7  UNL d   1       1.036   0.555  -3.819  0.00  0.00     0.002 A 
ENDROOT
BRANCH   1   7
ATOM      7  C1  UNL d   1       1.149   0.702  -1.302  0.00  0.00     0.055 C 
ATOM      8  C   UNL d   1       1.724   1.599  -0.215  0.00  0.00     0.019 C 
ENDBRANCH   1   7
TORSDOF 1
ENDMDL
