MODEL 1
REMARK minimizedAffinity 12.6587915
REMARK minimizedRMSD -1
REMARK  1 active torsions:
REMARK  status: ('A' for Active; 'I' for Inactive)
REMARK    1  A    between atoms: C1_2  and  C2_3 
ROOT
ATOM      1  C2  UNL d   1       3.555   0.867  -2.802  0.00  0.00    -0.077 A 
ATOM      2  C3  UNL d   1       2.491   1.243  -3.633  0.00  0.00     0.002 A 
ATOM      3  C4  UNL d   1       1.196   0.790  -3.371  0.00  0.00     0.002 A 
ATOM      4  C5  UNL d   1       0.954  -0.037  -2.277  0.00  0.00    -0.004 A 
ATOM      5  C6  UNL d   1       2.006  -0.418  -1.445  0.00  0.00     0.002 A 
ATOM      6  C7  UNL d   1       3.301   0.033  -1.706  0.00  0.00     0.002 A 
ENDROOT
BRANCH   1   7
ATOM      7  C1  UNL d   1       4.944   1.394  -3.053  0.00  0.00     0.055 C 
ATOM      8  C   UNL d   1       6.000   0.344  -2.741  0.00  0.00     0.019 C 
ENDBRANCH   1   7
TORSDOF 1
ENDMDL
