MODEL 1
REMARK minimizedAffinity 5.71491003
REMARK minimizedRMSD -1
REMARK  1 active torsions:
REMARK  status: ('A' for Active; 'I' for Inactive)
REMARK    1  A    between atoms: C1_2  and  C2_3 
ROOT
ATOM      1  C2  UNL d   1       2.026  -2.061  -1.952  0.00  0.00    -0.077 A 
ATOM      2  C3  UNL d   1       2.881  -1.950  -0.847  0.00  0.00     0.002 A 
ATOM      3  C4  UNL d   1       3.687  -0.820  -0.688  0.00  0.00     0.002 A 
ATOM      4  C5  UNL d   1       3.642   0.207  -1.627  0.00  0.00    -0.004 A 
ATOM      5  C6  UNL d   1       2.796   0.105  -2.731  0.00  0.00     0.002 A 
ATOM      6  C7  UNL d   1       1.991  -1.023  -2.892  0.00  0.00     0.002 A 
ENDROOT
BRANCH   1   7
ATOM      7  C1  UNL d   1       1.120  -3.255  -2.099  0.00  0.00     0.055 C 
ATOM      8  C   UNL d   1       1.257  -3.887  -3.477  0.00  0.00     0.019 C 
ENDBRANCH   1   7
TORSDOF 1
ENDMDL
