MODEL 1
REMARK minimizedAffinity 6.38738155
REMARK minimizedRMSD -1
REMARK  1 active torsions:
REMARK  status: ('A' for Active; 'I' for Inactive)
REMARK    1  A    between atoms: C1_2  and  C2_3 
ROOT
ATOM      1  C2  UNL d   1       0.312   1.567  -4.587  0.00  0.00    -0.077 A 
ATOM      2  C3  UNL d   1       0.498   0.207  -4.301  0.00  0.00     0.002 A 
ATOM      3  C4  UNL d   1       0.734  -0.213  -2.991  0.00  0.00     0.002 A 
ATOM      4  C5  UNL d   1       0.782   0.719  -1.956  0.00  0.00    -0.004 A 
ATOM      5  C6  UNL d   1       0.600   2.074  -2.231  0.00  0.00     0.002 A 
ATOM      6  C7  UNL d   1       0.365   2.496  -3.540  0.00  0.00     0.002 A 
ENDROOT
BRANCH   1   7
ATOM      7  C1  UNL d   1       0.008   2.017  -5.992  0.00  0.00     0.055 C 
ATOM      8  C   UNL d   1      -0.734   3.346  -6.000  0.00  0.00     0.019 C 
ENDBRANCH   1   7
TORSDOF 1
ENDMDL
