MODEL 1
REMARK minimizedAffinity 9.55934048
REMARK minimizedRMSD -1
REMARK  1 active torsions:
REMARK  status: ('A' for Active; 'I' for Inactive)
REMARK    1  A    between atoms: C1_2  and  C2_3 
ROOT
ATOM      1  C2  UNL d   1       0.886   1.052  -3.401  0.00  0.00    -0.077 A 
ATOM      2  C3  UNL d   1       1.420   1.916  -4.368  0.00  0.00     0.002 A 
ATOM      3  C4  UNL d   1       0.896   1.937  -5.662  0.00  0.00     0.002 A 
ATOM      4  C5  UNL d   1      -0.166   1.101  -5.999  0.00  0.00    -0.004 A 
ATOM      5  C6  UNL d   1      -0.702   0.236  -5.046  0.00  0.00     0.002 A 
ATOM      6  C7  UNL d   1      -0.179   0.213  -3.752  0.00  0.00     0.002 A 
ENDROOT
BRANCH   1   7
ATOM      7  C1  UNL d   1       1.418   1.062  -1.991  0.00  0.00     0.055 C 
ATOM      8  C   UNL d   1       1.950   2.436  -1.611  0.00  0.00     0.019 C 
ENDBRANCH   1   7
TORSDOF 1
ENDMDL
