MODEL 1
REMARK minimizedAffinity -6.32397938
REMARK minimizedRMSD -1
REMARK  1 active torsions:
REMARK  status: ('A' for Active; 'I' for Inactive)
REMARK    1  A    between atoms: C1_2  and  C2_3 
ROOT
ATOM      1  C2  UNL d   1      -3.389   0.489   2.637  0.00  0.00    -0.077 A 
ATOM      2  C3  UNL d   1      -3.230   1.792   2.143  0.00  0.00     0.002 A 
ATOM      3  C4  UNL d   1      -3.075   2.014   0.773  0.00  0.00     0.002 A 
ATOM      4  C5  UNL d   1      -3.082   0.939  -0.113  0.00  0.00    -0.004 A 
ATOM      5  C6  UNL d   1      -3.237  -0.360   0.368  0.00  0.00     0.002 A 
ATOM      6  C7  UNL d   1      -3.390  -0.584   1.737  0.00  0.00     0.002 A 
ENDROOT
BRANCH   1   7
ATOM      7  C1  UNL d   1      -3.605   0.252   4.109  0.00  0.00     0.055 C 
ATOM      8  C   UNL d   1      -3.717   1.564   4.871  0.00  0.00     0.019 C 
ENDBRANCH   1   7
TORSDOF 1
ENDMDL
