MODEL 1
REMARK minimizedAffinity 7.89732981
REMARK minimizedRMSD -1
REMARK  0 active torsions:
REMARK  status: ('A' for Active; 'I' for Inactive)
ROOT
ATOM      1  C   UNL d   1      -2.350   0.513   1.267  0.00  0.00     0.020 A 
ATOM      2  C1  UNL d   1      -2.343   0.244   2.636  0.00  0.00     0.020 A 
ATOM      3  C2  UNL d   1      -1.162  -0.162   3.261  0.00  0.00     0.034 A 
ATOM      4  C3  UNL d   1       0.016  -0.302   2.518  0.00  0.00     0.017 A 
ATOM      5  C4  UNL d   1       0.008  -0.032   1.145  0.00  0.00     0.017 A 
ATOM      6  C5  UNL d   1      -1.177   0.375   0.524  0.00  0.00     0.034 A 
ATOM      7 Cl   UNL d   1       1.422  -0.181   0.163  0.00  0.00    -0.070 Cl
ATOM      8 Cl1  UNL d   1       1.439  -0.808   3.357  0.00  0.00    -0.070 Cl
ENDROOT
TORSDOF 0
ENDMDL
