MODEL 1
REMARK minimizedAffinity 8.23612881
REMARK minimizedRMSD -1
REMARK  0 active torsions:
REMARK  status: ('A' for Active; 'I' for Inactive)
ROOT
ATOM      1  C   UNL d   1      -3.818  -1.075   3.031  0.00  0.00     0.020 A 
ATOM      2  C1  UNL d   1      -3.170  -1.832   4.006  0.00  0.00     0.020 A 
ATOM      3  C2  UNL d   1      -1.788  -1.721   4.172  0.00  0.00     0.034 A 
ATOM      4  C3  UNL d   1      -1.049  -0.851   3.361  0.00  0.00     0.017 A 
ATOM      5  C4  UNL d   1      -1.701  -0.092   2.382  0.00  0.00     0.017 A 
ATOM      6  C5  UNL d   1      -3.085  -0.207   2.221  0.00  0.00     0.034 A 
ATOM      7 Cl   UNL d   1      -0.858   1.002   1.344  0.00  0.00    -0.070 Cl
ATOM      8 Cl1  UNL d   1       0.657  -0.764   3.620  0.00  0.00    -0.070 Cl
ENDROOT
TORSDOF 0
ENDMDL
