MODEL 1
REMARK minimizedAffinity 5.49183559
REMARK minimizedRMSD -1
REMARK  0 active torsions:
REMARK  status: ('A' for Active; 'I' for Inactive)
ROOT
ATOM      1  C   UNL d   1      -1.830   0.929   2.141  0.00  0.00     0.020 A 
ATOM      2  C1  UNL d   1      -2.825   0.491   1.267  0.00  0.00     0.020 A 
ATOM      3  C2  UNL d   1      -2.475  -0.144   0.073  0.00  0.00     0.034 A 
ATOM      4  C3  UNL d   1      -1.128  -0.342  -0.250  0.00  0.00     0.017 A 
ATOM      5  C4  UNL d   1      -0.130   0.098   0.627  0.00  0.00     0.017 A 
ATOM      6  C5  UNL d   1      -0.486   0.733   1.821  0.00  0.00     0.034 A 
ATOM      7 Cl   UNL d   1       1.553  -0.111   0.297  0.00  0.00    -0.070 Cl
ATOM      8 Cl1  UNL d   1      -0.768  -1.135  -1.743  0.00  0.00    -0.070 Cl
ENDROOT
TORSDOF 0
ENDMDL
