MODEL 1
REMARK minimizedAffinity 11.0100117
REMARK minimizedRMSD -1
REMARK  0 active torsions:
REMARK  status: ('A' for Active; 'I' for Inactive)
ROOT
ATOM      1  C   UNL d   1      -1.875  -0.613  -1.274  0.00  0.00     0.020 A 
ATOM      2  C1  UNL d   1      -2.964  -0.155  -0.534  0.00  0.00     0.020 A 
ATOM      3  C2  UNL d   1      -2.755   0.554   0.650  0.00  0.00     0.034 A 
ATOM      4  C3  UNL d   1      -1.454   0.807   1.099  0.00  0.00     0.017 A 
ATOM      5  C4  UNL d   1      -0.361   0.346   0.356  0.00  0.00     0.017 A 
ATOM      6  C5  UNL d   1      -0.576  -0.363  -0.829  0.00  0.00     0.034 A 
ATOM      7 Cl   UNL d   1       1.274   0.619   0.846  0.00  0.00    -0.070 Cl
ATOM      8 Cl1  UNL d   1      -1.269   1.690   2.573  0.00  0.00    -0.070 Cl
ENDROOT
TORSDOF 0
ENDMDL
