MODEL 1
REMARK minimizedAffinity 12.1339769
REMARK minimizedRMSD -1
REMARK  0 active torsions:
REMARK  status: ('A' for Active; 'I' for Inactive)
ROOT
ATOM      1  C   UNL d   1       4.689   2.229   3.437  0.00  0.00     0.020 A 
ATOM      2  C1  UNL d   1       4.492   3.577   3.732  0.00  0.00     0.020 A 
ATOM      3  C2  UNL d   1       3.833   4.402   2.818  0.00  0.00     0.034 A 
ATOM      4  C3  UNL d   1       3.368   3.880   1.606  0.00  0.00     0.017 A 
ATOM      5  C4  UNL d   1       3.566   2.526   1.311  0.00  0.00     0.017 A 
ATOM      6  C5  UNL d   1       4.227   1.704   2.230  0.00  0.00     0.034 A 
ATOM      7 Cl   UNL d   1       3.021   1.810  -0.164  0.00  0.00    -0.070 Cl
ATOM      8 Cl1  UNL d   1       2.561   4.958   0.523  0.00  0.00    -0.070 Cl
ENDROOT
TORSDOF 0
ENDMDL
