MODEL 1
REMARK minimizedAffinity 1.33462262
REMARK minimizedRMSD -1
REMARK  0 active torsions:
REMARK  status: ('A' for Active; 'I' for Inactive)
ROOT
ATOM      1  C   UNL d   1      -2.444   0.783   1.236  0.00  0.00     0.020 A 
ATOM      2  C1  UNL d   1      -2.574   0.569   2.608  0.00  0.00     0.020 A 
ATOM      3  C2  UNL d   1      -1.528  -0.016   3.325  0.00  0.00     0.034 A 
ATOM      4  C3  UNL d   1      -0.349  -0.390   2.671  0.00  0.00     0.017 A 
ATOM      5  C4  UNL d   1      -0.220  -0.176   1.294  0.00  0.00     0.017 A 
ATOM      6  C5  UNL d   1      -1.270   0.411   0.581  0.00  0.00     0.034 A 
ATOM      7 Cl   UNL d   1       1.205  -0.610   0.418  0.00  0.00    -0.070 Cl
ATOM      8 Cl1  UNL d   1       0.903  -1.109   3.620  0.00  0.00    -0.070 Cl
ENDROOT
TORSDOF 0
ENDMDL
