MODEL 1
REMARK minimizedAffinity -3.99323678
REMARK minimizedRMSD -1
REMARK  3 active torsions:
REMARK  status: ('A' for Active; 'I' for Inactive)
REMARK    1  A    between atoms: C3'_2  and  C2'_3 
REMARK    2  A    between atoms: C2'_3  and  C1'_4 
REMARK    3  A    between atoms: C1'_4  and  C1_5 
ROOT
ATOM      1  C1  N4B d   1       0.441   0.061   0.349  0.00  0.00    -0.075 A 
ATOM      2  C2  N4B d   1       0.830   1.278  -0.253  0.00  0.00     0.002 A 
ATOM      3  C3  N4B d   1       1.803   1.285  -1.223  0.00  0.00     0.002 A 
ATOM      4  C4  N4B d   1       2.411   0.094  -1.592  0.00  0.00    -0.004 A 
ATOM      5  C5  N4B d   1       2.012  -1.080  -1.024  0.00  0.00     0.002 A 
ATOM      6  C6  N4B d   1       1.033  -1.102  -0.051  0.00  0.00     0.002 A 
ENDROOT
BRANCH   1   7
ATOM      7  C1' N4B d   1      -0.557   0.015   1.474  0.00  0.00     0.057 C 
BRANCH   7   8
ATOM      8  C2' N4B d   1      -1.967   0.047   0.893  0.00  0.00     0.009 C 
BRANCH   8   9
ATOM      9  C3' N4B d   1      -2.979   0.586   1.890  0.00  0.00     0.004 C 
ATOM     10  C4' N4B d   1      -4.394   0.257   1.517  0.00  0.00     0.003 C 
ENDBRANCH   8   9
ENDBRANCH   7   8
ENDBRANCH   1   7
TORSDOF 3
ENDMDL
