MODEL 1
REMARK minimizedAffinity -5.01194429
REMARK minimizedRMSD -1
REMARK  3 active torsions:
REMARK  status: ('A' for Active; 'I' for Inactive)
REMARK    1  A    between atoms: C3'_2  and  C2'_3 
REMARK    2  A    between atoms: C2'_3  and  C1'_4 
REMARK    3  A    between atoms: C1'_4  and  C1_5 
ROOT
ATOM      1  C1  N4B d   1      -0.936   0.665   0.385  0.00  0.00    -0.075 A 
ATOM      2  C2  N4B d   1      -2.244   0.998   0.802  0.00  0.00     0.002 A 
ATOM      3  C3  N4B d   1      -2.796   0.375   1.894  0.00  0.00     0.002 A 
ATOM      4  C4  N4B d   1      -2.071  -0.594   2.571  0.00  0.00    -0.004 A 
ATOM      5  C5  N4B d   1      -0.799  -0.891   2.177  0.00  0.00     0.002 A 
ATOM      6  C6  N4B d   1      -0.229  -0.270   1.084  0.00  0.00     0.002 A 
ENDROOT
BRANCH   1   7
ATOM      7  C1' N4B d   1      -0.323   1.257  -0.854  0.00  0.00     0.057 C 
BRANCH   7   8
ATOM      8  C2' N4B d   1       1.197   1.223  -0.725  0.00  0.00     0.009 C 
BRANCH   8   9
ATOM      9  C3' N4B d   1       1.865   0.743  -2.003  0.00  0.00     0.004 C 
ATOM     10  C4' N4B d   1       2.339  -0.677  -1.912  0.00  0.00     0.003 C 
ENDBRANCH   8   9
ENDBRANCH   7   8
ENDBRANCH   1   7
TORSDOF 3
ENDMDL
