MODEL 1
REMARK minimizedAffinity -2.65789533
REMARK minimizedRMSD -1
REMARK  3 active torsions:
REMARK  status: ('A' for Active; 'I' for Inactive)
REMARK    1  A    between atoms: C3'_2  and  C2'_3 
REMARK    2  A    between atoms: C2'_3  and  C1'_4 
REMARK    3  A    between atoms: C1'_4  and  C1_5 
ROOT
ATOM      1  C1  N4B d   1       1.081  -0.239  -0.853  0.00  0.00    -0.075 A 
ATOM      2  C2  N4B d   1       2.138  -0.046  -1.771  0.00  0.00     0.002 A 
ATOM      3  C3  N4B d   1       2.843  -1.125  -2.244  0.00  0.00     0.002 A 
ATOM      4  C4  N4B d   1       2.523  -2.400  -1.802  0.00  0.00    -0.004 A 
ATOM      5  C5  N4B d   1       1.484  -2.581  -0.935  0.00  0.00     0.002 A 
ATOM      6  C6  N4B d   1       0.765  -1.506  -0.455  0.00  0.00     0.002 A 
ENDROOT
BRANCH   1   7
ATOM      7  C1' N4B d   1       0.338   0.917  -0.243  0.00  0.00     0.057 C 
BRANCH   7   8
ATOM      8  C2' N4B d   1      -0.044   0.565   1.192  0.00  0.00     0.009 C 
BRANCH   8   9
ATOM      9  C3' N4B d   1      -1.541   0.679   1.425  0.00  0.00     0.004 C 
ATOM     10  C4' N4B d   1      -1.878   1.182   2.797  0.00  0.00     0.003 C 
ENDBRANCH   8   9
ENDBRANCH   7   8
ENDBRANCH   1   7
TORSDOF 3
ENDMDL
