MODEL 1
REMARK minimizedAffinity -4.34274721
REMARK minimizedRMSD -1
REMARK  3 active torsions:
REMARK  status: ('A' for Active; 'I' for Inactive)
REMARK    1  A    between atoms: C3'_2  and  C2'_3 
REMARK    2  A    between atoms: C2'_3  and  C1'_4 
REMARK    3  A    between atoms: C1'_4  and  C1_5 
ROOT
ATOM      1  C1  N4B d   1      -0.057   0.236   0.147  0.00  0.00    -0.075 A 
ATOM      2  C2  N4B d   1       1.296   0.060  -0.214  0.00  0.00     0.002 A 
ATOM      3  C3  N4B d   1       1.729   0.438  -1.462  0.00  0.00     0.002 A 
ATOM      4  C4  N4B d   1       0.825   0.974  -2.367  0.00  0.00    -0.004 A 
ATOM      5  C5  N4B d   1      -0.475   1.164  -2.002  0.00  0.00     0.002 A 
ATOM      6  C6  N4B d   1      -0.923   0.793  -0.750  0.00  0.00     0.002 A 
ENDROOT
BRANCH   1   7
ATOM      7  C1' N4B d   1      -0.595  -0.241   1.469  0.00  0.00     0.057 C 
BRANCH   7   8
ATOM      8  C2' N4B d   1      -1.774   0.638   1.877  0.00  0.00     0.009 C 
BRANCH   8   9
ATOM      9  C3' N4B d   1      -3.107  -0.021   1.568  0.00  0.00     0.004 C 
ATOM     10  C4' N4B d   1      -4.183   0.971   1.240  0.00  0.00     0.003 C 
ENDBRANCH   8   9
ENDBRANCH   7   8
ENDBRANCH   1   7
TORSDOF 3
ENDMDL
