MODEL 1
REMARK minimizedAffinity 2.37211633
REMARK minimizedRMSD -1
REMARK  0 active torsions:
REMARK  status: ('A' for Active; 'I' for Inactive)
ROOT
ATOM      1  C1  BNZ d   1       3.753  -4.524  -2.786  0.00  0.00     0.000 A 
ATOM      2  C2  BNZ d   1       4.869  -4.123  -3.470  0.00  0.00     0.000 A 
ATOM      3  C3  BNZ d   1       6.000  -3.743  -2.803  0.00  0.00     0.000 A 
ATOM      4  C4  BNZ d   1       6.000  -3.726  -1.454  0.00  0.00     0.000 A 
ATOM      5  C5  BNZ d   1       4.879  -4.118  -0.750  0.00  0.00     0.000 A 
ATOM      6  C6  BNZ d   1       3.755  -4.537  -1.426  0.00  0.00     0.000 A 
ENDROOT
TORSDOF 0
ENDMDL
