MODEL 1
REMARK minimizedAffinity 3.52348828
REMARK minimizedRMSD -1
REMARK  0 active torsions:
REMARK  status: ('A' for Active; 'I' for Inactive)
ROOT
ATOM      1  C1  BNZ d   1      -4.107  -4.548   4.504  0.00  0.00     0.000 A 
ATOM      2  C2  BNZ d   1      -3.041  -3.688   4.502  0.00  0.00     0.000 A 
ATOM      3  C3  BNZ d   1      -3.055  -2.554   5.264  0.00  0.00     0.000 A 
ATOM      4  C4  BNZ d   1      -4.150  -2.260   5.995  0.00  0.00     0.000 A 
ATOM      5  C5  BNZ d   1      -5.236  -3.111   6.000  0.00  0.00     0.000 A 
ATOM      6  C6  BNZ d   1      -5.203  -4.272   5.262  0.00  0.00     0.000 A 
ENDROOT
TORSDOF 0
ENDMDL
