MODEL 1
REMARK minimizedAffinity 5.64857292
REMARK minimizedRMSD -1
REMARK  0 active torsions:
REMARK  status: ('A' for Active; 'I' for Inactive)
ROOT
ATOM      1  C1  BNZ d   1      -0.153  -4.191   5.368  0.00  0.00     0.000 A 
ATOM      2  C2  BNZ d   1      -1.273  -3.715   5.996  0.00  0.00     0.000 A 
ATOM      3  C3  BNZ d   1      -2.174  -2.937   5.325  0.00  0.00     0.000 A 
ATOM      4  C4  BNZ d   1      -1.935  -2.603   4.041  0.00  0.00     0.000 A 
ATOM      5  C5  BNZ d   1      -0.806  -3.067   3.396  0.00  0.00     0.000 A 
ATOM      6  C6  BNZ d   1       0.079  -3.882   4.063  0.00  0.00     0.000 A 
ENDROOT
TORSDOF 0
ENDMDL
