MODEL 1
REMARK minimizedAffinity 4.08422947
REMARK minimizedRMSD -1
REMARK  0 active torsions:
REMARK  status: ('A' for Active; 'I' for Inactive)
ROOT
ATOM      1  C1  BNZ d   1      -3.584  -3.997   5.849  0.00  0.00     0.000 A 
ATOM      2  C2  BNZ d   1      -3.636  -2.628   5.839  0.00  0.00     0.000 A 
ATOM      3  C3  BNZ d   1      -4.831  -1.972   5.932  0.00  0.00     0.000 A 
ATOM      4  C4  BNZ d   1      -5.975  -2.683   5.995  0.00  0.00     0.000 A 
ATOM      5  C5  BNZ d   1      -5.940  -4.064   5.997  0.00  0.00     0.000 A 
ATOM      6  C6  BNZ d   1      -4.733  -4.721   5.942  0.00  0.00     0.000 A 
ENDROOT
TORSDOF 0
ENDMDL
