MODEL 1
REMARK minimizedAffinity 1.23775363
REMARK minimizedRMSD -1
REMARK  0 active torsions:
REMARK  status: ('A' for Active; 'I' for Inactive)
ROOT
ATOM      1  C1  BNZ d   1       3.786  -4.174  -2.601  0.00  0.00     0.000 A 
ATOM      2  C2  BNZ d   1       3.787  -4.266  -1.235  0.00  0.00     0.000 A 
ATOM      3  C3  BNZ d   1       4.878  -3.881  -0.508  0.00  0.00     0.000 A 
ATOM      4  C4  BNZ d   1       5.981  -3.443  -1.149  0.00  0.00     0.000 A 
ATOM      5  C5  BNZ d   1       5.999  -3.354  -2.527  0.00  0.00     0.000 A 
ATOM      6  C6  BNZ d   1       4.884  -3.705  -3.253  0.00  0.00     0.000 A 
ENDROOT
TORSDOF 0
ENDMDL
