MODEL 1
REMARK minimizedAffinity 1.25712073
REMARK minimizedRMSD -1
REMARK  0 active torsions:
REMARK  status: ('A' for Active; 'I' for Inactive)
ROOT
ATOM      1  C1  BNZ d   1      -0.631   2.444  -0.045  0.00  0.00     0.000 A 
ATOM      2  C2  BNZ d   1      -1.990   2.607  -0.094  0.00  0.00     0.000 A 
ATOM      3  C3  BNZ d   1      -2.751   2.488   1.035  0.00  0.00     0.000 A 
ATOM      4  C4  BNZ d   1      -2.158   2.166   2.203  0.00  0.00     0.000 A 
ATOM      5  C5  BNZ d   1      -0.790   1.988   2.267  0.00  0.00     0.000 A 
ATOM      6  C6  BNZ d   1      -0.023   2.148   1.136  0.00  0.00     0.000 A 
ENDROOT
TORSDOF 0
ENDMDL
