MODEL 1
REMARK minimizedAffinity 4.08299112
REMARK minimizedRMSD -1
REMARK  0 active torsions:
REMARK  status: ('A' for Active; 'I' for Inactive)
ROOT
ATOM      1  C1  BNZ d   1       3.626  -3.749  -4.030  0.00  0.00     0.000 A 
ATOM      2  C2  BNZ d   1       4.805  -3.076  -4.214  0.00  0.00     0.000 A 
ATOM      3  C3  BNZ d   1       5.898  -3.357  -3.443  0.00  0.00     0.000 A 
ATOM      4  C4  BNZ d   1       5.800  -4.280  -2.464  0.00  0.00     0.000 A 
ATOM      5  C5  BNZ d   1       4.616  -4.959  -2.261  0.00  0.00     0.000 A 
ATOM      6  C6  BNZ d   1       3.529  -4.702  -3.064  0.00  0.00     0.000 A 
ENDROOT
TORSDOF 0
ENDMDL
