MODEL 1
REMARK minimizedAffinity 5.71753263
REMARK minimizedRMSD -1
REMARK  0 active torsions:
REMARK  status: ('A' for Active; 'I' for Inactive)
ROOT
ATOM      1  C1  BNZ d   1      -2.918   2.409   1.694  0.00  0.00     0.000 A 
ATOM      2  C2  BNZ d   1      -2.825   2.563   0.337  0.00  0.00     0.000 A 
ATOM      3  C3  BNZ d   1      -1.639   2.361  -0.311  0.00  0.00     0.000 A 
ATOM      4  C4  BNZ d   1      -0.539   2.046   0.403  0.00  0.00     0.000 A 
ATOM      5  C5  BNZ d   1      -0.614   1.897   1.773  0.00  0.00     0.000 A 
ATOM      6  C6  BNZ d   1      -1.819   2.062   2.417  0.00  0.00     0.000 A 
ENDROOT
TORSDOF 0
ENDMDL
