MODEL 1
REMARK minimizedAffinity 0.287195504
REMARK minimizedRMSD -1
REMARK  0 active torsions:
REMARK  status: ('A' for Active; 'I' for Inactive)
ROOT
ATOM      1  C1  BNZ d   1      -0.756   2.487   2.992  0.00  0.00     0.000 A 
ATOM      2  C2  BNZ d   1      -1.607   2.210   1.956  0.00  0.00     0.000 A 
ATOM      3  C3  BNZ d   1      -1.637   0.967   1.388  0.00  0.00     0.000 A 
ATOM      4  C4  BNZ d   1      -0.788   0.016   1.829  0.00  0.00     0.000 A 
ATOM      5  C5  BNZ d   1       0.082   0.283   2.867  0.00  0.00     0.000 A 
ATOM      6  C6  BNZ d   1       0.082   1.523   3.462  0.00  0.00     0.000 A 
ENDROOT
TORSDOF 0
ENDMDL
