MODEL 1
REMARK minimizedAffinity 4.80771923
REMARK minimizedRMSD -1
REMARK  0 active torsions:
REMARK  status: ('A' for Active; 'I' for Inactive)
ROOT
ATOM      1  C1  BNZ d   1      -3.004   1.502   1.485  0.00  0.00     0.000 A 
ATOM      2  C2  BNZ d   1      -2.276   0.837   2.435  0.00  0.00     0.000 A 
ATOM      3  C3  BNZ d   1      -0.930   1.043   2.556  0.00  0.00     0.000 A 
ATOM      4  C4  BNZ d   1      -0.308   1.881   1.702  0.00  0.00     0.000 A 
ATOM      5  C5  BNZ d   1      -1.027   2.552   0.733  0.00  0.00     0.000 A 
ATOM      6  C6  BNZ d   1      -2.388   2.372   0.639  0.00  0.00     0.000 A 
ENDROOT
TORSDOF 0
ENDMDL
