MODEL 1
REMARK minimizedAffinity 2.5411222
REMARK minimizedRMSD -1
REMARK  0 active torsions:
REMARK  status: ('A' for Active; 'I' for Inactive)
ROOT
ATOM      1  C1  BNZ d   1      -0.390   2.837   2.834  0.00  0.00     0.000 A 
ATOM      2  C2  BNZ d   1      -1.375   2.191   2.135  0.00  0.00     0.000 A 
ATOM      3  C3  BNZ d   1      -1.531   0.837   2.237  0.00  0.00     0.000 A 
ATOM      4  C4  BNZ d   1      -0.680   0.127   3.005  0.00  0.00     0.000 A 
ATOM      5  C5  BNZ d   1       0.323   0.763   3.709  0.00  0.00     0.000 A 
ATOM      6  C6  BNZ d   1       0.454   2.131   3.634  0.00  0.00     0.000 A 
ENDROOT
TORSDOF 0
ENDMDL
