MODEL 1
REMARK minimizedAffinity -0.220112249
REMARK minimizedRMSD -1
REMARK  0 active torsions:
REMARK  status: ('A' for Active; 'I' for Inactive)
ROOT
ATOM      1  C1  BNZ d   1       4.980  -2.838  -1.410  0.00  0.00     0.000 A 
ATOM      2  C2  BNZ d   1       6.000  -2.947  -0.503  0.00  0.00     0.000 A 
ATOM      3  C3  BNZ d   1       5.869  -2.442   0.760  0.00  0.00     0.000 A 
ATOM      4  C4  BNZ d   1       4.736  -1.795   1.102  0.00  0.00     0.000 A 
ATOM      5  C5  BNZ d   1       3.703  -1.669   0.196  0.00  0.00     0.000 A 
ATOM      6  C6  BNZ d   1       3.822  -2.213  -1.063  0.00  0.00     0.000 A 
ENDROOT
TORSDOF 0
ENDMDL
