MODEL 1
REMARK minimizedAffinity -3.60377359
REMARK minimizedRMSD -1
REMARK  0 active torsions:
REMARK  status: ('A' for Active; 'I' for Inactive)
ROOT
ATOM      1  C1  BNZ d   1      -0.514   1.325  -0.859  0.00  0.00     0.000 A 
ATOM      2  C2  BNZ d   1      -1.063   0.855  -2.022  0.00  0.00     0.000 A 
ATOM      3  C3  BNZ d   1      -0.876  -0.442  -2.409  0.00  0.00     0.000 A 
ATOM      4  C4  BNZ d   1      -0.109  -1.256  -1.655  0.00  0.00     0.000 A 
ATOM      5  C5  BNZ d   1       0.459  -0.794  -0.485  0.00  0.00     0.000 A 
ATOM      6  C6  BNZ d   1       0.237   0.502  -0.078  0.00  0.00     0.000 A 
ENDROOT
TORSDOF 0
ENDMDL
