MODEL 1
REMARK minimizedAffinity 3.02348471
REMARK minimizedRMSD -1
REMARK  0 active torsions:
REMARK  status: ('A' for Active; 'I' for Inactive)
ROOT
ATOM      1  C1  BNZ d   1       1.070   1.403  -3.336  0.00  0.00     0.000 A 
ATOM      2  C2  BNZ d   1       0.871   2.097  -2.172  0.00  0.00     0.000 A 
ATOM      3  C3  BNZ d   1      -0.024   1.655  -1.238  0.00  0.00     0.000 A 
ATOM      4  C4  BNZ d   1      -0.746   0.543  -1.485  0.00  0.00     0.000 A 
ATOM      5  C5  BNZ d   1      -0.563  -0.163  -2.657  0.00  0.00     0.000 A 
ATOM      6  C6  BNZ d   1       0.366   0.263  -3.578  0.00  0.00     0.000 A 
ENDROOT
TORSDOF 0
ENDMDL
