MODEL 1
REMARK minimizedAffinity 5.91324186
REMARK minimizedRMSD -1
REMARK  0 active torsions:
REMARK  status: ('A' for Active; 'I' for Inactive)
ROOT
ATOM      1  C1  BNZ d   1       0.302   1.995  -1.819  0.00  0.00     0.000 A 
ATOM      2  C2  BNZ d   1       1.460   1.835  -2.532  0.00  0.00     0.000 A 
ATOM      3  C3  BNZ d   1       1.467   1.146  -3.712  0.00  0.00     0.000 A 
ATOM      4  C4  BNZ d   1       0.325   0.584  -4.158  0.00  0.00     0.000 A 
ATOM      5  C5  BNZ d   1      -0.850   0.728  -3.446  0.00  0.00     0.000 A 
ATOM      6  C6  BNZ d   1      -0.860   1.456  -2.278  0.00  0.00     0.000 A 
ENDROOT
TORSDOF 0
ENDMDL
