MODEL 1
REMARK minimizedAffinity 1.86776912
REMARK minimizedRMSD -1
REMARK  0 active torsions:
REMARK  status: ('A' for Active; 'I' for Inactive)
ROOT
ATOM      1  C1  BNZ d   1       1.068   0.235  -2.199  0.00  0.00     0.000 A 
ATOM      2  C2  BNZ d   1      -0.125  -0.340  -2.545  0.00  0.00     0.000 A 
ATOM      3  C3  BNZ d   1      -1.294   0.363  -2.453  0.00  0.00     0.000 A 
ATOM      4  C4  BNZ d   1      -1.273   1.625  -1.977  0.00  0.00     0.000 A 
ATOM      5  C5  BNZ d   1      -0.078   2.216  -1.616  0.00  0.00     0.000 A 
ATOM      6  C6  BNZ d   1       1.101   1.518  -1.747  0.00  0.00     0.000 A 
ENDROOT
TORSDOF 0
ENDMDL
