MODEL 1
REMARK minimizedAffinity 6.35440302
REMARK minimizedRMSD -1
REMARK  0 active torsions:
REMARK  status: ('A' for Active; 'I' for Inactive)
ROOT
ATOM      1  C1  BNZ d   1       0.418   3.737  -0.462  0.00  0.00     0.000 A 
ATOM      2  C2  BNZ d   1       0.796   3.034   0.650  0.00  0.00     0.000 A 
ATOM      3  C3  BNZ d   1      -0.057   2.142   1.238  0.00  0.00     0.000 A 
ATOM      4  C4  BNZ d   1      -1.299   1.985   0.738  0.00  0.00     0.000 A 
ATOM      5  C5  BNZ d   1      -1.698   2.693  -0.378  0.00  0.00     0.000 A 
ATOM      6  C6  BNZ d   1      -0.823   3.561  -0.990  0.00  0.00     0.000 A 
ENDROOT
TORSDOF 0
ENDMDL
