MODEL 1
REMARK minimizedAffinity 18.2370663
REMARK minimizedRMSD -1
REMARK  0 active torsions:
REMARK  status: ('A' for Active; 'I' for Inactive)
ROOT
ATOM      1  O1  BZF d   1       2.957  -0.921  -2.443  0.00  0.00    -0.204 OA
ATOM      2  C2  BZF d   1       2.295   0.038  -1.701  0.00  0.00     0.174 A 
ATOM      3  C3  BZF d   1       2.951   1.216  -1.748  0.00  0.00    -0.012 A 
ATOM      4  C3A BZF d   1       4.045   1.001  -2.645  0.00  0.00    -0.107 A 
ATOM      5  C4  BZF d   1       5.048   1.802  -3.111  0.00  0.00     0.055 A 
ATOM      6  C5  BZF d   1       6.000   1.267  -3.920  0.00  0.00    -0.016 A 
ATOM      7  C6  BZF d   1       5.983  -0.066  -4.278  0.00  0.00     0.022 A 
ATOM      8  C7  BZF d   1       5.005  -0.898  -3.844  0.00  0.00     0.029 A 
ATOM      9  C7A BZF d   1       4.023  -0.352  -3.054  0.00  0.00     0.058 A 
ENDROOT
TORSDOF 0
ENDMDL
