MODEL 1
REMARK minimizedAffinity 13.572998
REMARK minimizedRMSD -1
REMARK  0 active torsions:
REMARK  status: ('A' for Active; 'I' for Inactive)
ROOT
ATOM      1  O1  BZF d   1      -5.967   4.835  -6.000  0.00  0.00    -0.204 OA
ATOM      2  C2  BZF d   1      -5.916   5.998  -5.255  0.00  0.00     0.174 A 
ATOM      3  C3  BZF d   1      -4.949   5.924  -4.318  0.00  0.00    -0.012 A 
ATOM      4  C3A BZF d   1      -4.297   4.671  -4.548  0.00  0.00    -0.107 A 
ATOM      5  C4  BZF d   1      -3.247   4.036  -3.950  0.00  0.00     0.055 A 
ATOM      6  C5  BZF d   1      -2.905   2.788  -4.367  0.00  0.00    -0.016 A 
ATOM      7  C6  BZF d   1      -3.595   2.144  -5.373  0.00  0.00     0.022 A 
ATOM      8  C7  BZF d   1      -4.642   2.736  -5.999  0.00  0.00     0.029 A 
ATOM      9  C7A BZF d   1      -4.968   4.010  -5.603  0.00  0.00     0.058 A 
ENDROOT
TORSDOF 0
ENDMDL
