MODEL 1
REMARK minimizedAffinity 1.10319638
REMARK minimizedRMSD -1
REMARK  0 active torsions:
REMARK  status: ('A' for Active; 'I' for Inactive)
ROOT
ATOM      1  O1  BZF d   1      -4.016   2.391  -5.931  0.00  0.00    -0.204 OA
ATOM      2  C2  BZF d   1      -2.829   2.222  -5.244  0.00  0.00     0.174 A 
ATOM      3  C3  BZF d   1      -2.558   3.303  -4.485  0.00  0.00    -0.012 A 
ATOM      4  C3A BZF d   1      -3.689   4.165  -4.641  0.00  0.00    -0.107 A 
ATOM      5  C4  BZF d   1      -4.017   5.386  -4.124  0.00  0.00     0.055 A 
ATOM      6  C5  BZF d   1      -5.163   5.991  -4.534  0.00  0.00    -0.016 A 
ATOM      7  C6  BZF d   1      -6.000   5.407  -5.462  0.00  0.00     0.022 A 
ATOM      8  C7  BZF d   1      -5.719   4.195  -5.999  0.00  0.00     0.029 A 
ATOM      9  C7A BZF d   1      -4.579   3.566  -5.562  0.00  0.00     0.058 A 
ENDROOT
TORSDOF 0
ENDMDL
