MODEL 1
REMARK minimizedAffinity 14.9788342
REMARK minimizedRMSD -1
REMARK  0 active torsions:
REMARK  status: ('A' for Active; 'I' for Inactive)
ROOT
ATOM      1  O1  BZF d   1      -6.000   4.794  -5.999  0.00  0.00    -0.204 OA
ATOM      2  C2  BZF d   1      -5.921   6.000  -5.330  0.00  0.00     0.174 A 
ATOM      3  C3  BZF d   1      -4.887   5.999  -4.463  0.00  0.00    -0.012 A 
ATOM      4  C3A BZF d   1      -4.227   4.746  -4.666  0.00  0.00    -0.107 A 
ATOM      5  C4  BZF d   1      -3.122   4.167  -4.110  0.00  0.00     0.055 A 
ATOM      6  C5  BZF d   1      -2.785   2.902  -4.477  0.00  0.00    -0.016 A 
ATOM      7  C6  BZF d   1      -3.532   2.187  -5.390  0.00  0.00     0.022 A 
ATOM      8  C7  BZF d   1      -4.633   2.722  -5.972  0.00  0.00     0.029 A 
ATOM      9  C7A BZF d   1      -4.957   4.012  -5.629  0.00  0.00     0.058 A 
ENDROOT
TORSDOF 0
ENDMDL
