MODEL 1
REMARK minimizedAffinity 8.62257862
REMARK minimizedRMSD -1
REMARK  0 active torsions:
REMARK  status: ('A' for Active; 'I' for Inactive)
ROOT
ATOM      1  O1  BZF d   1      -4.483   2.282  -5.953  0.00  0.00    -0.204 OA
ATOM      2  C2  BZF d   1      -3.346   1.912  -5.262  0.00  0.00     0.174 A 
ATOM      3  C3  BZF d   1      -2.909   2.922  -4.483  0.00  0.00    -0.012 A 
ATOM      4  C3A BZF d   1      -3.884   3.959  -4.630  0.00  0.00    -0.107 A 
ATOM      5  C4  BZF d   1      -4.014   5.208  -4.094  0.00  0.00     0.055 A 
ATOM      6  C5  BZF d   1      -5.043   5.998  -4.500  0.00  0.00    -0.016 A 
ATOM      7  C6  BZF d   1      -5.956   5.572  -5.443  0.00  0.00     0.022 A 
ATOM      8  C7  BZF d   1      -5.871   4.340  -5.999  0.00  0.00     0.029 A 
ATOM      9  C7A BZF d   1      -4.851   3.527  -5.567  0.00  0.00     0.058 A 
ENDROOT
TORSDOF 0
ENDMDL
