MODEL 1
REMARK minimizedAffinity 19.9585552
REMARK minimizedRMSD -1
REMARK  0 active torsions:
REMARK  status: ('A' for Active; 'I' for Inactive)
ROOT
ATOM      1  O1  BZF d   1       2.240   2.664  -0.193  0.00  0.00    -0.204 OA
ATOM      2  C2  BZF d   1       2.071   1.666  -1.134  0.00  0.00     0.174 A 
ATOM      3  C3  BZF d   1       3.159   1.562  -1.923  0.00  0.00    -0.012 A 
ATOM      4  C3A BZF d   1       4.103   2.495  -1.387  0.00  0.00    -0.107 A 
ATOM      5  C4  BZF d   1       5.379   2.842  -1.729  0.00  0.00     0.055 A 
ATOM      6  C5  BZF d   1       5.997   3.842  -1.047  0.00  0.00    -0.016 A 
ATOM      7  C6  BZF d   1       5.368   4.519  -0.023  0.00  0.00     0.022 A 
ATOM      8  C7  BZF d   1       4.104   4.208   0.355  0.00  0.00     0.029 A 
ATOM      9  C7A BZF d   1       3.489   3.176  -0.310  0.00  0.00     0.058 A 
ENDROOT
TORSDOF 0
ENDMDL
