MODEL 1
REMARK minimizedAffinity 17.682766
REMARK minimizedRMSD -1
REMARK  0 active torsions:
REMARK  status: ('A' for Active; 'I' for Inactive)
ROOT
ATOM      1  O1  BZF d   1      -3.499   4.147  -1.571  0.00  0.00    -0.204 OA
ATOM      2  C2  BZF d   1      -3.725   5.148  -2.496  0.00  0.00     0.174 A 
ATOM      3  C3  BZF d   1      -4.675   5.999  -2.057  0.00  0.00    -0.012 A 
ATOM      4  C3A BZF d   1      -5.001   5.551  -0.738  0.00  0.00    -0.107 A 
ATOM      5  C4  BZF d   1      -5.867   5.998   0.218  0.00  0.00     0.055 A 
ATOM      6  C5  BZF d   1      -6.000   5.292   1.372  0.00  0.00    -0.016 A 
ATOM      7  C6  BZF d   1      -5.287   4.133   1.599  0.00  0.00     0.022 A 
ATOM      8  C7  BZF d   1      -4.413   3.652   0.682  0.00  0.00     0.029 A 
ATOM      9  C7A BZF d   1      -4.252   4.382  -0.470  0.00  0.00     0.058 A 
ENDROOT
TORSDOF 0
ENDMDL
