MODEL 1
REMARK minimizedAffinity 15.8619442
REMARK minimizedRMSD -1
REMARK  0 active torsions:
REMARK  status: ('A' for Active; 'I' for Inactive)
ROOT
ATOM      1  O1  BZF d   1       2.296   1.976   1.092  0.00  0.00    -0.204 OA
ATOM      2  C2  BZF d   1       3.349   2.866   1.001  0.00  0.00     0.174 A 
ATOM      3  C3  BZF d   1       3.903   2.827  -0.228  0.00  0.00    -0.012 A 
ATOM      4  C3A BZF d   1       3.091   1.919  -0.979  0.00  0.00    -0.107 A 
ATOM      5  C4  BZF d   1       3.125   1.477  -2.271  0.00  0.00     0.055 A 
ATOM      6  C5  BZF d   1       2.231   0.534  -2.670  0.00  0.00    -0.016 A 
ATOM      7  C6  BZF d   1       1.294   0.009  -1.804  0.00  0.00     0.022 A 
ATOM      8  C7  BZF d   1       1.219   0.420  -0.515  0.00  0.00     0.029 A 
ATOM      9  C7A BZF d   1       2.099   1.397  -0.117  0.00  0.00     0.058 A 
ENDROOT
TORSDOF 0
ENDMDL
