MODEL 1
REMARK minimizedAffinity 5.88830566
REMARK minimizedRMSD -1
REMARK  0 active torsions:
REMARK  status: ('A' for Active; 'I' for Inactive)
ROOT
ATOM      1  O1  BZF d   1      -4.937   6.000  -1.780  0.00  0.00    -0.204 OA
ATOM      2  C2  BZF d   1      -4.085   5.141  -2.448  0.00  0.00     0.174 A 
ATOM      3  C3  BZF d   1      -3.725   4.112  -1.654  0.00  0.00    -0.012 A 
ATOM      4  C3A BZF d   1      -4.466   4.293  -0.444  0.00  0.00    -0.107 A 
ATOM      5  C4  BZF d   1      -4.550   3.585   0.721  0.00  0.00     0.055 A 
ATOM      6  C5  BZF d   1      -5.311   4.071   1.736  0.00  0.00    -0.016 A 
ATOM      7  C6  BZF d   1      -5.998   5.262   1.623  0.00  0.00     0.022 A 
ATOM      8  C7  BZF d   1      -5.950   5.996   0.485  0.00  0.00     0.029 A 
ATOM      9  C7A BZF d   1      -5.208   5.492  -0.554  0.00  0.00     0.058 A 
ENDROOT
TORSDOF 0
ENDMDL
