MODEL 1
REMARK minimizedAffinity 7.56516266
REMARK minimizedRMSD -1
REMARK  0 active torsions:
REMARK  status: ('A' for Active; 'I' for Inactive)
ROOT
ATOM      1  O1  BZF d   1      -2.893  -0.941  -1.392  0.00  0.00    -0.204 OA
ATOM      2  C2  BZF d   1      -2.212  -1.233  -2.558  0.00  0.00     0.174 A 
ATOM      3  C3  BZF d   1      -1.105  -1.957  -2.297  0.00  0.00    -0.012 A 
ATOM      4  C3A BZF d   1      -1.142  -2.207  -0.888  0.00  0.00    -0.107 A 
ATOM      5  C4  BZF d   1      -0.324  -2.888  -0.034  0.00  0.00     0.055 A 
ATOM      6  C5  BZF d   1      -0.604  -2.881   1.296  0.00  0.00    -0.016 A 
ATOM      7  C6  BZF d   1      -1.690  -2.199   1.805  0.00  0.00     0.022 A 
ATOM      8  C7  BZF d   1      -2.533  -1.514   0.996  0.00  0.00     0.029 A 
ATOM      9  C7A BZF d   1      -2.271  -1.546  -0.352  0.00  0.00     0.058 A 
ENDROOT
TORSDOF 0
ENDMDL
