MODEL 1
REMARK minimizedAffinity 9.77344131
REMARK minimizedRMSD -1
REMARK  0 active torsions:
REMARK  status: ('A' for Active; 'I' for Inactive)
ROOT
ATOM      1  O1  BZF d   1       1.894   0.139  -0.926  0.00  0.00    -0.204 OA
ATOM      2  C2  BZF d   1       2.921   0.325  -1.832  0.00  0.00     0.174 A 
ATOM      3  C3  BZF d   1       2.573  -0.136  -3.050  0.00  0.00    -0.012 A 
ATOM      4  C3A BZF d   1       1.212  -0.558  -2.919  0.00  0.00    -0.107 A 
ATOM      5  C4  BZF d   1       0.307  -1.094  -3.790  0.00  0.00     0.055 A 
ATOM      6  C5  BZF d   1      -0.916  -1.463  -3.327  0.00  0.00    -0.016 A 
ATOM      7  C6  BZF d   1      -1.265  -1.316  -2.001  0.00  0.00     0.022 A 
ATOM      8  C7  BZF d   1      -0.403  -0.785  -1.100  0.00  0.00     0.029 A 
ATOM      9  C7A BZF d   1       0.822  -0.380  -1.571  0.00  0.00     0.058 A 
ENDROOT
TORSDOF 0
ENDMDL
