MODEL 1
REMARK minimizedAffinity 14.6023712
REMARK minimizedRMSD -1
REMARK  0 active torsions:
REMARK  status: ('A' for Active; 'I' for Inactive)
ROOT
ATOM      1  O1  BZF d   1      -0.050  -4.817  -0.889  0.00  0.00    -0.204 OA
ATOM      2  C2  BZF d   1      -0.107  -4.586   0.472  0.00  0.00     0.174 A 
ATOM      3  C3  BZF d   1      -0.437  -3.303   0.726  0.00  0.00    -0.012 A 
ATOM      4  C3A BZF d   1      -0.686  -2.718  -0.556  0.00  0.00    -0.107 A 
ATOM      5  C4  BZF d   1      -1.068  -1.471  -0.960  0.00  0.00     0.055 A 
ATOM      6  C5  BZF d   1      -1.151  -1.205  -2.290  0.00  0.00    -0.016 A 
ATOM      7  C6  BZF d   1      -0.856  -2.158  -3.242  0.00  0.00     0.022 A 
ATOM      8  C7  BZF d   1      -0.477  -3.411  -2.889  0.00  0.00     0.029 A 
ATOM      9  C7A BZF d   1      -0.424  -3.693  -1.546  0.00  0.00     0.058 A 
ENDROOT
TORSDOF 0
ENDMDL
