MODEL 1
REMARK minimizedAffinity 7.82357311
REMARK minimizedRMSD -1
REMARK  0 active torsions:
REMARK  status: ('A' for Active; 'I' for Inactive)
ROOT
ATOM      1  O1  BZF d   1      -4.838   2.249  -5.989  0.00  0.00    -0.204 OA
ATOM      2  C2  BZF d   1      -3.743   1.729  -5.327  0.00  0.00     0.174 A 
ATOM      3  C3  BZF d   1      -3.157   2.669  -4.558  0.00  0.00    -0.012 A 
ATOM      4  C3A BZF d   1      -3.990   3.827  -4.680  0.00  0.00    -0.107 A 
ATOM      5  C4  BZF d   1      -3.940   5.080  -4.139  0.00  0.00     0.055 A 
ATOM      6  C5  BZF d   1      -4.865   6.000  -4.518  0.00  0.00    -0.016 A 
ATOM      7  C6  BZF d   1      -5.849   5.703  -5.439  0.00  0.00     0.022 A 
ATOM      8  C7  BZF d   1      -5.942   4.473  -5.999  0.00  0.00     0.029 A 
ATOM      9  C7A BZF d   1      -5.028   3.531  -5.592  0.00  0.00     0.058 A 
ENDROOT
TORSDOF 0
ENDMDL
