MODEL 1
REMARK minimizedAffinity 21.9424152
REMARK minimizedRMSD -1
REMARK  0 active torsions:
REMARK  status: ('A' for Active; 'I' for Inactive)
ROOT
ATOM      1  O1  BZF d   1      -0.685  -0.188  -0.523  0.00  0.00    -0.204 OA
ATOM      2  C2  BZF d   1      -1.475  -1.155  -1.114  0.00  0.00     0.174 A 
ATOM      3  C3  BZF d   1      -0.937  -1.565  -2.281  0.00  0.00    -0.012 A 
ATOM      4  C3A BZF d   1       0.311  -0.874  -2.384  0.00  0.00    -0.107 A 
ATOM      5  C4  BZF d   1       1.311  -0.875  -3.314  0.00  0.00     0.055 A 
ATOM      6  C5  BZF d   1       2.363  -0.030  -3.153  0.00  0.00    -0.016 A 
ATOM      7  C6  BZF d   1       2.445   0.831  -2.078  0.00  0.00     0.022 A 
ATOM      8  C7  BZF d   1       1.480   0.864  -1.127  0.00  0.00     0.029 A 
ATOM      9  C7A BZF d   1       0.432  -0.011  -1.270  0.00  0.00     0.058 A 
ENDROOT
TORSDOF 0
ENDMDL
