MODEL 1
REMARK minimizedAffinity 15.9505882
REMARK minimizedRMSD -1
REMARK  0 active torsions:
REMARK  status: ('A' for Active; 'I' for Inactive)
ROOT
ATOM      1  O1  BZF d   1      -3.981   5.377  -4.256  0.00  0.00    -0.204 OA
ATOM      2  C2  BZF d   1      -5.096   5.983  -4.803  0.00  0.00     0.174 A 
ATOM      3  C3  BZF d   1      -5.769   5.122  -5.594  0.00  0.00    -0.012 A 
ATOM      4  C3A BZF d   1      -5.078   3.876  -5.466  0.00  0.00    -0.107 A 
ATOM      5  C4  BZF d   1      -5.277   2.634  -5.999  0.00  0.00     0.055 A 
ATOM      6  C5  BZF d   1      -4.379   1.649  -5.731  0.00  0.00    -0.016 A 
ATOM      7  C6  BZF d   1      -3.271   1.873  -4.940  0.00  0.00     0.022 A 
ATOM      8  C7  BZF d   1      -3.034   3.087  -4.386  0.00  0.00     0.029 A 
ATOM      9  C7A BZF d   1      -3.957   4.075  -4.628  0.00  0.00     0.058 A 
ENDROOT
TORSDOF 0
ENDMDL
