MODEL 1
REMARK minimizedAffinity 14.4900723
REMARK minimizedRMSD -1
REMARK  0 active torsions:
REMARK  status: ('A' for Active; 'I' for Inactive)
ROOT
ATOM      1  O1  BZF d   1      -0.279  -4.521  -0.967  0.00  0.00    -0.204 OA
ATOM      2  C2  BZF d   1      -0.262  -4.561   0.414  0.00  0.00     0.174 A 
ATOM      3  C3  BZF d   1      -0.629  -3.371   0.932  0.00  0.00    -0.012 A 
ATOM      4  C3A BZF d   1      -0.981  -2.563  -0.195  0.00  0.00    -0.107 A 
ATOM      5  C4  BZF d   1      -1.439  -1.283  -0.326  0.00  0.00     0.055 A 
ATOM      6  C5  BZF d   1      -1.615  -0.769  -1.572  0.00  0.00    -0.016 A 
ATOM      7  C6  BZF d   1      -1.338  -1.503  -2.706  0.00  0.00     0.022 A 
ATOM      8  C7  BZF d   1      -0.886  -2.778  -2.627  0.00  0.00     0.029 A 
ATOM      9  C7A BZF d   1      -0.739  -3.312  -1.370  0.00  0.00     0.058 A 
ENDROOT
TORSDOF 0
ENDMDL
