MODEL 1
REMARK minimizedAffinity 14.1995811
REMARK minimizedRMSD -1
REMARK  0 active torsions:
REMARK  status: ('A' for Active; 'I' for Inactive)
ROOT
ATOM      1  O1  BZF d   1      -0.062  -5.128  -1.128  0.00  0.00    -0.204 OA
ATOM      2  C2  BZF d   1      -0.041  -5.054   0.252  0.00  0.00     0.174 A 
ATOM      3  C3  BZF d   1      -0.230  -3.784   0.666  0.00  0.00    -0.012 A 
ATOM      4  C3A BZF d   1      -0.469  -3.031  -0.527  0.00  0.00    -0.107 A 
ATOM      5  C4  BZF d   1      -0.739  -1.714  -0.768  0.00  0.00     0.055 A 
ATOM      6  C5  BZF d   1      -0.847  -1.287  -2.053  0.00  0.00    -0.016 A 
ATOM      7  C6  BZF d   1      -0.687  -2.146  -3.120  0.00  0.00     0.022 A 
ATOM      8  C7  BZF d   1      -0.424  -3.462  -2.931  0.00  0.00     0.029 A 
ATOM      9  C7A BZF d   1      -0.346  -3.904  -1.633  0.00  0.00     0.058 A 
ENDROOT
TORSDOF 0
ENDMDL
