MODEL 1
REMARK minimizedAffinity 17.0258331
REMARK minimizedRMSD -1
REMARK  0 active torsions:
REMARK  status: ('A' for Active; 'I' for Inactive)
ROOT
ATOM      1  O1  BZF d   1      -1.799  -3.447   3.048  0.00  0.00    -0.204 OA
ATOM      2  C2  BZF d   1      -2.726  -2.615   3.645  0.00  0.00     0.174 A 
ATOM      3  C3  BZF d   1      -3.023  -1.575   2.839  0.00  0.00    -0.012 A 
ATOM      4  C3A BZF d   1      -2.301  -1.818   1.628  0.00  0.00    -0.107 A 
ATOM      5  C4  BZF d   1      -2.202  -1.147   0.443  0.00  0.00     0.055 A 
ATOM      6  C5  BZF d   1      -1.354  -1.613  -0.511  0.00  0.00    -0.016 A 
ATOM      7  C6  BZF d   1      -0.588  -2.743  -0.312  0.00  0.00     0.022 A 
ATOM      8  C7  BZF d   1      -0.656  -3.446   0.845  0.00  0.00     0.029 A 
ATOM      9  C7A BZF d   1      -1.537  -2.996   1.798  0.00  0.00     0.058 A 
ENDROOT
TORSDOF 0
ENDMDL
