MODEL 1
REMARK minimizedAffinity 17.9706669
REMARK minimizedRMSD -1
REMARK  0 active torsions:
REMARK  status: ('A' for Active; 'I' for Inactive)
ROOT
ATOM      1  O1  BZF d   1       2.874  -0.757  -0.416  0.00  0.00    -0.204 OA
ATOM      2  C2  BZF d   1       2.202  -0.119  -1.440  0.00  0.00     0.174 A 
ATOM      3  C3  BZF d   1       2.128   1.208  -1.210  0.00  0.00    -0.012 A 
ATOM      4  C3A BZF d   1       2.875   1.424  -0.010  0.00  0.00    -0.107 A 
ATOM      5  C4  BZF d   1       3.180   2.539   0.718  0.00  0.00     0.055 A 
ATOM      6  C5  BZF d   1       3.868   2.399   1.882  0.00  0.00    -0.016 A 
ATOM      7  C6  BZF d   1       4.261   1.162   2.350  0.00  0.00     0.022 A 
ATOM      8  C7  BZF d   1       3.986   0.029   1.659  0.00  0.00     0.029 A 
ATOM      9  C7A BZF d   1       3.320   0.169   0.466  0.00  0.00     0.058 A 
ENDROOT
TORSDOF 0
ENDMDL
