MODEL 1
REMARK minimizedAffinity -1.86894536
REMARK minimizedRMSD -1
REMARK  2 active torsions:
REMARK  status: ('A' for Active; 'I' for Inactive)
REMARK    1  A    between atoms: C2'_3  and  C1'_4 
REMARK    2  A    between atoms: C1'_4  and  C1_5 
ROOT
ATOM      1  C1  I4B d   1       1.455  -2.462   0.060  0.00  0.00    -0.075 A 
ATOM      2  C2  I4B d   1       0.358  -2.868   0.778  0.00  0.00     0.003 A 
ATOM      3  C3  I4B d   1      -0.391  -1.928   1.527  0.00  0.00     0.002 A 
ATOM      4  C4  I4B d   1       0.020  -0.611   1.570  0.00  0.00    -0.004 A 
ATOM      5  C5  I4B d   1       1.119  -0.197   0.823  0.00  0.00     0.002 A 
ATOM      6  C6  I4B d   1       1.834  -1.126   0.053  0.00  0.00     0.003 A 
ENDROOT
BRANCH   1   7
ATOM      7  C1' I4B d   1       2.242  -3.487  -0.694  0.00  0.00     0.060 C 
BRANCH   7   8
ATOM      8  C2' I4B d   1       3.506  -3.775   0.091  0.00  0.00    -0.013 C 
ATOM      9  C4' I4B d   1       4.343  -4.826  -0.589  0.00  0.00     0.013 C 
ATOM     10  C3' I4B d   1       4.264  -2.489   0.235  0.00  0.00     0.013 C 
ENDBRANCH   7   8
ENDBRANCH   1   7
TORSDOF 2
ENDMDL
