MODEL 1
REMARK minimizedAffinity 3.25495124
REMARK minimizedRMSD -1
REMARK  2 active torsions:
REMARK  status: ('A' for Active; 'I' for Inactive)
REMARK    1  A    between atoms: C2'_3  and  C1'_4 
REMARK    2  A    between atoms: C1'_4  and  C1_5 
ROOT
ATOM      1  C1  I4B d   1       1.574  -3.341  -0.136  0.00  0.00    -0.075 A 
ATOM      2  C2  I4B d   1       2.154  -2.283   0.519  0.00  0.00     0.003 A 
ATOM      3  C3  I4B d   1       1.416  -1.097   0.751  0.00  0.00     0.002 A 
ATOM      4  C4  I4B d   1       0.127  -0.994   0.269  0.00  0.00    -0.004 A 
ATOM      5  C5  I4B d   1      -0.467  -2.076  -0.374  0.00  0.00     0.002 A 
ATOM      6  C6  I4B d   1       0.256  -3.261  -0.567  0.00  0.00     0.003 A 
ENDROOT
BRANCH   1   7
ATOM      7  C1' I4B d   1       2.393  -4.566  -0.392  0.00  0.00     0.060 C 
BRANCH   7   8
ATOM      8  C2' I4B d   1       3.633  -4.488   0.474  0.00  0.00    -0.013 C 
ATOM      9  C4' I4B d   1       4.300  -5.833   0.594  0.00  0.00     0.013 C 
ATOM     10  C3' I4B d   1       4.560  -3.477  -0.132  0.00  0.00     0.013 C 
ENDBRANCH   7   8
ENDBRANCH   1   7
TORSDOF 2
ENDMDL
