MODEL 1
REMARK minimizedAffinity 3.67153716
REMARK minimizedRMSD -1
REMARK  2 active torsions:
REMARK  status: ('A' for Active; 'I' for Inactive)
REMARK    1  A    between atoms: C2'_3  and  C1'_4 
REMARK    2  A    between atoms: C1'_4  and  C1_5 
ROOT
ATOM      1  C1  I4B d   1       1.925  -1.227   1.414  0.00  0.00    -0.075 A 
ATOM      2  C2  I4B d   1       0.679  -0.657   1.489  0.00  0.00     0.003 A 
ATOM      3  C3  I4B d   1      -0.457  -1.361   1.022  0.00  0.00     0.002 A 
ATOM      4  C4  I4B d   1      -0.296  -2.604   0.444  0.00  0.00    -0.004 A 
ATOM      5  C5  I4B d   1       0.965  -3.190   0.389  0.00  0.00     0.002 A 
ATOM      6  C6  I4B d   1       2.082  -2.503   0.888  0.00  0.00     0.003 A 
ENDROOT
BRANCH   1   7
ATOM      7  C1' I4B d   1       3.107  -0.442   1.887  0.00  0.00     0.060 C 
BRANCH   7   8
ATOM      8  C2' I4B d   1       4.360  -1.174   1.448  0.00  0.00    -0.013 C 
ATOM      9  C4' I4B d   1       4.647  -0.938  -0.011  0.00  0.00     0.013 C 
ATOM     10  C3' I4B d   1       5.495  -0.703   2.307  0.00  0.00     0.013 C 
ENDBRANCH   7   8
ENDBRANCH   1   7
TORSDOF 2
ENDMDL
