MODEL 1
REMARK minimizedAffinity -6.17218161
REMARK minimizedRMSD -1
REMARK  2 active torsions:
REMARK  status: ('A' for Active; 'I' for Inactive)
REMARK    1  A    between atoms: C2'_3  and  C1'_4 
REMARK    2  A    between atoms: C1'_4  and  C1_5 
ROOT
ATOM      1  C1  I4B d   1       0.080  -1.690   1.013  0.00  0.00    -0.075 A 
ATOM      2  C2  I4B d   1       0.395  -3.020   0.883  0.00  0.00     0.003 A 
ATOM      3  C3  I4B d   1       1.708  -3.409   0.526  0.00  0.00     0.002 A 
ATOM      4  C4  I4B d   1       2.656  -2.442   0.262  0.00  0.00    -0.004 A 
ATOM      5  C5  I4B d   1       2.341  -1.095   0.417  0.00  0.00     0.002 A 
ATOM      6  C6  I4B d   1       1.048  -0.716   0.807  0.00  0.00     0.003 A 
ENDROOT
BRANCH   1   7
ATOM      7  C1' I4B d   1      -1.326  -1.313   1.358  0.00  0.00     0.060 C 
BRANCH   7   8
ATOM      8  C2' I4B d   1      -1.340   0.160   1.714  0.00  0.00    -0.013 C 
ATOM      9  C4' I4B d   1      -2.421   0.892   0.963  0.00  0.00     0.013 C 
ATOM     10  C3' I4B d   1      -1.537   0.276   3.196  0.00  0.00     0.013 C 
ENDBRANCH   7   8
ENDBRANCH   1   7
TORSDOF 2
ENDMDL
