MODEL 1
REMARK minimizedAffinity 2.09261823
REMARK minimizedRMSD -1
REMARK  2 active torsions:
REMARK  status: ('A' for Active; 'I' for Inactive)
REMARK    1  A    between atoms: C2'_3  and  C1'_4 
REMARK    2  A    between atoms: C1'_4  and  C1_5 
ROOT
ATOM      1  C1  I4B d   1       2.253  -0.644   1.567  0.00  0.00    -0.075 A 
ATOM      2  C2  I4B d   1       3.143  -0.542   2.606  0.00  0.00     0.003 A 
ATOM      3  C3  I4B d   1       4.515  -0.826   2.399  0.00  0.00     0.002 A 
ATOM      4  C4  I4B d   1       4.941  -1.252   1.158  0.00  0.00    -0.004 A 
ATOM      5  C5  I4B d   1       4.041  -1.332   0.100  0.00  0.00     0.002 A 
ATOM      6  C6  I4B d   1       2.690  -1.014   0.302  0.00  0.00     0.003 A 
ENDROOT
BRANCH   1   7
ATOM      7  C1' I4B d   1       0.806  -0.369   1.829  0.00  0.00     0.060 C 
BRANCH   7   8
ATOM      8  C2' I4B d   1       0.004  -0.968   0.691  0.00  0.00    -0.013 C 
ATOM      9  C4' I4B d   1      -0.084  -2.466   0.815  0.00  0.00     0.013 C 
ATOM     10  C3' I4B d   1      -1.359  -0.342   0.706  0.00  0.00     0.013 C 
ENDBRANCH   7   8
ENDBRANCH   1   7
TORSDOF 2
ENDMDL
