MODEL 1
REMARK minimizedAffinity -0.968553007
REMARK minimizedRMSD -1
REMARK  2 active torsions:
REMARK  status: ('A' for Active; 'I' for Inactive)
REMARK    1  A    between atoms: C2'_3  and  C1'_4 
REMARK    2  A    between atoms: C1'_4  and  C1_5 
ROOT
ATOM      1  C1  I4B d   1       1.026  -2.845   0.650  0.00  0.00    -0.075 A 
ATOM      2  C2  I4B d   1      -0.182  -2.786   0.001  0.00  0.00     0.003 A 
ATOM      3  C3  I4B d   1      -0.933  -1.585  -0.002  0.00  0.00     0.002 A 
ATOM      4  C4  I4B d   1      -0.465  -0.490   0.695  0.00  0.00    -0.004 A 
ATOM      5  C5  I4B d   1       0.771  -0.544   1.334  0.00  0.00     0.002 A 
ATOM      6  C6  I4B d   1       1.527  -1.725   1.301  0.00  0.00     0.003 A 
ENDROOT
BRANCH   1   7
ATOM      7  C1' I4B d   1       1.777  -4.138   0.660  0.00  0.00     0.060 C 
BRANCH   7   8
ATOM      8  C2' I4B d   1       3.078  -3.929  -0.088  0.00  0.00    -0.013 C 
ATOM      9  C4' I4B d   1       3.700  -2.603   0.262  0.00  0.00     0.013 C 
ATOM     10  C3' I4B d   1       3.996  -5.064   0.253  0.00  0.00     0.013 C 
ENDBRANCH   7   8
ENDBRANCH   1   7
TORSDOF 2
ENDMDL
