MODEL 1
REMARK minimizedAffinity -1.91981304
REMARK minimizedRMSD -1
REMARK  2 active torsions:
REMARK  status: ('A' for Active; 'I' for Inactive)
REMARK    1  A    between atoms: C2'_3  and  C1'_4 
REMARK    2  A    between atoms: C1'_4  and  C1_5 
ROOT
ATOM      1  C1  I4B d   1       1.306  -3.044   0.087  0.00  0.00    -0.075 A 
ATOM      2  C2  I4B d   1       1.978  -1.858   0.247  0.00  0.00     0.003 A 
ATOM      3  C3  I4B d   1       1.290  -0.702   0.691  0.00  0.00     0.002 A 
ATOM      4  C4  I4B d   1      -0.070  -0.765   0.913  0.00  0.00    -0.004 A 
ATOM      5  C5  I4B d   1      -0.746  -1.973   0.773  0.00  0.00     0.002 A 
ATOM      6  C6  I4B d   1      -0.052  -3.123   0.369  0.00  0.00     0.003 A 
ENDROOT
BRANCH   1   7
ATOM      7  C1' I4B d   1       2.056  -4.236  -0.414  0.00  0.00     0.060 C 
BRANCH   7   8
ATOM      8  C2' I4B d   1       3.375  -4.305   0.329  0.00  0.00    -0.013 C 
ATOM      9  C4' I4B d   1       4.092  -5.599   0.049  0.00  0.00     0.013 C 
ATOM     10  C3' I4B d   1       4.202  -3.125  -0.086  0.00  0.00     0.013 C 
ENDBRANCH   7   8
ENDBRANCH   1   7
TORSDOF 2
ENDMDL
