MODEL 1
REMARK minimizedAffinity -3.51088905
REMARK minimizedRMSD -1
REMARK  2 active torsions:
REMARK  status: ('A' for Active; 'I' for Inactive)
REMARK    1  A    between atoms: C2'_3  and  C1'_4 
REMARK    2  A    between atoms: C1'_4  and  C1_5 
ROOT
ATOM      1  C1  I4B d   1       1.388  -1.532   0.418  0.00  0.00    -0.075 A 
ATOM      2  C2  I4B d   1       1.481  -0.382   1.162  0.00  0.00     0.003 A 
ATOM      3  C3  I4B d   1       0.346   0.445   1.342  0.00  0.00     0.002 A 
ATOM      4  C4  I4B d   1      -0.841   0.113   0.722  0.00  0.00    -0.004 A 
ATOM      5  C5  I4B d   1      -0.940  -1.065  -0.012  0.00  0.00     0.002 A 
ATOM      6  C6  I4B d   1       0.178  -1.899  -0.156  0.00  0.00     0.003 A 
ENDROOT
BRANCH   1   7
ATOM      7  C1' I4B d   1       2.615  -2.365   0.222  0.00  0.00     0.060 C 
BRANCH   7   8
ATOM      8  C2' I4B d   1       2.242  -3.812   0.472  0.00  0.00    -0.013 C 
ATOM      9  C4' I4B d   1       1.036  -4.212  -0.336  0.00  0.00     0.013 C 
ATOM     10  C3' I4B d   1       3.429  -4.661   0.131  0.00  0.00     0.013 C 
ENDBRANCH   7   8
ENDBRANCH   1   7
TORSDOF 2
ENDMDL
