MODEL 1
REMARK minimizedAffinity 0.697536588
REMARK minimizedRMSD -1
REMARK  2 active torsions:
REMARK  status: ('A' for Active; 'I' for Inactive)
REMARK    1  A    between atoms: C2'_3  and  C1'_4 
REMARK    2  A    between atoms: C1'_4  and  C1_5 
ROOT
ATOM      1  C1  I4B d   1       2.431  -3.176   0.310  0.00  0.00    -0.075 A 
ATOM      2  C2  I4B d   1       2.382  -1.872   0.736  0.00  0.00     0.003 A 
ATOM      3  C3  I4B d   1       1.134  -1.252   0.989  0.00  0.00     0.002 A 
ATOM      4  C4  I4B d   1      -0.032  -1.952   0.757  0.00  0.00    -0.004 A 
ATOM      5  C5  I4B d   1       0.020  -3.281   0.347  0.00  0.00     0.002 A 
ATOM      6  C6  I4B d   1       1.260  -3.902   0.134  0.00  0.00     0.003 A 
ENDROOT
BRANCH   1   7
ATOM      7  C1' I4B d   1       3.764  -3.790   0.021  0.00  0.00     0.060 C 
BRANCH   7   8
ATOM      8  C2' I4B d   1       3.643  -5.287   0.222  0.00  0.00    -0.013 C 
ATOM      9  C4' I4B d   1       3.438  -5.998  -1.090  0.00  0.00     0.013 C 
ATOM     10  C3' I4B d   1       4.888  -5.764   0.908  0.00  0.00     0.013 C 
ENDBRANCH   7   8
ENDBRANCH   1   7
TORSDOF 2
ENDMDL
