MODEL 1
REMARK minimizedAffinity 0.2295001
REMARK minimizedRMSD -1
REMARK  2 active torsions:
REMARK  status: ('A' for Active; 'I' for Inactive)
REMARK    1  A    between atoms: C2'_3  and  C1'_4 
REMARK    2  A    between atoms: C1'_4  and  C1_5 
ROOT
ATOM      1  C1  I4B d   1       3.146  -3.182   0.264  0.00  0.00    -0.075 A 
ATOM      2  C2  I4B d   1       3.125  -1.814   0.371  0.00  0.00     0.003 A 
ATOM      3  C3  I4B d   1       1.901  -1.135   0.587  0.00  0.00     0.002 A 
ATOM      4  C4  I4B d   1       0.724  -1.854   0.638  0.00  0.00    -0.004 A 
ATOM      5  C5  I4B d   1       0.751  -3.243   0.552  0.00  0.00     0.002 A 
ATOM      6  C6  I4B d   1       1.971  -3.913   0.376  0.00  0.00     0.003 A 
ENDROOT
BRANCH   1   7
ATOM      7  C1' I4B d   1       4.452  -3.864   0.003  0.00  0.00     0.060 C 
BRANCH   7   8
ATOM      8  C2' I4B d   1       4.214  -5.359   0.047  0.00  0.00    -0.013 C 
ATOM      9  C4' I4B d   1       4.519  -5.999  -1.282  0.00  0.00     0.013 C 
ATOM     10  C3' I4B d   1       5.073  -5.933   1.134  0.00  0.00     0.013 C 
ENDBRANCH   7   8
ENDBRANCH   1   7
TORSDOF 2
ENDMDL
