MODEL 1
REMARK minimizedAffinity -3.45830035
REMARK minimizedRMSD -1
REMARK  2 active torsions:
REMARK  status: ('A' for Active; 'I' for Inactive)
REMARK    1  A    between atoms: C2'_3  and  C1'_4 
REMARK    2  A    between atoms: C1'_4  and  C1_5 
ROOT
ATOM      1  C1  I4B d   1       1.451  -1.552   0.390  0.00  0.00    -0.075 A 
ATOM      2  C2  I4B d   1       1.806  -2.847   0.104  0.00  0.00     0.003 A 
ATOM      3  C3  I4B d   1       0.836  -3.877   0.141  0.00  0.00     0.002 A 
ATOM      4  C4  I4B d   1      -0.458  -3.579   0.516  0.00  0.00    -0.004 A 
ATOM      5  C5  I4B d   1      -0.822  -2.262   0.784  0.00  0.00     0.002 A 
ATOM      6  C6  I4B d   1       0.136  -1.240   0.708  0.00  0.00     0.003 A 
ENDROOT
BRANCH   1   7
ATOM      7  C1' I4B d   1       2.508  -0.494   0.373  0.00  0.00     0.060 C 
BRANCH   7   8
ATOM      8  C2' I4B d   1       3.316  -0.621   1.648  0.00  0.00    -0.013 C 
ATOM      9  C4' I4B d   1       4.763  -0.915   1.350  0.00  0.00     0.013 C 
ATOM     10  C3' I4B d   1       3.171   0.658   2.418  0.00  0.00     0.013 C 
ENDBRANCH   7   8
ENDBRANCH   1   7
TORSDOF 2
ENDMDL
