MODEL 1
REMARK minimizedAffinity -1.7121948
REMARK minimizedRMSD -1
REMARK  2 active torsions:
REMARK  status: ('A' for Active; 'I' for Inactive)
REMARK    1  A    between atoms: C2'_3  and  C1'_4 
REMARK    2  A    between atoms: C1'_4  and  C1_5 
ROOT
ATOM      1  C1  I4B d   1       0.829  -2.113  -0.308  0.00  0.00    -0.075 A 
ATOM      2  C2  I4B d   1       0.879  -3.484  -0.288  0.00  0.00     0.003 A 
ATOM      3  C3  I4B d   1       2.124  -4.151  -0.184  0.00  0.00     0.002 A 
ATOM      4  C4  I4B d   1       3.289  -3.413  -0.154  0.00  0.00    -0.004 A 
ATOM      5  C5  I4B d   1       3.236  -2.023  -0.152  0.00  0.00     0.002 A 
ATOM      6  C6  I4B d   1       1.997  -1.368  -0.217  0.00  0.00     0.003 A 
ENDROOT
BRANCH   1   7
ATOM      7  C1' I4B d   1      -0.500  -1.442  -0.452  0.00  0.00     0.060 C 
BRANCH   7   8
ATOM      8  C2' I4B d   1      -0.775  -0.672   0.823  0.00  0.00    -0.013 C 
ATOM      9  C4' I4B d   1       0.448   0.080   1.280  0.00  0.00     0.013 C 
ATOM     10  C3' I4B d   1      -1.919   0.262   0.563  0.00  0.00     0.013 C 
ENDBRANCH   7   8
ENDBRANCH   1   7
TORSDOF 2
ENDMDL
