MODEL 1
REMARK minimizedAffinity 2.84707212
REMARK minimizedRMSD -1
REMARK  2 active torsions:
REMARK  status: ('A' for Active; 'I' for Inactive)
REMARK    1  A    between atoms: C2'_3  and  C1'_4 
REMARK    2  A    between atoms: C1'_4  and  C1_5 
ROOT
ATOM      1  C1  I4B d   1       2.764   3.387  -1.474  0.00  0.00    -0.075 A 
ATOM      2  C2  I4B d   1       3.744   2.570  -0.969  0.00  0.00     0.003 A 
ATOM      3  C3  I4B d   1       3.975   1.296  -1.542  0.00  0.00     0.002 A 
ATOM      4  C4  I4B d   1       3.175   0.862  -2.579  0.00  0.00    -0.004 A 
ATOM      5  C5  I4B d   1       2.196   1.701  -3.104  0.00  0.00     0.002 A 
ATOM      6  C6  I4B d   1       1.998   2.977  -2.557  0.00  0.00     0.003 A 
ENDROOT
BRANCH   1   7
ATOM      7  C1' I4B d   1       2.526   4.713  -0.823  0.00  0.00     0.060 C 
BRANCH   7   8
ATOM      8  C2' I4B d   1       1.821   4.466   0.495  0.00  0.00    -0.013 C 
ATOM      9  C4' I4B d   1       0.335   4.318   0.299  0.00  0.00     0.013 C 
ATOM     10  C3' I4B d   1       2.411   3.233   1.112  0.00  0.00     0.013 C 
ENDBRANCH   7   8
ENDBRANCH   1   7
TORSDOF 2
ENDMDL
