MODEL 1
REMARK minimizedAffinity 11.3517389
REMARK minimizedRMSD -1
REMARK  0 active torsions:
REMARK  status: ('A' for Active; 'I' for Inactive)
ROOT
ATOM      1  C   UNL d   1      -6.000   4.942  -1.757  0.00  0.00    -0.002 A 
ATOM      2  C1  UNL d   1      -5.811   4.696  -3.110  0.00  0.00     0.010 A 
ATOM      3  C2  UNL d   1      -4.890   3.736  -3.535  0.00  0.00     0.041 A 
ATOM      4  C3  UNL d   1      -4.157   3.020  -2.569  0.00  0.00    -0.075 A 
ATOM      5  S   UNL d   1      -2.976   1.797  -2.856  0.00  0.00     0.015 SA
ATOM      6  C4  UNL d   1      -2.696   1.572  -1.190  0.00  0.00     0.022 A 
ATOM      7  C5  UNL d   1      -3.475   2.401  -0.419  0.00  0.00     0.026 A 
ATOM      8  C6  UNL d   1      -4.331   3.249  -1.201  0.00  0.00    -0.082 A 
ATOM      9  C7  UNL d   1      -5.271   4.229  -0.802  0.00  0.00     0.045 A 
ENDROOT
TORSDOF 0
ENDMDL
