MODEL 1
REMARK minimizedAffinity 8.96027374
REMARK minimizedRMSD -1
REMARK  0 active torsions:
REMARK  status: ('A' for Active; 'I' for Inactive)
ROOT
ATOM      1  C   UNL d   1      -5.400  -5.969  -5.487  0.00  0.00    -0.002 A 
ATOM      2  C1  UNL d   1      -4.319  -5.886  -4.620  0.00  0.00     0.010 A 
ATOM      3  C2  UNL d   1      -3.813  -4.644  -4.233  0.00  0.00     0.041 A 
ATOM      4  C3  UNL d   1      -4.417  -3.475  -4.736  0.00  0.00    -0.075 A 
ATOM      5  S   UNL d   1      -3.967  -1.845  -4.400  0.00  0.00     0.015 SA
ATOM      6  C4  UNL d   1      -5.199  -1.220  -5.399  0.00  0.00     0.022 A 
ATOM      7  C5  UNL d   1      -5.944  -2.217  -5.983  0.00  0.00     0.026 A 
ATOM      8  C6  UNL d   1      -5.506  -3.533  -5.610  0.00  0.00    -0.082 A 
ATOM      9  C7  UNL d   1      -5.996  -4.807  -5.984  0.00  0.00     0.045 A 
ENDROOT
TORSDOF 0
ENDMDL
