MODEL 1
REMARK minimizedAffinity 12.8625822
REMARK minimizedRMSD -1
REMARK  0 active torsions:
REMARK  status: ('A' for Active; 'I' for Inactive)
ROOT
ATOM      1  C   UNL d   1       1.864  -3.956   1.305  0.00  0.00    -0.002 A 
ATOM      2  C1  UNL d   1       1.858  -5.265   1.765  0.00  0.00     0.010 A 
ATOM      3  C2  UNL d   1       1.410  -5.563   3.054  0.00  0.00     0.041 A 
ATOM      4  C3  UNL d   1       0.963  -4.513   3.879  0.00  0.00    -0.075 A 
ATOM      5  S   UNL d   1       0.370  -4.640   5.493  0.00  0.00     0.015 SA
ATOM      6  C4  UNL d   1       0.110  -2.960   5.610  0.00  0.00     0.022 A 
ATOM      7  C5  UNL d   1       0.462  -2.302   4.455  0.00  0.00     0.026 A 
ATOM      8  C6  UNL d   1       0.959  -3.187   3.438  0.00  0.00    -0.082 A 
ATOM      9  C7  UNL d   1       1.420  -2.917   2.127  0.00  0.00     0.045 A 
ENDROOT
TORSDOF 0
ENDMDL
