MODEL 1
REMARK minimizedAffinity 22.3283424
REMARK minimizedRMSD -1
REMARK  0 active torsions:
REMARK  status: ('A' for Active; 'I' for Inactive)
ROOT
ATOM      1  C   UNL d   1      -2.667   1.365  -0.987  0.00  0.00    -0.002 A 
ATOM      2  C1  UNL d   1      -3.169   1.115  -2.256  0.00  0.00     0.010 A 
ATOM      3  C2  UNL d   1      -4.204   1.894  -2.777  0.00  0.00     0.041 A 
ATOM      4  C3  UNL d   1      -4.731   2.939  -1.993  0.00  0.00    -0.075 A 
ATOM      5  S   UNL d   1      -6.000   4.023  -2.424  0.00  0.00     0.015 SA
ATOM      6  C4  UNL d   1      -5.906   4.844  -0.933  0.00  0.00     0.022 A 
ATOM      7  C5  UNL d   1      -4.935   4.317  -0.115  0.00  0.00     0.026 A 
ATOM      8  C6  UNL d   1      -4.242   3.211  -0.712  0.00  0.00    -0.082 A 
ATOM      9  C7  UNL d   1      -3.192   2.403  -0.212  0.00  0.00     0.045 A 
ENDROOT
TORSDOF 0
ENDMDL
