MODEL 1
REMARK minimizedAffinity 24.0763302
REMARK minimizedRMSD -1
REMARK  0 active torsions:
REMARK  status: ('A' for Active; 'I' for Inactive)
ROOT
ATOM      1  C   UNL d   1      -3.378   1.370  -1.627  0.00  0.00    -0.002 A 
ATOM      2  C1  UNL d   1      -3.938   2.390  -0.871  0.00  0.00     0.010 A 
ATOM      3  C2  UNL d   1      -4.763   3.346  -1.467  0.00  0.00     0.041 A 
ATOM      4  C3  UNL d   1      -5.019   3.257  -2.850  0.00  0.00    -0.075 A 
ATOM      5  S   UNL d   1      -6.000   4.315  -3.795  0.00  0.00     0.015 SA
ATOM      6  C4  UNL d   1      -5.698   3.438  -5.225  0.00  0.00     0.022 A 
ATOM      7  C5  UNL d   1      -4.872   2.362  -5.005  0.00  0.00     0.026 A 
ATOM      8  C6  UNL d   1      -4.467   2.239  -3.632  0.00  0.00    -0.082 A 
ATOM      9  C7  UNL d   1      -3.634   1.286  -2.999  0.00  0.00     0.045 A 
ENDROOT
TORSDOF 0
ENDMDL
