MODEL 1
REMARK minimizedAffinity 3.47394228
REMARK minimizedRMSD -1
REMARK  0 active torsions:
REMARK  status: ('A' for Active; 'I' for Inactive)
ROOT
ATOM      1  C   UNL d   1       0.711  -2.435   2.905  0.00  0.00    -0.002 A 
ATOM      2  C1  UNL d   1       0.519  -1.885   4.165  0.00  0.00     0.010 A 
ATOM      3  C2  UNL d   1       0.971  -0.596   4.453  0.00  0.00     0.041 A 
ATOM      4  C3  UNL d   1       1.623   0.139   3.443  0.00  0.00    -0.075 A 
ATOM      5  S   UNL d   1       2.260   1.736   3.568  0.00  0.00     0.015 SA
ATOM      6  C4  UNL d   1       2.801   1.727   1.951  0.00  0.00     0.022 A 
ATOM      7  C5  UNL d   1       2.511   0.541   1.318  0.00  0.00     0.026 A 
ATOM      8  C6  UNL d   1       1.827  -0.393   2.167  0.00  0.00    -0.082 A 
ATOM      9  C7  UNL d   1       1.358  -1.703   1.906  0.00  0.00     0.045 A 
ENDROOT
TORSDOF 0
ENDMDL
