MODEL 1
REMARK minimizedAffinity 4.95612764
REMARK minimizedRMSD -1
REMARK  0 active torsions:
REMARK  status: ('A' for Active; 'I' for Inactive)
ROOT
ATOM      1  C   UNL d   1       6.000   5.404  -5.394  0.00  0.00    -0.002 A 
ATOM      2  C1  UNL d   1       5.121   4.375  -5.702  0.00  0.00     0.010 A 
ATOM      3  C2  UNL d   1       4.204   3.917  -4.754  0.00  0.00     0.041 A 
ATOM      4  C3  UNL d   1       4.184   4.517  -3.479  0.00  0.00    -0.075 A 
ATOM      5  S   UNL d   1       3.147   4.121  -2.160  0.00  0.00     0.015 SA
ATOM      6  C4  UNL d   1       3.846   5.308  -1.157  0.00  0.00     0.022 A 
ATOM      7  C5  UNL d   1       4.848   5.999  -1.797  0.00  0.00     0.026 A 
ATOM      8  C6  UNL d   1       5.058   5.555  -3.146  0.00  0.00    -0.082 A 
ATOM      9  C7  UNL d   1       5.977   5.997  -4.129  0.00  0.00     0.045 A 
ENDROOT
TORSDOF 0
ENDMDL
