MODEL 1
REMARK minimizedAffinity 12.7158403
REMARK minimizedRMSD -1
REMARK  0 active torsions:
REMARK  status: ('A' for Active; 'I' for Inactive)
ROOT
ATOM      1  C   UNL d   1       1.147  -3.375   3.512  0.00  0.00    -0.002 A 
ATOM      2  C1  UNL d   1       0.867  -2.514   4.564  0.00  0.00     0.010 A 
ATOM      3  C2  UNL d   1       1.049  -1.137   4.422  0.00  0.00     0.041 A 
ATOM      4  C3  UNL d   1       1.519  -0.634   3.193  0.00  0.00    -0.075 A 
ATOM      5  S   UNL d   1       1.815   1.015   2.789  0.00  0.00     0.015 SA
ATOM      6  C4  UNL d   1       2.319   0.617   1.210  0.00  0.00     0.022 A 
ATOM      7  C5  UNL d   1       2.268  -0.738   0.980  0.00  0.00     0.026 A 
ATOM      8  C6  UNL d   1       1.806  -1.481   2.118  0.00  0.00    -0.082 A 
ATOM      9  C7  UNL d   1       1.612  -2.873   2.294  0.00  0.00     0.045 A 
ENDROOT
TORSDOF 0
ENDMDL
