MODEL 1
REMARK minimizedAffinity 8.05343723
REMARK minimizedRMSD -1
REMARK  0 active torsions:
REMARK  status: ('A' for Active; 'I' for Inactive)
ROOT
ATOM      1  N1  IND d   1      -1.719  -2.217   0.772  0.00  0.00    -0.196 N 
ATOM      2  C2  IND d   1      -0.414  -2.225   1.182  0.00  0.00     0.054 A 
ATOM      3  C3  IND d   1       0.399  -2.556   0.154  0.00  0.00    -0.031 A 
ATOM      4  C4  IND d   1      -0.185  -3.026  -2.309  0.00  0.00     0.051 A 
ATOM      5  C5  IND d   1      -1.248  -3.172  -3.154  0.00  0.00    -0.031 A 
ATOM      6  C6  IND d   1      -2.549  -3.002  -2.726  0.00  0.00     0.015 A 
ATOM      7  C7  IND d   1      -2.836  -2.666  -1.433  0.00  0.00    -0.016 A 
ATOM      8  C8  IND d   1      -1.759  -2.523  -0.570  0.00  0.00    -0.047 A 
ATOM      9  C9  IND d   1      -0.439  -2.736  -0.989  0.00  0.00    -0.096 A 
ATOM     10  HN1 IND d   1      -2.400  -2.049   1.270  0.00  0.00     0.298 HD
ENDROOT
TORSDOF 0
ENDMDL
