MODEL 1
REMARK minimizedAffinity 14.0332136
REMARK minimizedRMSD -1
REMARK  0 active torsions:
REMARK  status: ('A' for Active; 'I' for Inactive)
ROOT
ATOM      1  N1  IND d   1       0.008  -2.964   1.978  0.00  0.00    -0.196 N 
ATOM      2  C2  IND d   1      -0.809  -2.158   1.236  0.00  0.00     0.054 A 
ATOM      3  C3  IND d   1      -0.435  -2.179  -0.064  0.00  0.00    -0.031 A 
ATOM      4  C4  IND d   1       1.424  -3.541  -1.209  0.00  0.00     0.051 A 
ATOM      5  C5  IND d   1       2.460  -4.391  -0.939  0.00  0.00    -0.031 A 
ATOM      6  C6  IND d   1       2.735  -4.820   0.344  0.00  0.00     0.015 A 
ATOM      7  C7  IND d   1       1.974  -4.421   1.407  0.00  0.00    -0.016 A 
ATOM      8  C8  IND d   1       0.926  -3.553   1.136  0.00  0.00    -0.047 A 
ATOM      9  C9  IND d   1       0.668  -3.081  -0.157  0.00  0.00    -0.096 A 
ATOM     10  HN1 IND d   1      -0.042  -3.083   2.828  0.00  0.00     0.298 HD
ENDROOT
TORSDOF 0
ENDMDL
