MODEL 1
REMARK minimizedAffinity 6.0206933
REMARK minimizedRMSD -1
REMARK  0 active torsions:
REMARK  status: ('A' for Active; 'I' for Inactive)
ROOT
ATOM      1  N1  IND d   1       3.088   3.201  -0.425  0.00  0.00    -0.196 N 
ATOM      2  C2  IND d   1       1.947   3.880  -0.751  0.00  0.00     0.054 A 
ATOM      3  C3  IND d   1       0.860   3.220  -0.291  0.00  0.00    -0.031 A 
ATOM      4  C4  IND d   1       0.727   1.063   1.107  0.00  0.00     0.051 A 
ATOM      5  C5  IND d   1       1.503   0.062   1.620  0.00  0.00    -0.031 A 
ATOM      6  C6  IND d   1       2.876   0.058   1.478  0.00  0.00     0.015 A 
ATOM      7  C7  IND d   1       3.527   1.065   0.823  0.00  0.00    -0.016 A 
ATOM      8  C8  IND d   1       2.741   2.079   0.294  0.00  0.00    -0.047 A 
ATOM      9  C9  IND d   1       1.344   2.067   0.399  0.00  0.00    -0.096 A 
ATOM     10  HN1 IND d   1       3.889   3.436  -0.634  0.00  0.00     0.298 HD
ENDROOT
TORSDOF 0
ENDMDL
