MODEL 1
REMARK minimizedAffinity -1.8389926
REMARK minimizedRMSD -1
REMARK  0 active torsions:
REMARK  status: ('A' for Active; 'I' for Inactive)
ROOT
ATOM      1  N1  IND d   1       0.315   3.487  -0.942  0.00  0.00    -0.196 N 
ATOM      2  C2  IND d   1      -0.899   3.319  -0.337  0.00  0.00     0.054 A 
ATOM      3  C3  IND d   1      -0.814   2.390   0.640  0.00  0.00    -0.031 A 
ATOM      4  C4  IND d   1       1.242   1.091   1.487  0.00  0.00     0.051 A 
ATOM      5  C5  IND d   1       2.566   0.879   1.222  0.00  0.00    -0.031 A 
ATOM      6  C6  IND d   1       3.221   1.540   0.204  0.00  0.00     0.015 A 
ATOM      7  C7  IND d   1       2.576   2.451  -0.584  0.00  0.00    -0.016 A 
ATOM      8  C8  IND d   1       1.230   2.664  -0.323  0.00  0.00    -0.047 A 
ATOM      9  C9  IND d   1       0.550   1.965   0.682  0.00  0.00    -0.096 A 
ATOM     10  HN1 IND d   1       0.479   4.017  -1.599  0.00  0.00     0.298 HD
ENDROOT
TORSDOF 0
ENDMDL
