MODEL 1
REMARK minimizedAffinity 1.64993668
REMARK minimizedRMSD -1
REMARK  0 active torsions:
REMARK  status: ('A' for Active; 'I' for Inactive)
ROOT
ATOM      1  N1  IND d   1       2.737   2.670  -1.051  0.00  0.00    -0.196 N 
ATOM      2  C2  IND d   1       1.849   3.525  -0.459  0.00  0.00     0.054 A 
ATOM      3  C3  IND d   1       1.520   3.081   0.775  0.00  0.00    -0.031 A 
ATOM      4  C4  IND d   1       2.396   1.031   2.063  0.00  0.00     0.051 A 
ATOM      5  C5  IND d   1       3.193  -0.070   1.922  0.00  0.00    -0.031 A 
ATOM      6  C6  IND d   1       3.895  -0.318   0.760  0.00  0.00     0.015 A 
ATOM      7  C7  IND d   1       3.835   0.536  -0.305  0.00  0.00    -0.016 A 
ATOM      8  C8  IND d   1       3.021   1.652  -0.167  0.00  0.00    -0.047 A 
ATOM      9  C9  IND d   1       2.273   1.886   0.994  0.00  0.00    -0.096 A 
ATOM     10  HN1 IND d   1       3.064   2.755  -1.842  0.00  0.00     0.298 HD
ENDROOT
TORSDOF 0
ENDMDL
