MODEL 1
REMARK minimizedAffinity 2.09550118
REMARK minimizedRMSD -1
REMARK  0 active torsions:
REMARK  status: ('A' for Active; 'I' for Inactive)
ROOT
ATOM      1  N1  IND d   1       1.275  -4.446  -1.128  0.00  0.00    -0.196 N 
ATOM      2  C2  IND d   1       1.984  -3.278  -1.182  0.00  0.00     0.054 A 
ATOM      3  C3  IND d   1       1.155  -2.235  -1.412  0.00  0.00    -0.031 A 
ATOM      4  C4  IND d   1      -1.410  -2.202  -1.633  0.00  0.00     0.051 A 
ATOM      5  C5  IND d   1      -2.497  -3.029  -1.691  0.00  0.00    -0.031 A 
ATOM      6  C6  IND d   1      -2.380  -4.398  -1.559  0.00  0.00     0.015 A 
ATOM      7  C7  IND d   1      -1.167  -4.992  -1.351  0.00  0.00    -0.016 A 
ATOM      8  C8  IND d   1      -0.061  -4.156  -1.299  0.00  0.00    -0.047 A 
ATOM      9  C9  IND d   1      -0.168  -2.771  -1.475  0.00  0.00    -0.096 A 
ATOM     10  HN1 IND d   1       1.608  -5.229  -1.008  0.00  0.00     0.298 HD
ENDROOT
TORSDOF 0
ENDMDL
