MODEL 1
REMARK minimizedAffinity 10.5152493
REMARK minimizedRMSD -1
REMARK  0 active torsions:
REMARK  status: ('A' for Active; 'I' for Inactive)
ROOT
ATOM      1  N1  IND d   1      -3.190  -0.321  -3.842  0.00  0.00    -0.196 N 
ATOM      2  C2  IND d   1      -4.519  -0.572  -4.043  0.00  0.00     0.054 A 
ATOM      3  C3  IND d   1      -4.847  -1.786  -3.548  0.00  0.00    -0.031 A 
ATOM      4  C4  IND d   1      -3.388  -3.485  -2.277  0.00  0.00     0.051 A 
ATOM      5  C5  IND d   1      -2.100  -3.716  -1.883  0.00  0.00    -0.031 A 
ATOM      6  C6  IND d   1      -1.090  -2.808  -2.124  0.00  0.00     0.015 A 
ATOM      7  C7  IND d   1      -1.333  -1.624  -2.761  0.00  0.00    -0.016 A 
ATOM      8  C8  IND d   1      -2.638  -1.389  -3.169  0.00  0.00    -0.047 A 
ATOM      9  C9  IND d   1      -3.660  -2.326  -2.965  0.00  0.00    -0.096 A 
ATOM     10  HN1 IND d   1      -2.769   0.386  -4.093  0.00  0.00     0.298 HD
ENDROOT
TORSDOF 0
ENDMDL
