MODEL 1
REMARK minimizedAffinity -1.84225821
REMARK minimizedRMSD -1
REMARK  0 active torsions:
REMARK  status: ('A' for Active; 'I' for Inactive)
ROOT
ATOM      1  N1  IND d   1       0.390  -2.834   3.528  0.00  0.00    -0.196 N 
ATOM      2  C2  IND d   1       1.012  -2.672   4.734  0.00  0.00     0.054 A 
ATOM      3  C3  IND d   1       1.741  -1.533   4.739  0.00  0.00    -0.031 A 
ATOM      4  C4  IND d   1       1.974   0.266   2.912  0.00  0.00     0.051 A 
ATOM      5  C5  IND d   1       1.622   0.542   1.621  0.00  0.00    -0.031 A 
ATOM      6  C6  IND d   1       0.823  -0.309   0.885  0.00  0.00     0.015 A 
ATOM      7  C7  IND d   1       0.335  -1.468   1.419  0.00  0.00    -0.016 A 
ATOM      8  C8  IND d   1       0.696  -1.755   2.728  0.00  0.00    -0.047 A 
ATOM      9  C9  IND d   1       1.541  -0.915   3.466  0.00  0.00    -0.096 A 
ATOM     10  HN1 IND d   1      -0.108  -3.499   3.306  0.00  0.00     0.298 HD
ENDROOT
TORSDOF 0
ENDMDL
