MODEL 1
REMARK minimizedAffinity 6.68118382
REMARK minimizedRMSD -1
REMARK  0 active torsions:
REMARK  status: ('A' for Active; 'I' for Inactive)
ROOT
ATOM      1  N1  IND d   1       2.213   0.796   2.300  0.00  0.00    -0.196 N 
ATOM      2  C2  IND d   1       2.092   1.015   0.956  0.00  0.00     0.054 A 
ATOM      3  C3  IND d   1       1.529  -0.056   0.353  0.00  0.00    -0.031 A 
ATOM      4  C4  IND d   1       0.636  -2.236   1.392  0.00  0.00     0.051 A 
ATOM      5  C5  IND d   1       0.558  -2.911   2.578  0.00  0.00    -0.031 A 
ATOM      6  C6  IND d   1       1.035  -2.373   3.756  0.00  0.00     0.015 A 
ATOM      7  C7  IND d   1       1.599  -1.130   3.794  0.00  0.00    -0.016 A 
ATOM      8  C8  IND d   1       1.687  -0.444   2.591  0.00  0.00    -0.047 A 
ATOM      9  C9  IND d   1       1.244  -1.002   1.385  0.00  0.00    -0.096 A 
ATOM     10  HN1 IND d   1       2.559   1.340   2.869  0.00  0.00     0.298 HD
ENDROOT
TORSDOF 0
ENDMDL
