MODEL 1
REMARK minimizedAffinity 2.71485519
REMARK minimizedRMSD -1
REMARK  0 active torsions:
REMARK  status: ('A' for Active; 'I' for Inactive)
ROOT
ATOM      1  N1  IND d   1       2.742  -1.139   1.605  0.00  0.00    -0.196 N 
ATOM      2  C2  IND d   1       1.415  -0.810   1.582  0.00  0.00     0.054 A 
ATOM      3  C3  IND d   1       0.767  -1.397   2.614  0.00  0.00    -0.031 A 
ATOM      4  C4  IND d   1       1.705  -2.853   4.518  0.00  0.00     0.051 A 
ATOM      5  C5  IND d   1       2.853  -3.458   4.946  0.00  0.00    -0.031 A 
ATOM      6  C6  IND d   1       4.048  -3.315   4.271  0.00  0.00     0.015 A 
ATOM      7  C7  IND d   1       4.142  -2.550   3.143  0.00  0.00    -0.016 A 
ATOM      8  C8  IND d   1       2.976  -1.940   2.701  0.00  0.00    -0.047 A 
ATOM      9  C9  IND d   1       1.752  -2.116   3.359  0.00  0.00    -0.096 A 
ATOM     10  HN1 IND d   1       3.331  -0.887   1.032  0.00  0.00     0.298 HD
ENDROOT
TORSDOF 0
ENDMDL
