MODEL 1
REMARK minimizedAffinity -3.34058285
REMARK minimizedRMSD -1
REMARK  0 active torsions:
REMARK  status: ('A' for Active; 'I' for Inactive)
ROOT
ATOM      1  N1  IND d   1       1.231   0.701   1.360  0.00  0.00    -0.196 N 
ATOM      2  C2  IND d   1       0.651  -0.344   0.696  0.00  0.00     0.054 A 
ATOM      3  C3  IND d   1       0.495  -1.400   1.526  0.00  0.00    -0.031 A 
ATOM      4  C4  IND d   1       1.027  -1.598   4.037  0.00  0.00     0.051 A 
ATOM      5  C5  IND d   1       1.602  -0.917   5.074  0.00  0.00    -0.031 A 
ATOM      6  C6  IND d   1       2.090   0.365   4.923  0.00  0.00     0.015 A 
ATOM      7  C7  IND d   1       2.010   1.021   3.727  0.00  0.00    -0.016 A 
ATOM      8  C8  IND d   1       1.434   0.330   2.671  0.00  0.00    -0.047 A 
ATOM      9  C9  IND d   1       0.975  -0.987   2.807  0.00  0.00    -0.096 A 
ATOM     10  HN1 IND d   1       1.434   1.463   1.016  0.00  0.00     0.298 HD
ENDROOT
TORSDOF 0
ENDMDL
