MODEL 1
REMARK minimizedAffinity -0.940547585
REMARK minimizedRMSD -1
REMARK  0 active torsions:
REMARK  status: ('A' for Active; 'I' for Inactive)
ROOT
ATOM      1  N1  IND d   1       0.816  -1.601   2.873  0.00  0.00    -0.196 N 
ATOM      2  C2  IND d   1       1.779  -1.417   3.825  0.00  0.00     0.054 A 
ATOM      3  C3  IND d   1       2.544  -0.345   3.518  0.00  0.00    -0.031 A 
ATOM      4  C4  IND d   1       2.330   1.310   1.558  0.00  0.00     0.051 A 
ATOM      5  C5  IND d   1       1.625   1.533   0.409  0.00  0.00    -0.031 A 
ATOM      6  C6  IND d   1       0.592   0.707   0.015  0.00  0.00     0.015 A 
ATOM      7  C7  IND d   1       0.216  -0.371   0.766  0.00  0.00    -0.016 A 
ATOM      8  C8  IND d   1       0.934  -0.604   1.930  0.00  0.00    -0.047 A 
ATOM      9  C9  IND d   1       2.011   0.206   2.313  0.00  0.00    -0.096 A 
ATOM     10  HN1 IND d   1       0.234  -2.234   2.865  0.00  0.00     0.298 HD
ENDROOT
TORSDOF 0
ENDMDL
