MODEL 1
REMARK minimizedAffinity -2.71036792
REMARK minimizedRMSD -1
REMARK  2 active torsions:
REMARK  status: ('A' for Active; 'I' for Inactive)
REMARK    1  A    between atoms: C1_2  and  C2_3 
REMARK    2  A    between atoms: C2_3  and  C3_4 
ROOT
ATOM      1  C3  UNL d   1       0.432   0.069   0.180  0.00  0.00    -0.075 A 
ATOM      2  C4  UNL d   1      -0.019   0.590  -1.041  0.00  0.00     0.002 A 
ATOM      3  C5  UNL d   1      -1.296   0.285  -1.513  0.00  0.00     0.002 A 
ATOM      4  C6  UNL d   1      -2.132  -0.552  -0.777  0.00  0.00    -0.004 A 
ATOM      5  C7  UNL d   1      -1.688  -1.089   0.429  0.00  0.00     0.002 A 
ATOM      6  C8  UNL d   1      -0.412  -0.782   0.906  0.00  0.00     0.002 A 
ENDROOT
BRANCH   1   7
ATOM      7  C2  UNL d   1       1.802   0.419   0.711  0.00  0.00     0.056 C 
BRANCH   7   8
ATOM      8  C1  UNL d   1       1.804   1.576   1.716  0.00  0.00     0.007 C 
ATOM      9  C   UNL d   1       2.558   2.802   1.219  0.00  0.00     0.009 C 
ENDBRANCH   7   8
ENDBRANCH   1   7
TORSDOF 2
ENDMDL
