MODEL 1
REMARK minimizedAffinity -2.53344822
REMARK minimizedRMSD -1
REMARK  2 active torsions:
REMARK  status: ('A' for Active; 'I' for Inactive)
REMARK    1  A    between atoms: C1_2  and  C2_3 
REMARK    2  A    between atoms: C2_3  and  C3_4 
ROOT
ATOM      1  C3  UNL d   1       0.633   0.333  -0.058  0.00  0.00    -0.075 A 
ATOM      2  C4  UNL d   1       0.059  -0.308   1.049  0.00  0.00     0.002 A 
ATOM      3  C5  UNL d   1       0.334   0.132   2.344  0.00  0.00     0.002 A 
ATOM      4  C6  UNL d   1       1.192   1.210   2.548  0.00  0.00    -0.004 A 
ATOM      5  C7  UNL d   1       1.781   1.844   1.456  0.00  0.00     0.002 A 
ATOM      6  C8  UNL d   1       1.504   1.408   0.159  0.00  0.00     0.002 A 
ENDROOT
BRANCH   1   7
ATOM      7  C2  UNL d   1       0.316  -0.121  -1.463  0.00  0.00     0.056 C 
BRANCH   7   8
ATOM      8  C1  UNL d   1      -1.008   0.423  -2.011  0.00  0.00     0.007 C 
ATOM      9  C   UNL d   1      -2.166  -0.556  -1.863  0.00  0.00     0.009 C 
ENDBRANCH   7   8
ENDBRANCH   1   7
TORSDOF 2
ENDMDL
