MODEL 1
REMARK minimizedAffinity -1.30413377
REMARK minimizedRMSD -1
REMARK  2 active torsions:
REMARK  status: ('A' for Active; 'I' for Inactive)
REMARK    1  A    between atoms: C1_2  and  C2_3 
REMARK    2  A    between atoms: C2_3  and  C3_4 
ROOT
ATOM      1  C3  UNL d   1       0.225   0.238  -0.400  0.00  0.00    -0.075 A 
ATOM      2  C4  UNL d   1       0.033  -0.141  -1.737  0.00  0.00     0.002 A 
ATOM      3  C5  UNL d   1      -1.234  -0.075  -2.317  0.00  0.00     0.002 A 
ATOM      4  C6  UNL d   1      -2.324   0.360  -1.567  0.00  0.00    -0.004 A 
ATOM      5  C7  UNL d   1      -2.148   0.724  -0.234  0.00  0.00     0.002 A 
ATOM      6  C8  UNL d   1      -0.881   0.663   0.348  0.00  0.00     0.002 A 
ENDROOT
BRANCH   1   7
ATOM      7  C2  UNL d   1       1.599   0.197   0.225  0.00  0.00     0.056 C 
BRANCH   7   8
ATOM      8  C1  UNL d   1       2.483   1.397  -0.131  0.00  0.00     0.007 C 
ATOM      9  C   UNL d   1       2.478   2.483   0.936  0.00  0.00     0.009 C 
ENDBRANCH   7   8
ENDBRANCH   1   7
TORSDOF 2
ENDMDL
