MODEL 1
REMARK minimizedAffinity -2.46550846
REMARK minimizedRMSD -1
REMARK  2 active torsions:
REMARK  status: ('A' for Active; 'I' for Inactive)
REMARK    1  A    between atoms: C1_2  and  C2_3 
REMARK    2  A    between atoms: C2_3  and  C3_4 
ROOT
ATOM      1  C3  UNL d   1       1.750   0.682   0.039  0.00  0.00    -0.075 A 
ATOM      2  C4  UNL d   1       0.791   1.027  -0.924  0.00  0.00     0.002 A 
ATOM      3  C5  UNL d   1      -0.391   0.295  -1.041  0.00  0.00     0.002 A 
ATOM      4  C6  UNL d   1      -0.624  -0.795  -0.205  0.00  0.00    -0.004 A 
ATOM      5  C7  UNL d   1       0.329  -1.156   0.745  0.00  0.00     0.002 A 
ATOM      6  C8  UNL d   1       1.510  -0.423   0.867  0.00  0.00     0.002 A 
ENDROOT
BRANCH   1   7
ATOM      7  C2  UNL d   1       3.018   1.488   0.190  0.00  0.00     0.056 C 
BRANCH   7   8
ATOM      8  C1  UNL d   1       2.792   2.917   0.696  0.00  0.00     0.007 C 
ATOM      9  C   UNL d   1       2.841   3.031   2.214  0.00  0.00     0.009 C 
ENDBRANCH   7   8
ENDBRANCH   1   7
TORSDOF 2
ENDMDL
