MODEL 1
REMARK minimizedAffinity -3.33781385
REMARK minimizedRMSD -1
REMARK  2 active torsions:
REMARK  status: ('A' for Active; 'I' for Inactive)
REMARK    1  A    between atoms: C1_2  and  C2_3 
REMARK    2  A    between atoms: C2_3  and  C3_4 
ROOT
ATOM      1  C3  UNL d   1       1.801   1.047   0.694  0.00  0.00    -0.075 A 
ATOM      2  C4  UNL d   1       1.569   1.458   2.015  0.00  0.00     0.002 A 
ATOM      3  C5  UNL d   1       2.013   2.705   2.457  0.00  0.00     0.002 A 
ATOM      4  C6  UNL d   1       2.702   3.550   1.590  0.00  0.00    -0.004 A 
ATOM      5  C7  UNL d   1       2.952   3.145   0.280  0.00  0.00     0.002 A 
ATOM      6  C8  UNL d   1       2.505   1.900  -0.166  0.00  0.00     0.002 A 
ENDROOT
BRANCH   1   7
ATOM      7  C2  UNL d   1       1.297  -0.288   0.201  0.00  0.00     0.056 C 
BRANCH   7   8
ATOM      8  C1  UNL d   1      -0.191  -0.297  -0.166  0.00  0.00     0.007 C 
ATOM      9  C   UNL d   1      -0.459   0.150  -1.597  0.00  0.00     0.009 C 
ENDBRANCH   7   8
ENDBRANCH   1   7
TORSDOF 2
ENDMDL
