MODEL 1
REMARK minimizedAffinity 1.18674362
REMARK minimizedRMSD -1
REMARK  2 active torsions:
REMARK  status: ('A' for Active; 'I' for Inactive)
REMARK    1  A    between atoms: C1_2  and  C2_3 
REMARK    2  A    between atoms: C2_3  and  C3_4 
ROOT
ATOM      1  C3  UNL d   1       3.600   3.491  -0.486  0.00  0.00    -0.075 A 
ATOM      2  C4  UNL d   1       3.838   2.169  -0.887  0.00  0.00     0.002 A 
ATOM      3  C5  UNL d   1       4.731   1.892  -1.923  0.00  0.00     0.002 A 
ATOM      4  C6  UNL d   1       5.388   2.933  -2.577  0.00  0.00    -0.004 A 
ATOM      5  C7  UNL d   1       5.147   4.251  -2.197  0.00  0.00     0.002 A 
ATOM      6  C8  UNL d   1       4.257   4.531  -1.158  0.00  0.00     0.002 A 
ENDROOT
BRANCH   1   7
ATOM      7  C2  UNL d   1       2.658   3.795   0.654  0.00  0.00     0.056 C 
BRANCH   7   8
ATOM      8  C1  UNL d   1       2.676   2.749   1.774  0.00  0.00     0.007 C 
ATOM      9  C   UNL d   1       2.937   3.348   3.150  0.00  0.00     0.009 C 
ENDBRANCH   7   8
ENDBRANCH   1   7
TORSDOF 2
ENDMDL
