MODEL 1
REMARK minimizedAffinity 0.338644773
REMARK minimizedRMSD -1
REMARK  2 active torsions:
REMARK  status: ('A' for Active; 'I' for Inactive)
REMARK    1  A    between atoms: C1_2  and  C2_3 
REMARK    2  A    between atoms: C2_3  and  C3_4 
ROOT
ATOM      1  C3  UNL d   1      -1.960   0.457  -0.010  0.00  0.00    -0.075 A 
ATOM      2  C4  UNL d   1      -2.686  -0.382  -0.867  0.00  0.00     0.002 A 
ATOM      3  C5  UNL d   1      -2.269  -0.581  -2.184  0.00  0.00     0.002 A 
ATOM      4  C6  UNL d   1      -1.130   0.062  -2.662  0.00  0.00    -0.004 A 
ATOM      5  C7  UNL d   1      -0.411   0.911  -1.824  0.00  0.00     0.002 A 
ATOM      6  C8  UNL d   1      -0.823   1.109  -0.505  0.00  0.00     0.002 A 
ENDROOT
BRANCH   1   7
ATOM      7  C2  UNL d   1      -2.389   0.654   1.424  0.00  0.00     0.056 C 
BRANCH   7   8
ATOM      8  C1  UNL d   1      -1.448   0.012   2.450  0.00  0.00     0.007 C 
ATOM      9  C   UNL d   1      -2.094  -0.185   3.815  0.00  0.00     0.009 C 
ENDBRANCH   7   8
ENDBRANCH   1   7
TORSDOF 2
ENDMDL
