MODEL 1
REMARK minimizedAffinity -5.34505749
REMARK minimizedRMSD -1
REMARK  2 active torsions:
REMARK  status: ('A' for Active; 'I' for Inactive)
REMARK    1  A    between atoms: C1_2  and  C2_3 
REMARK    2  A    between atoms: C2_3  and  C3_4 
ROOT
ATOM      1  C3  UNL d   1       0.099  -0.943   0.536  0.00  0.00    -0.075 A 
ATOM      2  C4  UNL d   1      -0.502  -0.387  -0.603  0.00  0.00     0.002 A 
ATOM      3  C5  UNL d   1      -1.673  -0.938  -1.126  0.00  0.00     0.002 A 
ATOM      4  C6  UNL d   1      -2.250  -2.054  -0.525  0.00  0.00    -0.004 A 
ATOM      5  C7  UNL d   1      -1.652  -2.625   0.596  0.00  0.00     0.002 A 
ATOM      6  C8  UNL d   1      -0.483  -2.073   1.125  0.00  0.00     0.002 A 
ENDROOT
BRANCH   1   7
ATOM      7  C2  UNL d   1       1.349  -0.334   1.125  0.00  0.00     0.056 C 
BRANCH   7   8
ATOM      8  C1  UNL d   1       1.979   0.760   0.256  0.00  0.00     0.007 C 
ATOM      9  C   UNL d   1       2.625   1.874   1.068  0.00  0.00     0.009 C 
ENDBRANCH   7   8
ENDBRANCH   1   7
TORSDOF 2
ENDMDL
