MODEL 1
REMARK minimizedAffinity -2.69970131
REMARK minimizedRMSD -1
REMARK  2 active torsions:
REMARK  status: ('A' for Active; 'I' for Inactive)
REMARK    1  A    between atoms: C1_2  and  C2_3 
REMARK    2  A    between atoms: C2_3  and  C3_4 
ROOT
ATOM      1  C3  UNL d   1       0.438   0.295  -0.156  0.00  0.00    -0.075 A 
ATOM      2  C4  UNL d   1       0.050   1.065  -1.263  0.00  0.00     0.002 A 
ATOM      3  C5  UNL d   1      -1.151   0.803  -1.922  0.00  0.00     0.002 A 
ATOM      4  C6  UNL d   1      -1.973  -0.237  -1.492  0.00  0.00    -0.004 A 
ATOM      5  C7  UNL d   1      -1.590  -1.019  -0.405  0.00  0.00     0.002 A 
ATOM      6  C8  UNL d   1      -0.391  -0.756   0.260  0.00  0.00     0.002 A 
ENDROOT
BRANCH   1   7
ATOM      7  C2  UNL d   1       1.722   0.593   0.580  0.00  0.00     0.056 C 
BRANCH   7   8
ATOM      8  C1  UNL d   1       2.326   1.962   0.252  0.00  0.00     0.007 C 
ATOM      9  C   UNL d   1       2.464   2.865   1.471  0.00  0.00     0.009 C 
ENDBRANCH   7   8
ENDBRANCH   1   7
TORSDOF 2
ENDMDL
