MODEL 1
REMARK minimizedAffinity 1.57990336
REMARK minimizedRMSD -1
REMARK  2 active torsions:
REMARK  status: ('A' for Active; 'I' for Inactive)
REMARK    1  A    between atoms: C1_2  and  C2_3 
REMARK    2  A    between atoms: C2_3  and  C3_4 
ROOT
ATOM      1  C3  UNL d   1       0.655   0.169  -0.199  0.00  0.00    -0.075 A 
ATOM      2  C4  UNL d   1      -0.123  -0.720   0.557  0.00  0.00     0.002 A 
ATOM      3  C5  UNL d   1      -1.380  -1.123   0.104  0.00  0.00     0.002 A 
ATOM      4  C6  UNL d   1      -1.878  -0.636  -1.102  0.00  0.00    -0.004 A 
ATOM      5  C7  UNL d   1      -1.121   0.260  -1.853  0.00  0.00     0.002 A 
ATOM      6  C8  UNL d   1       0.138   0.662  -1.405  0.00  0.00     0.002 A 
ENDROOT
BRANCH   1   7
ATOM      7  C2  UNL d   1       2.028   0.586   0.271  0.00  0.00     0.056 C 
BRANCH   7   8
ATOM      8  C1  UNL d   1       2.529   1.894  -0.351  0.00  0.00     0.007 C 
ATOM      9  C   UNL d   1       2.588   3.047   0.643  0.00  0.00     0.009 C 
ENDBRANCH   7   8
ENDBRANCH   1   7
TORSDOF 2
ENDMDL
