MODEL 1
REMARK minimizedAffinity -4.37922907
REMARK minimizedRMSD -1
REMARK  2 active torsions:
REMARK  status: ('A' for Active; 'I' for Inactive)
REMARK    1  A    between atoms: C1_2  and  C2_3 
REMARK    2  A    between atoms: C2_3  and  C3_4 
ROOT
ATOM      1  C3  UNL d   1       1.033   1.170   0.449  0.00  0.00    -0.075 A 
ATOM      2  C4  UNL d   1       0.971   1.677   1.755  0.00  0.00     0.002 A 
ATOM      3  C5  UNL d   1       1.853   2.675   2.169  0.00  0.00     0.002 A 
ATOM      4  C6  UNL d   1       2.813   3.171   1.289  0.00  0.00    -0.004 A 
ATOM      5  C7  UNL d   1       2.894   2.663  -0.006  0.00  0.00     0.002 A 
ATOM      6  C8  UNL d   1       2.010   1.667  -0.425  0.00  0.00     0.002 A 
ENDROOT
BRANCH   1   7
ATOM      7  C2  UNL d   1       0.062   0.110  -0.016  0.00  0.00     0.056 C 
BRANCH   7   8
ATOM      8  C1  UNL d   1      -0.849   0.559  -1.163  0.00  0.00     0.007 C 
ATOM      9  C   UNL d   1      -2.221  -0.101  -1.133  0.00  0.00     0.009 C 
ENDBRANCH   7   8
ENDBRANCH   1   7
TORSDOF 2
ENDMDL
