MODEL 1
REMARK minimizedAffinity -0.397013009
REMARK minimizedRMSD -1
REMARK  2 active torsions:
REMARK  status: ('A' for Active; 'I' for Inactive)
REMARK    1  A    between atoms: C1_2  and  C2_3 
REMARK    2  A    between atoms: C2_3  and  C3_4 
ROOT
ATOM      1  C3  UNL d   1       1.587   0.390   0.106  0.00  0.00    -0.075 A 
ATOM      2  C4  UNL d   1       0.691   0.715  -0.923  0.00  0.00     0.002 A 
ATOM      3  C5  UNL d   1      -0.587   0.156  -0.953  0.00  0.00     0.002 A 
ATOM      4  C6  UNL d   1      -0.982  -0.740   0.038  0.00  0.00    -0.004 A 
ATOM      5  C7  UNL d   1      -0.095  -1.082   1.056  0.00  0.00     0.002 A 
ATOM      6  C8  UNL d   1       1.183  -0.521   1.091  0.00  0.00     0.002 A 
ENDROOT
BRANCH   1   7
ATOM      7  C2  UNL d   1       2.961   1.014   0.160  0.00  0.00     0.056 C 
BRANCH   7   8
ATOM      8  C1  UNL d   1       3.019   2.328   0.947  0.00  0.00     0.007 C 
ATOM      9  C   UNL d   1       2.927   2.130   2.454  0.00  0.00     0.009 C 
ENDBRANCH   7   8
ENDBRANCH   1   7
TORSDOF 2
ENDMDL
