MODEL 1
REMARK minimizedAffinity -3.08016515
REMARK minimizedRMSD -1
REMARK  0 active torsions:
REMARK  status: ('A' for Active; 'I' for Inactive)
ROOT
ATOM      1  C   UNL d   1       1.794  -1.126   2.445  0.00  0.00     0.023 A 
ATOM      2  C1  UNL d   1       0.607  -0.443   2.711  0.00  0.00     0.003 A 
ATOM      3  C2  UNL d   1      -0.202  -0.010   1.658  0.00  0.00     0.048 A 
ATOM      4  C3  UNL d   1       0.182  -0.264   0.342  0.00  0.00     0.023 A 
ATOM      5  C4  UNL d   1       1.368  -0.947   0.071  0.00  0.00     0.048 A 
ATOM      6  C5  UNL d   1       2.174  -1.378   1.127  0.00  0.00     0.003 A 
ATOM      7  I   UNL d   1      -1.021   0.380  -1.226  0.00  0.00    -0.146 I 
ENDROOT
TORSDOF 0
ENDMDL
