MODEL 1
REMARK minimizedAffinity -3.31201553
REMARK minimizedRMSD -1
REMARK  0 active torsions:
REMARK  status: ('A' for Active; 'I' for Inactive)
ROOT
ATOM      1  C   UNL d   1       0.029  -1.059   2.883  0.00  0.00     0.023 A 
ATOM      2  C1  UNL d   1       1.165  -1.029   2.074  0.00  0.00     0.003 A 
ATOM      3  C2  UNL d   1       1.057  -0.663   0.730  0.00  0.00     0.048 A 
ATOM      4  C3  UNL d   1      -0.189  -0.327   0.203  0.00  0.00     0.023 A 
ATOM      5  C4  UNL d   1      -1.328  -0.354   1.009  0.00  0.00     0.048 A 
ATOM      6  C5  UNL d   1      -1.216  -0.722   2.352  0.00  0.00     0.003 A 
ATOM      7  I   UNL d   1      -0.352   0.218  -1.796  0.00  0.00    -0.146 I 
ENDROOT
TORSDOF 0
ENDMDL
