MODEL 1
REMARK minimizedAffinity -3.28299069
REMARK minimizedRMSD -1
REMARK  0 active torsions:
REMARK  status: ('A' for Active; 'I' for Inactive)
ROOT
ATOM      1  C   UNL d   1      -0.239  -1.016   2.464  0.00  0.00     0.023 A 
ATOM      2  C1  UNL d   1      -1.359  -0.234   2.181  0.00  0.00     0.003 A 
ATOM      3  C2  UNL d   1      -1.401   0.531   1.014  0.00  0.00     0.048 A 
ATOM      4  C3  UNL d   1      -0.319   0.510   0.134  0.00  0.00     0.023 A 
ATOM      5  C4  UNL d   1       0.803  -0.272   0.413  0.00  0.00     0.048 A 
ATOM      6  C5  UNL d   1       0.841  -1.035   1.581  0.00  0.00     0.003 A 
ATOM      7  I   UNL d   1      -0.379   1.649  -1.604  0.00  0.00    -0.146 I 
ENDROOT
TORSDOF 0
ENDMDL
