MODEL 1
REMARK minimizedAffinity -5.48994255
REMARK minimizedRMSD -1
REMARK  0 active torsions:
REMARK  status: ('A' for Active; 'I' for Inactive)
ROOT
ATOM      1  C   UNL d   1       2.155  -1.591   2.382  0.00  0.00     0.023 A 
ATOM      2  C1  UNL d   1       2.510  -1.887   1.065  0.00  0.00     0.003 A 
ATOM      3  C2  UNL d   1       1.782  -1.343   0.005  0.00  0.00     0.048 A 
ATOM      4  C3  UNL d   1       0.701  -0.502   0.269  0.00  0.00     0.023 A 
ATOM      5  C4  UNL d   1       0.343  -0.202   1.584  0.00  0.00     0.048 A 
ATOM      6  C5  UNL d   1       1.073  -0.750   2.641  0.00  0.00     0.003 A 
ATOM      7  I   UNL d   1      -0.383   0.310  -1.307  0.00  0.00    -0.146 I 
ENDROOT
TORSDOF 0
ENDMDL
