MODEL 1
REMARK minimizedAffinity -3.19634604
REMARK minimizedRMSD -1
REMARK  0 active torsions:
REMARK  status: ('A' for Active; 'I' for Inactive)
ROOT
ATOM      1  C   UNL d   1       0.271   0.956  -2.568  0.00  0.00     0.023 A 
ATOM      2  C1  UNL d   1      -0.661   0.296  -1.766  0.00  0.00     0.003 A 
ATOM      3  C2  UNL d   1      -1.938   0.833  -1.592  0.00  0.00     0.048 A 
ATOM      4  C3  UNL d   1      -2.278   2.028  -2.224  0.00  0.00     0.023 A 
ATOM      5  C4  UNL d   1      -1.350   2.691  -3.029  0.00  0.00     0.048 A 
ATOM      6  C5  UNL d   1      -0.073   2.151  -3.199  0.00  0.00     0.003 A 
ATOM      7  I   UNL d   1      -4.179   2.828  -1.968  0.00  0.00    -0.146 I 
ENDROOT
TORSDOF 0
ENDMDL
