MODEL 1
REMARK minimizedAffinity -1.26719344
REMARK minimizedRMSD -1
REMARK  0 active torsions:
REMARK  status: ('A' for Active; 'I' for Inactive)
ROOT
ATOM      1  C   UNL d   1      -0.847  -1.205   2.548  0.00  0.00     0.023 A 
ATOM      2  C1  UNL d   1      -2.047  -1.105   1.845  0.00  0.00     0.003 A 
ATOM      3  C2  UNL d   1      -2.073  -0.497   0.588  0.00  0.00     0.048 A 
ATOM      4  C3  UNL d   1      -0.895   0.009   0.040  0.00  0.00     0.023 A 
ATOM      5  C4  UNL d   1       0.309  -0.089   0.740  0.00  0.00     0.048 A 
ATOM      6  C5  UNL d   1       0.330  -0.698   1.996  0.00  0.00     0.003 A 
ATOM      7  I   UNL d   1      -0.931   0.915  -1.830  0.00  0.00    -0.146 I 
ENDROOT
TORSDOF 0
ENDMDL
