MODEL 1
REMARK minimizedAffinity -3.88301206
REMARK minimizedRMSD -1
REMARK  0 active torsions:
REMARK  status: ('A' for Active; 'I' for Inactive)
ROOT
ATOM      1  C   UNL d   1       0.940  -0.604   2.709  0.00  0.00     0.023 A 
ATOM      2  C1  UNL d   1      -0.412  -0.535   2.372  0.00  0.00     0.003 A 
ATOM      3  C2  UNL d   1      -0.793  -0.172   1.078  0.00  0.00     0.048 A 
ATOM      4  C3  UNL d   1       0.184   0.119   0.126  0.00  0.00     0.023 A 
ATOM      5  C4  UNL d   1       1.538   0.050   0.459  0.00  0.00     0.048 A 
ATOM      6  C5  UNL d   1       1.914  -0.312   1.753  0.00  0.00     0.003 A 
ATOM      7  I   UNL d   1      -0.380   0.659  -1.800  0.00  0.00    -0.146 I 
ENDROOT
TORSDOF 0
ENDMDL
