MODEL 1
REMARK minimizedAffinity -4.39056778
REMARK minimizedRMSD -1
REMARK  0 active torsions:
REMARK  status: ('A' for Active; 'I' for Inactive)
ROOT
ATOM      1  C   UNL d   1       0.338  -0.732   3.034  0.00  0.00     0.023 A 
ATOM      2  C1  UNL d   1       1.189  -0.948   1.950  0.00  0.00     0.003 A 
ATOM      3  C2  UNL d   1       0.774  -0.616   0.659  0.00  0.00     0.048 A 
ATOM      4  C3  UNL d   1      -0.492  -0.066   0.459  0.00  0.00     0.023 A 
ATOM      5  C4  UNL d   1      -1.346   0.152   1.541  0.00  0.00     0.048 A 
ATOM      6  C5  UNL d   1      -0.928  -0.183   2.830  0.00  0.00     0.003 A 
ATOM      7  I   UNL d   1      -1.111   0.429  -1.462  0.00  0.00    -0.146 I 
ENDROOT
TORSDOF 0
ENDMDL
