MODEL 1
REMARK minimizedAffinity -6.34153366
REMARK minimizedRMSD -1
REMARK  1 active torsions:
REMARK  status: ('A' for Active; 'I' for Inactive)
REMARK    1  A    between atoms: C1_2  and  C2_3 
ROOT
ATOM      1  C2  UNL d   1       0.472   0.562   0.427  0.00  0.00    -0.073 A 
ATOM      2  C3  UNL d   1      -0.264   1.685   0.823  0.00  0.00    -0.002 A 
ATOM      3  C4  UNL d   1       0.390   2.851   1.222  0.00  0.00     0.004 A 
ATOM      4  C5  UNL d   1       1.783   2.909   1.225  0.00  0.00    -0.004 A 
ATOM      5  C6  UNL d   1       2.536   1.801   0.822  0.00  0.00    -0.075 A 
ATOM      6  C7  UNL d   1       4.036   1.847   0.820  0.00  0.00     0.076 C 
ATOM      7  C8  UNL d   1       1.872   0.633   0.424  0.00  0.00     0.001 A 
ENDROOT
BRANCH   1   8
ATOM      8  C1  UNL d   1      -0.230  -0.698  -0.011  0.00  0.00     0.053 C 
ATOM      9  C   UNL d   1      -1.403  -1.041   0.893  0.00  0.00     0.018 C 
ENDBRANCH   1   8
TORSDOF 1
ENDMDL
