MODEL 1
REMARK minimizedAffinity -6.39992619
REMARK minimizedRMSD -1
REMARK  1 active torsions:
REMARK  status: ('A' for Active; 'I' for Inactive)
REMARK    1  A    between atoms: C1_2  and  C2_3 
ROOT
ATOM      1  C2  UNL d   1       0.640  -0.055   0.065  0.00  0.00    -0.073 A 
ATOM      2  C3  UNL d   1       2.014  -0.257   0.241  0.00  0.00    -0.002 A 
ATOM      3  C4  UNL d   1       2.875   0.832   0.377  0.00  0.00     0.004 A 
ATOM      4  C5  UNL d   1       2.372   2.133   0.346  0.00  0.00    -0.004 A 
ATOM      5  C6  UNL d   1       1.001   2.355   0.183  0.00  0.00    -0.075 A 
ATOM      6  C7  UNL d   1       0.444   3.748   0.146  0.00  0.00     0.076 C 
ATOM      7  C8  UNL d   1       0.142   1.256   0.045  0.00  0.00     0.001 A 
ENDROOT
BRANCH   1   8
ATOM      8  C1  UNL d   1      -0.295  -1.228  -0.076  0.00  0.00     0.053 C 
ATOM      9  C   UNL d   1       0.385  -2.424  -0.724  0.00  0.00     0.018 C 
ENDBRANCH   1   8
TORSDOF 1
ENDMDL
