MODEL 1
REMARK minimizedAffinity -2.7604804
REMARK minimizedRMSD -1
REMARK  1 active torsions:
REMARK  status: ('A' for Active; 'I' for Inactive)
REMARK    1  A    between atoms: C1_2  and  C2_3 
ROOT
ATOM      1  C2  UNL d   1      -0.136   1.029  -0.110  0.00  0.00    -0.073 A 
ATOM      2  C3  UNL d   1       0.945   1.741  -0.643  0.00  0.00    -0.002 A 
ATOM      3  C4  UNL d   1       1.347   2.947  -0.068  0.00  0.00     0.004 A 
ATOM      4  C5  UNL d   1       0.679   3.450   1.048  0.00  0.00    -0.004 A 
ATOM      5  C6  UNL d   1      -0.396   2.748   1.603  0.00  0.00    -0.075 A 
ATOM      6  C7  UNL d   1      -1.127   3.277   2.802  0.00  0.00     0.076 C 
ATOM      7  C8  UNL d   1      -0.796   1.539   1.018  0.00  0.00     0.001 A 
ENDROOT
BRANCH   1   8
ATOM      8  C1  UNL d   1      -0.571  -0.277  -0.723  0.00  0.00     0.053 C 
ATOM      9  C   UNL d   1      -0.179  -1.468   0.136  0.00  0.00     0.018 C 
ENDBRANCH   1   8
TORSDOF 1
ENDMDL
