MODEL 1
REMARK minimizedAffinity -5.44239378
REMARK minimizedRMSD -1
REMARK  1 active torsions:
REMARK  status: ('A' for Active; 'I' for Inactive)
REMARK    1  A    between atoms: C1_2  and  C2_3 
ROOT
ATOM      1  C2  UNL d   1       0.029   0.240   0.183  0.00  0.00    -0.073 A 
ATOM      2  C3  UNL d   1      -1.019   1.151   0.007  0.00  0.00    -0.002 A 
ATOM      3  C4  UNL d   1      -0.776   2.524   0.058  0.00  0.00     0.004 A 
ATOM      4  C5  UNL d   1       0.517   3.000   0.278  0.00  0.00    -0.004 A 
ATOM      5  C6  UNL d   1       1.579   2.106   0.444  0.00  0.00    -0.075 A 
ATOM      6  C7  UNL d   1       2.975   2.602   0.684  0.00  0.00     0.076 C 
ATOM      7  C8  UNL d   1       1.326   0.728   0.395  0.00  0.00     0.001 A 
ENDROOT
BRANCH   1   8
ATOM      8  C1  UNL d   1      -0.228  -1.243   0.123  0.00  0.00     0.053 C 
ATOM      9  C   UNL d   1       0.903  -2.044   0.748  0.00  0.00     0.018 C 
ENDBRANCH   1   8
TORSDOF 1
ENDMDL
