MODEL 1
REMARK minimizedAffinity -2.15115356
REMARK minimizedRMSD -1
REMARK  1 active torsions:
REMARK  status: ('A' for Active; 'I' for Inactive)
REMARK    1  A    between atoms: C1_2  and  C2_3 
ROOT
ATOM      1  C2  UNL d   1      -0.375  -1.524  -0.336  0.00  0.00    -0.073 A 
ATOM      2  C3  UNL d   1      -1.391  -0.592  -0.095  0.00  0.00    -0.002 A 
ATOM      3  C4  UNL d   1      -1.074   0.720   0.260  0.00  0.00     0.004 A 
ATOM      4  C5  UNL d   1       0.259   1.115   0.371  0.00  0.00    -0.004 A 
ATOM      5  C6  UNL d   1       1.289   0.201   0.123  0.00  0.00    -0.075 A 
ATOM      6  C7  UNL d   1       2.728   0.609   0.240  0.00  0.00     0.076 C 
ATOM      7  C8  UNL d   1       0.963  -1.115  -0.231  0.00  0.00     0.001 A 
ENDROOT
BRANCH   1   8
ATOM      8  C1  UNL d   1      -0.712  -2.940  -0.727  0.00  0.00     0.053 C 
ATOM      9  C   UNL d   1      -0.569  -3.168  -2.223  0.00  0.00     0.018 C 
ENDBRANCH   1   8
TORSDOF 1
ENDMDL
