MODEL 1
REMARK minimizedAffinity -2.95315099
REMARK minimizedRMSD -1
REMARK  1 active torsions:
REMARK  status: ('A' for Active; 'I' for Inactive)
REMARK    1  A    between atoms: C1_2  and  C2_3 
ROOT
ATOM      1  C2  UNL d   1      -0.158   0.994   0.415  0.00  0.00    -0.073 A 
ATOM      2  C3  UNL d   1      -0.740   2.253   0.599  0.00  0.00    -0.002 A 
ATOM      3  C4  UNL d   1       0.008   3.413   0.395  0.00  0.00     0.004 A 
ATOM      4  C5  UNL d   1       1.343   3.326  -0.001  0.00  0.00    -0.004 A 
ATOM      5  C6  UNL d   1       1.940   2.078  -0.201  0.00  0.00    -0.075 A 
ATOM      6  C7  UNL d   1       3.375   1.968  -0.625  0.00  0.00     0.076 C 
ATOM      7  C8  UNL d   1       1.182   0.917   0.008  0.00  0.00     0.001 A 
ENDROOT
BRANCH   1   8
ATOM      8  C1  UNL d   1      -0.964  -0.261   0.628  0.00  0.00     0.053 C 
ATOM      9  C   UNL d   1      -0.270  -1.488   0.057  0.00  0.00     0.018 C 
ENDBRANCH   1   8
TORSDOF 1
ENDMDL
