MODEL 1
REMARK minimizedAffinity -4.26184511
REMARK minimizedRMSD -1
REMARK  1 active torsions:
REMARK  status: ('A' for Active; 'I' for Inactive)
REMARK    1  A    between atoms: C1_2  and  C2_3 
ROOT
ATOM      1  C2  UNL d   1       0.008  -0.516   0.227  0.00  0.00    -0.073 A 
ATOM      2  C3  UNL d   1      -1.188  -0.637   0.944  0.00  0.00    -0.002 A 
ATOM      3  C4  UNL d   1      -1.923   0.498   1.287  0.00  0.00     0.004 A 
ATOM      4  C5  UNL d   1      -1.475   1.765   0.911  0.00  0.00    -0.004 A 
ATOM      5  C6  UNL d   1      -0.288   1.906   0.183  0.00  0.00    -0.075 A 
ATOM      6  C7  UNL d   1       0.209   3.261  -0.227  0.00  0.00     0.076 C 
ATOM      7  C8  UNL d   1       0.446   0.761  -0.154  0.00  0.00     0.001 A 
ENDROOT
BRANCH   1   8
ATOM      8  C1  UNL d   1       0.802  -1.740  -0.151  0.00  0.00     0.053 C 
ATOM      9  C   UNL d   1       0.074  -2.598  -1.172  0.00  0.00     0.018 C 
ENDBRANCH   1   8
TORSDOF 1
ENDMDL
