MODEL 1
REMARK minimizedAffinity -4.59510136
REMARK minimizedRMSD -1
REMARK  1 active torsions:
REMARK  status: ('A' for Active; 'I' for Inactive)
REMARK    1  A    between atoms: C1_2  and  C2_3 
ROOT
ATOM      1  C2  UNL d   1      -0.197   0.915   0.434  0.00  0.00    -0.073 A 
ATOM      2  C3  UNL d   1      -0.811   2.162   0.273  0.00  0.00    -0.002 A 
ATOM      3  C4  UNL d   1      -0.045   3.328   0.259  0.00  0.00     0.004 A 
ATOM      4  C5  UNL d   1       1.340   3.259   0.401  0.00  0.00    -0.004 A 
ATOM      5  C6  UNL d   1       1.974   2.022   0.552  0.00  0.00    -0.075 A 
ATOM      6  C7  UNL d   1       3.463   1.931   0.707  0.00  0.00     0.076 C 
ATOM      7  C8  UNL d   1       1.197   0.855   0.567  0.00  0.00     0.001 A 
ENDROOT
BRANCH   1   8
ATOM      8  C1  UNL d   1      -1.020  -0.348   0.443  0.00  0.00     0.053 C 
ATOM      9  C   UNL d   1      -0.180  -1.577   0.132  0.00  0.00     0.018 C 
ENDBRANCH   1   8
TORSDOF 1
ENDMDL
