MODEL 1
REMARK minimizedAffinity -3.81171489
REMARK minimizedRMSD -1
REMARK  1 active torsions:
REMARK  status: ('A' for Active; 'I' for Inactive)
REMARK    1  A    between atoms: C1_2  and  C2_3 
ROOT
ATOM      1  C2  UNL d   1      -0.056  -1.002  -0.452  0.00  0.00    -0.073 A 
ATOM      2  C3  UNL d   1       1.048  -0.335  -0.996  0.00  0.00    -0.002 A 
ATOM      3  C4  UNL d   1       1.154   1.053  -0.894  0.00  0.00     0.004 A 
ATOM      4  C5  UNL d   1       0.162   1.786  -0.243  0.00  0.00    -0.004 A 
ATOM      5  C6  UNL d   1      -0.943   1.137   0.317  0.00  0.00    -0.075 A 
ATOM      6  C7  UNL d   1      -2.019   1.912   1.019  0.00  0.00     0.076 C 
ATOM      7  C8  UNL d   1      -1.043  -0.257   0.208  0.00  0.00     0.001 A 
ENDROOT
BRANCH   1   8
ATOM      8  C1  UNL d   1      -0.171  -2.501  -0.554  0.00  0.00     0.053 C 
ATOM      9  C   UNL d   1      -0.309  -2.965  -1.996  0.00  0.00     0.018 C 
ENDBRANCH   1   8
TORSDOF 1
ENDMDL
