MODEL 1
REMARK minimizedAffinity -1.31322324
REMARK minimizedRMSD -1
REMARK  1 active torsions:
REMARK  status: ('A' for Active; 'I' for Inactive)
REMARK    1  A    between atoms: C3_4  and  O_7 
ROOT
ATOM      1  C   UNL d   1      -2.609  -0.094   0.273  0.00  0.00    -0.033 A 
ATOM      2  C1  UNL d   1      -2.137   0.076   1.575  0.00  0.00     0.039 A 
ATOM      3  C2  UNL d   1      -0.812  -0.236   1.886  0.00  0.00    -0.080 A 
ATOM      4  C3  UNL d   1       0.029  -0.716   0.886  0.00  0.00     0.150 A 
ATOM      5  C4  UNL d   1      -0.434  -0.885  -0.415  0.00  0.00    -0.007 A 
ATOM      6  C5  UNL d   1      -1.757  -0.573  -0.723  0.00  0.00     0.039 A 
ENDROOT
BRANCH   4   7
ATOM      7  O   UNL d   1       1.328  -1.039   1.143  0.00  0.00    -0.526 OA
ATOM      8  H5  UNL d   1       1.499  -0.899   2.089  0.00  0.00     0.418 HD
ENDBRANCH   4   7
TORSDOF 1
ENDMDL
