MODEL 1
REMARK minimizedAffinity -1.13708293
REMARK minimizedRMSD -1
REMARK  1 active torsions:
REMARK  status: ('A' for Active; 'I' for Inactive)
REMARK    1  A    between atoms: C3_4  and  O_7 
ROOT
ATOM      1  C   UNL d   1      -0.879  -0.601   2.556  0.00  0.00    -0.033 A 
ATOM      2  C1  UNL d   1      -0.899  -1.050   3.878  0.00  0.00     0.039 A 
ATOM      3  C2  UNL d   1       0.282  -1.472   4.492  0.00  0.00    -0.080 A 
ATOM      4  C3  UNL d   1       1.475  -1.438   3.774  0.00  0.00     0.150 A 
ATOM      5  C4  UNL d   1       1.503  -0.988   2.458  0.00  0.00    -0.007 A 
ATOM      6  C5  UNL d   1       0.322  -0.568   1.847  0.00  0.00     0.039 A 
ENDROOT
BRANCH   4   7
ATOM      7  O   UNL d   1       2.652  -1.844   4.329  0.00  0.00    -0.526 OA
ATOM      8  H5  UNL d   1       2.475  -2.156   5.232  0.00  0.00     0.418 HD
ENDBRANCH   4   7
TORSDOF 1
ENDMDL
