MODEL 1
REMARK minimizedAffinity -2.52817369
REMARK minimizedRMSD -1
REMARK  1 active torsions:
REMARK  status: ('A' for Active; 'I' for Inactive)
REMARK    1  A    between atoms: C3_4  and  O_7 
ROOT
ATOM      1  C   UNL d   1      -1.611   0.455   0.359  0.00  0.00    -0.033 A 
ATOM      2  C1  UNL d   1      -0.399  -0.025  -0.142  0.00  0.00     0.039 A 
ATOM      3  C2  UNL d   1       0.585  -0.491   0.732  0.00  0.00    -0.080 A 
ATOM      4  C3  UNL d   1       0.344  -0.472   2.103  0.00  0.00     0.150 A 
ATOM      5  C4  UNL d   1      -0.862   0.001   2.609  0.00  0.00    -0.007 A 
ATOM      6  C5  UNL d   1      -1.843   0.466   1.734  0.00  0.00     0.039 A 
ENDROOT
BRANCH   4   7
ATOM      7  O   UNL d   1       1.276  -0.912   2.996  0.00  0.00    -0.526 OA
ATOM      8  H5  UNL d   1       2.069  -1.183   2.505  0.00  0.00     0.418 HD
ENDBRANCH   4   7
TORSDOF 1
ENDMDL
