MODEL 1
REMARK minimizedAffinity 0.989552736
REMARK minimizedRMSD -1
REMARK  1 active torsions:
REMARK  status: ('A' for Active; 'I' for Inactive)
REMARK    1  A    between atoms: C3_4  and  O_7 
ROOT
ATOM      1  C   UNL d   1      -2.806  -0.638   0.421  0.00  0.00    -0.033 A 
ATOM      2  C1  UNL d   1      -2.152  -0.090   1.526  0.00  0.00     0.039 A 
ATOM      3  C2  UNL d   1      -0.758  -0.127   1.604  0.00  0.00    -0.080 A 
ATOM      4  C3  UNL d   1      -0.032  -0.715   0.572  0.00  0.00     0.150 A 
ATOM      5  C4  UNL d   1      -0.677  -1.259  -0.534  0.00  0.00    -0.007 A 
ATOM      6  C5  UNL d   1      -2.068  -1.222  -0.609  0.00  0.00     0.039 A 
ENDROOT
BRANCH   4   7
ATOM      7  O   UNL d   1       1.330  -0.779   0.606  0.00  0.00    -0.526 OA
ATOM      8  H5  UNL d   1       1.636  -0.389   1.441  0.00  0.00     0.418 HD
ENDBRANCH   4   7
TORSDOF 1
ENDMDL
