MODEL 1
REMARK minimizedAffinity -0.469081134
REMARK minimizedRMSD -1
REMARK  1 active torsions:
REMARK  status: ('A' for Active; 'I' for Inactive)
REMARK    1  A    between atoms: C3_4  and  O_7 
ROOT
ATOM      1  C   UNL d   1      -1.643  -0.176   1.224  0.00  0.00    -0.033 A 
ATOM      2  C1  UNL d   1      -1.894  -0.489   2.562  0.00  0.00     0.039 A 
ATOM      3  C2  UNL d   1      -0.861  -0.957   3.377  0.00  0.00    -0.080 A 
ATOM      4  C3  UNL d   1       0.416  -1.106   2.843  0.00  0.00     0.150 A 
ATOM      5  C4  UNL d   1       0.674  -0.793   1.513  0.00  0.00    -0.007 A 
ATOM      6  C5  UNL d   1      -0.359  -0.326   0.700  0.00  0.00     0.039 A 
ENDROOT
BRANCH   4   7
ATOM      7  O   UNL d   1       1.455  -1.564   3.599  0.00  0.00    -0.526 OA
ATOM      8  H5  UNL d   1       1.122  -1.767   4.489  0.00  0.00     0.418 HD
ENDBRANCH   4   7
TORSDOF 1
ENDMDL
