MODEL 1
REMARK minimizedAffinity -0.666787505
REMARK minimizedRMSD -1
REMARK  1 active torsions:
REMARK  status: ('A' for Active; 'I' for Inactive)
REMARK    1  A    between atoms: C3_4  and  O_7 
ROOT
ATOM      1  C   UNL d   1      -3.582  -0.731   2.256  0.00  0.00    -0.033 A 
ATOM      2  C1  UNL d   1      -2.548   0.172   2.003  0.00  0.00     0.039 A 
ATOM      3  C2  UNL d   1      -1.299  -0.009   2.602  0.00  0.00    -0.080 A 
ATOM      4  C3  UNL d   1      -1.099  -1.095   3.449  0.00  0.00     0.150 A 
ATOM      5  C4  UNL d   1      -2.124  -2.001   3.702  0.00  0.00    -0.007 A 
ATOM      6  C5  UNL d   1      -3.370  -1.818   3.104  0.00  0.00     0.039 A 
ENDROOT
BRANCH   4   7
ATOM      7  O   UNL d   1       0.101  -1.311   4.060  0.00  0.00    -0.526 OA
ATOM      8  H5  UNL d   1       0.705  -0.590   3.814  0.00  0.00     0.418 HD
ENDBRANCH   4   7
TORSDOF 1
ENDMDL
