MODEL 1
REMARK minimizedAffinity -0.955104172
REMARK minimizedRMSD -1
REMARK  1 active torsions:
REMARK  status: ('A' for Active; 'I' for Inactive)
REMARK    1  A    between atoms: C3_4  and  O_7 
ROOT
ATOM      1  C   UNL d   1      -2.864   0.054   0.067  0.00  0.00    -0.033 A 
ATOM      2  C1  UNL d   1      -2.595   0.446   1.380  0.00  0.00     0.039 A 
ATOM      3  C2  UNL d   1      -1.328   0.238   1.927  0.00  0.00    -0.080 A 
ATOM      4  C3  UNL d   1      -0.339  -0.360   1.151  0.00  0.00     0.150 A 
ATOM      5  C4  UNL d   1      -0.598  -0.749  -0.159  0.00  0.00    -0.007 A 
ATOM      6  C5  UNL d   1      -1.865  -0.542  -0.703  0.00  0.00     0.039 A 
ENDROOT
BRANCH   4   7
ATOM      7  O   UNL d   1       0.912  -0.588   1.643  0.00  0.00    -0.526 OA
ATOM      8  H5  UNL d   1       0.937  -0.294   2.569  0.00  0.00     0.418 HD
ENDBRANCH   4   7
TORSDOF 1
ENDMDL
