MODEL 1
REMARK minimizedAffinity -3.12189507
REMARK minimizedRMSD -1
REMARK  1 active torsions:
REMARK  status: ('A' for Active; 'I' for Inactive)
REMARK    1  A    between atoms: C3_4  and  O_7 
ROOT
ATOM      1  C   UNL d   1      -2.214  -1.677   4.270  0.00  0.00    -0.033 A 
ATOM      2  C1  UNL d   1      -1.688  -0.606   3.546  0.00  0.00     0.039 A 
ATOM      3  C2  UNL d   1      -0.306  -0.471   3.399  0.00  0.00    -0.080 A 
ATOM      4  C3  UNL d   1       0.537  -1.414   3.979  0.00  0.00     0.150 A 
ATOM      5  C4  UNL d   1       0.020  -2.486   4.699  0.00  0.00    -0.007 A 
ATOM      6  C5  UNL d   1      -1.360  -2.618   4.846  0.00  0.00     0.039 A 
ENDROOT
BRANCH   4   7
ATOM      7  O   UNL d   1       1.893  -1.323   3.867  0.00  0.00    -0.526 OA
ATOM      8  H5  UNL d   1       2.107  -0.517   3.367  0.00  0.00     0.418 HD
ENDBRANCH   4   7
TORSDOF 1
ENDMDL
