MODEL 1
REMARK minimizedAffinity -0.659946024
REMARK minimizedRMSD -1
REMARK  1 active torsions:
REMARK  status: ('A' for Active; 'I' for Inactive)
REMARK    1  A    between atoms: C3_4  and  O_7 
ROOT
ATOM      1  C   UNL d   1      -1.133  -0.141   1.006  0.00  0.00    -0.033 A 
ATOM      2  C1  UNL d   1      -2.174   0.590   1.581  0.00  0.00     0.039 A 
ATOM      3  C2  UNL d   1      -3.354   0.809   0.868  0.00  0.00    -0.080 A 
ATOM      4  C3  UNL d   1      -3.481   0.291  -0.418  0.00  0.00     0.150 A 
ATOM      5  C4  UNL d   1      -2.449  -0.442  -0.996  0.00  0.00    -0.007 A 
ATOM      6  C5  UNL d   1      -1.271  -0.658  -0.283  0.00  0.00     0.039 A 
ENDROOT
BRANCH   4   7
ATOM      7  O   UNL d   1      -4.612   0.482  -1.155  0.00  0.00    -0.526 OA
ATOM      8  H5  UNL d   1      -5.226   1.029  -0.638  0.00  0.00     0.418 HD
ENDBRANCH   4   7
TORSDOF 1
ENDMDL
