MODEL 1
REMARK minimizedAffinity -1.46203232
REMARK minimizedRMSD -1
REMARK  0 active torsions:
REMARK  status: ('A' for Active; 'I' for Inactive)
ROOT
ATOM      1  C4' PXY d   1       2.485   1.412   2.330  0.00  0.00     0.077 C 
ATOM      2  C1' PXY d   1      -2.240  -0.470  -0.418  0.00  0.00     0.077 C 
ATOM      3  C1  PXY d   1      -1.007   0.035   0.306  0.00  0.00    -0.082 A 
ATOM      4  C2  PXY d   1       0.189  -0.392  -0.064  0.00  0.00     0.003 A 
ATOM      5  C3  PXY d   1       1.312   0.029   0.601  0.00  0.00     0.003 A 
ATOM      6  C4  PXY d   1       1.214   0.937   1.621  0.00  0.00    -0.082 A 
ATOM      7  C5  PXY d   1      -0.003   1.385   1.997  0.00  0.00     0.003 A 
ATOM      8  C6  PXY d   1      -1.134   0.914   1.336  0.00  0.00     0.003 A 
ENDROOT
TORSDOF 0
ENDMDL
