MODEL 1
REMARK minimizedAffinity 0.257754803
REMARK minimizedRMSD -1
REMARK  0 active torsions:
REMARK  status: ('A' for Active; 'I' for Inactive)
ROOT
ATOM      1  C4' PXY d   1      -2.625  -0.434   2.649  0.00  0.00     0.077 C 
ATOM      2  C1' PXY d   1       2.379   1.978   1.049  0.00  0.00     0.077 C 
ATOM      3  C1  PXY d   1       1.070   1.348   1.481  0.00  0.00    -0.082 A 
ATOM      4  C2  PXY d   1       0.451   0.504   0.670  0.00  0.00     0.003 A 
ATOM      5  C3  PXY d   1      -0.750  -0.050   1.032  0.00  0.00     0.003 A 
ATOM      6  C4  PXY d   1      -1.297   0.220   2.258  0.00  0.00    -0.082 A 
ATOM      7  C5  PXY d   1      -0.666   1.071   3.095  0.00  0.00     0.003 A 
ATOM      8  C6  PXY d   1       0.531   1.655   2.692  0.00  0.00     0.003 A 
ENDROOT
TORSDOF 0
ENDMDL
