MODEL 1
REMARK minimizedAffinity -4.51944923
REMARK minimizedRMSD -1
REMARK  0 active torsions:
REMARK  status: ('A' for Active; 'I' for Inactive)
ROOT
ATOM      1  C4' PXY d   1      -1.950  -0.468   0.009  0.00  0.00     0.077 C 
ATOM      2  C1' PXY d   1       3.304   1.179   1.771  0.00  0.00     0.077 C 
ATOM      3  C1  PXY d   1       1.931   0.741   1.299  0.00  0.00    -0.082 A 
ATOM      4  C2  PXY d   1       0.863   1.432   1.662  0.00  0.00     0.003 A 
ATOM      5  C3  PXY d   1      -0.389   1.031   1.270  0.00  0.00     0.003 A 
ATOM      6  C4  PXY d   1      -0.544  -0.057   0.454  0.00  0.00    -0.082 A 
ATOM      7  C5  PXY d   1       0.542  -0.761   0.070  0.00  0.00     0.003 A 
ATOM      8  C6  PXY d   1       1.800  -0.362   0.512  0.00  0.00     0.003 A 
ENDROOT
TORSDOF 0
ENDMDL
