MODEL 1
REMARK minimizedAffinity -0.634956956
REMARK minimizedRMSD -1
REMARK  0 active torsions:
REMARK  status: ('A' for Active; 'I' for Inactive)
ROOT
ATOM      1  C4' PXY d   1       2.469   1.664   0.052  0.00  0.00     0.077 C 
ATOM      2  C1' PXY d   1      -2.414  -0.090   2.601  0.00  0.00     0.077 C 
ATOM      3  C1  PXY d   1      -1.136   0.362   1.922  0.00  0.00    -0.082 A 
ATOM      4  C2  PXY d   1      -0.131   0.814   2.654  0.00  0.00     0.003 A 
ATOM      5  C3  PXY d   1       1.020   1.258   2.055  0.00  0.00     0.003 A 
ATOM      6  C4  PXY d   1       1.164   1.188   0.695  0.00  0.00    -0.082 A 
ATOM      7  C5  PXY d   1       0.147   0.717  -0.058  0.00  0.00     0.003 A 
ATOM      8  C6  PXY d   1      -1.028   0.311   0.567  0.00  0.00     0.003 A 
ENDROOT
TORSDOF 0
ENDMDL
