MODEL 1
REMARK minimizedAffinity -2.49601221
REMARK minimizedRMSD -1
REMARK  0 active torsions:
REMARK  status: ('A' for Active; 'I' for Inactive)
ROOT
ATOM      1  C4' PXY d   1       3.139   1.579   2.154  0.00  0.00     0.077 C 
ATOM      2  C1' PXY d   1      -2.180  -0.176   0.724  0.00  0.00     0.077 C 
ATOM      3  C1  PXY d   1      -0.781   0.272   1.100  0.00  0.00    -0.082 A 
ATOM      4  C2  PXY d   1      -0.606   1.442   1.692  0.00  0.00     0.003 A 
ATOM      5  C3  PXY d   1       0.656   1.876   2.009  0.00  0.00     0.003 A 
ATOM      6  C4  PXY d   1       1.744   1.082   1.766  0.00  0.00    -0.082 A 
ATOM      7  C5  PXY d   1       1.572  -0.118   1.171  0.00  0.00     0.003 A 
ATOM      8  C6  PXY d   1       0.287  -0.523   0.820  0.00  0.00     0.003 A 
ENDROOT
TORSDOF 0
ENDMDL
