MODEL 1
REMARK minimizedAffinity 2.7101531
REMARK minimizedRMSD -1
REMARK  0 active torsions:
REMARK  status: ('A' for Active; 'I' for Inactive)
ROOT
ATOM      1  C4' PXY d   1      -2.615  -1.212  -0.357  0.00  0.00     0.077 C 
ATOM      2  C1' PXY d   1       0.445   2.115   3.247  0.00  0.00     0.077 C 
ATOM      3  C1  PXY d   1      -0.354   1.250   2.292  0.00  0.00    -0.082 A 
ATOM      4  C2  PXY d   1      -1.371   0.537   2.749  0.00  0.00     0.003 A 
ATOM      5  C3  PXY d   1      -2.084  -0.275   1.905  0.00  0.00     0.003 A 
ATOM      6  C4  PXY d   1      -1.786  -0.318   0.570  0.00  0.00    -0.082 A 
ATOM      7  C5  PXY d   1      -0.757   0.414   0.093  0.00  0.00     0.003 A 
ATOM      8  C6  PXY d   1      -0.020   1.201   0.974  0.00  0.00     0.003 A 
ENDROOT
TORSDOF 0
ENDMDL
