MODEL 1
REMARK minimizedAffinity -4.97192192
REMARK minimizedRMSD -1
REMARK  0 active torsions:
REMARK  status: ('A' for Active; 'I' for Inactive)
ROOT
ATOM      1  C4' PXY d   1       2.936  -0.486   0.360  0.00  0.00     0.077 C 
ATOM      2  C1' PXY d   1      -1.383   1.147   3.837  0.00  0.00     0.077 C 
ATOM      3  C1  PXY d   1      -0.259   0.716   2.916  0.00  0.00    -0.082 A 
ATOM      4  C2  PXY d   1       0.884   0.293   3.431  0.00  0.00     0.003 A 
ATOM      5  C3  PXY d   1       1.922  -0.070   2.613  0.00  0.00     0.003 A 
ATOM      6  C4  PXY d   1       1.771  -0.050   1.252  0.00  0.00    -0.082 A 
ATOM      7  C5  PXY d   1       0.604   0.370   0.718  0.00  0.00     0.003 A 
ATOM      8  C6  PXY d   1      -0.423   0.773   1.566  0.00  0.00     0.003 A 
ENDROOT
TORSDOF 0
ENDMDL
