MODEL 1
REMARK minimizedAffinity -4.41468716
REMARK minimizedRMSD -1
REMARK  0 active torsions:
REMARK  status: ('A' for Active; 'I' for Inactive)
ROOT
ATOM      1  C4' PXY d   1       2.888   1.972   0.803  0.00  0.00     0.077 C 
ATOM      2  C1' PXY d   1      -2.209  -0.223   2.419  0.00  0.00     0.077 C 
ATOM      3  C1  PXY d   1      -0.877   0.365   1.998  0.00  0.00    -0.082 A 
ATOM      4  C2  PXY d   1      -0.099  -0.308   1.165  0.00  0.00     0.003 A 
ATOM      5  C3  PXY d   1       1.123   0.194   0.799  0.00  0.00     0.003 A 
ATOM      6  C4  PXY d   1       1.531   1.422   1.248  0.00  0.00    -0.082 A 
ATOM      7  C5  PXY d   1       0.738   2.119   2.089  0.00  0.00     0.003 A 
ATOM      8  C6  PXY d   1      -0.481   1.573   2.482  0.00  0.00     0.003 A 
ENDROOT
TORSDOF 0
ENDMDL
