MODEL 1
REMARK minimizedAffinity 1.84659386
REMARK minimizedRMSD -1
REMARK  0 active torsions:
REMARK  status: ('A' for Active; 'I' for Inactive)
ROOT
ATOM      1  C4' PXY d   1      -0.723   1.222   4.613  0.00  0.00     0.077 C 
ATOM      2  C1' PXY d   1      -0.460   0.629  -1.131  0.00  0.00     0.077 C 
ATOM      3  C1  PXY d   1      -0.541   0.781   0.375  0.00  0.00    -0.082 A 
ATOM      4  C2  PXY d   1       0.320   1.566   1.000  0.00  0.00     0.003 A 
ATOM      5  C3  PXY d   1       0.281   1.690   2.365  0.00  0.00     0.003 A 
ATOM      6  C4  PXY d   1      -0.684   1.046   3.092  0.00  0.00    -0.082 A 
ATOM      7  C5  PXY d   1      -1.573   0.252   2.460  0.00  0.00     0.003 A 
ATOM      8  C6  PXY d   1      -1.491   0.107   1.078  0.00  0.00     0.003 A 
ENDROOT
TORSDOF 0
ENDMDL
