MODEL 1
REMARK minimizedAffinity -4.79905319
REMARK minimizedRMSD -1
REMARK  3 active torsions:
REMARK  status: ('A' for Active; 'I' for Inactive)
REMARK    1  A    between atoms: C3'_2  and  C2'_3 
REMARK    2  A    between atoms: C2'_3  and  C1'_4 
REMARK    3  A    between atoms: C1'_4  and  C1_5 
ROOT
ATOM      1  C1  N4B d   1       0.796   0.048   0.915  0.00  0.00    -0.075 A 
ATOM      2  C2  N4B d   1      -0.554   0.457   0.849  0.00  0.00     0.002 A 
ATOM      3  C3  N4B d   1      -1.149   1.038   1.942  0.00  0.00     0.002 A 
ATOM      4  C4  N4B d   1      -0.423   1.201   3.112  0.00  0.00    -0.004 A 
ATOM      5  C5  N4B d   1       0.888   0.826   3.159  0.00  0.00     0.002 A 
ATOM      6  C6  N4B d   1       1.500   0.245   2.067  0.00  0.00     0.002 A 
ENDROOT
BRANCH   1   7
ATOM      7  C1' N4B d   1       1.465  -0.670  -0.226  0.00  0.00     0.057 C 
BRANCH   7   8
ATOM      8  C2' N4B d   1       0.647  -0.460  -1.497  0.00  0.00     0.009 C 
BRANCH   8   9
ATOM      9  C3' N4B d   1       1.408   0.346  -2.536  0.00  0.00     0.004 C 
ATOM     10  C4' N4B d   1       0.729   0.357  -3.873  0.00  0.00     0.003 C 
ENDBRANCH   8   9
ENDBRANCH   7   8
ENDBRANCH   1   7
TORSDOF 3
ENDMDL
