MODEL 1
REMARK minimizedAffinity -5.41000032
REMARK minimizedRMSD -1
REMARK  3 active torsions:
REMARK  status: ('A' for Active; 'I' for Inactive)
REMARK    1  A    between atoms: C3'_2  and  C2'_3 
REMARK    2  A    between atoms: C2'_3  and  C1'_4 
REMARK    3  A    between atoms: C1'_4  and  C1_5 
ROOT
ATOM      1  C1  N4B d   1       0.153  -0.028   0.374  0.00  0.00    -0.075 A 
ATOM      2  C2  N4B d   1      -1.235   0.216   0.275  0.00  0.00     0.002 A 
ATOM      3  C3  N4B d   1      -1.901   0.819   1.313  0.00  0.00     0.002 A 
ATOM      4  C4  N4B d   1      -1.208   1.169   2.462  0.00  0.00    -0.004 A 
ATOM      5  C5  N4B d   1       0.136   0.954   2.540  0.00  0.00     0.002 A 
ATOM      6  C6  N4B d   1       0.820   0.351   1.503  0.00  0.00     0.002 A 
ENDROOT
BRANCH   1   7
ATOM      7  C1' N4B d   1       0.909  -0.763  -0.699  0.00  0.00     0.057 C 
BRANCH   7   8
ATOM      8  C2' N4B d   1       0.333  -0.390  -2.062  0.00  0.00     0.009 C 
BRANCH   8   9
ATOM      9  C3' N4B d   1       1.359   0.301  -2.943  0.00  0.00     0.004 C 
ATOM     10  C4' N4B d   1       0.788   0.756  -4.253  0.00  0.00     0.003 C 
ENDBRANCH   8   9
ENDBRANCH   7   8
ENDBRANCH   1   7
TORSDOF 3
ENDMDL
