MODEL 1
REMARK minimizedAffinity -4.94650602
REMARK minimizedRMSD -1
REMARK  3 active torsions:
REMARK  status: ('A' for Active; 'I' for Inactive)
REMARK    1  A    between atoms: C3'_2  and  C2'_3 
REMARK    2  A    between atoms: C2'_3  and  C1'_4 
REMARK    3  A    between atoms: C1'_4  and  C1_5 
ROOT
ATOM      1  C1  N4B d   1       0.295  -0.780  -0.133  0.00  0.00    -0.075 A 
ATOM      2  C2  N4B d   1       1.360  -0.620   0.780  0.00  0.00     0.002 A 
ATOM      3  C3  N4B d   1       1.168   0.088   1.941  0.00  0.00     0.002 A 
ATOM      4  C4  N4B d   1      -0.069   0.658   2.201  0.00  0.00    -0.004 A 
ATOM      5  C5  N4B d   1      -1.100   0.477   1.325  0.00  0.00     0.002 A 
ATOM      6  C6  N4B d   1      -0.922  -0.235   0.156  0.00  0.00     0.002 A 
ENDROOT
BRANCH   1   7
ATOM      7  C1' N4B d   1       0.481  -1.472  -1.456  0.00  0.00     0.057 C 
BRANCH   7   8
ATOM      8  C2' N4B d   1       1.224  -0.541  -2.409  0.00  0.00     0.009 C 
BRANCH   8   9
ATOM      9  C3' N4B d   1       0.824  -0.771  -3.856  0.00  0.00     0.004 C 
ATOM     10  C4' N4B d   1       0.682   0.506  -4.629  0.00  0.00     0.003 C 
ENDBRANCH   8   9
ENDBRANCH   7   8
ENDBRANCH   1   7
TORSDOF 3
ENDMDL
