MODEL 1
REMARK minimizedAffinity 14.8927832
REMARK minimizedRMSD -1
REMARK  1 active torsions:
REMARK  status: ('A' for Active; 'I' for Inactive)
REMARK    1  A    between atoms: C1_2  and  C2_3 
ROOT
ATOM      1  C2  UNL d   1      -3.228  -0.443   1.070  0.00  0.00    -0.073 A 
ATOM      2  C3  UNL d   1      -2.253  -1.380   0.710  0.00  0.00    -0.002 A 
ATOM      3  C4  UNL d   1      -1.079  -1.497   1.454  0.00  0.00     0.004 A 
ATOM      4  C5  UNL d   1      -0.870  -0.684   2.568  0.00  0.00    -0.004 A 
ATOM      5  C6  UNL d   1      -1.837   0.250   2.951  0.00  0.00    -0.075 A 
ATOM      6  C7  UNL d   1      -1.627   1.133   4.146  0.00  0.00     0.076 C 
ATOM      7  C8  UNL d   1      -3.013   0.363   2.197  0.00  0.00     0.001 A 
ENDROOT
BRANCH   1   8
ATOM      8  C1  UNL d   1      -4.501  -0.317   0.273  0.00  0.00     0.053 C 
ATOM      9  C   UNL d   1      -4.812   1.128  -0.080  0.00  0.00     0.018 C 
ENDBRANCH   1   8
TORSDOF 1
ENDMDL
