MODEL 1
REMARK minimizedAffinity 9.01032162
REMARK minimizedRMSD -1
REMARK  1 active torsions:
REMARK  status: ('A' for Active; 'I' for Inactive)
REMARK    1  A    between atoms: C1_2  and  C2_3 
ROOT
ATOM      1  C2  UNL d   1      -4.072   1.118   4.202  0.00  0.00    -0.073 A 
ATOM      2  C3  UNL d   1      -2.932   1.566   4.878  0.00  0.00    -0.002 A 
ATOM      3  C4  UNL d   1      -1.680   1.022   4.587  0.00  0.00     0.004 A 
ATOM      4  C5  UNL d   1      -1.555   0.030   3.614  0.00  0.00    -0.004 A 
ATOM      5  C6  UNL d   1      -2.682  -0.422   2.919  0.00  0.00    -0.075 A 
ATOM      6  C7  UNL d   1      -2.564  -1.490   1.871  0.00  0.00     0.076 C 
ATOM      7  C8  UNL d   1      -3.935   0.127   3.219  0.00  0.00     0.001 A 
ENDROOT
BRANCH   1   8
ATOM      8  C1  UNL d   1      -5.425   1.708   4.509  0.00  0.00     0.053 C 
ATOM      9  C   UNL d   1      -5.553   2.111   5.969  0.00  0.00     0.018 C 
ENDBRANCH   1   8
TORSDOF 1
ENDMDL
