MODEL 1
REMARK minimizedAffinity 7.43231773
REMARK minimizedRMSD -1
REMARK  1 active torsions:
REMARK  status: ('A' for Active; 'I' for Inactive)
REMARK    1  A    between atoms: C1_2  and  C2_3 
ROOT
ATOM      1  C2  UNL d   1      -5.890  -0.629  -1.713  0.00  0.00    -0.073 A 
ATOM      2  C3  UNL d   1      -5.729  -1.151  -0.425  0.00  0.00    -0.002 A 
ATOM      3  C4  UNL d   1      -5.634  -0.297   0.675  0.00  0.00     0.004 A 
ATOM      4  C5  UNL d   1      -5.707   1.085   0.499  0.00  0.00    -0.004 A 
ATOM      5  C6  UNL d   1      -5.880   1.625  -0.779  0.00  0.00    -0.075 A 
ATOM      6  C7  UNL d   1      -5.958   3.109  -0.986  0.00  0.00     0.076 C 
ATOM      7  C8  UNL d   1      -5.971   0.761  -1.879  0.00  0.00     0.001 A 
ENDROOT
BRANCH   1   8
ATOM      8  C1  UNL d   1      -5.999  -1.547  -2.903  0.00  0.00     0.053 C 
ATOM      9  C   UNL d   1      -5.929  -0.787  -4.218  0.00  0.00     0.018 C 
ENDBRANCH   1   8
TORSDOF 1
ENDMDL
