MODEL 1
REMARK minimizedAffinity 12.4359465
REMARK minimizedRMSD -1
REMARK  1 active torsions:
REMARK  status: ('A' for Active; 'I' for Inactive)
REMARK    1  A    between atoms: C1_2  and  C2_3 
ROOT
ATOM      1  C2  UNL d   1       0.270   3.527  -2.887  0.00  0.00    -0.073 A 
ATOM      2  C3  UNL d   1      -0.276   4.127  -1.747  0.00  0.00    -0.002 A 
ATOM      3  C4  UNL d   1      -1.355   5.004  -1.860  0.00  0.00     0.004 A 
ATOM      4  C5  UNL d   1      -1.903   5.285  -3.111  0.00  0.00    -0.004 A 
ATOM      5  C6  UNL d   1      -1.379   4.686  -4.261  0.00  0.00    -0.075 A 
ATOM      6  C7  UNL d   1      -1.956   4.980  -5.615  0.00  0.00     0.076 C 
ATOM      7  C8  UNL d   1      -0.294   3.808  -4.140  0.00  0.00     0.001 A 
ENDROOT
BRANCH   1   8
ATOM      8  C1  UNL d   1       1.431   2.574  -2.769  0.00  0.00     0.053 C 
ATOM      9  C   UNL d   1       1.325   1.697  -1.531  0.00  0.00     0.018 C 
ENDBRANCH   1   8
TORSDOF 1
ENDMDL
