MODEL 1
REMARK minimizedAffinity 9.06878376
REMARK minimizedRMSD -1
REMARK  1 active torsions:
REMARK  status: ('A' for Active; 'I' for Inactive)
REMARK    1  A    between atoms: C1_2  and  C2_3 
ROOT
ATOM      1  C2  UNL d   1       1.088   3.225  -2.552  0.00  0.00    -0.073 A 
ATOM      2  C3  UNL d   1       1.534   4.366  -1.875  0.00  0.00    -0.002 A 
ATOM      3  C4  UNL d   1       0.952   5.609  -2.129  0.00  0.00     0.004 A 
ATOM      4  C5  UNL d   1      -0.085   5.722  -3.055  0.00  0.00    -0.004 A 
ATOM      5  C6  UNL d   1      -0.552   4.592  -3.734  0.00  0.00    -0.075 A 
ATOM      6  C7  UNL d   1      -1.664   4.697  -4.735  0.00  0.00     0.076 C 
ATOM      7  C8  UNL d   1       0.040   3.348  -3.475  0.00  0.00     0.001 A 
ENDROOT
BRANCH   1   8
ATOM      8  C1  UNL d   1       1.710   1.880  -2.277  0.00  0.00     0.053 C 
ATOM      9  C   UNL d   1       1.798   1.588  -0.788  0.00  0.00     0.018 C 
ENDBRANCH   1   8
TORSDOF 1
ENDMDL
