MODEL 1
REMARK minimizedAffinity 4.9931426
REMARK minimizedRMSD -1
REMARK  1 active torsions:
REMARK  status: ('A' for Active; 'I' for Inactive)
REMARK    1  A    between atoms: C1_2  and  C2_3 
ROOT
ATOM      1  C2  UNL d   1      -1.601  -0.638   3.406  0.00  0.00    -0.073 A 
ATOM      2  C3  UNL d   1      -0.654  -1.054   4.348  0.00  0.00    -0.002 A 
ATOM      3  C4  UNL d   1      -0.660  -0.520   5.638  0.00  0.00     0.004 A 
ATOM      4  C5  UNL d   1      -1.616   0.429   6.000  0.00  0.00    -0.004 A 
ATOM      5  C6  UNL d   1      -2.579   0.848   5.076  0.00  0.00    -0.075 A 
ATOM      6  C7  UNL d   1      -3.613   1.869   5.449  0.00  0.00     0.076 C 
ATOM      7  C8  UNL d   1      -2.564   0.309   3.782  0.00  0.00     0.001 A 
ENDROOT
BRANCH   1   8
ATOM      8  C1  UNL d   1      -1.602  -1.217   2.015  0.00  0.00     0.053 C 
ATOM      9  C   UNL d   1      -1.131  -2.662   1.998  0.00  0.00     0.018 C 
ENDBRANCH   1   8
TORSDOF 1
ENDMDL
