MODEL 1
REMARK minimizedAffinity 8.94097424
REMARK minimizedRMSD -1
REMARK  1 active torsions:
REMARK  status: ('A' for Active; 'I' for Inactive)
REMARK    1  A    between atoms: C1_2  and  C2_3 
ROOT
ATOM      1  C2  UNL d   1       0.718   4.325  -2.637  0.00  0.00    -0.073 A 
ATOM      2  C3  UNL d   1       0.770   2.938  -2.816  0.00  0.00    -0.002 A 
ATOM      3  C4  UNL d   1       1.997   2.275  -2.834  0.00  0.00     0.004 A 
ATOM      4  C5  UNL d   1       3.183   2.989  -2.667  0.00  0.00    -0.004 A 
ATOM      5  C6  UNL d   1       3.152   4.374  -2.475  0.00  0.00    -0.075 A 
ATOM      6  C7  UNL d   1       4.419   5.158  -2.296  0.00  0.00     0.076 C 
ATOM      7  C8  UNL d   1       1.915   5.033  -2.461  0.00  0.00     0.001 A 
ENDROOT
BRANCH   1   8
ATOM      8  C1  UNL d   1      -0.606   5.045  -2.611  0.00  0.00     0.053 C 
ATOM      9  C   UNL d   1      -1.457   4.718  -3.827  0.00  0.00     0.018 C 
ENDBRANCH   1   8
TORSDOF 1
ENDMDL
