MODEL 1
REMARK minimizedAffinity 12.4519577
REMARK minimizedRMSD -1
REMARK  1 active torsions:
REMARK  status: ('A' for Active; 'I' for Inactive)
REMARK    1  A    between atoms: C1_2  and  C2_3 
ROOT
ATOM      1  C2  UNL d   1       3.626   4.496  -2.086  0.00  0.00    -0.073 A 
ATOM      2  C3  UNL d   1       2.745   5.561  -1.871  0.00  0.00    -0.002 A 
ATOM      3  C4  UNL d   1       1.366   5.357  -1.927  0.00  0.00     0.004 A 
ATOM      4  C5  UNL d   1       0.854   4.087  -2.192  0.00  0.00    -0.004 A 
ATOM      5  C6  UNL d   1       1.718   3.007  -2.398  0.00  0.00    -0.075 A 
ATOM      6  C7  UNL d   1       1.184   1.635  -2.686  0.00  0.00     0.076 C 
ATOM      7  C8  UNL d   1       3.102   3.221  -2.343  0.00  0.00     0.001 A 
ENDROOT
BRANCH   1   8
ATOM      8  C1  UNL d   1       5.116   4.710  -2.021  0.00  0.00     0.053 C 
ATOM      9  C   UNL d   1       5.555   5.255  -0.671  0.00  0.00     0.018 C 
ENDBRANCH   1   8
TORSDOF 1
ENDMDL
