MODEL 1
REMARK minimizedAffinity 13.7225714
REMARK minimizedRMSD -1
REMARK  1 active torsions:
REMARK  status: ('A' for Active; 'I' for Inactive)
REMARK    1  A    between atoms: C1_2  and  C2_3 
ROOT
ATOM      1  C2  UNL d   1      -5.631   0.238  -1.036  0.00  0.00    -0.073 A 
ATOM      2  C3  UNL d   1      -5.720  -1.039  -0.471  0.00  0.00    -0.002 A 
ATOM      3  C4  UNL d   1      -5.907  -2.158  -1.283  0.00  0.00     0.004 A 
ATOM      4  C5  UNL d   1      -5.998  -2.014  -2.667  0.00  0.00    -0.004 A 
ATOM      5  C6  UNL d   1      -5.899  -0.748  -3.252  0.00  0.00    -0.075 A 
ATOM      6  C7  UNL d   1      -5.998  -0.575  -4.739  0.00  0.00     0.076 C 
ATOM      7  C8  UNL d   1      -5.715   0.372  -2.430  0.00  0.00     0.001 A 
ENDROOT
BRANCH   1   8
ATOM      8  C1  UNL d   1      -5.423   1.449  -0.164  0.00  0.00     0.053 C 
ATOM      9  C   UNL d   1      -5.480   2.742  -0.961  0.00  0.00     0.018 C 
ENDBRANCH   1   8
TORSDOF 1
ENDMDL
