MODEL 1
REMARK minimizedAffinity -1.88905597
REMARK minimizedRMSD -1
REMARK  0 active torsions:
REMARK  status: ('A' for Active; 'I' for Inactive)
ROOT
ATOM      1  C   UNL d   1       1.008  -0.276  -0.420  0.00  0.00     0.023 A 
ATOM      2  C1  UNL d   1       0.743   0.863   0.339  0.00  0.00     0.003 A 
ATOM      3  C2  UNL d   1      -0.558   1.129   0.771  0.00  0.00     0.048 A 
ATOM      4  C3  UNL d   1      -1.589   0.250   0.440  0.00  0.00     0.023 A 
ATOM      5  C4  UNL d   1      -1.328  -0.892  -0.319  0.00  0.00     0.048 A 
ATOM      6  C5  UNL d   1      -0.026  -1.153  -0.749  0.00  0.00     0.003 A 
ATOM      7  I   UNL d   1      -3.527   0.643   1.082  0.00  0.00    -0.146 I 
ENDROOT
TORSDOF 0
ENDMDL
