MODEL 1
REMARK minimizedAffinity -4.00018358
REMARK minimizedRMSD -1
REMARK  0 active torsions:
REMARK  status: ('A' for Active; 'I' for Inactive)
ROOT
ATOM      1  C   UNL d   1       2.540  -1.088   0.778  0.00  0.00     0.023 A 
ATOM      2  C1  UNL d   1       1.573  -1.839   0.111  0.00  0.00     0.003 A 
ATOM      3  C2  UNL d   1       0.285  -1.327  -0.063  0.00  0.00     0.048 A 
ATOM      4  C3  UNL d   1      -0.028  -0.062   0.434  0.00  0.00     0.023 A 
ATOM      5  C4  UNL d   1       0.937   0.694   1.102  0.00  0.00     0.048 A 
ATOM      6  C5  UNL d   1       2.222   0.177   1.274  0.00  0.00     0.003 A 
ATOM      7  I   UNL d   1      -1.943   0.703   0.177  0.00  0.00    -0.146 I 
ENDROOT
TORSDOF 0
ENDMDL
