MODEL 1
REMARK minimizedAffinity -3.87086868
REMARK minimizedRMSD -1
REMARK  0 active torsions:
REMARK  status: ('A' for Active; 'I' for Inactive)
ROOT
ATOM      1  C   UNL d   1       3.428  -0.837   0.388  0.00  0.00     0.023 A 
ATOM      2  C1  UNL d   1       3.132   0.526   0.383  0.00  0.00     0.003 A 
ATOM      3  C2  UNL d   1       1.804   0.954   0.322  0.00  0.00     0.048 A 
ATOM      4  C3  UNL d   1       0.776   0.012   0.267  0.00  0.00     0.023 A 
ATOM      5  C4  UNL d   1       1.068  -1.353   0.273  0.00  0.00     0.048 A 
ATOM      6  C5  UNL d   1       2.397  -1.775   0.333  0.00  0.00     0.003 A 
ATOM      7  I   UNL d   1      -1.201   0.646   0.177  0.00  0.00    -0.146 I 
ENDROOT
TORSDOF 0
ENDMDL
