MODEL 1
REMARK minimizedAffinity -3.41385603
REMARK minimizedRMSD -1
REMARK  0 active torsions:
REMARK  status: ('A' for Active; 'I' for Inactive)
ROOT
ATOM      1  C   UNL d   1      -2.228   1.089  -0.475  0.00  0.00     0.023 A 
ATOM      2  C1  UNL d   1      -1.640   0.284  -1.450  0.00  0.00     0.003 A 
ATOM      3  C2  UNL d   1      -0.514  -0.481  -1.139  0.00  0.00     0.048 A 
ATOM      4  C3  UNL d   1       0.018  -0.438   0.149  0.00  0.00     0.023 A 
ATOM      5  C4  UNL d   1      -0.568   0.366   1.129  0.00  0.00     0.048 A 
ATOM      6  C5  UNL d   1      -1.693   1.130   0.813  0.00  0.00     0.003 A 
ATOM      7  I   UNL d   1       1.693  -1.576   0.614  0.00  0.00    -0.146 I 
ENDROOT
TORSDOF 0
ENDMDL
