MODEL 1
REMARK minimizedAffinity -2.93996716
REMARK minimizedRMSD -1
REMARK  0 active torsions:
REMARK  status: ('A' for Active; 'I' for Inactive)
ROOT
ATOM      1  C   UNL d   1       2.335  -1.864   0.183  0.00  0.00     0.023 A 
ATOM      2  C1  UNL d   1       1.257  -2.193  -0.639  0.00  0.00     0.003 A 
ATOM      3  C2  UNL d   1       0.118  -1.385  -0.657  0.00  0.00     0.048 A 
ATOM      4  C3  UNL d   1       0.064  -0.248   0.149  0.00  0.00     0.023 A 
ATOM      5  C4  UNL d   1       1.141   0.086   0.973  0.00  0.00     0.048 A 
ATOM      6  C5  UNL d   1       2.277  -0.726   0.988  0.00  0.00     0.003 A 
ATOM      7  I   UNL d   1      -1.629   0.956   0.124  0.00  0.00    -0.146 I 
ENDROOT
TORSDOF 0
ENDMDL
