MODEL 1
REMARK minimizedAffinity -3.51848006
REMARK minimizedRMSD -1
REMARK  0 active torsions:
REMARK  status: ('A' for Active; 'I' for Inactive)
ROOT
ATOM      1  C   UNL d   1       2.765  -0.777   0.887  0.00  0.00     0.023 A 
ATOM      2  C1  UNL d   1       1.846  -1.717   0.420  0.00  0.00     0.003 A 
ATOM      3  C2  UNL d   1       0.565  -1.313   0.037  0.00  0.00     0.048 A 
ATOM      4  C3  UNL d   1       0.210   0.033   0.124  0.00  0.00     0.023 A 
ATOM      5  C4  UNL d   1       1.126   0.977   0.590  0.00  0.00     0.048 A 
ATOM      6  C5  UNL d   1       2.405   0.568   0.972  0.00  0.00     0.003 A 
ATOM      7  I   UNL d   1      -1.696   0.636  -0.445  0.00  0.00    -0.146 I 
ENDROOT
TORSDOF 0
ENDMDL
