MODEL 1
REMARK minimizedAffinity -4.31605911
REMARK minimizedRMSD -1
REMARK  0 active torsions:
REMARK  status: ('A' for Active; 'I' for Inactive)
ROOT
ATOM      1  C   UNL d   1       2.681  -1.366   0.592  0.00  0.00     0.023 A 
ATOM      2  C1  UNL d   1       2.528  -0.046   1.017  0.00  0.00     0.003 A 
ATOM      3  C2  UNL d   1       1.296   0.596   0.876  0.00  0.00     0.048 A 
ATOM      4  C3  UNL d   1       0.220  -0.088   0.312  0.00  0.00     0.023 A 
ATOM      5  C4  UNL d   1       0.368  -1.410  -0.113  0.00  0.00     0.048 A 
ATOM      6  C5  UNL d   1       1.602  -2.047   0.028  0.00  0.00     0.003 A 
ATOM      7  I   UNL d   1      -1.615   0.865   0.102  0.00  0.00    -0.146 I 
ENDROOT
TORSDOF 0
ENDMDL
