MODEL 1
REMARK minimizedAffinity -3.67560911
REMARK minimizedRMSD -1
REMARK  0 active torsions:
REMARK  status: ('A' for Active; 'I' for Inactive)
ROOT
ATOM      1  C   UNL d   1       2.819  -1.184  -0.035  0.00  0.00     0.023 A 
ATOM      2  C1  UNL d   1       1.685  -1.976  -0.215  0.00  0.00     0.003 A 
ATOM      3  C2  UNL d   1       0.414  -1.403  -0.144  0.00  0.00     0.048 A 
ATOM      4  C3  UNL d   1       0.284  -0.037   0.107  0.00  0.00     0.023 A 
ATOM      5  C4  UNL d   1       1.416   0.759   0.287  0.00  0.00     0.048 A 
ATOM      6  C5  UNL d   1       2.685   0.182   0.216  0.00  0.00     0.003 A 
ATOM      7  I   UNL d   1      -1.608   0.818   0.213  0.00  0.00    -0.146 I 
ENDROOT
TORSDOF 0
ENDMDL
