MODEL 1
REMARK minimizedAffinity -3.68709922
REMARK minimizedRMSD -1
REMARK  0 active torsions:
REMARK  status: ('A' for Active; 'I' for Inactive)
ROOT
ATOM      1  C   UNL d   1       1.158  -0.566  -0.413  0.00  0.00     0.023 A 
ATOM      2  C1  UNL d   1       0.097  -1.382  -0.805  0.00  0.00     0.003 A 
ATOM      3  C2  UNL d   1      -1.216  -0.914  -0.716  0.00  0.00     0.048 A 
ATOM      4  C3  UNL d   1      -1.460   0.372  -0.234  0.00  0.00     0.023 A 
ATOM      5  C4  UNL d   1      -0.401   1.192   0.159  0.00  0.00     0.048 A 
ATOM      6  C5  UNL d   1       0.909   0.720   0.068  0.00  0.00     0.003 A 
ATOM      7  I   UNL d   1      -3.413   1.071  -0.101  0.00  0.00    -0.146 I 
ENDROOT
TORSDOF 0
ENDMDL
