MODEL 1
REMARK minimizedAffinity 6.29012442
REMARK minimizedRMSD -1
REMARK  0 active torsions:
REMARK  status: ('A' for Active; 'I' for Inactive)
ROOT
ATOM      1  C   UNL d   1       4.635   1.821  -0.409  0.00  0.00     0.077 C 
ATOM      2  C1  UNL d   1       3.866   1.258   0.749  0.00  0.00    -0.074 A 
ATOM      3  C2  UNL d   1       4.442   0.310   1.601  0.00  0.00    -0.005 A 
ATOM      4  C3  UNL d   1       3.718  -0.197   2.680  0.00  0.00     0.006 A 
ATOM      5  C4  UNL d   1       2.413   0.237   2.917  0.00  0.00    -0.005 A 
ATOM      6  C5  UNL d   1       1.821   1.186   2.077  0.00  0.00    -0.074 A 
ATOM      7  C6  UNL d   1       0.424   1.671   2.324  0.00  0.00     0.077 C 
ATOM      8  C7  UNL d   1       2.558   1.696   0.999  0.00  0.00    -0.001 A 
ENDROOT
TORSDOF 0
ENDMDL
