MODEL 1
REMARK minimizedAffinity -1.04458332
REMARK minimizedRMSD -1
REMARK  0 active torsions:
REMARK  status: ('A' for Active; 'I' for Inactive)
ROOT
ATOM      1  C   UNL d   1      -4.372   1.929   3.240  0.00  0.00     0.077 C 
ATOM      2  C1  UNL d   1      -4.935   3.317   3.321  0.00  0.00    -0.074 A 
ATOM      3  C2  UNL d   1      -5.468   3.944   2.190  0.00  0.00    -0.005 A 
ATOM      4  C3  UNL d   1      -5.997   5.231   2.283  0.00  0.00     0.006 A 
ATOM      5  C4  UNL d   1      -5.998   5.903   3.506  0.00  0.00    -0.005 A 
ATOM      6  C5  UNL d   1      -5.471   5.292   4.648  0.00  0.00    -0.074 A 
ATOM      7  C6  UNL d   1      -5.474   5.996   5.972  0.00  0.00     0.077 C 
ATOM      8  C7  UNL d   1      -4.948   3.995   4.548  0.00  0.00    -0.001 A 
ENDROOT
TORSDOF 0
ENDMDL
