MODEL 1
REMARK minimizedAffinity 13.8900852
REMARK minimizedRMSD -1
REMARK  0 active torsions:
REMARK  status: ('A' for Active; 'I' for Inactive)
ROOT
ATOM      1  C   UNL d   1      -2.522  -2.657   0.923  0.00  0.00     0.077 C 
ATOM      2  C1  UNL d   1      -2.988  -3.067  -0.443  0.00  0.00    -0.074 A 
ATOM      3  C2  UNL d   1      -3.829  -2.240  -1.194  0.00  0.00    -0.005 A 
ATOM      4  C3  UNL d   1      -4.247  -2.630  -2.466  0.00  0.00     0.006 A 
ATOM      5  C4  UNL d   1      -3.828  -3.849  -3.000  0.00  0.00    -0.005 A 
ATOM      6  C5  UNL d   1      -2.987  -4.690  -2.264  0.00  0.00    -0.074 A 
ATOM      7  C6  UNL d   1      -2.520  -5.999  -2.826  0.00  0.00     0.077 C 
ATOM      8  C7  UNL d   1      -2.566  -4.287  -0.989  0.00  0.00    -0.001 A 
ENDROOT
TORSDOF 0
ENDMDL
