MODEL 1
REMARK minimizedAffinity 21.6109657
REMARK minimizedRMSD -1
REMARK  0 active torsions:
REMARK  status: ('A' for Active; 'I' for Inactive)
ROOT
ATOM      1  C   UNL d   1      -3.777   3.041   2.931  0.00  0.00     0.077 C 
ATOM      2  C1  UNL d   1      -2.976   1.786   3.112  0.00  0.00    -0.074 A 
ATOM      3  C2  UNL d   1      -3.530   0.533   2.833  0.00  0.00    -0.005 A 
ATOM      4  C3  UNL d   1      -2.770  -0.625   2.997  0.00  0.00     0.006 A 
ATOM      5  C4  UNL d   1      -1.450  -0.542   3.441  0.00  0.00    -0.005 A 
ATOM      6  C5  UNL d   1      -0.878   0.703   3.725  0.00  0.00    -0.074 A 
ATOM      7  C6  UNL d   1       0.542   0.811   4.194  0.00  0.00     0.077 C 
ATOM      8  C7  UNL d   1      -1.646   1.862   3.551  0.00  0.00    -0.001 A 
ENDROOT
TORSDOF 0
ENDMDL
