MODEL 1
REMARK minimizedAffinity 12.2508049
REMARK minimizedRMSD -1
REMARK  0 active torsions:
REMARK  status: ('A' for Active; 'I' for Inactive)
ROOT
ATOM      1  C   UNL d   1      -4.210   1.743   3.741  0.00  0.00     0.077 C 
ATOM      2  C1  UNL d   1      -4.613   3.177   3.912  0.00  0.00    -0.074 A 
ATOM      3  C2  UNL d   1      -4.494   3.815   5.151  0.00  0.00    -0.005 A 
ATOM      4  C3  UNL d   1      -4.864   5.152   5.292  0.00  0.00     0.006 A 
ATOM      5  C4  UNL d   1      -5.356   5.865   4.198  0.00  0.00    -0.005 A 
ATOM      6  C5  UNL d   1      -5.481   5.244   2.951  0.00  0.00    -0.074 A 
ATOM      7  C6  UNL d   1      -5.999   5.998   1.762  0.00  0.00     0.077 C 
ATOM      8  C7  UNL d   1      -5.101   3.902   2.815  0.00  0.00    -0.001 A 
ENDROOT
TORSDOF 0
ENDMDL
