MODEL 1
REMARK minimizedAffinity 3.8086586
REMARK minimizedRMSD -1
REMARK  0 active torsions:
REMARK  status: ('A' for Active; 'I' for Inactive)
ROOT
ATOM      1  C   UNL d   1       4.100   0.145   1.620  0.00  0.00     0.077 C 
ATOM      2  C1  UNL d   1       3.269   1.386   1.484  0.00  0.00    -0.074 A 
ATOM      3  C2  UNL d   1       1.877   1.312   1.381  0.00  0.00    -0.005 A 
ATOM      4  C3  UNL d   1       1.117   2.475   1.264  0.00  0.00     0.006 A 
ATOM      5  C4  UNL d   1       1.741   3.723   1.249  0.00  0.00    -0.005 A 
ATOM      6  C5  UNL d   1       3.132   3.818   1.352  0.00  0.00    -0.074 A 
ATOM      7  C6  UNL d   1       3.818   5.152   1.347  0.00  0.00     0.077 C 
ATOM      8  C7  UNL d   1       3.888   2.644   1.476  0.00  0.00    -0.001 A 
ENDROOT
TORSDOF 0
ENDMDL
