MODEL 1
REMARK minimizedAffinity 9.002841
REMARK minimizedRMSD -1
REMARK  0 active torsions:
REMARK  status: ('A' for Active; 'I' for Inactive)
ROOT
ATOM      1  C   UNL d   1       3.679   4.945   1.980  0.00  0.00     0.077 C 
ATOM      2  C1  UNL d   1       2.993   3.617   1.865  0.00  0.00    -0.074 A 
ATOM      3  C2  UNL d   1       1.653   3.465   2.235  0.00  0.00    -0.005 A 
ATOM      4  C3  UNL d   1       1.025   2.226   2.113  0.00  0.00     0.006 A 
ATOM      5  C4  UNL d   1       1.730   1.126   1.621  0.00  0.00    -0.005 A 
ATOM      6  C5  UNL d   1       3.071   1.259   1.245  0.00  0.00    -0.074 A 
ATOM      7  C6  UNL d   1       3.840   0.090   0.705  0.00  0.00     0.077 C 
ATOM      8  C7  UNL d   1       3.692   2.509   1.364  0.00  0.00    -0.001 A 
ENDROOT
TORSDOF 0
ENDMDL
