MODEL 1
REMARK minimizedAffinity 3.5977633
REMARK minimizedRMSD -1
REMARK  0 active torsions:
REMARK  status: ('A' for Active; 'I' for Inactive)
ROOT
ATOM      1  C   UNL d   1       5.864   6.000  -6.000  0.00  0.00     0.077 C 
ATOM      2  C1  UNL d   1       4.660   5.510  -5.252  0.00  0.00    -0.074 A 
ATOM      3  C2  UNL d   1       3.382   5.993  -5.553  0.00  0.00    -0.005 A 
ATOM      4  C3  UNL d   1       2.270   5.521  -4.856  0.00  0.00     0.006 A 
ATOM      5  C4  UNL d   1       2.424   4.564  -3.852  0.00  0.00    -0.005 A 
ATOM      6  C5  UNL d   1       3.694   4.069  -3.538  0.00  0.00    -0.074 A 
ATOM      7  C6  UNL d   1       3.876   3.032  -2.469  0.00  0.00     0.077 C 
ATOM      8  C7  UNL d   1       4.806   4.543  -4.248  0.00  0.00    -0.001 A 
ENDROOT
TORSDOF 0
ENDMDL
