MODEL 1
REMARK minimizedAffinity 10.976326
REMARK minimizedRMSD -1
REMARK  0 active torsions:
REMARK  status: ('A' for Active; 'I' for Inactive)
ROOT
ATOM      1  C   UNL d   1      -1.498   4.344  -1.270  0.00  0.00     0.077 C 
ATOM      2  C1  UNL d   1      -0.340   3.681  -1.955  0.00  0.00    -0.074 A 
ATOM      3  C2  UNL d   1      -0.254   2.287  -2.033  0.00  0.00    -0.005 A 
ATOM      4  C3  UNL d   1       0.823   1.684  -2.682  0.00  0.00     0.006 A 
ATOM      5  C4  UNL d   1       1.824   2.467  -3.259  0.00  0.00    -0.005 A 
ATOM      6  C5  UNL d   1       1.754   3.862  -3.192  0.00  0.00    -0.074 A 
ATOM      7  C6  UNL d   1       2.816   4.719  -3.815  0.00  0.00     0.077 C 
ATOM      8  C7  UNL d   1       0.665   4.461  -2.544  0.00  0.00    -0.001 A 
ENDROOT
TORSDOF 0
ENDMDL
