MODEL 1
REMARK minimizedAffinity -1.59641647
REMARK minimizedRMSD -1
REMARK  0 active torsions:
REMARK  status: ('A' for Active; 'I' for Inactive)
ROOT
ATOM      1  C   UNL d   1       5.989   6.000  -5.768  0.00  0.00     0.077 C 
ATOM      2  C1  UNL d   1       4.684   5.316  -5.489  0.00  0.00    -0.074 A 
ATOM      3  C2  UNL d   1       4.645   4.072  -4.852  0.00  0.00    -0.005 A 
ATOM      4  C3  UNL d   1       3.422   3.453  -4.591  0.00  0.00     0.006 A 
ATOM      5  C4  UNL d   1       2.228   4.071  -4.964  0.00  0.00    -0.005 A 
ATOM      6  C5  UNL d   1       2.247   5.316  -5.601  0.00  0.00    -0.074 A 
ATOM      7  C6  UNL d   1       0.973   5.999  -6.000  0.00  0.00     0.077 C 
ATOM      8  C7  UNL d   1       3.479   5.935  -5.854  0.00  0.00    -0.001 A 
ENDROOT
TORSDOF 0
ENDMDL
