MODEL 1
REMARK minimizedAffinity 9.34467125
REMARK minimizedRMSD -1
REMARK  0 active torsions:
REMARK  status: ('A' for Active; 'I' for Inactive)
ROOT
ATOM      1  C   UNL d   1      -0.737  -2.728  -5.606  0.00  0.00     0.077 C 
ATOM      2  C1  UNL d   1      -1.351  -2.570  -4.247  0.00  0.00    -0.074 A 
ATOM      3  C2  UNL d   1      -0.853  -1.629  -3.339  0.00  0.00    -0.005 A 
ATOM      4  C3  UNL d   1      -1.440  -1.486  -2.082  0.00  0.00     0.006 A 
ATOM      5  C4  UNL d   1      -2.529  -2.281  -1.721  0.00  0.00    -0.005 A 
ATOM      6  C5  UNL d   1      -3.040  -3.226  -2.615  0.00  0.00    -0.074 A 
ATOM      7  C6  UNL d   1      -4.216  -4.081  -2.247  0.00  0.00     0.077 C 
ATOM      8  C7  UNL d   1      -2.449  -3.359  -3.879  0.00  0.00    -0.001 A 
ENDROOT
TORSDOF 0
ENDMDL
