MODEL 1
REMARK minimizedAffinity 15.7525463
REMARK minimizedRMSD -1
REMARK  0 active torsions:
REMARK  status: ('A' for Active; 'I' for Inactive)
ROOT
ATOM      1  C   UNL d   1       3.729   5.353   1.768  0.00  0.00     0.077 C 
ATOM      2  C1  UNL d   1       2.885   4.126   1.583  0.00  0.00    -0.074 A 
ATOM      3  C2  UNL d   1       1.492   4.192   1.679  0.00  0.00    -0.005 A 
ATOM      4  C3  UNL d   1       0.720   3.044   1.495  0.00  0.00     0.006 A 
ATOM      5  C4  UNL d   1       1.332   1.823   1.214  0.00  0.00    -0.005 A 
ATOM      6  C5  UNL d   1       2.725   1.738   1.114  0.00  0.00    -0.074 A 
ATOM      7  C6  UNL d   1       3.399   0.435   0.803  0.00  0.00     0.077 C 
ATOM      8  C7  UNL d   1       3.493   2.897   1.293  0.00  0.00    -0.001 A 
ENDROOT
TORSDOF 0
ENDMDL
