MODEL 1
REMARK minimizedAffinity 10.6683722
REMARK minimizedRMSD -1
REMARK  0 active torsions:
REMARK  status: ('A' for Active; 'I' for Inactive)
ROOT
ATOM      1  C   UNL d   1       4.713   1.602  -1.898  0.00  0.00     0.077 C 
ATOM      2  C1  UNL d   1       3.852   1.281  -0.713  0.00  0.00    -0.074 A 
ATOM      3  C2  UNL d   1       3.991   0.068  -0.030  0.00  0.00    -0.005 A 
ATOM      4  C3  UNL d   1       3.190  -0.212   1.076  0.00  0.00     0.006 A 
ATOM      5  C4  UNL d   1       2.242   0.716   1.511  0.00  0.00    -0.005 A 
ATOM      6  C5  UNL d   1       2.089   1.934   0.841  0.00  0.00    -0.074 A 
ATOM      7  C6  UNL d   1       1.083   2.946   1.301  0.00  0.00     0.077 C 
ATOM      8  C7  UNL d   1       2.903   2.211  -0.265  0.00  0.00    -0.001 A 
ENDROOT
TORSDOF 0
ENDMDL
