MODEL 1
REMARK minimizedAffinity 9.74639988
REMARK minimizedRMSD -1
REMARK  0 active torsions:
REMARK  status: ('A' for Active; 'I' for Inactive)
ROOT
ATOM      1  C   UNL d   1      -2.622  -3.028  -3.543  0.00  0.00     0.077 C 
ATOM      2  C1  UNL d   1      -3.659  -3.874  -2.865  0.00  0.00    -0.074 A 
ATOM      3  C2  UNL d   1      -4.928  -4.044  -3.429  0.00  0.00    -0.005 A 
ATOM      4  C3  UNL d   1      -5.879  -4.841  -2.792  0.00  0.00     0.006 A 
ATOM      5  C4  UNL d   1      -5.572  -5.475  -1.588  0.00  0.00    -0.005 A 
ATOM      6  C5  UNL d   1      -4.308  -5.317  -1.010  0.00  0.00    -0.074 A 
ATOM      7  C6  UNL d   1      -3.959  -5.999   0.279  0.00  0.00     0.077 C 
ATOM      8  C7  UNL d   1      -3.356  -4.520  -1.659  0.00  0.00    -0.001 A 
ENDROOT
TORSDOF 0
ENDMDL
