MODEL 1
REMARK minimizedAffinity 4.05540419
REMARK minimizedRMSD -1
REMARK  0 active torsions:
REMARK  status: ('A' for Active; 'I' for Inactive)
ROOT
ATOM      1  C   UNL d   1       0.394  -2.672  -0.283  0.00  0.00     0.077 C 
ATOM      2  C1  UNL d   1      -0.707  -2.711  -1.301  0.00  0.00    -0.074 A 
ATOM      3  C2  UNL d   1      -2.020  -2.379  -0.953  0.00  0.00    -0.005 A 
ATOM      4  C3  UNL d   1      -3.031  -2.411  -1.914  0.00  0.00     0.006 A 
ATOM      5  C4  UNL d   1      -2.740  -2.775  -3.229  0.00  0.00    -0.005 A 
ATOM      6  C5  UNL d   1      -1.432  -3.109  -3.595  0.00  0.00    -0.074 A 
ATOM      7  C6  UNL d   1      -1.100  -3.493  -5.007  0.00  0.00     0.077 C 
ATOM      8  C7  UNL d   1      -0.421  -3.068  -2.626  0.00  0.00    -0.001 A 
ENDROOT
TORSDOF 0
ENDMDL
