MODEL 1
REMARK minimizedAffinity 9.47856617
REMARK minimizedRMSD -1
REMARK  0 active torsions:
REMARK  status: ('A' for Active; 'I' for Inactive)
ROOT
ATOM      1  C   UNL d   1      -0.238  -1.697  -0.432  0.00  0.00     0.077 C 
ATOM      2  C1  UNL d   1      -1.210  -2.147  -1.482  0.00  0.00    -0.074 A 
ATOM      3  C2  UNL d   1      -2.491  -2.588  -1.135  0.00  0.00    -0.005 A 
ATOM      4  C3  UNL d   1      -3.387  -2.994  -2.124  0.00  0.00     0.006 A 
ATOM      5  C4  UNL d   1      -3.012  -2.963  -3.468  0.00  0.00    -0.005 A 
ATOM      6  C5  UNL d   1      -1.735  -2.525  -3.834  0.00  0.00    -0.074 A 
ATOM      7  C6  UNL d   1      -1.319  -2.476  -5.274  0.00  0.00     0.077 C 
ATOM      8  C7  UNL d   1      -0.843  -2.112  -2.835  0.00  0.00    -0.001 A 
ENDROOT
TORSDOF 0
ENDMDL
