MODEL 1
REMARK minimizedAffinity -3.38766909
REMARK minimizedRMSD -1
REMARK  0 active torsions:
REMARK  status: ('A' for Active; 'I' for Inactive)
ROOT
ATOM      1  C   UNL d   1      -0.307  -0.118  -0.940  0.00  0.00     0.172 C 
ATOM      2  N   UNL d   1       0.068  -0.234   0.450  0.00  0.00    -0.070 N 
ATOM      3  C1  UNL d   1      -0.649  -0.884   1.419  0.00  0.00    -0.004 A 
ATOM      4  C2  UNL d   1       0.042  -0.768   2.605  0.00  0.00    -0.047 A 
ATOM      5  C3  UNL d   1       1.214  -0.021   2.341  0.00  0.00    -0.047 A 
ATOM      6  C4  UNL d   1       1.205   0.297   0.999  0.00  0.00    -0.004 A 
ENDROOT
TORSDOF 0
ENDMDL
