MODEL 1
REMARK minimizedAffinity -2.52008963
REMARK minimizedRMSD -1
REMARK  0 active torsions:
REMARK  status: ('A' for Active; 'I' for Inactive)
ROOT
ATOM      1  C   UNL d   1      -0.170   0.527  -2.104  0.00  0.00     0.172 C 
ATOM      2  N   UNL d   1      -0.769   1.774  -2.518  0.00  0.00    -0.070 N 
ATOM      3  C1  UNL d   1      -0.459   2.468  -3.657  0.00  0.00    -0.004 A 
ATOM      4  C2  UNL d   1      -1.246   3.599  -3.689  0.00  0.00    -0.047 A 
ATOM      5  C3  UNL d   1      -2.056   3.584  -2.529  0.00  0.00    -0.047 A 
ATOM      6  C4  UNL d   1      -1.740   2.443  -1.822  0.00  0.00    -0.004 A 
ENDROOT
TORSDOF 0
ENDMDL
