MODEL 1
REMARK minimizedAffinity -3.52888036
REMARK minimizedRMSD -1
REMARK  0 active torsions:
REMARK  status: ('A' for Active; 'I' for Inactive)
ROOT
ATOM      1  C   UNL d   1      -0.416   0.115  -0.766  0.00  0.00     0.172 C 
ATOM      2  N   UNL d   1       0.115  -0.161   0.548  0.00  0.00    -0.070 N 
ATOM      3  C1  UNL d   1      -0.613  -0.564   1.635  0.00  0.00    -0.004 A 
ATOM      4  C2  UNL d   1       0.257  -0.720   2.692  0.00  0.00    -0.047 A 
ATOM      5  C3  UNL d   1       1.553  -0.399   2.225  0.00  0.00    -0.047 A 
ATOM      6  C4  UNL d   1       1.437  -0.056   0.894  0.00  0.00    -0.004 A 
ENDROOT
TORSDOF 0
ENDMDL
