MODEL 1
REMARK minimizedAffinity -3.13848805
REMARK minimizedRMSD -1
REMARK  0 active torsions:
REMARK  status: ('A' for Active; 'I' for Inactive)
ROOT
ATOM      1  C   UNL d   1      -0.193  -0.081  -1.282  0.00  0.00     0.172 C 
ATOM      2  N   UNL d   1      -0.071  -0.433   0.114  0.00  0.00    -0.070 N 
ATOM      3  C1  UNL d   1      -1.021  -0.222   1.077  0.00  0.00    -0.004 A 
ATOM      4  C2  UNL d   1      -0.524  -0.696   2.271  0.00  0.00    -0.047 A 
ATOM      5  C3  UNL d   1       0.770  -1.210   2.018  0.00  0.00    -0.047 A 
ATOM      6  C4  UNL d   1       1.025  -1.034   0.674  0.00  0.00    -0.004 A 
ENDROOT
TORSDOF 0
ENDMDL
