MODEL 1
REMARK minimizedAffinity -0.896175802
REMARK minimizedRMSD -1
REMARK  0 active torsions:
REMARK  status: ('A' for Active; 'I' for Inactive)
ROOT
ATOM      1  C   UNL d   1       0.252  -1.215   2.508  0.00  0.00     0.172 C 
ATOM      2  N   UNL d   1      -0.016  -0.648   1.207  0.00  0.00    -0.070 N 
ATOM      3  C1  UNL d   1       0.896  -0.503   0.196  0.00  0.00    -0.004 A 
ATOM      4  C2  UNL d   1       0.250   0.076  -0.875  0.00  0.00    -0.047 A 
ATOM      5  C3  UNL d   1      -1.096   0.288  -0.494  0.00  0.00    -0.047 A 
ATOM      6  C4  UNL d   1      -1.234  -0.169   0.799  0.00  0.00    -0.004 A 
ENDROOT
TORSDOF 0
ENDMDL
