MODEL 1
REMARK minimizedAffinity -2.91924119
REMARK minimizedRMSD -1
REMARK  0 active torsions:
REMARK  status: ('A' for Active; 'I' for Inactive)
ROOT
ATOM      1  C   UNL d   1      -1.137   3.790  -3.361  0.00  0.00     0.172 C 
ATOM      2  N   UNL d   1      -2.437   3.261  -3.020  0.00  0.00    -0.070 N 
ATOM      3  C1  UNL d   1      -3.601   3.981  -2.959  0.00  0.00    -0.004 A 
ATOM      4  C2  UNL d   1      -4.613   3.117  -2.601  0.00  0.00    -0.047 A 
ATOM      5  C3  UNL d   1      -4.038   1.834  -2.441  0.00  0.00    -0.047 A 
ATOM      6  C4  UNL d   1      -2.690   1.952  -2.706  0.00  0.00    -0.004 A 
ENDROOT
TORSDOF 0
ENDMDL
