MODEL 1
REMARK minimizedAffinity -2.35224032
REMARK minimizedRMSD -1
REMARK  0 active torsions:
REMARK  status: ('A' for Active; 'I' for Inactive)
ROOT
ATOM      1  C   UNL d   1      -3.706   3.662  -2.322  0.00  0.00     0.172 C 
ATOM      2  N   UNL d   1      -2.296   3.373  -2.436  0.00  0.00    -0.070 N 
ATOM      3  C1  UNL d   1      -1.334   4.249  -2.863  0.00  0.00    -0.004 A 
ATOM      4  C2  UNL d   1      -0.122   3.594  -2.828  0.00  0.00    -0.047 A 
ATOM      5  C3  UNL d   1      -0.364   2.279  -2.366  0.00  0.00    -0.047 A 
ATOM      6  C4  UNL d   1      -1.719   2.169  -2.131  0.00  0.00    -0.004 A 
ENDROOT
TORSDOF 0
ENDMDL
