MODEL 1
REMARK minimizedAffinity -1.0663321
REMARK minimizedRMSD -1
REMARK  0 active torsions:
REMARK  status: ('A' for Active; 'I' for Inactive)
ROOT
ATOM      1  C   UNL d   1      -0.661  -1.235   2.654  0.00  0.00     0.172 C 
ATOM      2  N   UNL d   1       0.325  -0.766   1.709  0.00  0.00    -0.070 N 
ATOM      3  C1  UNL d   1       1.566  -0.282   2.024  0.00  0.00    -0.004 A 
ATOM      4  C2  UNL d   1       2.198   0.057   0.847  0.00  0.00    -0.047 A 
ATOM      5  C3  UNL d   1       1.305  -0.232  -0.212  0.00  0.00    -0.047 A 
ATOM      6  C4  UNL d   1       0.153  -0.741   0.350  0.00  0.00    -0.004 A 
ENDROOT
TORSDOF 0
ENDMDL
