MODEL 1
REMARK minimizedAffinity -3.93929482
REMARK minimizedRMSD -1
REMARK  0 active torsions:
REMARK  status: ('A' for Active; 'I' for Inactive)
ROOT
ATOM      1  C   UNL d   1      -0.059   1.060  -0.690  0.00  0.00     0.172 C 
ATOM      2  N   UNL d   1       0.115   0.430   0.597  0.00  0.00    -0.070 N 
ATOM      3  C1  UNL d   1      -0.530  -0.699   1.027  0.00  0.00    -0.004 A 
ATOM      4  C2  UNL d   1      -0.091  -0.975   2.304  0.00  0.00    -0.047 A 
ATOM      5  C3  UNL d   1       0.849   0.023   2.654  0.00  0.00    -0.047 A 
ATOM      6  C4  UNL d   1       0.957   0.880   1.580  0.00  0.00    -0.004 A 
ENDROOT
TORSDOF 0
ENDMDL
