MODEL 1
REMARK minimizedAffinity 2.17955256
REMARK minimizedRMSD -1
REMARK  0 active torsions:
REMARK  status: ('A' for Active; 'I' for Inactive)
ROOT
ATOM      1  C   UNL d   1       0.137   3.350  -4.114  0.00  0.00     0.172 C 
ATOM      2  N   UNL d   1      -1.039   3.338  -3.276  0.00  0.00    -0.070 N 
ATOM      3  C1  UNL d   1      -1.755   2.226  -2.922  0.00  0.00    -0.004 A 
ATOM      4  C2  UNL d   1      -2.798   2.635  -2.119  0.00  0.00    -0.047 A 
ATOM      5  C3  UNL d   1      -2.705   4.041  -1.986  0.00  0.00    -0.047 A 
ATOM      6  C4  UNL d   1      -1.607   4.450  -2.713  0.00  0.00    -0.004 A 
ENDROOT
TORSDOF 0
ENDMDL
