MODEL 1
REMARK minimizedAffinity -2.58226848
REMARK minimizedRMSD -1
REMARK  0 active torsions:
REMARK  status: ('A' for Active; 'I' for Inactive)
ROOT
ATOM      1  C   UNL d   1      -0.020  -1.442   2.264  0.00  0.00     0.172 C 
ATOM      2  N   UNL d   1       0.153  -1.303   0.837  0.00  0.00    -0.070 N 
ATOM      3  C1  UNL d   1       1.335  -1.440   0.159  0.00  0.00    -0.004 A 
ATOM      4  C2  UNL d   1       1.080  -1.233  -1.179  0.00  0.00    -0.047 A 
ATOM      5  C3  UNL d   1      -0.303  -0.963  -1.310  0.00  0.00    -0.047 A 
ATOM      6  C4  UNL d   1      -0.852  -1.012  -0.046  0.00  0.00    -0.004 A 
ENDROOT
TORSDOF 0
ENDMDL
