MODEL 1
REMARK minimizedAffinity -3.03719187
REMARK minimizedRMSD -1
REMARK  0 active torsions:
REMARK  status: ('A' for Active; 'I' for Inactive)
ROOT
ATOM      1  C   UNL d   1      -0.071  -0.271  -1.584  0.00  0.00     0.172 C 
ATOM      2  N   UNL d   1       0.244  -0.490  -0.191  0.00  0.00    -0.070 N 
ATOM      3  C1  UNL d   1      -0.644  -0.877   0.777  0.00  0.00    -0.004 A 
ATOM      4  C2  UNL d   1       0.045  -0.976   1.966  0.00  0.00    -0.047 A 
ATOM      5  C3  UNL d   1       1.394  -0.637   1.704  0.00  0.00    -0.047 A 
ATOM      6  C4  UNL d   1       1.489  -0.340   0.360  0.00  0.00    -0.004 A 
ENDROOT
TORSDOF 0
ENDMDL
