MODEL 1
REMARK minimizedAffinity 1.58268201
REMARK minimizedRMSD -1
REMARK  0 active torsions:
REMARK  status: ('A' for Active; 'I' for Inactive)
ROOT
ATOM      1  C4' PXY d   1      -1.666   2.147  -3.163  0.00  0.00     0.077 C 
ATOM      2  C1' PXY d   1       0.991   4.416   1.442  0.00  0.00     0.077 C 
ATOM      3  C1  PXY d   1       0.292   3.833   0.229  0.00  0.00    -0.082 A 
ATOM      4  C2  PXY d   1      -0.246   2.626   0.302  0.00  0.00     0.003 A 
ATOM      5  C3  PXY d   1      -0.854   2.071  -0.794  0.00  0.00     0.003 A 
ATOM      6  C4  PXY d   1      -0.959   2.779  -1.962  0.00  0.00    -0.082 A 
ATOM      7  C5  PXY d   1      -0.421   4.015  -2.041  0.00  0.00     0.003 A 
ATOM      8  C6  PXY d   1       0.228   4.544  -0.929  0.00  0.00     0.003 A 
ENDROOT
TORSDOF 0
ENDMDL
