MODEL 1
REMARK minimizedAffinity 4.9638648
REMARK minimizedRMSD -1
REMARK  0 active torsions:
REMARK  status: ('A' for Active; 'I' for Inactive)
ROOT
ATOM      1  C4' PXY d   1      -1.690   3.326  -3.703  0.00  0.00     0.077 C 
ATOM      2  C1' PXY d   1       1.471   4.004   1.088  0.00  0.00     0.077 C 
ATOM      3  C1  PXY d   1       0.650   3.835  -0.174  0.00  0.00    -0.082 A 
ATOM      4  C2  PXY d   1      -0.602   3.415  -0.089  0.00  0.00     0.003 A 
ATOM      5  C3  PXY d   1      -1.349   3.226  -1.223  0.00  0.00     0.003 A 
ATOM      6  C4  PXY d   1      -0.827   3.520  -2.454  0.00  0.00    -0.082 A 
ATOM      7  C5  PXY d   1       0.446   3.959  -2.549  0.00  0.00     0.003 A 
ATOM      8  C6  PXY d   1       1.201   4.105  -1.389  0.00  0.00     0.003 A 
ENDROOT
TORSDOF 0
ENDMDL
