MODEL 1
REMARK minimizedAffinity 2.86467409
REMARK minimizedRMSD -1
REMARK  0 active torsions:
REMARK  status: ('A' for Active; 'I' for Inactive)
ROOT
ATOM      1  C4' PXY d   1      -1.196   1.342   3.421  0.00  0.00     0.077 C 
ATOM      2  C1' PXY d   1       0.322   3.878  -1.547  0.00  0.00     0.077 C 
ATOM      3  C1  PXY d   1      -0.067   3.220  -0.237  0.00  0.00    -0.082 A 
ATOM      4  C2  PXY d   1      -0.626   2.021  -0.249  0.00  0.00     0.003 A 
ATOM      5  C3  PXY d   1      -1.013   1.425   0.924  0.00  0.00     0.003 A 
ATOM      6  C4  PXY d   1      -0.778   2.040   2.124  0.00  0.00    -0.082 A 
ATOM      7  C5  PXY d   1      -0.198   3.259   2.145  0.00  0.00     0.003 A 
ATOM      8  C6  PXY d   1       0.150   3.865   0.941  0.00  0.00     0.003 A 
ENDROOT
TORSDOF 0
ENDMDL
