MODEL 1
REMARK minimizedAffinity -1.53956378
REMARK minimizedRMSD -1
REMARK  0 active torsions:
REMARK  status: ('A' for Active; 'I' for Inactive)
ROOT
ATOM      1  C4' PXY d   1      -1.126   1.916   2.850  0.00  0.00     0.077 C 
ATOM      2  C1' PXY d   1       0.080   4.061  -2.380  0.00  0.00     0.077 C 
ATOM      3  C1  PXY d   1      -0.230   3.509  -1.003  0.00  0.00    -0.082 A 
ATOM      4  C2  PXY d   1      -0.450   2.213  -0.852  0.00  0.00     0.003 A 
ATOM      5  C3  PXY d   1      -0.764   1.701   0.381  0.00  0.00     0.003 A 
ATOM      6  C4  PXY d   1      -0.800   2.516   1.480  0.00  0.00    -0.082 A 
ATOM      7  C5  PXY d   1      -0.566   3.838   1.337  0.00  0.00     0.003 A 
ATOM      8  C6  PXY d   1      -0.290   4.344   0.070  0.00  0.00     0.003 A 
ENDROOT
TORSDOF 0
ENDMDL
