MODEL 1
REMARK minimizedAffinity 12.6902399
REMARK minimizedRMSD -1
REMARK  0 active torsions:
REMARK  status: ('A' for Active; 'I' for Inactive)
ROOT
ATOM      1  C4' PXY d   1      -0.677   1.354   0.703  0.00  0.00     0.077 C 
ATOM      2  C1' PXY d   1       1.666   5.754  -2.223  0.00  0.00     0.077 C 
ATOM      3  C1  PXY d   1       1.044   4.597  -1.466  0.00  0.00    -0.082 A 
ATOM      4  C2  PXY d   1       1.032   4.612  -0.143  0.00  0.00     0.003 A 
ATOM      5  C3  PXY d   1       0.502   3.559   0.558  0.00  0.00     0.003 A 
ATOM      6  C4  PXY d   1      -0.068   2.505  -0.103  0.00  0.00    -0.082 A 
ATOM      7  C5  PXY d   1      -0.069   2.487  -1.453  0.00  0.00     0.003 A 
ATOM      8  C6  PXY d   1       0.510   3.546  -2.145  0.00  0.00     0.003 A 
ENDROOT
TORSDOF 0
ENDMDL
