MODEL 1
REMARK minimizedAffinity 6.44157696
REMARK minimizedRMSD -1
REMARK  0 active torsions:
REMARK  status: ('A' for Active; 'I' for Inactive)
ROOT
ATOM      1  C4' PXY d   1      -0.628   4.237  -2.533  0.00  0.00     0.077 C 
ATOM      2  C1' PXY d   1      -0.102   1.812   2.688  0.00  0.00     0.077 C 
ATOM      3  C1  PXY d   1      -0.233   2.458   1.323  0.00  0.00    -0.082 A 
ATOM      4  C2  PXY d   1      -1.274   2.169   0.559  0.00  0.00     0.003 A 
ATOM      5  C3  PXY d   1      -1.391   2.719  -0.691  0.00  0.00     0.003 A 
ATOM      6  C4  PXY d   1      -0.460   3.616  -1.144  0.00  0.00    -0.082 A 
ATOM      7  C5  PXY d   1       0.600   3.923  -0.366  0.00  0.00     0.003 A 
ATOM      8  C6  PXY d   1       0.722   3.322   0.883  0.00  0.00     0.003 A 
ENDROOT
TORSDOF 0
ENDMDL
