MODEL 1
REMARK minimizedAffinity 7.56725168
REMARK minimizedRMSD -1
REMARK  0 active torsions:
REMARK  status: ('A' for Active; 'I' for Inactive)
ROOT
ATOM      1  C4' PXY d   1      -1.047   3.589  -3.254  0.00  0.00     0.077 C 
ATOM      2  C1' PXY d   1       0.198   2.147   2.204  0.00  0.00     0.077 C 
ATOM      3  C1  PXY d   1      -0.125   2.537   0.775  0.00  0.00    -0.082 A 
ATOM      4  C2  PXY d   1      -0.972   1.803   0.072  0.00  0.00     0.003 A 
ATOM      5  C3  PXY d   1      -1.251   2.123  -1.232  0.00  0.00     0.003 A 
ATOM      6  C4  PXY d   1      -0.699   3.238  -1.805  0.00  0.00    -0.082 A 
ATOM      7  C5  PXY d   1       0.158   3.998  -1.090  0.00  0.00     0.003 A 
ATOM      8  C6  PXY d   1       0.460   3.632   0.218  0.00  0.00     0.003 A 
ENDROOT
TORSDOF 0
ENDMDL
