MODEL 1
REMARK minimizedAffinity 8.43409061
REMARK minimizedRMSD -1
REMARK  0 active torsions:
REMARK  status: ('A' for Active; 'I' for Inactive)
ROOT
ATOM      1  C4' PXY d   1      -1.126   2.734  -3.303  0.00  0.00     0.077 C 
ATOM      2  C1' PXY d   1       1.645   5.092   1.189  0.00  0.00     0.077 C 
ATOM      3  C1  PXY d   1       0.918   4.462   0.017  0.00  0.00    -0.082 A 
ATOM      4  C2  PXY d   1       1.036   4.994  -1.189  0.00  0.00     0.003 A 
ATOM      5  C3  PXY d   1       0.360   4.456  -2.254  0.00  0.00     0.003 A 
ATOM      6  C4  PXY d   1      -0.403   3.331  -2.093  0.00  0.00    -0.082 A 
ATOM      7  C5  PXY d   1      -0.520   2.776  -0.868  0.00  0.00     0.003 A 
ATOM      8  C6  PXY d   1       0.141   3.361   0.208  0.00  0.00     0.003 A 
ENDROOT
TORSDOF 0
ENDMDL
