MODEL 1
REMARK minimizedAffinity 9.57630539
REMARK minimizedRMSD -1
REMARK  0 active torsions:
REMARK  status: ('A' for Active; 'I' for Inactive)
ROOT
ATOM      1  C4' PXY d   1      -1.174   3.758  -4.047  0.00  0.00     0.077 C 
ATOM      2  C1' PXY d   1       1.298   3.976   1.174  0.00  0.00     0.077 C 
ATOM      3  C1  PXY d   1       0.659   3.926  -0.200  0.00  0.00    -0.082 A 
ATOM      4  C2  PXY d   1      -0.633   3.664  -0.311  0.00  0.00     0.003 A 
ATOM      5  C3  PXY d   1      -1.220   3.584  -1.548  0.00  0.00     0.003 A 
ATOM      6  C4  PXY d   1      -0.489   3.827  -2.679  0.00  0.00    -0.082 A 
ATOM      7  C5  PXY d   1       0.828   4.106  -2.573  0.00  0.00     0.003 A 
ATOM      8  C6  PXY d   1       1.414   4.142  -1.311  0.00  0.00     0.003 A 
ENDROOT
TORSDOF 0
ENDMDL
