MODEL 1
REMARK minimizedAffinity 9.93041134
REMARK minimizedRMSD -1
REMARK  0 active torsions:
REMARK  status: ('A' for Active; 'I' for Inactive)
ROOT
ATOM      1  C4' PXY d   1      -5.994  -5.998   4.936  0.00  0.00     0.077 C 
ATOM      2  C1' PXY d   1      -2.447  -1.437   5.091  0.00  0.00     0.077 C 
ATOM      3  C1  PXY d   1      -3.380  -2.632   5.063  0.00  0.00    -0.082 A 
ATOM      4  C2  PXY d   1      -3.241  -3.548   4.119  0.00  0.00     0.003 A 
ATOM      5  C3  PXY d   1      -4.096  -4.618   4.060  0.00  0.00     0.003 A 
ATOM      6  C4  PXY d   1      -5.070  -4.780   5.009  0.00  0.00    -0.082 A 
ATOM      7  C5  PXY d   1      -5.211  -3.855   5.982  0.00  0.00     0.003 A 
ATOM      8  C6  PXY d   1      -4.359  -2.755   6.000  0.00  0.00     0.003 A 
ENDROOT
TORSDOF 0
ENDMDL
