MODEL 1
REMARK minimizedAffinity 6.2232585
REMARK minimizedRMSD -1
REMARK  0 active torsions:
REMARK  status: ('A' for Active; 'I' for Inactive)
ROOT
ATOM      1  C4' PXY d   1      -0.467   2.323   1.868  0.00  0.00     0.077 C 
ATOM      2  C1' PXY d   1      -1.943  -2.602   4.511  0.00  0.00     0.077 C 
ATOM      3  C1  PXY d   1      -1.568  -1.309   3.812  0.00  0.00    -0.082 A 
ATOM      4  C2  PXY d   1      -0.294  -1.040   3.575  0.00  0.00     0.003 A 
ATOM      5  C3  PXY d   1       0.065   0.138   2.973  0.00  0.00     0.003 A 
ATOM      6  C4  PXY d   1      -0.893   1.027   2.562  0.00  0.00    -0.082 A 
ATOM      7  C5  PXY d   1      -2.195   0.754   2.792  0.00  0.00     0.003 A 
ATOM      8  C6  PXY d   1      -2.536  -0.429   3.441  0.00  0.00     0.003 A 
ENDROOT
TORSDOF 0
ENDMDL
