MODEL 1
REMARK minimizedAffinity 1.77717614
REMARK minimizedRMSD -1
REMARK  0 active torsions:
REMARK  status: ('A' for Active; 'I' for Inactive)
ROOT
ATOM      1  C4' PXY d   1      -2.663   0.595  -2.166  0.00  0.00     0.077 C 
ATOM      2  C1' PXY d   1       0.978   4.476   0.091  0.00  0.00     0.077 C 
ATOM      3  C1  PXY d   1       0.020   3.467  -0.510  0.00  0.00    -0.082 A 
ATOM      4  C2  PXY d   1      -0.431   2.469   0.234  0.00  0.00     0.003 A 
ATOM      5  C3  PXY d   1      -1.273   1.530  -0.303  0.00  0.00     0.003 A 
ATOM      6  C4  PXY d   1      -1.701   1.642  -1.599  0.00  0.00    -0.082 A 
ATOM      7  C5  PXY d   1      -1.254   2.663  -2.360  0.00  0.00     0.003 A 
ATOM      8  C6  PXY d   1      -0.367   3.583  -1.809  0.00  0.00     0.003 A 
ENDROOT
TORSDOF 0
ENDMDL
