MODEL 1
REMARK minimizedAffinity 6.12445831
REMARK minimizedRMSD -1
REMARK  0 active torsions:
REMARK  status: ('A' for Active; 'I' for Inactive)
ROOT
ATOM      1  C4' PXY d   1      -1.556   3.692  -3.393  0.00  0.00     0.077 C 
ATOM      2  C1' PXY d   1       1.434   3.854   1.552  0.00  0.00     0.077 C 
ATOM      3  C1  PXY d   1       0.639   3.815   0.261  0.00  0.00    -0.082 A 
ATOM      4  C2  PXY d   1       1.079   3.093  -0.756  0.00  0.00     0.003 A 
ATOM      5  C3  PXY d   1       0.389   3.071  -1.941  0.00  0.00     0.003 A 
ATOM      6  C4  PXY d   1      -0.791   3.754  -2.068  0.00  0.00    -0.082 A 
ATOM      7  C5  PXY d   1      -1.252   4.484  -1.031  0.00  0.00     0.003 A 
ATOM      8  C6  PXY d   1      -0.516   4.526   0.150  0.00  0.00     0.003 A 
ENDROOT
TORSDOF 0
ENDMDL
