MODEL 1
REMARK minimizedAffinity 8.48158646
REMARK minimizedRMSD -1
REMARK  0 active torsions:
REMARK  status: ('A' for Active; 'I' for Inactive)
ROOT
ATOM      1  C4' PXY d   1       0.955   5.239  -1.755  0.00  0.00     0.077 C 
ATOM      2  C1' PXY d   1      -1.893   1.715   1.834  0.00  0.00     0.077 C 
ATOM      3  C1  PXY d   1      -1.155   2.648   0.895  0.00  0.00    -0.082 A 
ATOM      4  C2  PXY d   1      -0.350   2.146  -0.028  0.00  0.00     0.003 A 
ATOM      5  C3  PXY d   1       0.349   2.977  -0.865  0.00  0.00     0.003 A 
ATOM      6  C4  PXY d   1       0.183   4.334  -0.792  0.00  0.00    -0.082 A 
ATOM      7  C5  PXY d   1      -0.645   4.854   0.140  0.00  0.00     0.003 A 
ATOM      8  C6  PXY d   1      -1.314   3.995   1.007  0.00  0.00     0.003 A 
ENDROOT
TORSDOF 0
ENDMDL
