MODEL 1
REMARK minimizedAffinity 8.80092907
REMARK minimizedRMSD -1
REMARK  0 active torsions:
REMARK  status: ('A' for Active; 'I' for Inactive)
ROOT
ATOM      1  C4' PXY d   1      -1.556   5.259  -3.830  0.00  0.00     0.077 C 
ATOM      2  C1' PXY d   1       0.740   3.755   1.257  0.00  0.00     0.077 C 
ATOM      3  C1  PXY d   1       0.146   4.141  -0.083  0.00  0.00    -0.082 A 
ATOM      4  C2  PXY d   1      -0.424   5.326  -0.228  0.00  0.00     0.003 A 
ATOM      5  C3  PXY d   1      -0.995   5.679  -1.424  0.00  0.00     0.003 A 
ATOM      6  C4  PXY d   1      -0.935   4.831  -2.498  0.00  0.00    -0.082 A 
ATOM      7  C5  PXY d   1      -0.345   3.624  -2.360  0.00  0.00     0.003 A 
ATOM      8  C6  PXY d   1       0.192   3.269  -1.126  0.00  0.00     0.003 A 
ENDROOT
TORSDOF 0
ENDMDL
