MODEL 1
REMARK minimizedAffinity 14.2024088
REMARK minimizedRMSD -1
REMARK  0 active torsions:
REMARK  status: ('A' for Active; 'I' for Inactive)
ROOT
ATOM      1  C4' PXY d   1      -1.300   3.158  -2.281  0.00  0.00     0.077 C 
ATOM      2  C1' PXY d   1       0.778   0.776   2.559  0.00  0.00     0.077 C 
ATOM      3  C1  PXY d   1       0.240   1.412   1.293  0.00  0.00    -0.082 A 
ATOM      4  C2  PXY d   1      -0.862   0.932   0.737  0.00  0.00     0.003 A 
ATOM      5  C3  PXY d   1      -1.345   1.475  -0.425  0.00  0.00     0.003 A 
ATOM      6  C4  PXY d   1      -0.725   2.553  -0.997  0.00  0.00    -0.082 A 
ATOM      7  C5  PXY d   1       0.393   3.055  -0.430  0.00  0.00     0.003 A 
ATOM      8  C6  PXY d   1       0.891   2.464   0.727  0.00  0.00     0.003 A 
ENDROOT
TORSDOF 0
ENDMDL
