MODEL 1
REMARK minimizedAffinity -0.488951504
REMARK minimizedRMSD -1
REMARK  0 active torsions:
REMARK  status: ('A' for Active; 'I' for Inactive)
ROOT
ATOM      1  C4' PXY d   1      -5.983  -2.040   5.746  0.00  0.00     0.077 C 
ATOM      2  C1' PXY d   1      -0.740  -4.474   5.725  0.00  0.00     0.077 C 
ATOM      3  C1  PXY d   1      -2.120  -3.848   5.728  0.00  0.00    -0.082 A 
ATOM      4  C2  PXY d   1      -2.253  -2.556   5.474  0.00  0.00     0.003 A 
ATOM      5  C3  PXY d   1      -3.490  -1.966   5.505  0.00  0.00     0.003 A 
ATOM      6  C4  PXY d   1      -4.610  -2.717   5.744  0.00  0.00    -0.082 A 
ATOM      7  C5  PXY d   1      -4.484  -4.038   5.993  0.00  0.00     0.003 A 
ATOM      8  C6  PXY d   1      -3.215  -4.609   5.998  0.00  0.00     0.003 A 
ENDROOT
TORSDOF 0
ENDMDL
