MODEL 1
REMARK minimizedAffinity 6.36902714
REMARK minimizedRMSD -1
REMARK  0 active torsions:
REMARK  status: ('A' for Active; 'I' for Inactive)
ROOT
ATOM      1  C4' PXY d   1       1.134   2.148   3.240  0.00  0.00     0.077 C 
ATOM      2  C1' PXY d   1      -0.640   5.999  -0.689  0.00  0.00     0.077 C 
ATOM      3  C1  PXY d   1      -0.164   4.996   0.344  0.00  0.00    -0.082 A 
ATOM      4  C2  PXY d   1      -0.629   3.757   0.316  0.00  0.00     0.003 A 
ATOM      5  C3  PXY d   1      -0.233   2.846   1.261  0.00  0.00     0.003 A 
ATOM      6  C4  PXY d   1       0.688   3.192   2.212  0.00  0.00    -0.082 A 
ATOM      7  C5  PXY d   1       1.176   4.450   2.241  0.00  0.00     0.003 A 
ATOM      8  C6  PXY d   1       0.730   5.371   1.298  0.00  0.00     0.003 A 
ENDROOT
TORSDOF 0
ENDMDL
