MODEL 1
REMARK minimizedAffinity 8.00855637
REMARK minimizedRMSD -1
REMARK  0 active torsions:
REMARK  status: ('A' for Active; 'I' for Inactive)
ROOT
ATOM      1  C4' PXY d   1      -0.018   1.625   2.946  0.00  0.00     0.077 C 
ATOM      2  C1' PXY d   1      -1.734  -3.744   4.227  0.00  0.00     0.077 C 
ATOM      3  C1  PXY d   1      -1.296  -2.332   3.889  0.00  0.00    -0.082 A 
ATOM      4  C2  PXY d   1      -0.048  -2.107   3.511  0.00  0.00     0.003 A 
ATOM      5  C3  PXY d   1       0.373  -0.833   3.232  0.00  0.00     0.003 A 
ATOM      6  C4  PXY d   1      -0.506   0.215   3.289  0.00  0.00    -0.082 A 
ATOM      7  C5  PXY d   1      -1.784  -0.008   3.663  0.00  0.00     0.003 A 
ATOM      8  C6  PXY d   1      -2.181  -1.303   3.982  0.00  0.00     0.003 A 
ENDROOT
TORSDOF 0
ENDMDL
