MODEL 1
REMARK minimizedAffinity 0.732166588
REMARK minimizedRMSD -1
REMARK  0 active torsions:
REMARK  status: ('A' for Active; 'I' for Inactive)
ROOT
ATOM      1  C4' PXY d   1       0.309   4.116   1.057  0.00  0.00     0.077 C 
ATOM      2  C1' PXY d   1      -1.542  -1.027   2.938  0.00  0.00     0.077 C 
ATOM      3  C1  PXY d   1      -1.049   0.316   2.436  0.00  0.00    -0.082 A 
ATOM      4  C2  PXY d   1      -1.102   1.371   3.232  0.00  0.00     0.003 A 
ATOM      5  C3  PXY d   1      -0.690   2.600   2.784  0.00  0.00     0.003 A 
ATOM      6  C4  PXY d   1      -0.169   2.738   1.525  0.00  0.00    -0.082 A 
ATOM      7  C5  PXY d   1      -0.103   1.664   0.710  0.00  0.00     0.003 A 
ATOM      8  C6  PXY d   1      -0.564   0.434   1.171  0.00  0.00     0.003 A 
ENDROOT
TORSDOF 0
ENDMDL
