MODEL 1
REMARK minimizedAffinity 4.39709663
REMARK minimizedRMSD -1
REMARK  0 active torsions:
REMARK  status: ('A' for Active; 'I' for Inactive)
ROOT
ATOM      1  O1  BZF d   1       0.766   1.883  -0.988  0.00  0.00    -0.204 OA
ATOM      2  C2  BZF d   1       0.312   0.586  -0.842  0.00  0.00     0.174 A 
ATOM      3  C3  BZF d   1       1.323  -0.239  -0.501  0.00  0.00    -0.012 A 
ATOM      4  C3A BZF d   1       2.464   0.609  -0.340  0.00  0.00    -0.107 A 
ATOM      5  C4  BZF d   1       3.764   0.378   0.009  0.00  0.00     0.055 A 
ATOM      6  C5  BZF d   1       4.643   1.414   0.003  0.00  0.00    -0.016 A 
ATOM      7  C6  BZF d   1       4.259   2.691  -0.351  0.00  0.00     0.022 A 
ATOM      8  C7  BZF d   1       2.979   2.970  -0.699  0.00  0.00     0.029 A 
ATOM      9  C7A BZF d   1       2.081   1.932  -0.663  0.00  0.00     0.058 A 
ENDROOT
TORSDOF 0
ENDMDL
