MODEL 1
REMARK minimizedAffinity 3.12254548
REMARK minimizedRMSD -1
REMARK  0 active torsions:
REMARK  status: ('A' for Active; 'I' for Inactive)
ROOT
ATOM      1  O1  BZF d   1       0.984  -0.941  -0.134  0.00  0.00    -0.204 OA
ATOM      2  C2  BZF d   1      -0.008  -0.007   0.097  0.00  0.00     0.174 A 
ATOM      3  C3  BZF d   1      -0.746  -0.350   1.172  0.00  0.00    -0.012 A 
ATOM      4  C3A BZF d   1      -0.122  -1.525   1.698  0.00  0.00    -0.107 A 
ATOM      5  C4  BZF d   1      -0.385  -2.327   2.772  0.00  0.00     0.055 A 
ATOM      6  C5  BZF d   1       0.371  -3.440   2.965  0.00  0.00    -0.016 A 
ATOM      7  C6  BZF d   1       1.393  -3.783   2.104  0.00  0.00     0.022 A 
ATOM      8  C7  BZF d   1       1.694  -3.016   1.028  0.00  0.00     0.029 A 
ATOM      9  C7A BZF d   1       0.953  -1.873   0.848  0.00  0.00     0.058 A 
ENDROOT
TORSDOF 0
ENDMDL
