MODEL 1
REMARK minimizedAffinity 8.91711712
REMARK minimizedRMSD -1
REMARK  0 active torsions:
REMARK  status: ('A' for Active; 'I' for Inactive)
ROOT
ATOM      1  O1  BZF d   1       3.549  -3.011  -0.326  0.00  0.00    -0.204 OA
ATOM      2  C2  BZF d   1       4.616  -3.864  -0.119  0.00  0.00     0.174 A 
ATOM      3  C3  BZF d   1       5.739  -3.168   0.150  0.00  0.00    -0.012 A 
ATOM      4  C3A BZF d   1       5.330  -1.798   0.200  0.00  0.00    -0.107 A 
ATOM      5  C4  BZF d   1       5.993  -0.629   0.442  0.00  0.00     0.055 A 
ATOM      6  C5  BZF d   1       5.317   0.546   0.343  0.00  0.00    -0.016 A 
ATOM      7  C6  BZF d   1       3.981   0.589  -0.000  0.00  0.00     0.022 A 
ATOM      8  C7  BZF d   1       3.281  -0.545  -0.245  0.00  0.00     0.029 A 
ATOM      9  C7A BZF d   1       3.953  -1.736  -0.114  0.00  0.00     0.058 A 
ENDROOT
TORSDOF 0
ENDMDL
