MODEL 1
REMARK minimizedAffinity 6.65159845
REMARK minimizedRMSD -1
REMARK  0 active torsions:
REMARK  status: ('A' for Active; 'I' for Inactive)
ROOT
ATOM      1  O1  BZF d   1       0.261  -1.713   2.348  0.00  0.00    -0.204 OA
ATOM      2  C2  BZF d   1       1.213  -0.845   2.848  0.00  0.00     0.174 A 
ATOM      3  C3  BZF d   1       0.654   0.336   3.182  0.00  0.00    -0.012 A 
ATOM      4  C3A BZF d   1      -0.749   0.166   2.958  0.00  0.00    -0.107 A 
ATOM      5  C4  BZF d   1      -1.831   0.982   3.122  0.00  0.00     0.055 A 
ATOM      6  C5  BZF d   1      -3.058   0.537   2.741  0.00  0.00    -0.016 A 
ATOM      7  C6  BZF d   1      -3.237  -0.715   2.189  0.00  0.00     0.022 A 
ATOM      8  C7  BZF d   1      -2.193  -1.562   2.012  0.00  0.00     0.029 A 
ATOM      9  C7A BZF d   1      -0.958  -1.127   2.426  0.00  0.00     0.058 A 
ENDROOT
TORSDOF 0
ENDMDL
