MODEL 1
REMARK minimizedAffinity 15.7787228
REMARK minimizedRMSD -1
REMARK  0 active torsions:
REMARK  status: ('A' for Active; 'I' for Inactive)
ROOT
ATOM      1  O1  BZF d   1       5.718  -2.299   4.729  0.00  0.00    -0.204 OA
ATOM      2  C2  BZF d   1       5.265  -2.608   5.997  0.00  0.00     0.174 A 
ATOM      3  C3  BZF d   1       4.606  -3.785   5.996  0.00  0.00    -0.012 A 
ATOM      4  C3A BZF d   1       4.730  -4.284   4.661  0.00  0.00    -0.107 A 
ATOM      5  C4  BZF d   1       4.298  -5.421   4.040  0.00  0.00     0.055 A 
ATOM      6  C5  BZF d   1       4.522  -5.572   2.708  0.00  0.00    -0.016 A 
ATOM      7  C6  BZF d   1       5.168  -4.605   1.966  0.00  0.00     0.022 A 
ATOM      8  C7  BZF d   1       5.619  -3.462   2.539  0.00  0.00     0.029 A 
ATOM      9  C7A BZF d   1       5.424  -3.322   3.891  0.00  0.00     0.058 A 
ENDROOT
TORSDOF 0
ENDMDL
