MODEL 1
REMARK minimizedAffinity 4.97975683
REMARK minimizedRMSD -1
REMARK  0 active torsions:
REMARK  status: ('A' for Active; 'I' for Inactive)
ROOT
ATOM      1  O1  BZF d   1       0.624  -0.672   0.127  0.00  0.00    -0.204 OA
ATOM      2  C2  BZF d   1      -0.421   0.229   0.202  0.00  0.00     0.174 A 
ATOM      3  C3  BZF d   1      -1.276  -0.112   1.187  0.00  0.00    -0.012 A 
ATOM      4  C3A BZF d   1      -0.683  -1.248   1.824  0.00  0.00    -0.107 A 
ATOM      5  C4  BZF d   1      -1.050  -2.029   2.882  0.00  0.00     0.055 A 
ATOM      6  C5  BZF d   1      -0.287  -3.106   3.205  0.00  0.00    -0.016 A 
ATOM      7  C6  BZF d   1       0.846  -3.433   2.489  0.00  0.00     0.022 A 
ATOM      8  C7  BZF d   1       1.254  -2.685   1.435  0.00  0.00     0.029 A 
ATOM      9  C7A BZF d   1       0.502  -1.577   1.127  0.00  0.00     0.058 A 
ENDROOT
TORSDOF 0
ENDMDL
