MODEL 1
REMARK minimizedAffinity 1.2492578
REMARK minimizedRMSD -1
REMARK  0 active torsions:
REMARK  status: ('A' for Active; 'I' for Inactive)
ROOT
ATOM      1  O1  BZF d   1       0.023  -1.825   2.871  0.00  0.00    -0.204 OA
ATOM      2  C2  BZF d   1      -0.796  -0.714   2.807  0.00  0.00     0.174 A 
ATOM      3  C3  BZF d   1      -0.468   0.062   1.754  0.00  0.00    -0.012 A 
ATOM      4  C3A BZF d   1       0.564  -0.652   1.067  0.00  0.00    -0.107 A 
ATOM      5  C4  BZF d   1       1.286  -0.401  -0.065  0.00  0.00     0.055 A 
ATOM      6  C5  BZF d   1       2.271  -1.265  -0.425  0.00  0.00    -0.016 A 
ATOM      7  C6  BZF d   1       2.564  -2.386   0.324  0.00  0.00     0.022 A 
ATOM      8  C7  BZF d   1       1.871  -2.680   1.452  0.00  0.00     0.029 A 
ATOM      9  C7A BZF d   1       0.854  -1.826   1.801  0.00  0.00     0.058 A 
ENDROOT
TORSDOF 0
ENDMDL
