MODEL 1
REMARK minimizedAffinity -0.574129343
REMARK minimizedRMSD -1
REMARK  0 active torsions:
REMARK  status: ('A' for Active; 'I' for Inactive)
ROOT
ATOM      1  O1  BZF d   1       2.163  -2.998   0.412  0.00  0.00    -0.204 OA
ATOM      2  C2  BZF d   1       2.523  -4.128   1.120  0.00  0.00     0.174 A 
ATOM      3  C3  BZF d   1       1.850  -4.197   2.286  0.00  0.00    -0.012 A 
ATOM      4  C3A BZF d   1       0.949  -3.086   2.267  0.00  0.00    -0.107 A 
ATOM      5  C4  BZF d   1       0.005  -2.627   3.141  0.00  0.00     0.055 A 
ATOM      6  C5  BZF d   1      -0.652  -1.472   2.858  0.00  0.00    -0.016 A 
ATOM      7  C6  BZF d   1      -0.386  -0.747   1.714  0.00  0.00     0.022 A 
ATOM      8  C7  BZF d   1       0.538  -1.165   0.815  0.00  0.00     0.029 A 
ATOM      9  C7A BZF d   1       1.180  -2.349   1.082  0.00  0.00     0.058 A 
ENDROOT
TORSDOF 0
ENDMDL
