MODEL 1
REMARK minimizedAffinity 7.36512518
REMARK minimizedRMSD -1
REMARK  0 active torsions:
REMARK  status: ('A' for Active; 'I' for Inactive)
ROOT
ATOM      1  O1  BZF d   1       2.387  -5.225  -5.660  0.00  0.00    -0.204 OA
ATOM      2  C2  BZF d   1       1.642  -4.867  -4.554  0.00  0.00     0.174 A 
ATOM      3  C3  BZF d   1       2.395  -4.904  -3.436  0.00  0.00    -0.012 A 
ATOM      4  C3A BZF d   1       3.716  -5.222  -3.884  0.00  0.00    -0.107 A 
ATOM      5  C4  BZF d   1       4.911  -5.385  -3.242  0.00  0.00     0.055 A 
ATOM      6  C5  BZF d   1       6.000  -5.766  -3.961  0.00  0.00    -0.016 A 
ATOM      7  C6  BZF d   1       5.929  -5.996  -5.319  0.00  0.00     0.022 A 
ATOM      8  C7  BZF d   1       4.767  -5.843  -6.000  0.00  0.00     0.029 A 
ATOM      9  C7A BZF d   1       3.673  -5.427  -5.282  0.00  0.00     0.058 A 
ENDROOT
TORSDOF 0
ENDMDL
