MODEL 1
REMARK minimizedAffinity 1.37206745
REMARK minimizedRMSD -1
REMARK  0 active torsions:
REMARK  status: ('A' for Active; 'I' for Inactive)
ROOT
ATOM      1  O1  BZF d   1       5.802  -5.863  -4.348  0.00  0.00    -0.204 OA
ATOM      2  C2  BZF d   1       5.600  -5.963  -5.711  0.00  0.00     0.174 A 
ATOM      3  C3  BZF d   1       4.282  -6.000  -5.997  0.00  0.00    -0.012 A 
ATOM      4  C3A BZF d   1       3.619  -5.826  -4.742  0.00  0.00    -0.107 A 
ATOM      5  C4  BZF d   1       2.305  -5.758  -4.375  0.00  0.00     0.055 A 
ATOM      6  C5  BZF d   1       1.991  -5.657  -3.057  0.00  0.00    -0.016 A 
ATOM      7  C6  BZF d   1       2.964  -5.625  -2.079  0.00  0.00     0.022 A 
ATOM      8  C7  BZF d   1       4.281  -5.684  -2.394  0.00  0.00     0.029 A 
ATOM      9  C7A BZF d   1       4.602  -5.754  -3.728  0.00  0.00     0.058 A 
ENDROOT
TORSDOF 0
ENDMDL
