MODEL 1
REMARK minimizedAffinity -1.54773128
REMARK minimizedRMSD -1
REMARK  0 active torsions:
REMARK  status: ('A' for Active; 'I' for Inactive)
ROOT
ATOM      1  O1  BZF d   1       2.032  -5.251  -3.820  0.00  0.00    -0.204 OA
ATOM      2  C2  BZF d   1       1.344  -5.626  -4.957  0.00  0.00     0.174 A 
ATOM      3  C3  BZF d   1       2.186  -5.773  -6.000  0.00  0.00    -0.012 A 
ATOM      4  C3A BZF d   1       3.494  -5.561  -5.460  0.00  0.00    -0.107 A 
ATOM      5  C4  BZF d   1       4.748  -5.588  -6.000  0.00  0.00     0.055 A 
ATOM      6  C5  BZF d   1       5.811  -5.263  -5.217  0.00  0.00    -0.016 A 
ATOM      7  C6  BZF d   1       5.655  -4.903  -3.895  0.00  0.00     0.022 A 
ATOM      8  C7  BZF d   1       4.432  -4.866  -3.314  0.00  0.00     0.029 A 
ATOM      9  C7A BZF d   1       3.359  -5.225  -4.093  0.00  0.00     0.058 A 
ENDROOT
TORSDOF 0
ENDMDL
