MODEL 1
REMARK minimizedAffinity -2.41411734
REMARK minimizedRMSD -1
REMARK  0 active torsions:
REMARK  status: ('A' for Active; 'I' for Inactive)
ROOT
ATOM      1  O1  BZF d   1       2.483  -5.665  -4.727  0.00  0.00    -0.204 OA
ATOM      2  C2  BZF d   1       2.965  -5.428  -6.000  0.00  0.00     0.174 A 
ATOM      3  C3  BZF d   1       4.308  -5.308  -5.988  0.00  0.00    -0.012 A 
ATOM      4  C3A BZF d   1       4.697  -5.572  -4.637  0.00  0.00    -0.107 A 
ATOM      5  C4  BZF d   1       5.904  -5.618  -4.000  0.00  0.00     0.055 A 
ATOM      6  C5  BZF d   1       5.935  -5.831  -2.658  0.00  0.00    -0.016 A 
ATOM      7  C6  BZF d   1       4.780  -5.996  -1.922  0.00  0.00     0.022 A 
ATOM      8  C7  BZF d   1       3.559  -5.964  -2.511  0.00  0.00     0.029 A 
ATOM      9  C7A BZF d   1       3.527  -5.781  -3.872  0.00  0.00     0.058 A 
ENDROOT
TORSDOF 0
ENDMDL
