MODEL 1
REMARK minimizedAffinity 3.26020932
REMARK minimizedRMSD -1
REMARK  0 active torsions:
REMARK  status: ('A' for Active; 'I' for Inactive)
ROOT
ATOM      1  O1  BZF d   1      -2.065   3.444  -5.785  0.00  0.00    -0.204 OA
ATOM      2  C2  BZF d   1      -1.571   2.275  -5.240  0.00  0.00     0.174 A 
ATOM      3  C3  BZF d   1      -2.562   1.551  -4.681  0.00  0.00    -0.012 A 
ATOM      4  C3A BZF d   1      -3.764   2.271  -4.971  0.00  0.00    -0.107 A 
ATOM      5  C4  BZF d   1      -5.082   2.049  -4.692  0.00  0.00     0.055 A 
ATOM      6  C5  BZF d   1      -6.000   2.984  -5.053  0.00  0.00    -0.016 A 
ATOM      7  C6  BZF d   1      -5.635   4.153  -5.688  0.00  0.00     0.022 A 
ATOM      8  C7  BZF d   1      -4.340   4.416  -5.989  0.00  0.00     0.029 A 
ATOM      9  C7A BZF d   1      -3.414   3.458  -5.655  0.00  0.00     0.058 A 
ENDROOT
TORSDOF 0
ENDMDL
