MODEL 1
REMARK minimizedAffinity -2.05544806
REMARK minimizedRMSD -1
REMARK  0 active torsions:
REMARK  status: ('A' for Active; 'I' for Inactive)
ROOT
ATOM      1  O1  BZF d   1       5.471  -5.876  -2.505  0.00  0.00    -0.204 OA
ATOM      2  C2  BZF d   1       4.521  -6.000  -1.510  0.00  0.00     0.174 A 
ATOM      3  C3  BZF d   1       3.278  -5.999  -2.032  0.00  0.00    -0.012 A 
ATOM      4  C3A BZF d   1       3.465  -5.959  -3.450  0.00  0.00    -0.107 A 
ATOM      5  C4  BZF d   1       2.606  -5.955  -4.511  0.00  0.00     0.055 A 
ATOM      6  C5  BZF d   1       3.109  -5.837  -5.768  0.00  0.00    -0.016 A 
ATOM      7  C6  BZF d   1       4.463  -5.715  -6.000  0.00  0.00     0.022 A 
ATOM      8  C7  BZF d   1       5.355  -5.720  -4.980  0.00  0.00     0.029 A 
ATOM      9  C7A BZF d   1       4.853  -5.872  -3.710  0.00  0.00     0.058 A 
ENDROOT
TORSDOF 0
ENDMDL
