MODEL 1
REMARK minimizedAffinity 5.21554613
REMARK minimizedRMSD -1
REMARK  0 active torsions:
REMARK  status: ('A' for Active; 'I' for Inactive)
ROOT
ATOM      1  O1  BZF d   1       1.956  -5.574  -3.379  0.00  0.00    -0.204 OA
ATOM      2  C2  BZF d   1       2.437  -6.000  -2.156  0.00  0.00     0.174 A 
ATOM      3  C3  BZF d   1       3.786  -5.999  -2.146  0.00  0.00    -0.012 A 
ATOM      4  C3A BZF d   1       4.172  -5.458  -3.413  0.00  0.00    -0.107 A 
ATOM      5  C4  BZF d   1       5.380  -5.191  -3.991  0.00  0.00     0.055 A 
ATOM      6  C5  BZF d   1       5.413  -4.731  -5.269  0.00  0.00    -0.016 A 
ATOM      7  C6  BZF d   1       4.259  -4.533  -6.000  0.00  0.00     0.022 A 
ATOM      8  C7  BZF d   1       3.038  -4.779  -5.467  0.00  0.00     0.029 A 
ATOM      9  C7A BZF d   1       2.999  -5.212  -4.164  0.00  0.00     0.058 A 
ENDROOT
TORSDOF 0
ENDMDL
