MODEL 1
REMARK minimizedAffinity -1.09831631
REMARK minimizedRMSD -1
REMARK  0 active torsions:
REMARK  status: ('A' for Active; 'I' for Inactive)
ROOT
ATOM      1  O1  BZF d   1      -4.405   1.914  -5.771  0.00  0.00    -0.204 OA
ATOM      2  C2  BZF d   1      -3.032   1.814  -5.660  0.00  0.00     0.174 A 
ATOM      3  C3  BZF d   1      -2.459   3.034  -5.700  0.00  0.00    -0.012 A 
ATOM      4  C3A BZF d   1      -3.548   3.960  -5.751  0.00  0.00    -0.107 A 
ATOM      5  C4  BZF d   1      -3.621   5.323  -5.791  0.00  0.00     0.055 A 
ATOM      6  C5  BZF d   1      -4.838   5.916  -5.911  0.00  0.00    -0.016 A 
ATOM      7  C6  BZF d   1      -6.000   5.178  -6.000  0.00  0.00     0.022 A 
ATOM      8  C7  BZF d   1      -5.978   3.824  -5.960  0.00  0.00     0.029 A 
ATOM      9  C7A BZF d   1      -4.753   3.222  -5.805  0.00  0.00     0.058 A 
ENDROOT
TORSDOF 0
ENDMDL
