MODEL 1
REMARK minimizedAffinity 1.65324545
REMARK minimizedRMSD -1
REMARK  0 active torsions:
REMARK  status: ('A' for Active; 'I' for Inactive)
ROOT
ATOM      1  O1  BZF d   1       3.694  -4.776  -5.998  0.00  0.00    -0.204 OA
ATOM      2  C2  BZF d   1       2.450  -5.377  -5.995  0.00  0.00     0.174 A 
ATOM      3  C3  BZF d   1       2.219  -5.993  -4.818  0.00  0.00    -0.012 A 
ATOM      4  C3A BZF d   1       3.354  -5.685  -4.003  0.00  0.00    -0.107 A 
ATOM      5  C4  BZF d   1       3.702  -5.998  -2.720  0.00  0.00     0.055 A 
ATOM      6  C5  BZF d   1       4.913  -5.602  -2.249  0.00  0.00    -0.016 A 
ATOM      7  C6  BZF d   1       5.803  -4.897  -3.033  0.00  0.00     0.022 A 
ATOM      8  C7  BZF d   1       5.501  -4.559  -4.310  0.00  0.00     0.029 A 
ATOM      9  C7A BZF d   1       4.264  -4.929  -4.779  0.00  0.00     0.058 A 
ENDROOT
TORSDOF 0
ENDMDL
