MODEL 1
REMARK minimizedAffinity -1.41142404
REMARK minimizedRMSD -1
REMARK  0 active torsions:
REMARK  status: ('A' for Active; 'I' for Inactive)
ROOT
ATOM      1  O1  BZF d   1       4.900  -5.185  -2.361  0.00  0.00    -0.204 OA
ATOM      2  C2  BZF d   1       3.882  -5.661  -1.558  0.00  0.00     0.174 A 
ATOM      3  C3  BZF d   1       2.807  -6.000  -2.299  0.00  0.00    -0.012 A 
ATOM      4  C3A BZF d   1       3.210  -5.804  -3.658  0.00  0.00    -0.107 A 
ATOM      5  C4  BZF d   1       2.583  -5.985  -4.858  0.00  0.00     0.055 A 
ATOM      6  C5  BZF d   1       3.229  -5.631  -6.000  0.00  0.00    -0.016 A 
ATOM      7  C6  BZF d   1       4.498  -5.089  -5.978  0.00  0.00     0.022 A 
ATOM      8  C7  BZF d   1       5.162  -4.896  -4.812  0.00  0.00     0.029 A 
ATOM      9  C7A BZF d   1       4.524  -5.284  -3.659  0.00  0.00     0.058 A 
ENDROOT
TORSDOF 0
ENDMDL
