MODEL 1
REMARK minimizedAffinity 0.846979737
REMARK minimizedRMSD -1
REMARK  0 active torsions:
REMARK  status: ('A' for Active; 'I' for Inactive)
ROOT
ATOM      1  O1  BZF d   1      -2.564   4.435  -5.994  0.00  0.00    -0.204 OA
ATOM      2  C2  BZF d   1      -1.520   3.728  -5.429  0.00  0.00     0.174 A 
ATOM      3  C3  BZF d   1      -1.982   2.686  -4.708  0.00  0.00    -0.012 A 
ATOM      4  C3A BZF d   1      -3.399   2.691  -4.906  0.00  0.00    -0.107 A 
ATOM      5  C4  BZF d   1      -4.412   1.891  -4.461  0.00  0.00     0.055 A 
ATOM      6  C5  BZF d   1      -5.695   2.211  -4.778  0.00  0.00    -0.016 A 
ATOM      7  C6  BZF d   1      -6.000   3.325  -5.532  0.00  0.00     0.022 A 
ATOM      8  C7  BZF d   1      -5.029   4.146  -6.000  0.00  0.00     0.029 A 
ATOM      9  C7A BZF d   1      -3.730   3.807  -5.710  0.00  0.00     0.058 A 
ENDROOT
TORSDOF 0
ENDMDL
