MODEL 1
REMARK minimizedAffinity -4.07572794
REMARK minimizedRMSD -1
REMARK  0 active torsions:
REMARK  status: ('A' for Active; 'I' for Inactive)
ROOT
ATOM      1  O1  BZF d   1       3.363  -5.955  -5.999  0.00  0.00    -0.204 OA
ATOM      2  C2  BZF d   1       2.037  -5.995  -5.614  0.00  0.00     0.174 A 
ATOM      3  C3  BZF d   1       1.929  -5.999  -4.270  0.00  0.00    -0.012 A 
ATOM      4  C3A BZF d   1       3.268  -5.866  -3.785  0.00  0.00    -0.107 A 
ATOM      5  C4  BZF d   1       3.810  -5.792  -2.533  0.00  0.00     0.055 A 
ATOM      6  C5  BZF d   1       5.162  -5.739  -2.401  0.00  0.00    -0.016 A 
ATOM      7  C6  BZF d   1       6.000  -5.764  -3.497  0.00  0.00     0.022 A 
ATOM      8  C7  BZF d   1       5.508  -5.831  -4.758  0.00  0.00     0.029 A 
ATOM      9  C7A BZF d   1       4.142  -5.851  -4.896  0.00  0.00     0.058 A 
ENDROOT
TORSDOF 0
ENDMDL
