MODEL 1
REMARK minimizedAffinity -0.94026041
REMARK minimizedRMSD -1
REMARK  0 active torsions:
REMARK  status: ('A' for Active; 'I' for Inactive)
ROOT
ATOM      1  O1  BZF d   1       3.660  -5.767  -5.882  0.00  0.00    -0.204 OA
ATOM      2  C2  BZF d   1       5.017  -6.000  -6.000  0.00  0.00     0.174 A 
ATOM      3  C3  BZF d   1       5.619  -5.943  -4.794  0.00  0.00    -0.012 A 
ATOM      4  C3A BZF d   1       4.559  -5.748  -3.853  0.00  0.00    -0.107 A 
ATOM      5  C4  BZF d   1       4.520  -5.628  -2.494  0.00  0.00     0.055 A 
ATOM      6  C5  BZF d   1       3.332  -5.372  -1.886  0.00  0.00    -0.016 A 
ATOM      7  C6  BZF d   1       2.165  -5.225  -2.607  0.00  0.00     0.022 A 
ATOM      8  C7  BZF d   1       2.152  -5.340  -3.958  0.00  0.00     0.029 A 
ATOM      9  C7A BZF d   1       3.346  -5.632  -4.571  0.00  0.00     0.058 A 
ENDROOT
TORSDOF 0
ENDMDL
