MODEL 1
REMARK minimizedAffinity 0.759390533
REMARK minimizedRMSD -1
REMARK  0 active torsions:
REMARK  status: ('A' for Active; 'I' for Inactive)
ROOT
ATOM      1  O1  BZF d   1      -0.734   4.251   0.379  0.00  0.00    -0.204 OA
ATOM      2  C2  BZF d   1      -1.728   3.291   0.377  0.00  0.00     0.174 A 
ATOM      3  C3  BZF d   1      -1.221   2.078   0.675  0.00  0.00    -0.012 A 
ATOM      4  C3A BZF d   1       0.161   2.308   0.966  0.00  0.00    -0.107 A 
ATOM      5  C4  BZF d   1       1.190   1.493   1.343  0.00  0.00     0.055 A 
ATOM      6  C5  BZF d   1       2.436   2.020   1.475  0.00  0.00    -0.016 A 
ATOM      7  C6  BZF d   1       2.689   3.354   1.233  0.00  0.00     0.022 A 
ATOM      8  C7  BZF d   1       1.700   4.203   0.862  0.00  0.00     0.029 A 
ATOM      9  C7A BZF d   1       0.434   3.680   0.760  0.00  0.00     0.058 A 
ENDROOT
TORSDOF 0
ENDMDL
