MODEL 1
REMARK minimizedAffinity 3.5238874
REMARK minimizedRMSD -1
REMARK  0 active torsions:
REMARK  status: ('A' for Active; 'I' for Inactive)
ROOT
ATOM      1  O1  BZF d   1       4.800  -5.631  -2.195  0.00  0.00    -0.204 OA
ATOM      2  C2  BZF d   1       3.626  -5.878  -1.510  0.00  0.00     0.174 A 
ATOM      3  C3  BZF d   1       2.589  -5.999  -2.365  0.00  0.00    -0.012 A 
ATOM      4  C3A BZF d   1       3.167  -5.908  -3.671  0.00  0.00    -0.107 A 
ATOM      5  C4  BZF d   1       2.648  -5.972  -4.933  0.00  0.00     0.055 A 
ATOM      6  C5  BZF d   1       3.471  -5.773  -5.995  0.00  0.00    -0.016 A 
ATOM      7  C6  BZF d   1       4.814  -5.502  -5.833  0.00  0.00     0.022 A 
ATOM      8  C7  BZF d   1       5.375  -5.433  -4.601  0.00  0.00     0.029 A 
ATOM      9  C7A BZF d   1       4.552  -5.667  -3.526  0.00  0.00     0.058 A 
ENDROOT
TORSDOF 0
ENDMDL
