MODEL 1
REMARK minimizedAffinity 0.120265357
REMARK minimizedRMSD -1
REMARK  0 active torsions:
REMARK  status: ('A' for Active; 'I' for Inactive)
ROOT
ATOM      1  O1  BZF d   1       2.575   2.256   1.759  0.00  0.00    -0.204 OA
ATOM      2  C2  BZF d   1       2.875   1.440   0.685  0.00  0.00     0.174 A 
ATOM      3  C3  BZF d   1       1.750   1.035   0.062  0.00  0.00    -0.012 A 
ATOM      4  C3A BZF d   1       0.683   1.709   0.737  0.00  0.00    -0.107 A 
ATOM      5  C4  BZF d   1      -0.672   1.727   0.568  0.00  0.00     0.055 A 
ATOM      6  C5  BZF d   1      -1.437   2.433   1.441  0.00  0.00    -0.016 A 
ATOM      7  C6  BZF d   1      -0.883   3.127   2.495  0.00  0.00     0.022 A 
ATOM      8  C7  BZF d   1       0.457   3.144   2.701  0.00  0.00     0.029 A 
ATOM      9  C7A BZF d   1       1.236   2.458   1.801  0.00  0.00     0.058 A 
ENDROOT
TORSDOF 0
ENDMDL
