MODEL 1
REMARK minimizedAffinity -2.50831461
REMARK minimizedRMSD -1
REMARK  0 active torsions:
REMARK  status: ('A' for Active; 'I' for Inactive)
ROOT
ATOM      1  O1  BZF d   1      -2.950   1.256  -4.828  0.00  0.00    -0.204 OA
ATOM      2  C2  BZF d   1      -3.687   2.223  -5.484  0.00  0.00     0.174 A 
ATOM      3  C3  BZF d   1      -2.879   3.172  -6.000  0.00  0.00    -0.012 A 
ATOM      4  C3A BZF d   1      -1.549   2.725  -5.722  0.00  0.00    -0.107 A 
ATOM      5  C4  BZF d   1      -0.311   3.232  -5.998  0.00  0.00     0.055 A 
ATOM      6  C5  BZF d   1       0.787   2.588  -5.523  0.00  0.00    -0.016 A 
ATOM      7  C6  BZF d   1       0.685   1.439  -4.766  0.00  0.00     0.022 A 
ATOM      8  C7  BZF d   1      -0.521   0.896  -4.471  0.00  0.00     0.029 A 
ATOM      9  C7A BZF d   1      -1.631   1.526  -4.977  0.00  0.00     0.058 A 
ENDROOT
TORSDOF 0
ENDMDL
