MODEL 1
REMARK minimizedAffinity 1.76213038
REMARK minimizedRMSD -1
REMARK  0 active torsions:
REMARK  status: ('A' for Active; 'I' for Inactive)
ROOT
ATOM      1  O1  BZF d   1      -0.012   2.596   1.320  0.00  0.00    -0.204 OA
ATOM      2  C2  BZF d   1       0.304   3.454   2.356  0.00  0.00     0.174 A 
ATOM      3  C3  BZF d   1       1.633   3.454   2.589  0.00  0.00    -0.012 A 
ATOM      4  C3A BZF d   1       2.192   2.607   1.579  0.00  0.00    -0.107 A 
ATOM      5  C4  BZF d   1       3.466   2.223   1.276  0.00  0.00     0.055 A 
ATOM      6  C5  BZF d   1       3.666   1.329   0.273  0.00  0.00    -0.016 A 
ATOM      7  C6  BZF d   1       2.615   0.796  -0.444  0.00  0.00     0.022 A 
ATOM      8  C7  BZF d   1       1.333   1.150  -0.184  0.00  0.00     0.029 A 
ATOM      9  C7A BZF d   1       1.131   2.079   0.808  0.00  0.00     0.058 A 
ENDROOT
TORSDOF 0
ENDMDL
