MODEL 1
REMARK minimizedAffinity 2.9212172
REMARK minimizedRMSD -1
REMARK  1 active torsions:
REMARK  status: ('A' for Active; 'I' for Inactive)
REMARK    1  A    between atoms: C3_4  and  O_7 
ROOT
ATOM      1  C   UNL d   1       4.988   4.847   0.805  0.00  0.00    -0.033 A 
ATOM      2  C1  UNL d   1       5.654   5.959   1.325  0.00  0.00     0.039 A 
ATOM      3  C2  UNL d   1       5.999   6.000   2.677  0.00  0.00    -0.080 A 
ATOM      4  C3  UNL d   1       5.674   4.923   3.498  0.00  0.00     0.150 A 
ATOM      5  C4  UNL d   1       5.014   3.811   2.986  0.00  0.00    -0.007 A 
ATOM      6  C5  UNL d   1       4.669   3.772   1.636  0.00  0.00     0.039 A 
ENDROOT
BRANCH   4   7
ATOM      7  O   UNL d   1       5.986   4.919   4.825  0.00  0.00    -0.526 OA
ATOM      8  H5  UNL d   1       6.414   5.764   5.043  0.00  0.00     0.418 HD
ENDBRANCH   4   7
TORSDOF 1
ENDMDL
