MODEL 1
REMARK minimizedAffinity 9.66628456
REMARK minimizedRMSD -1
REMARK  1 active torsions:
REMARK  status: ('A' for Active; 'I' for Inactive)
REMARK    1  A    between atoms: C3_4  and  O_7 
ROOT
ATOM      1  C   UNL d   1      -1.666   4.165   5.273  0.00  0.00    -0.033 A 
ATOM      2  C1  UNL d   1      -2.753   3.516   4.682  0.00  0.00     0.039 A 
ATOM      3  C2  UNL d   1      -4.018   4.105   4.709  0.00  0.00    -0.080 A 
ATOM      4  C3  UNL d   1      -4.184   5.341   5.329  0.00  0.00     0.150 A 
ATOM      5  C4  UNL d   1      -3.105   5.994   5.916  0.00  0.00    -0.007 A 
ATOM      6  C5  UNL d   1      -1.842   5.404   5.888  0.00  0.00     0.039 A 
ENDROOT
BRANCH   4   7
ATOM      7  O   UNL d   1      -5.401   5.952   5.385  0.00  0.00    -0.526 OA
ATOM      8  H5  UNL d   1      -6.057   5.372   4.964  0.00  0.00     0.418 HD
ENDBRANCH   4   7
TORSDOF 1
ENDMDL
