MODEL 1
REMARK minimizedAffinity 9.12720776
REMARK minimizedRMSD -1
REMARK  1 active torsions:
REMARK  status: ('A' for Active; 'I' for Inactive)
REMARK    1  A    between atoms: C3_4  and  O_7 
ROOT
ATOM      1  C   UNL d   1      -3.528   6.000   6.000  0.00  0.00    -0.033 A 
ATOM      2  C1  UNL d   1      -4.434   4.938   5.967  0.00  0.00     0.039 A 
ATOM      3  C2  UNL d   1      -4.236   3.876   5.083  0.00  0.00    -0.080 A 
ATOM      4  C3  UNL d   1      -3.129   3.887   4.239  0.00  0.00     0.150 A 
ATOM      5  C4  UNL d   1      -2.220   4.939   4.269  0.00  0.00    -0.007 A 
ATOM      6  C5  UNL d   1      -2.420   6.000   5.152  0.00  0.00     0.039 A 
ENDROOT
BRANCH   4   7
ATOM      7  O   UNL d   1      -2.896   2.875   3.356  0.00  0.00    -0.526 OA
ATOM      8  H5  UNL d   1      -3.621   2.231   3.427  0.00  0.00     0.418 HD
ENDBRANCH   4   7
TORSDOF 1
ENDMDL
