MODEL 1
REMARK minimizedAffinity 4.18653297
REMARK minimizedRMSD -1
REMARK  1 active torsions:
REMARK  status: ('A' for Active; 'I' for Inactive)
REMARK    1  A    between atoms: C3_4  and  O_7 
ROOT
ATOM      1  C   UNL d   1       2.302   0.777  -1.980  0.00  0.00    -0.033 A 
ATOM      2  C1  UNL d   1       2.619   1.995  -2.586  0.00  0.00     0.039 A 
ATOM      3  C2  UNL d   1       1.894   2.434  -3.695  0.00  0.00    -0.080 A 
ATOM      4  C3  UNL d   1       0.855   1.649  -4.188  0.00  0.00     0.150 A 
ATOM      5  C4  UNL d   1       0.532   0.437  -3.586  0.00  0.00    -0.007 A 
ATOM      6  C5  UNL d   1       1.257  -0.001  -2.479  0.00  0.00     0.039 A 
ENDROOT
BRANCH   4   7
ATOM      7  O   UNL d   1       0.123   2.033  -5.271  0.00  0.00    -0.526 OA
ATOM      8  H5  UNL d   1       0.478   2.876  -5.599  0.00  0.00     0.418 HD
ENDBRANCH   4   7
TORSDOF 1
ENDMDL
