MODEL 1
REMARK minimizedAffinity -2.29074812
REMARK minimizedRMSD -1
REMARK  1 active torsions:
REMARK  status: ('A' for Active; 'I' for Inactive)
REMARK    1  A    between atoms: C3_4  and  O_7 
ROOT
ATOM      1  C   UNL d   1      -0.221   2.571  -0.231  0.00  0.00    -0.033 A 
ATOM      2  C1  UNL d   1       1.023   3.116   0.092  0.00  0.00     0.039 A 
ATOM      3  C2  UNL d   1       2.192   2.542  -0.411  0.00  0.00    -0.080 A 
ATOM      4  C3  UNL d   1       2.103   1.424  -1.237  0.00  0.00     0.150 A 
ATOM      5  C4  UNL d   1       0.867   0.878  -1.566  0.00  0.00    -0.007 A 
ATOM      6  C5  UNL d   1      -0.299   1.452  -1.061  0.00  0.00     0.039 A 
ENDROOT
BRANCH   4   7
ATOM      7  O   UNL d   1       3.216   0.826  -1.748  0.00  0.00    -0.526 OA
ATOM      8  H5  UNL d   1       3.998   1.294  -1.413  0.00  0.00     0.418 HD
ENDBRANCH   4   7
TORSDOF 1
ENDMDL
