MODEL 1
REMARK minimizedAffinity 8.9530592
REMARK minimizedRMSD -1
REMARK  1 active torsions:
REMARK  status: ('A' for Active; 'I' for Inactive)
REMARK    1  A    between atoms: C3_4  and  O_7 
ROOT
ATOM      1  C   UNL d   1      -3.989   2.953   2.394  0.00  0.00    -0.033 A 
ATOM      2  C1  UNL d   1      -2.755   2.606   2.946  0.00  0.00     0.039 A 
ATOM      3  C2  UNL d   1      -2.582   1.357   3.545  0.00  0.00    -0.080 A 
ATOM      4  C3  UNL d   1      -3.649   0.464   3.584  0.00  0.00     0.150 A 
ATOM      5  C4  UNL d   1      -4.881   0.801   3.032  0.00  0.00    -0.007 A 
ATOM      6  C5  UNL d   1      -5.052   2.050   2.435  0.00  0.00     0.039 A 
ENDROOT
BRANCH   4   7
ATOM      7  O   UNL d   1      -3.530  -0.764   4.162  0.00  0.00    -0.526 OA
ATOM      8  H5  UNL d   1      -2.633  -0.847   4.526  0.00  0.00     0.418 HD
ENDBRANCH   4   7
TORSDOF 1
ENDMDL
