MODEL 1
REMARK minimizedAffinity 0.851500332
REMARK minimizedRMSD -1
REMARK  1 active torsions:
REMARK  status: ('A' for Active; 'I' for Inactive)
REMARK    1  A    between atoms: C3_4  and  O_7 
ROOT
ATOM      1  C   UNL d   1       0.392   1.062  -2.448  0.00  0.00    -0.033 A 
ATOM      2  C1  UNL d   1       1.560   1.826  -2.430  0.00  0.00     0.039 A 
ATOM      3  C2  UNL d   1       2.735   1.296  -1.895  0.00  0.00    -0.080 A 
ATOM      4  C3  UNL d   1       2.729   0.001  -1.383  0.00  0.00     0.150 A 
ATOM      5  C4  UNL d   1       1.570  -0.768  -1.402  0.00  0.00    -0.007 A 
ATOM      6  C5  UNL d   1       0.397  -0.236  -1.936  0.00  0.00     0.039 A 
ENDROOT
BRANCH   4   7
ATOM      7  O   UNL d   1       3.851  -0.559  -0.847  0.00  0.00    -0.526 OA
ATOM      8  H5  UNL d   1       4.566   0.099  -0.875  0.00  0.00     0.418 HD
ENDBRANCH   4   7
TORSDOF 1
ENDMDL
