MODEL 1
REMARK minimizedAffinity 8.84303761
REMARK minimizedRMSD -1
REMARK  1 active torsions:
REMARK  status: ('A' for Active; 'I' for Inactive)
REMARK    1  A    between atoms: C3_4  and  O_7 
ROOT
ATOM      1  C   UNL d   1       2.692   0.888  -2.817  0.00  0.00    -0.033 A 
ATOM      2  C1  UNL d   1       4.056   0.593  -2.840  0.00  0.00     0.039 A 
ATOM      3  C2  UNL d   1       4.614  -0.216  -1.849  0.00  0.00    -0.080 A 
ATOM      4  C3  UNL d   1       3.798  -0.724  -0.842  0.00  0.00     0.150 A 
ATOM      5  C4  UNL d   1       2.437  -0.438  -0.815  0.00  0.00    -0.007 A 
ATOM      6  C5  UNL d   1       1.882   0.372  -1.805  0.00  0.00     0.039 A 
ENDROOT
BRANCH   4   7
ATOM      7  O   UNL d   1       4.298  -1.515   0.150  0.00  0.00    -0.526 OA
ATOM      8  H5  UNL d   1       5.256  -1.604   0.018  0.00  0.00     0.418 HD
ENDBRANCH   4   7
TORSDOF 1
ENDMDL
