MODEL 1
REMARK minimizedAffinity 9.35820103
REMARK minimizedRMSD -1
REMARK  1 active torsions:
REMARK  status: ('A' for Active; 'I' for Inactive)
REMARK    1  A    between atoms: C3_4  and  O_7 
ROOT
ATOM      1  C   UNL d   1      -2.251   5.312   5.632  0.00  0.00    -0.033 A 
ATOM      2  C1  UNL d   1      -2.252   4.479   4.512  0.00  0.00     0.039 A 
ATOM      3  C2  UNL d   1      -3.414   4.328   3.752  0.00  0.00    -0.080 A 
ATOM      4  C3  UNL d   1      -4.567   5.014   4.123  0.00  0.00     0.150 A 
ATOM      5  C4  UNL d   1      -4.572   5.849   5.236  0.00  0.00    -0.007 A 
ATOM      6  C5  UNL d   1      -3.411   5.999   5.993  0.00  0.00     0.039 A 
ENDROOT
BRANCH   4   7
ATOM      7  O   UNL d   1      -5.726   4.894   3.416  0.00  0.00    -0.526 OA
ATOM      8  H5  UNL d   1      -5.581   4.263   2.692  0.00  0.00     0.418 HD
ENDBRANCH   4   7
TORSDOF 1
ENDMDL
