MODEL 1
REMARK minimizedAffinity 11.1652412
REMARK minimizedRMSD -1
REMARK  1 active torsions:
REMARK  status: ('A' for Active; 'I' for Inactive)
REMARK    1  A    between atoms: C3_4  and  O_7 
ROOT
ATOM      1  C   UNL d   1       1.646  -2.066  -1.894  0.00  0.00    -0.033 A 
ATOM      2  C1  UNL d   1       1.803  -0.705  -2.166  0.00  0.00     0.039 A 
ATOM      3  C2  UNL d   1       1.255  -0.156  -3.327  0.00  0.00    -0.080 A 
ATOM      4  C3  UNL d   1       0.554  -0.977  -4.206  0.00  0.00     0.150 A 
ATOM      5  C4  UNL d   1       0.391  -2.332  -3.940  0.00  0.00    -0.007 A 
ATOM      6  C5  UNL d   1       0.939  -2.879  -2.780  0.00  0.00     0.039 A 
ENDROOT
BRANCH   4   7
ATOM      7  O   UNL d   1       0.006  -0.487  -5.354  0.00  0.00    -0.526 OA
ATOM      8  H5  UNL d   1       0.223   0.457  -5.421  0.00  0.00     0.418 HD
ENDBRANCH   4   7
TORSDOF 1
ENDMDL
