MODEL 1
REMARK minimizedAffinity 1.11885655
REMARK minimizedRMSD -1
REMARK  1 active torsions:
REMARK  status: ('A' for Active; 'I' for Inactive)
REMARK    1  A    between atoms: C3_4  and  O_7 
ROOT
ATOM      1  C   UNL d   1       5.083   5.280   0.650  0.00  0.00    -0.033 A 
ATOM      2  C1  UNL d   1       6.000   5.991   1.426  0.00  0.00     0.039 A 
ATOM      3  C2  UNL d   1       5.999   5.851   2.815  0.00  0.00    -0.080 A 
ATOM      4  C3  UNL d   1       5.079   4.997   3.415  0.00  0.00     0.150 A 
ATOM      5  C4  UNL d   1       4.165   4.282   2.649  0.00  0.00    -0.007 A 
ATOM      6  C5  UNL d   1       4.166   4.424   1.262  0.00  0.00     0.039 A 
ENDROOT
BRANCH   4   7
ATOM      7  O   UNL d   1       5.037   4.831   4.768  0.00  0.00    -0.526 OA
ATOM      8  H5  UNL d   1       5.707   5.409   5.170  0.00  0.00     0.418 HD
ENDBRANCH   4   7
TORSDOF 1
ENDMDL
