MODEL 1
REMARK minimizedAffinity 2.47535992
REMARK minimizedRMSD -1
REMARK  1 active torsions:
REMARK  status: ('A' for Active; 'I' for Inactive)
REMARK    1  A    between atoms: C3_4  and  O_7 
ROOT
ATOM      1  C   UNL d   1       3.375   3.532  -5.229  0.00  0.00    -0.033 A 
ATOM      2  C1  UNL d   1       2.630   4.109  -4.199  0.00  0.00     0.039 A 
ATOM      3  C2  UNL d   1       1.730   3.333  -3.467  0.00  0.00    -0.080 A 
ATOM      4  C3  UNL d   1       1.586   1.982  -3.773  0.00  0.00     0.150 A 
ATOM      5  C4  UNL d   1       2.328   1.400  -4.795  0.00  0.00    -0.007 A 
ATOM      6  C5  UNL d   1       3.226   2.178  -5.526  0.00  0.00     0.039 A 
ENDROOT
BRANCH   4   7
ATOM      7  O   UNL d   1       0.717   1.185  -3.089  0.00  0.00    -0.526 OA
ATOM      8  H5  UNL d   1       0.252   1.729  -2.432  0.00  0.00     0.418 HD
ENDBRANCH   4   7
TORSDOF 1
ENDMDL
