MODEL 1
REMARK minimizedAffinity 4.68759251
REMARK minimizedRMSD -1
REMARK  1 active torsions:
REMARK  status: ('A' for Active; 'I' for Inactive)
REMARK    1  A    between atoms: C3_4  and  O_7 
ROOT
ATOM      1  C   UNL d   1       0.992   1.277  -3.517  0.00  0.00    -0.033 A 
ATOM      2  C1  UNL d   1       1.805   2.390  -3.739  0.00  0.00     0.039 A 
ATOM      3  C2  UNL d   1       2.082   3.273  -2.694  0.00  0.00    -0.080 A 
ATOM      4  C3  UNL d   1       1.542   3.033  -1.434  0.00  0.00     0.150 A 
ATOM      5  C4  UNL d   1       0.734   1.924  -1.205  0.00  0.00    -0.007 A 
ATOM      6  C5  UNL d   1       0.457   1.043  -2.250  0.00  0.00     0.039 A 
ENDROOT
BRANCH   4   7
ATOM      7  O   UNL d   1       1.780   3.870  -0.384  0.00  0.00    -0.526 OA
ATOM      8  H5  UNL d   1       2.330   4.607  -0.698  0.00  0.00     0.418 HD
ENDBRANCH   4   7
TORSDOF 1
ENDMDL
