MODEL 1
REMARK minimizedAffinity 3.17017722
REMARK minimizedRMSD -1
REMARK  1 active torsions:
REMARK  status: ('A' for Active; 'I' for Inactive)
REMARK    1  A    between atoms: C3_4  and  O_7 
ROOT
ATOM      1  C   UNL d   1       1.958   0.979  -3.706  0.00  0.00    -0.033 A 
ATOM      2  C1  UNL d   1       3.083   1.441  -4.391  0.00  0.00     0.039 A 
ATOM      3  C2  UNL d   1       3.649   2.674  -4.057  0.00  0.00    -0.080 A 
ATOM      4  C3  UNL d   1       3.081   3.431  -3.036  0.00  0.00     0.150 A 
ATOM      5  C4  UNL d   1       1.963   2.975  -2.347  0.00  0.00    -0.007 A 
ATOM      6  C5  UNL d   1       1.399   1.744  -2.683  0.00  0.00     0.039 A 
ENDROOT
BRANCH   4   7
ATOM      7  O   UNL d   1       3.595   4.642  -2.678  0.00  0.00    -0.526 OA
ATOM      8  H5  UNL d   1       4.348   4.841  -3.259  0.00  0.00     0.418 HD
ENDBRANCH   4   7
TORSDOF 1
ENDMDL
