MODEL 1
REMARK minimizedAffinity 1.95845699
REMARK minimizedRMSD -1
REMARK  1 active torsions:
REMARK  status: ('A' for Active; 'I' for Inactive)
REMARK    1  A    between atoms: C3_4  and  O_7 
ROOT
ATOM      1  C   UNL d   1       3.368   1.097  -3.884  0.00  0.00    -0.033 A 
ATOM      2  C1  UNL d   1       3.342   0.233  -2.788  0.00  0.00     0.039 A 
ATOM      3  C2  UNL d   1       2.218   0.184  -1.961  0.00  0.00    -0.080 A 
ATOM      4  C3  UNL d   1       1.128   1.003  -2.242  0.00  0.00     0.150 A 
ATOM      5  C4  UNL d   1       1.145   1.864  -3.335  0.00  0.00    -0.007 A 
ATOM      6  C5  UNL d   1       2.269   1.912  -4.158  0.00  0.00     0.039 A 
ENDROOT
BRANCH   4   7
ATOM      7  O   UNL d   1       0.010   0.995  -1.461  0.00  0.00    -0.526 OA
ATOM      8  H5  UNL d   1       0.152   0.373  -0.728  0.00  0.00     0.418 HD
ENDBRANCH   4   7
TORSDOF 1
ENDMDL
