MODEL 1
REMARK minimizedAffinity 8.13119793
REMARK minimizedRMSD -1
REMARK  1 active torsions:
REMARK  status: ('A' for Active; 'I' for Inactive)
REMARK    1  A    between atoms: C3_4  and  O_7 
ROOT
ATOM      1  C   UNL d   1       1.144   1.816  -2.801  0.00  0.00    -0.033 A 
ATOM      2  C1  UNL d   1       0.102   1.305  -2.025  0.00  0.00     0.039 A 
ATOM      3  C2  UNL d   1      -0.278  -0.032  -2.156  0.00  0.00    -0.080 A 
ATOM      4  C3  UNL d   1       0.391  -0.847  -3.065  0.00  0.00     0.150 A 
ATOM      5  C4  UNL d   1       1.433  -0.345  -3.838  0.00  0.00    -0.007 A 
ATOM      6  C5  UNL d   1       1.811   0.990  -3.706  0.00  0.00     0.039 A 
ENDROOT
BRANCH   4   7
ATOM      7  O   UNL d   1       0.053  -2.156  -3.232  0.00  0.00    -0.526 OA
ATOM      8  H5  UNL d   1      -0.702  -2.355  -2.653  0.00  0.00     0.418 HD
ENDBRANCH   4   7
TORSDOF 1
ENDMDL
