MODEL 1
REMARK minimizedAffinity -2.30391717
REMARK minimizedRMSD -1
REMARK  1 active torsions:
REMARK  status: ('A' for Active; 'I' for Inactive)
REMARK    1  A    between atoms: N_2  and  C1_3 
ROOT
ATOM      1  C1  UNL d   1      -5.020   3.107  -5.914  0.00  0.00     0.143 A 
ATOM      2  C2  UNL d   1      -5.396   1.760  -5.940  0.00  0.00    -0.057 A 
ATOM      3  C3  UNL d   1      -4.438   0.739  -5.968  0.00  0.00     0.033 A 
ATOM      4  C4  UNL d   1      -3.083   1.050  -6.000  0.00  0.00    -0.042 A 
ATOM      5  C5  UNL d   1      -2.687   2.382  -6.000  0.00  0.00     0.033 A 
ATOM      6  C6  UNL d   1      -3.648   3.397  -5.965  0.00  0.00    -0.057 A 
ENDROOT
BRANCH   1   7
ATOM      7  N   UNL d   1      -5.926   4.169  -5.985  0.00  0.00    -0.732 N 
ATOM      8  C   UNL d   1      -5.457   5.538  -5.984  0.00  0.00     0.284 C 
ATOM      9  H3  UNL d   1      -6.684   3.989  -6.638  0.00  0.00     0.395 HD
ENDBRANCH   1   7
TORSDOF 1
ENDMDL
