MODEL 1
REMARK minimizedAffinity 0.271163553
REMARK minimizedRMSD -1
REMARK  1 active torsions:
REMARK  status: ('A' for Active; 'I' for Inactive)
REMARK    1  A    between atoms: N_2  and  C1_3 
ROOT
ATOM      1  C1  UNL d   1      -3.810   1.971  -5.923  0.00  0.00     0.143 A 
ATOM      2  C2  UNL d   1      -2.849   2.987  -5.960  0.00  0.00    -0.057 A 
ATOM      3  C3  UNL d   1      -3.220   4.337  -5.982  0.00  0.00     0.033 A 
ATOM      4  C4  UNL d   1      -4.564   4.695  -5.997  0.00  0.00    -0.042 A 
ATOM      5  C5  UNL d   1      -5.537   3.701  -5.986  0.00  0.00     0.033 A 
ATOM      6  C6  UNL d   1      -5.160   2.355  -5.958  0.00  0.00    -0.057 A 
ENDROOT
BRANCH   1   7
ATOM      7  N   UNL d   1      -3.505   0.610  -6.000  0.00  0.00    -0.732 N 
ATOM      8  C   UNL d   1      -4.558  -0.383  -5.986  0.00  0.00     0.284 C 
ATOM      9  H3  UNL d   1      -2.759   0.415  -6.663  0.00  0.00     0.395 HD
ENDBRANCH   1   7
TORSDOF 1
ENDMDL
