MODEL 1
REMARK minimizedAffinity 4.67301798
REMARK minimizedRMSD -1
REMARK  1 active torsions:
REMARK  status: ('A' for Active; 'I' for Inactive)
REMARK    1  A    between atoms: N_2  and  C1_3 
ROOT
ATOM      1  C1  UNL d   1      -4.102  -0.800  -5.986  0.00  0.00     0.143 A 
ATOM      2  C2  UNL d   1      -3.147  -1.819  -5.899  0.00  0.00    -0.057 A 
ATOM      3  C3  UNL d   1      -3.524  -3.167  -5.869  0.00  0.00     0.033 A 
ATOM      4  C4  UNL d   1      -4.869  -3.520  -5.896  0.00  0.00    -0.042 A 
ATOM      5  C5  UNL d   1      -5.837  -2.523  -5.956  0.00  0.00     0.033 A 
ATOM      6  C6  UNL d   1      -5.453  -1.179  -5.993  0.00  0.00    -0.057 A 
ENDROOT
BRANCH   1   7
ATOM      7  N   UNL d   1      -3.795   0.561  -5.920  0.00  0.00    -0.732 N 
ATOM      8  C   UNL d   1      -4.842   1.557  -5.995  0.00  0.00     0.284 C 
ATOM      9  H3  UNL d   1      -3.076   0.764  -5.229  0.00  0.00     0.395 HD
ENDBRANCH   1   7
TORSDOF 1
ENDMDL
