MODEL 1
REMARK minimizedAffinity -1.8886807
REMARK minimizedRMSD -1
REMARK  1 active torsions:
REMARK  status: ('A' for Active; 'I' for Inactive)
REMARK    1  A    between atoms: N_2  and  C1_3 
ROOT
ATOM      1  C1  UNL d   1      -5.019   2.649  -5.883  0.00  0.00     0.143 A 
ATOM      2  C2  UNL d   1      -3.679   3.034  -6.000  0.00  0.00    -0.057 A 
ATOM      3  C3  UNL d   1      -3.308   4.384  -5.976  0.00  0.00     0.033 A 
ATOM      4  C4  UNL d   1      -4.276   5.376  -5.864  0.00  0.00    -0.042 A 
ATOM      5  C5  UNL d   1      -5.616   5.017  -5.771  0.00  0.00     0.033 A 
ATOM      6  C6  UNL d   1      -5.980   3.668  -5.788  0.00  0.00    -0.057 A 
ENDROOT
BRANCH   1   7
ATOM      7  N   UNL d   1      -5.461   1.329  -5.998  0.00  0.00    -0.732 N 
ATOM      8  C   UNL d   1      -4.517   0.232  -5.997  0.00  0.00     0.284 C 
ATOM      9  H3  UNL d   1      -6.304   1.152  -5.455  0.00  0.00     0.395 HD
ENDBRANCH   1   7
TORSDOF 1
ENDMDL
