MODEL 1
REMARK minimizedAffinity -1.74816179
REMARK minimizedRMSD -1
REMARK  1 active torsions:
REMARK  status: ('A' for Active; 'I' for Inactive)
REMARK    1  A    between atoms: N_2  and  C1_3 
ROOT
ATOM      1  C1  UNL d   1      -1.938  -4.323  -2.784  0.00  0.00     0.143 A 
ATOM      2  C2  UNL d   1      -2.000  -3.002  -2.327  0.00  0.00    -0.057 A 
ATOM      3  C3  UNL d   1      -2.031  -2.708  -0.958  0.00  0.00     0.033 A 
ATOM      4  C4  UNL d   1      -2.030  -3.735  -0.020  0.00  0.00    -0.042 A 
ATOM      5  C5  UNL d   1      -1.994  -5.056  -0.452  0.00  0.00     0.033 A 
ATOM      6  C6  UNL d   1      -1.956  -5.343  -1.820  0.00  0.00    -0.057 A 
ENDROOT
BRANCH   1   7
ATOM      7  N   UNL d   1      -2.005  -4.683  -4.132  0.00  0.00    -0.732 N 
ATOM      8  C   UNL d   1      -2.975  -4.068  -5.012  0.00  0.00     0.284 C 
ATOM      9  H3  UNL d   1      -1.084  -4.803  -4.548  0.00  0.00     0.395 HD
ENDBRANCH   1   7
TORSDOF 1
ENDMDL
