MODEL 1
REMARK minimizedAffinity -2.88139105
REMARK minimizedRMSD -1
REMARK  1 active torsions:
REMARK  status: ('A' for Active; 'I' for Inactive)
REMARK    1  A    between atoms: N_2  and  C1_3 
ROOT
ATOM      1  C1  UNL d   1      -3.628   0.949  -5.997  0.00  0.00     0.143 A 
ATOM      2  C2  UNL d   1      -4.905   1.519  -5.995  0.00  0.00    -0.057 A 
ATOM      3  C3  UNL d   1      -5.083   2.904  -5.890  0.00  0.00     0.033 A 
ATOM      4  C4  UNL d   1      -3.982   3.744  -5.756  0.00  0.00    -0.042 A 
ATOM      5  C5  UNL d   1      -2.704   3.198  -5.730  0.00  0.00     0.033 A 
ATOM      6  C6  UNL d   1      -2.533   1.814  -5.841  0.00  0.00    -0.057 A 
ENDROOT
BRANCH   1   7
ATOM      7  N   UNL d   1      -3.390  -0.427  -5.999  0.00  0.00    -0.732 N 
ATOM      8  C   UNL d   1      -4.491  -1.366  -5.980  0.00  0.00     0.284 C 
ATOM      9  H3  UNL d   1      -2.631  -0.689  -6.624  0.00  0.00     0.395 HD
ENDBRANCH   1   7
TORSDOF 1
ENDMDL
