MODEL 1
REMARK minimizedAffinity -3.7158308
REMARK minimizedRMSD -1
REMARK  1 active torsions:
REMARK  status: ('A' for Active; 'I' for Inactive)
REMARK    1  A    between atoms: N_2  and  C1_3 
ROOT
ATOM      1  C1  UNL d   1      -4.189   3.102  -5.986  0.00  0.00     0.143 A 
ATOM      2  C2  UNL d   1      -2.914   2.524  -5.976  0.00  0.00    -0.057 A 
ATOM      3  C3  UNL d   1      -2.747   1.134  -5.996  0.00  0.00     0.033 A 
ATOM      4  C4  UNL d   1      -3.856   0.294  -5.997  0.00  0.00    -0.042 A 
ATOM      5  C5  UNL d   1      -5.132   0.846  -5.983  0.00  0.00     0.033 A 
ATOM      6  C6  UNL d   1      -5.292   2.235  -5.970  0.00  0.00    -0.057 A 
ENDROOT
BRANCH   1   7
ATOM      7  N   UNL d   1      -4.421   4.474  -5.868  0.00  0.00    -0.732 N 
ATOM      8  C   UNL d   1      -5.761   5.008  -5.991  0.00  0.00     0.284 C 
ATOM      9  H3  UNL d   1      -3.871   4.899  -5.125  0.00  0.00     0.395 HD
ENDBRANCH   1   7
TORSDOF 1
ENDMDL
