MODEL 1
REMARK minimizedAffinity -2.13789654
REMARK minimizedRMSD -1
REMARK  1 active torsions:
REMARK  status: ('A' for Active; 'I' for Inactive)
REMARK    1  A    between atoms: N_2  and  C1_3 
ROOT
ATOM      1  C1  UNL d   1      -3.610   4.910  -5.624  0.00  0.00     0.143 A 
ATOM      2  C2  UNL d   1      -3.840   3.581  -5.997  0.00  0.00    -0.057 A 
ATOM      3  C3  UNL d   1      -2.805   2.638  -6.000  0.00  0.00     0.033 A 
ATOM      4  C4  UNL d   1      -1.511   3.016  -5.656  0.00  0.00    -0.042 A 
ATOM      5  C5  UNL d   1      -1.254   4.336  -5.305  0.00  0.00     0.033 A 
ATOM      6  C6  UNL d   1      -2.294   5.272  -5.298  0.00  0.00    -0.057 A 
ENDROOT
BRANCH   1   7
ATOM      7  N   UNL d   1      -4.576   5.916  -5.695  0.00  0.00    -0.732 N 
ATOM      8  C   UNL d   1      -5.986   5.589  -5.659  0.00  0.00     0.284 C 
ATOM      9  H3  UNL d   1      -4.326   6.735  -5.146  0.00  0.00     0.395 HD
ENDBRANCH   1   7
TORSDOF 1
ENDMDL
