MODEL 1
REMARK minimizedAffinity 4.57166815
REMARK minimizedRMSD -1
REMARK  1 active torsions:
REMARK  status: ('A' for Active; 'I' for Inactive)
REMARK    1  A    between atoms: N_2  and  C1_3 
ROOT
ATOM      1  C1  UNL d   1       0.656  -0.401  -0.284  0.00  0.00     0.143 A 
ATOM      2  C2  UNL d   1       1.886  -0.124  -0.890  0.00  0.00    -0.057 A 
ATOM      3  C3  UNL d   1       2.050  -0.218  -2.277  0.00  0.00     0.033 A 
ATOM      4  C4  UNL d   1       0.990  -0.620  -3.083  0.00  0.00    -0.042 A 
ATOM      5  C5  UNL d   1      -0.235  -0.925  -2.501  0.00  0.00     0.033 A 
ATOM      6  C6  UNL d   1      -0.394  -0.823  -1.115  0.00  0.00    -0.057 A 
ENDROOT
BRANCH   1   7
ATOM      7  N   UNL d   1       0.456  -0.422   1.098  0.00  0.00    -0.732 N 
ATOM      8  C   UNL d   1       0.611   0.784   1.883  0.00  0.00     0.284 C 
ATOM      9  H3  UNL d   1      -0.341  -0.993   1.367  0.00  0.00     0.395 HD
ENDBRANCH   1   7
TORSDOF 1
ENDMDL
