MODEL 1
REMARK minimizedAffinity -3.85184312
REMARK minimizedRMSD -1
REMARK  1 active torsions:
REMARK  status: ('A' for Active; 'I' for Inactive)
REMARK    1  A    between atoms: N_2  and  C1_3 
ROOT
ATOM      1  C1  UNL d   1      -0.366  -0.150   1.130  0.00  0.00     0.143 A 
ATOM      2  C2  UNL d   1      -0.154  -0.170   2.513  0.00  0.00    -0.057 A 
ATOM      3  C3  UNL d   1      -1.220  -0.043   3.412  0.00  0.00     0.033 A 
ATOM      4  C4  UNL d   1      -2.517   0.136   2.942  0.00  0.00    -0.042 A 
ATOM      5  C5  UNL d   1      -2.747   0.184   1.572  0.00  0.00     0.033 A 
ATOM      6  C6  UNL d   1      -1.680   0.049   0.679  0.00  0.00    -0.057 A 
ENDROOT
BRANCH   1   7
ATOM      7  N   UNL d   1       0.663  -0.173   0.185  0.00  0.00    -0.732 N 
ATOM      8  C   UNL d   1       0.373  -0.026  -1.225  0.00  0.00     0.284 C 
ATOM      9  H3  UNL d   1       1.487   0.338   0.495  0.00  0.00     0.395 HD
ENDBRANCH   1   7
TORSDOF 1
ENDMDL
