MODEL 1
REMARK minimizedAffinity -5.51691723
REMARK minimizedRMSD -1
REMARK  1 active torsions:
REMARK  status: ('A' for Active; 'I' for Inactive)
REMARK    1  A    between atoms: N_2  and  C1_3 
ROOT
ATOM      1  C1  UNL d   1      -0.858  -0.255   0.392  0.00  0.00     0.143 A 
ATOM      2  C2  UNL d   1      -2.228  -0.099   0.627  0.00  0.00    -0.057 A 
ATOM      3  C3  UNL d   1      -2.746  -0.085   1.928  0.00  0.00     0.033 A 
ATOM      4  C4  UNL d   1      -1.902  -0.256   3.020  0.00  0.00    -0.042 A 
ATOM      5  C5  UNL d   1      -0.540  -0.438   2.810  0.00  0.00     0.033 A 
ATOM      6  C6  UNL d   1      -0.028  -0.445   1.509  0.00  0.00    -0.057 A 
ENDROOT
BRANCH   1   7
ATOM      7  N   UNL d   1      -0.296  -0.377  -0.880  0.00  0.00    -0.732 N 
ATOM      8  C   UNL d   1       0.367   0.749  -1.504  0.00  0.00     0.284 C 
ATOM      9  H3  UNL d   1       0.183  -1.265  -1.011  0.00  0.00     0.395 HD
ENDBRANCH   1   7
TORSDOF 1
ENDMDL
