MODEL 1
REMARK minimizedAffinity -5.36985683
REMARK minimizedRMSD -1
REMARK  1 active torsions:
REMARK  status: ('A' for Active; 'I' for Inactive)
REMARK    1  A    between atoms: N_2  and  C1_3 
ROOT
ATOM      1  C1  UNL d   1      -0.723  -0.230   0.641  0.00  0.00     0.143 A 
ATOM      2  C2  UNL d   1      -2.019   0.278   0.506  0.00  0.00    -0.057 A 
ATOM      3  C3  UNL d   1      -2.792   0.601   1.628  0.00  0.00     0.033 A 
ATOM      4  C4  UNL d   1      -2.291   0.393   2.909  0.00  0.00    -0.042 A 
ATOM      5  C5  UNL d   1      -1.015  -0.135   3.067  0.00  0.00     0.033 A 
ATOM      6  C6  UNL d   1      -0.245  -0.449   1.942  0.00  0.00    -0.057 A 
ENDROOT
BRANCH   1   7
ATOM      7  N   UNL d   1       0.059  -0.663  -0.434  0.00  0.00    -0.732 N 
ATOM      8  C   UNL d   1       0.427   0.252  -1.493  0.00  0.00     0.284 C 
ATOM      9  H3  UNL d   1       0.809  -1.285  -0.143  0.00  0.00     0.395 HD
ENDBRANCH   1   7
TORSDOF 1
ENDMDL
