MODEL 1
REMARK minimizedAffinity -3.70144916
REMARK minimizedRMSD -1
REMARK  1 active torsions:
REMARK  status: ('A' for Active; 'I' for Inactive)
REMARK    1  A    between atoms: N_2  and  C1_3 
ROOT
ATOM      1  C1  UNL d   1       0.253   0.207  -0.415  0.00  0.00     0.143 A 
ATOM      2  C2  UNL d   1       1.402   0.520   0.319  0.00  0.00    -0.057 A 
ATOM      3  C3  UNL d   1       1.455   0.325   1.704  0.00  0.00     0.033 A 
ATOM      4  C4  UNL d   1       0.345  -0.160   2.387  0.00  0.00    -0.042 A 
ATOM      5  C5  UNL d   1      -0.817  -0.455   1.682  0.00  0.00     0.033 A 
ATOM      6  C6  UNL d   1      -0.861  -0.265   0.298  0.00  0.00    -0.057 A 
ENDROOT
BRANCH   1   7
ATOM      7  N   UNL d   1       0.105   0.470  -1.779  0.00  0.00    -0.732 N 
ATOM      8  C   UNL d   1       0.868  -0.272  -2.759  0.00  0.00     0.284 C 
ATOM      9  H3  UNL d   1      -0.865   0.629  -2.040  0.00  0.00     0.395 HD
ENDBRANCH   1   7
TORSDOF 1
ENDMDL
