MODEL 1
REMARK minimizedAffinity -3.14923644
REMARK minimizedRMSD -1
REMARK  1 active torsions:
REMARK  status: ('A' for Active; 'I' for Inactive)
REMARK    1  A    between atoms: N_2  and  C1_3 
ROOT
ATOM      1  C1  UNL d   1      -0.932   0.027   0.541  0.00  0.00     0.143 A 
ATOM      2  C2  UNL d   1      -0.137  -0.153   1.678  0.00  0.00    -0.057 A 
ATOM      3  C3  UNL d   1      -0.699  -0.175   2.961  0.00  0.00     0.033 A 
ATOM      4  C4  UNL d   1      -2.067   0.013   3.130  0.00  0.00    -0.042 A 
ATOM      5  C5  UNL d   1      -2.873   0.218   2.016  0.00  0.00     0.033 A 
ATOM      6  C6  UNL d   1      -2.307   0.233   0.738  0.00  0.00    -0.057 A 
ENDROOT
BRANCH   1   7
ATOM      7  N   UNL d   1      -0.421   0.157  -0.753  0.00  0.00    -0.732 N 
ATOM      8  C   UNL d   1      -1.154   0.885  -1.766  0.00  0.00     0.284 C 
ATOM      9  H3  UNL d   1       0.582   0.332  -0.758  0.00  0.00     0.395 HD
ENDBRANCH   1   7
TORSDOF 1
ENDMDL
