MODEL 1
REMARK minimizedAffinity -5.63853836
REMARK minimizedRMSD -1
REMARK  1 active torsions:
REMARK  status: ('A' for Active; 'I' for Inactive)
REMARK    1  A    between atoms: N_2  and  C1_3 
ROOT
ATOM      1  C1  UNL d   1      -0.691  -0.298   0.676  0.00  0.00     0.143 A 
ATOM      2  C2  UNL d   1      -0.347  -0.680   1.977  0.00  0.00    -0.057 A 
ATOM      3  C3  UNL d   1      -1.273  -0.606   3.025  0.00  0.00     0.033 A 
ATOM      4  C4  UNL d   1      -2.556  -0.120   2.794  0.00  0.00    -0.042 A 
ATOM      5  C5  UNL d   1      -2.912   0.288   1.513  0.00  0.00     0.033 A 
ATOM      6  C6  UNL d   1      -1.985   0.206   0.471  0.00  0.00    -0.057 A 
ENDROOT
BRANCH   1   7
ATOM      7  N   UNL d   1       0.215  -0.254  -0.387  0.00  0.00    -0.732 N 
ATOM      8  C   UNL d   1       0.141   0.800  -1.376  0.00  0.00     0.284 C 
ATOM      9  H3  UNL d   1       1.162  -0.489  -0.100  0.00  0.00     0.395 HD
ENDBRANCH   1   7
TORSDOF 1
ENDMDL
