MODEL 1
REMARK minimizedAffinity -4.67671585
REMARK minimizedRMSD -1
REMARK  1 active torsions:
REMARK  status: ('A' for Active; 'I' for Inactive)
REMARK    1  A    between atoms: N_2  and  C1_3 
ROOT
ATOM      1  C1  UNL d   1      -0.092   0.209   0.131  0.00  0.00     0.143 A 
ATOM      2  C2  UNL d   1       0.869   0.078   1.139  0.00  0.00    -0.057 A 
ATOM      3  C3  UNL d   1       0.499  -0.146   2.470  0.00  0.00     0.033 A 
ATOM      4  C4  UNL d   1      -0.845  -0.215   2.823  0.00  0.00    -0.042 A 
ATOM      5  C5  UNL d   1      -1.818  -0.063   1.841  0.00  0.00     0.033 A 
ATOM      6  C6  UNL d   1      -1.441   0.154   0.512  0.00  0.00    -0.057 A 
ENDROOT
BRANCH   1   7
ATOM      7  N   UNL d   1       0.210   0.531  -1.195  0.00  0.00    -0.732 N 
ATOM      8  C   UNL d   1       0.647  -0.491  -2.121  0.00  0.00     0.284 C 
ATOM      9  H3  UNL d   1      -0.447   1.199  -1.592  0.00  0.00     0.395 HD
ENDBRANCH   1   7
TORSDOF 1
ENDMDL
