MODEL 1
REMARK minimizedAffinity -4.39611197
REMARK minimizedRMSD -1
REMARK  1 active torsions:
REMARK  status: ('A' for Active; 'I' for Inactive)
REMARK    1  A    between atoms: N_2  and  C1_3 
ROOT
ATOM      1  C1  UNL d   1      -1.066   0.202   0.991  0.00  0.00     0.143 A 
ATOM      2  C2  UNL d   1      -0.245   0.258  -0.141  0.00  0.00    -0.057 A 
ATOM      3  C3  UNL d   1       1.140   0.423  -0.026  0.00  0.00     0.033 A 
ATOM      4  C4  UNL d   1       1.729   0.564   1.226  0.00  0.00    -0.042 A 
ATOM      5  C5  UNL d   1       0.930   0.537   2.364  0.00  0.00     0.033 A 
ATOM      6  C6  UNL d   1      -0.453   0.366   2.243  0.00  0.00    -0.057 A 
ENDROOT
BRANCH   1   7
ATOM      7  N   UNL d   1      -2.460   0.138   0.939  0.00  0.00    -0.732 N 
ATOM      8  C   UNL d   1      -3.253   0.358   2.129  0.00  0.00     0.284 C 
ATOM      9  H3  UNL d   1      -2.838   0.576   0.101  0.00  0.00     0.395 HD
ENDBRANCH   1   7
TORSDOF 1
ENDMDL
