MODEL 1
REMARK minimizedAffinity -4.5434227
REMARK minimizedRMSD -1
REMARK  1 active torsions:
REMARK  status: ('A' for Active; 'I' for Inactive)
REMARK    1  A    between atoms: N_2  and  C1_3 
ROOT
ATOM      1  C1  UNL d   1      -2.571   1.319   2.597  0.00  0.00     0.143 A 
ATOM      2  C2  UNL d   1      -2.795   0.275   1.693  0.00  0.00    -0.057 A 
ATOM      3  C3  UNL d   1      -1.950  -0.841   1.648  0.00  0.00     0.033 A 
ATOM      4  C4  UNL d   1      -0.845  -0.918   2.490  0.00  0.00    -0.042 A 
ATOM      5  C5  UNL d   1      -0.588   0.120   3.378  0.00  0.00     0.033 A 
ATOM      6  C6  UNL d   1      -1.440   1.228   3.423  0.00  0.00    -0.057 A 
ENDROOT
BRANCH   1   7
ATOM      7  N   UNL d   1      -3.317   2.500   2.622  0.00  0.00    -0.732 N 
ATOM      8  C   UNL d   1      -2.874   3.635   3.402  0.00  0.00     0.284 C 
ATOM      9  H3  UNL d   1      -3.690   2.743   1.707  0.00  0.00     0.395 HD
ENDBRANCH   1   7
TORSDOF 1
ENDMDL
