MODEL 1
REMARK minimizedAffinity -4.94480228
REMARK minimizedRMSD -1
REMARK  1 active torsions:
REMARK  status: ('A' for Active; 'I' for Inactive)
REMARK    1  A    between atoms: N_2  and  C1_3 
ROOT
ATOM      1  C1  UNL d   1      -0.151   0.008   0.831  0.00  0.00     0.143 A 
ATOM      2  C2  UNL d   1      -1.544   0.076   0.943  0.00  0.00    -0.057 A 
ATOM      3  C3  UNL d   1      -2.200  -0.327   2.112  0.00  0.00     0.033 A 
ATOM      4  C4  UNL d   1      -1.474  -0.835   3.184  0.00  0.00    -0.042 A 
ATOM      5  C5  UNL d   1      -0.090  -0.936   3.086  0.00  0.00     0.033 A 
ATOM      6  C6  UNL d   1       0.559  -0.525   1.918  0.00  0.00    -0.057 A 
ENDROOT
BRANCH   1   7
ATOM      7  N   UNL d   1       0.551   0.301  -0.340  0.00  0.00    -0.732 N 
ATOM      8  C   UNL d   1      -0.089   0.180  -1.633  0.00  0.00     0.284 C 
ATOM      9  H3  UNL d   1       1.141   1.124  -0.244  0.00  0.00     0.395 HD
ENDBRANCH   1   7
TORSDOF 1
ENDMDL
