MODEL 1
REMARK minimizedAffinity -5.39462233
REMARK minimizedRMSD -1
REMARK  1 active torsions:
REMARK  status: ('A' for Active; 'I' for Inactive)
REMARK    1  A    between atoms: N_2  and  C1_3 
ROOT
ATOM      1  C1  UNL d   1      -0.728  -0.050   0.519  0.00  0.00     0.143 A 
ATOM      2  C2  UNL d   1       0.313  -0.218   1.439  0.00  0.00    -0.057 A 
ATOM      3  C3  UNL d   1       0.055  -0.397   2.803  0.00  0.00     0.033 A 
ATOM      4  C4  UNL d   1      -1.253  -0.381   3.278  0.00  0.00    -0.042 A 
ATOM      5  C5  UNL d   1      -2.302  -0.191   2.386  0.00  0.00     0.033 A 
ATOM      6  C6  UNL d   1      -2.038  -0.019   1.023  0.00  0.00    -0.057 A 
ENDROOT
BRANCH   1   7
ATOM      7  N   UNL d   1      -0.532   0.230  -0.835  0.00  0.00    -0.732 N 
ATOM      8  C   UNL d   1       0.779   0.098  -1.433  0.00  0.00     0.284 C 
ATOM      9  H3  UNL d   1      -1.292  -0.115  -1.417  0.00  0.00     0.395 HD
ENDBRANCH   1   7
TORSDOF 1
ENDMDL
