MODEL 1
REMARK minimizedAffinity -5.00046635
REMARK minimizedRMSD -1
REMARK  1 active torsions:
REMARK  status: ('A' for Active; 'I' for Inactive)
REMARK    1  A    between atoms: C1_2  and  C2_3 
ROOT
ATOM      1  C2  UNL d   1       0.748   1.935   0.383  0.00  0.00    -0.076 A 
ATOM      2  C3  UNL d   1       1.000   3.298   0.618  0.00  0.00     0.004 A 
ATOM      3  C4  UNL d   1       1.361   4.151  -0.424  0.00  0.00    -0.003 A 
ATOM      4  C5  UNL d   1       1.475   3.655  -1.718  0.00  0.00     0.000 A 
ATOM      5  C6  UNL d   1       1.212   2.310  -1.972  0.00  0.00     0.000 A 
ATOM      6  C7  UNL d   1       0.831   1.440  -0.936  0.00  0.00    -0.073 A 
ATOM      7  C8  UNL d   1       0.565  -0.003  -1.266  0.00  0.00     0.078 C 
ENDROOT
BRANCH   1   8
ATOM      8  C1  UNL d   1       0.387   1.053   1.556  0.00  0.00     0.053 C 
ATOM      9  C   UNL d   1       1.586   0.734   2.436  0.00  0.00     0.018 C 
ENDBRANCH   1   8
TORSDOF 1
ENDMDL
