MODEL 1
REMARK minimizedAffinity -1.75837171
REMARK minimizedRMSD -1
REMARK  1 active torsions:
REMARK  status: ('A' for Active; 'I' for Inactive)
REMARK    1  A    between atoms: C1_2  and  C2_3 
ROOT
ATOM      1  C2  UNL d   1       1.068   2.417  -1.146  0.00  0.00    -0.076 A 
ATOM      2  C3  UNL d   1       1.029   1.240  -1.913  0.00  0.00     0.004 A 
ATOM      3  C4  UNL d   1       1.074  -0.014  -1.305  0.00  0.00    -0.003 A 
ATOM      4  C5  UNL d   1       1.159  -0.111   0.079  0.00  0.00     0.000 A 
ATOM      5  C6  UNL d   1       1.180   1.047   0.857  0.00  0.00     0.000 A 
ATOM      6  C7  UNL d   1       1.119   2.318   0.261  0.00  0.00    -0.073 A 
ATOM      7  C8  UNL d   1       1.151   3.533   1.148  0.00  0.00     0.078 C 
ENDROOT
BRANCH   1   8
ATOM      8  C1  UNL d   1       1.043   3.749  -1.861  0.00  0.00     0.053 C 
ATOM      9  C   UNL d   1       1.812   4.827  -1.113  0.00  0.00     0.018 C 
ENDBRANCH   1   8
TORSDOF 1
ENDMDL
