MODEL 1
REMARK minimizedAffinity 8.97847176
REMARK minimizedRMSD -1
REMARK  1 active torsions:
REMARK  status: ('A' for Active; 'I' for Inactive)
REMARK    1  A    between atoms: C1_2  and  C2_3 
ROOT
ATOM      1  C2  UNL d   1      -0.148   1.501   0.116  0.00  0.00    -0.076 A 
ATOM      2  C3  UNL d   1       0.229   2.138   1.311  0.00  0.00     0.004 A 
ATOM      3  C4  UNL d   1       1.460   1.870   1.909  0.00  0.00    -0.003 A 
ATOM      4  C5  UNL d   1       2.333   0.962   1.322  0.00  0.00     0.000 A 
ATOM      5  C6  UNL d   1       1.982   0.334   0.127  0.00  0.00     0.000 A 
ATOM      6  C7  UNL d   1       0.753   0.604  -0.498  0.00  0.00    -0.073 A 
ATOM      7  C8  UNL d   1       0.423  -0.106  -1.782  0.00  0.00     0.078 C 
ENDROOT
BRANCH   1   8
ATOM      8  C1  UNL d   1      -1.506   1.810  -0.472  0.00  0.00     0.053 C 
ATOM      9  C   UNL d   1      -2.455   2.426   0.545  0.00  0.00     0.018 C 
ENDBRANCH   1   8
TORSDOF 1
ENDMDL
