MODEL 1
REMARK minimizedAffinity 6.5715642
REMARK minimizedRMSD -1
REMARK  1 active torsions:
REMARK  status: ('A' for Active; 'I' for Inactive)
REMARK    1  A    between atoms: C1_2  and  C2_3 
ROOT
ATOM      1  C2  UNL d   1       1.570   1.501  -0.253  0.00  0.00    -0.076 A 
ATOM      2  C3  UNL d   1       1.079   0.187  -0.346  0.00  0.00     0.004 A 
ATOM      3  C4  UNL d   1       0.616  -0.322  -1.558  0.00  0.00    -0.003 A 
ATOM      4  C5  UNL d   1       0.637   0.474  -2.698  0.00  0.00     0.000 A 
ATOM      5  C6  UNL d   1       1.137   1.774  -2.628  0.00  0.00     0.000 A 
ATOM      6  C7  UNL d   1       1.623   2.297  -1.417  0.00  0.00    -0.073 A 
ATOM      7  C8  UNL d   1       2.145   3.708  -1.398  0.00  0.00     0.078 C 
ENDROOT
BRANCH   1   8
ATOM      8  C1  UNL d   1       2.033   2.008   1.094  0.00  0.00     0.053 C 
ATOM      9  C   UNL d   1       1.008   2.911   1.761  0.00  0.00     0.018 C 
ENDBRANCH   1   8
TORSDOF 1
ENDMDL
