MODEL 1
REMARK minimizedAffinity 1.17145002
REMARK minimizedRMSD -1
REMARK  1 active torsions:
REMARK  status: ('A' for Active; 'I' for Inactive)
REMARK    1  A    between atoms: C1_2  and  C2_3 
ROOT
ATOM      1  C2  UNL d   1       0.849  -1.752  -0.965  0.00  0.00    -0.076 A 
ATOM      2  C3  UNL d   1      -0.445  -1.591  -1.488  0.00  0.00     0.004 A 
ATOM      3  C4  UNL d   1      -1.176  -2.686  -1.947  0.00  0.00    -0.003 A 
ATOM      4  C5  UNL d   1      -0.623  -3.960  -1.889  0.00  0.00     0.000 A 
ATOM      5  C6  UNL d   1       0.653  -4.141  -1.357  0.00  0.00     0.000 A 
ATOM      6  C7  UNL d   1       1.396  -3.050  -0.875  0.00  0.00    -0.073 A 
ATOM      7  C8  UNL d   1       2.770  -3.302  -0.317  0.00  0.00     0.078 C 
ENDROOT
BRANCH   1   8
ATOM      8  C1  UNL d   1       1.604  -0.524  -0.508  0.00  0.00     0.053 C 
ATOM      9  C   UNL d   1       1.284   0.703  -1.348  0.00  0.00     0.018 C 
ENDBRANCH   1   8
TORSDOF 1
ENDMDL
