MODEL 1
REMARK minimizedAffinity 5.31842184
REMARK minimizedRMSD -1
REMARK  1 active torsions:
REMARK  status: ('A' for Active; 'I' for Inactive)
REMARK    1  A    between atoms: C1_2  and  C2_3 
ROOT
ATOM      1  C2  UNL d   1       0.981   1.734  -0.965  0.00  0.00    -0.076 A 
ATOM      2  C3  UNL d   1       1.352   2.152   0.325  0.00  0.00     0.004 A 
ATOM      3  C4  UNL d   1       1.801   1.235   1.274  0.00  0.00    -0.003 A 
ATOM      4  C5  UNL d   1       1.887  -0.114   0.948  0.00  0.00     0.000 A 
ATOM      5  C6  UNL d   1       1.540  -0.543  -0.333  0.00  0.00     0.000 A 
ATOM      6  C7  UNL d   1       1.101   0.370  -1.306  0.00  0.00    -0.073 A 
ATOM      7  C8  UNL d   1       0.735  -0.149  -2.670  0.00  0.00     0.078 C 
ENDROOT
BRANCH   1   8
ATOM      8  C1  UNL d   1       0.476   2.770  -1.944  0.00  0.00     0.053 C 
ATOM      9  C   UNL d   1       1.169   4.114  -1.780  0.00  0.00     0.018 C 
ENDBRANCH   1   8
TORSDOF 1
ENDMDL
