MODEL 1
REMARK minimizedAffinity 7.05735826
REMARK minimizedRMSD -1
REMARK  1 active torsions:
REMARK  status: ('A' for Active; 'I' for Inactive)
REMARK    1  A    between atoms: C1_2  and  C2_3 
ROOT
ATOM      1  C2  UNL d   1       0.961   2.809  -1.234  0.00  0.00    -0.076 A 
ATOM      2  C3  UNL d   1       1.868   1.933  -0.612  0.00  0.00     0.004 A 
ATOM      3  C4  UNL d   1       1.882   0.575  -0.924  0.00  0.00    -0.003 A 
ATOM      4  C5  UNL d   1       0.989   0.070  -1.863  0.00  0.00     0.000 A 
ATOM      5  C6  UNL d   1       0.094   0.927  -2.502  0.00  0.00     0.000 A 
ATOM      6  C7  UNL d   1       0.078   2.302  -2.211  0.00  0.00    -0.073 A 
ATOM      7  C8  UNL d   1      -0.913   3.179  -2.926  0.00  0.00     0.078 C 
ENDROOT
BRANCH   1   8
ATOM      8  C1  UNL d   1       0.974   4.268  -0.836  0.00  0.00     0.053 C 
ATOM      9  C   UNL d   1       0.897   4.461   0.671  0.00  0.00     0.018 C 
ENDBRANCH   1   8
TORSDOF 1
ENDMDL
