MODEL 1
REMARK minimizedAffinity -2.00246572
REMARK minimizedRMSD -1
REMARK  0 active torsions:
REMARK  status: ('A' for Active; 'I' for Inactive)
ROOT
ATOM      1  N1  IND d   1       2.424  -1.378  -0.804  0.00  0.00    -0.196 N 
ATOM      2  C2  IND d   1       3.508  -2.110  -0.408  0.00  0.00     0.054 A 
ATOM      3  C3  IND d   1       3.497  -2.281   0.933  0.00  0.00    -0.031 A 
ATOM      4  C4  IND d   1       1.743  -1.532   2.662  0.00  0.00     0.051 A 
ATOM      5  C5  IND d   1       0.595  -0.802   2.785  0.00  0.00    -0.031 A 
ATOM      6  C6  IND d   1      -0.017  -0.217   1.695  0.00  0.00     0.015 A 
ATOM      7  C7  IND d   1       0.494  -0.350   0.435  0.00  0.00    -0.016 A 
ATOM      8  C8  IND d   1       1.664  -1.085   0.308  0.00  0.00    -0.047 A 
ATOM      9  C9  IND d   1       2.312  -1.646   1.416  0.00  0.00    -0.096 A 
ATOM     10  HN1 IND d   1       2.246  -1.140  -1.611  0.00  0.00     0.298 HD
ENDROOT
TORSDOF 0
ENDMDL
