MODEL 1
REMARK minimizedAffinity -4.07006884
REMARK minimizedRMSD -1
REMARK  0 active torsions:
REMARK  status: ('A' for Active; 'I' for Inactive)
ROOT
ATOM      1  N1  IND d   1       0.447  -0.016  -0.958  0.00  0.00    -0.196 N 
ATOM      2  C2  IND d   1      -0.917   0.007  -0.865  0.00  0.00     0.054 A 
ATOM      3  C3  IND d   1      -1.304  -0.205   0.413  0.00  0.00    -0.031 A 
ATOM      4  C4  IND d   1       0.131  -0.511   2.528  0.00  0.00     0.051 A 
ATOM      5  C5  IND d   1       1.427  -0.643   2.940  0.00  0.00    -0.031 A 
ATOM      6  C6  IND d   1       2.485  -0.568   2.057  0.00  0.00     0.015 A 
ATOM      7  C7  IND d   1       2.284  -0.347   0.723  0.00  0.00    -0.016 A 
ATOM      8  C8  IND d   1       0.969  -0.220   0.300  0.00  0.00    -0.047 A 
ATOM      9  C9  IND d   1      -0.110  -0.337   1.186  0.00  0.00    -0.096 A 
ATOM     10  HN1 IND d   1       0.902   0.080  -1.681  0.00  0.00     0.298 HD
ENDROOT
TORSDOF 0
ENDMDL
