MODEL 1
REMARK minimizedAffinity -3.46228433
REMARK minimizedRMSD -1
REMARK  0 active torsions:
REMARK  status: ('A' for Active; 'I' for Inactive)
ROOT
ATOM      1  N1  IND d   1       0.789  -0.495  -1.064  0.00  0.00    -0.196 N 
ATOM      2  C2  IND d   1      -0.370   0.223  -0.969  0.00  0.00     0.054 A 
ATOM      3  C3  IND d   1      -0.760   0.318   0.322  0.00  0.00    -0.031 A 
ATOM      4  C4  IND d   1       0.406  -0.542   2.450  0.00  0.00     0.051 A 
ATOM      5  C5  IND d   1       1.472  -1.287   2.867  0.00  0.00    -0.031 A 
ATOM      6  C6  IND d   1       2.386  -1.815   1.978  0.00  0.00     0.015 A 
ATOM      7  C7  IND d   1       2.272  -1.606   0.632  0.00  0.00    -0.016 A 
ATOM      8  C8  IND d   1       1.186  -0.856   0.204  0.00  0.00    -0.047 A 
ATOM      9  C9  IND d   1       0.233  -0.353   1.099  0.00  0.00    -0.096 A 
ATOM     10  HN1 IND d   1       1.201  -0.688  -1.794  0.00  0.00     0.298 HD
ENDROOT
TORSDOF 0
ENDMDL
