MODEL 1
REMARK minimizedAffinity -5.36238623
REMARK minimizedRMSD -1
REMARK  0 active torsions:
REMARK  status: ('A' for Active; 'I' for Inactive)
ROOT
ATOM      1  N1  IND d   1       0.809  -0.364  -0.988  0.00  0.00    -0.196 N 
ATOM      2  C2  IND d   1      -0.446   0.178  -1.013  0.00  0.00     0.054 A 
ATOM      3  C3  IND d   1      -0.972   0.205   0.232  0.00  0.00    -0.031 A 
ATOM      4  C4  IND d   1       0.090  -0.494   2.471  0.00  0.00     0.051 A 
ATOM      5  C5  IND d   1       1.207  -1.081   2.997  0.00  0.00    -0.031 A 
ATOM      6  C6  IND d   1       2.271  -1.464   2.206  0.00  0.00     0.015 A 
ATOM      7  C7  IND d   1       2.262  -1.263   0.854  0.00  0.00    -0.016 A 
ATOM      8  C8  IND d   1       1.126  -0.674   0.316  0.00  0.00    -0.047 A 
ATOM      9  C9  IND d   1       0.026  -0.322   1.108  0.00  0.00    -0.096 A 
ATOM     10  HN1 IND d   1       1.314  -0.490  -1.672  0.00  0.00     0.298 HD
ENDROOT
TORSDOF 0
ENDMDL
