MODEL 1
REMARK minimizedAffinity -5.54205322
REMARK minimizedRMSD -1
REMARK  0 active torsions:
REMARK  status: ('A' for Active; 'I' for Inactive)
ROOT
ATOM      1  N1  IND d   1       0.183  -0.067  -0.635  0.00  0.00    -0.196 N 
ATOM      2  C2  IND d   1      -0.912   0.561  -0.112  0.00  0.00     0.054 A 
ATOM      3  C3  IND d   1      -0.944   0.412   1.231  0.00  0.00    -0.031 A 
ATOM      4  C4  IND d   1       0.753  -0.737   2.789  0.00  0.00     0.051 A 
ATOM      5  C5  IND d   1       1.896  -1.486   2.772  0.00  0.00    -0.031 A 
ATOM      6  C6  IND d   1       2.541  -1.804   1.595  0.00  0.00     0.015 A 
ATOM      7  C7  IND d   1       2.071  -1.374   0.386  0.00  0.00    -0.016 A 
ATOM      8  C8  IND d   1       0.907  -0.620   0.399  0.00  0.00    -0.047 A 
ATOM      9  C9  IND d   1       0.224  -0.329   1.588  0.00  0.00    -0.096 A 
ATOM     10  HN1 IND d   1       0.386  -0.111  -1.469  0.00  0.00     0.298 HD
ENDROOT
TORSDOF 0
ENDMDL
