MODEL 1
REMARK minimizedAffinity -5.8687458
REMARK minimizedRMSD -1
REMARK  0 active torsions:
REMARK  status: ('A' for Active; 'I' for Inactive)
ROOT
ATOM      1  N1  IND d   1       0.757  -0.766  -1.147  0.00  0.00    -0.196 N 
ATOM      2  C2  IND d   1      -0.432  -0.094  -1.095  0.00  0.00     0.054 A 
ATOM      3  C3  IND d   1      -0.801   0.110   0.190  0.00  0.00    -0.031 A 
ATOM      4  C4  IND d   1       0.444  -0.487   2.363  0.00  0.00     0.051 A 
ATOM      5  C5  IND d   1       1.551  -1.141   2.826  0.00  0.00    -0.031 A 
ATOM      6  C6  IND d   1       2.470  -1.713   1.970  0.00  0.00     0.015 A 
ATOM      7  C7  IND d   1       2.322  -1.642   0.614  0.00  0.00    -0.016 A 
ATOM      8  C8  IND d   1       1.195  -0.984   0.141  0.00  0.00    -0.047 A 
ATOM      9  C9  IND d   1       0.237  -0.439   1.005  0.00  0.00    -0.096 A 
ATOM     10  HN1 IND d   1       1.164  -1.012  -1.864  0.00  0.00     0.298 HD
ENDROOT
TORSDOF 0
ENDMDL
