MODEL 1
REMARK minimizedAffinity -4.27240086
REMARK minimizedRMSD -1
REMARK  1 active torsions:
REMARK  status: ('A' for Active; 'I' for Inactive)
REMARK    1  A    between atoms: C3_4  and  O_7 
ROOT
ATOM      1  C   UNL d   1      -0.552   0.516   0.501  0.00  0.00    -0.033 A 
ATOM      2  C1  UNL d   1      -1.073  -0.271   1.530  0.00  0.00     0.039 A 
ATOM      3  C2  UNL d   1      -0.873  -1.653   1.524  0.00  0.00    -0.080 A 
ATOM      4  C3  UNL d   1      -0.151  -2.234   0.485  0.00  0.00     0.150 A 
ATOM      5  C4  UNL d   1       0.374  -1.456  -0.541  0.00  0.00    -0.007 A 
ATOM      6  C5  UNL d   1       0.173  -0.076  -0.533  0.00  0.00     0.039 A 
ENDROOT
BRANCH   4   7
ATOM      7  O   UNL d   1       0.066  -3.579   0.434  0.00  0.00    -0.526 OA
ATOM      8  H5  UNL d   1      -0.379  -3.992   1.192  0.00  0.00     0.418 HD
ENDBRANCH   4   7
TORSDOF 1
ENDMDL
