MODEL 1
REMARK minimizedAffinity -5.0438447
REMARK minimizedRMSD -1
REMARK  1 active torsions:
REMARK  status: ('A' for Active; 'I' for Inactive)
REMARK    1  A    between atoms: C3_4  and  O_7 
ROOT
ATOM      1  C   UNL d   1       0.435   0.570  -0.126  0.00  0.00    -0.033 A 
ATOM      2  C1  UNL d   1       0.903  -0.518  -0.865  0.00  0.00     0.039 A 
ATOM      3  C2  UNL d   1       0.618  -1.820  -0.448  0.00  0.00    -0.080 A 
ATOM      4  C3  UNL d   1      -0.134  -2.019   0.706  0.00  0.00     0.150 A 
ATOM      5  C4  UNL d   1      -0.607  -0.939   1.444  0.00  0.00    -0.007 A 
ATOM      6  C5  UNL d   1      -0.321   0.360   1.027  0.00  0.00     0.039 A 
ENDROOT
BRANCH   4   7
ATOM      7  O   UNL d   1      -0.434  -3.272   1.154  0.00  0.00    -0.526 OA
ATOM      8  H5  UNL d   1      -0.018  -3.919   0.561  0.00  0.00     0.418 HD
ENDBRANCH   4   7
TORSDOF 1
ENDMDL
