MODEL 1
REMARK minimizedAffinity -5.22633982
REMARK minimizedRMSD -1
REMARK  1 active torsions:
REMARK  status: ('A' for Active; 'I' for Inactive)
REMARK    1  A    between atoms: C3_4  and  O_7 
ROOT
ATOM      1  C   UNL d   1      -0.478   0.325   0.054  0.00  0.00    -0.033 A 
ATOM      2  C1  UNL d   1       0.436  -0.304  -0.793  0.00  0.00     0.039 A 
ATOM      3  C2  UNL d   1       0.732  -1.658  -0.622  0.00  0.00    -0.080 A 
ATOM      4  C3  UNL d   1       0.107  -2.370   0.399  0.00  0.00     0.150 A 
ATOM      5  C4  UNL d   1      -0.807  -1.750   1.244  0.00  0.00    -0.007 A 
ATOM      6  C5  UNL d   1      -1.101  -0.398   1.072  0.00  0.00     0.039 A 
ENDROOT
BRANCH   4   7
ATOM      7  O   UNL d   1       0.368  -3.691   0.608  0.00  0.00    -0.526 OA
ATOM      8  H5  UNL d   1       1.040  -3.978  -0.033  0.00  0.00     0.418 HD
ENDBRANCH   4   7
TORSDOF 1
ENDMDL
