MODEL 1
REMARK minimizedAffinity -4.27325821
REMARK minimizedRMSD -1
REMARK  1 active torsions:
REMARK  status: ('A' for Active; 'I' for Inactive)
REMARK    1  A    between atoms: C3_4  and  O_7 
ROOT
ATOM      1  C   UNL d   1      -0.115  -1.560   0.096  0.00  0.00    -0.033 A 
ATOM      2  C1  UNL d   1      -0.735  -0.798   1.088  0.00  0.00     0.039 A 
ATOM      3  C2  UNL d   1      -0.751   0.595   0.993  0.00  0.00    -0.080 A 
ATOM      4  C3  UNL d   1      -0.145   1.213  -0.097  0.00  0.00     0.150 A 
ATOM      5  C4  UNL d   1       0.472   0.460  -1.091  0.00  0.00    -0.007 A 
ATOM      6  C5  UNL d   1       0.488  -0.931  -0.994  0.00  0.00     0.039 A 
ENDROOT
BRANCH   4   7
ATOM      7  O   UNL d   1      -0.131   2.570  -0.230  0.00  0.00    -0.526 OA
ATOM      8  H5  UNL d   1      -0.569   2.959   0.545  0.00  0.00     0.418 HD
ENDBRANCH   4   7
TORSDOF 1
ENDMDL
