MODEL 1
REMARK minimizedAffinity -3.86897564
REMARK minimizedRMSD -1
REMARK  1 active torsions:
REMARK  status: ('A' for Active; 'I' for Inactive)
REMARK    1  A    between atoms: C3_4  and  O_7 
ROOT
ATOM      1  C   UNL d   1       0.323  -0.256  -1.347  0.00  0.00    -0.033 A 
ATOM      2  C1  UNL d   1      -0.140  -0.105  -0.038  0.00  0.00     0.039 A 
ATOM      3  C2  UNL d   1      -0.344  -1.228   0.766  0.00  0.00    -0.080 A 
ATOM      4  C3  UNL d   1      -0.080  -2.494   0.251  0.00  0.00     0.150 A 
ATOM      5  C4  UNL d   1       0.386  -2.652  -1.051  0.00  0.00    -0.007 A 
ATOM      6  C5  UNL d   1       0.587  -1.529  -1.852  0.00  0.00     0.039 A 
ENDROOT
BRANCH   4   7
ATOM      7  O   UNL d   1      -0.268  -3.620   0.996  0.00  0.00    -0.526 OA
ATOM      8  H5  UNL d   1      -0.619  -3.360   1.864  0.00  0.00     0.418 HD
ENDBRANCH   4   7
TORSDOF 1
ENDMDL
