MODEL 1
REMARK minimizedAffinity -5.20234013
REMARK minimizedRMSD -1
REMARK  1 active torsions:
REMARK  status: ('A' for Active; 'I' for Inactive)
REMARK    1  A    between atoms: C3_4  and  O_7 
ROOT
ATOM      1  C   UNL d   1      -0.621  -2.739   0.447  0.00  0.00    -0.033 A 
ATOM      2  C1  UNL d   1      -1.175  -1.753   1.266  0.00  0.00     0.039 A 
ATOM      3  C2  UNL d   1      -0.887  -0.406   1.033  0.00  0.00    -0.080 A 
ATOM      4  C3  UNL d   1      -0.046  -0.060  -0.021  0.00  0.00     0.150 A 
ATOM      5  C4  UNL d   1       0.506  -1.038  -0.843  0.00  0.00    -0.007 A 
ATOM      6  C5  UNL d   1       0.218  -2.381  -0.608  0.00  0.00     0.039 A 
ENDROOT
BRANCH   4   7
ATOM      7  O   UNL d   1       0.268   1.240  -0.285  0.00  0.00    -0.526 OA
ATOM      8  H5  UNL d   1      -0.162   1.801   0.381  0.00  0.00     0.418 HD
ENDBRANCH   4   7
TORSDOF 1
ENDMDL
