MODEL 1
REMARK minimizedAffinity -4.67498112
REMARK minimizedRMSD -1
REMARK  1 active torsions:
REMARK  status: ('A' for Active; 'I' for Inactive)
REMARK    1  A    between atoms: C3_4  and  O_7 
ROOT
ATOM      1  C   UNL d   1      -0.151  -3.395  -0.405  0.00  0.00    -0.033 A 
ATOM      2  C1  UNL d   1      -0.574  -2.609   0.669  0.00  0.00     0.039 A 
ATOM      3  C2  UNL d   1      -0.454  -1.219   0.608  0.00  0.00    -0.080 A 
ATOM      4  C3  UNL d   1       0.088  -0.629  -0.531  0.00  0.00     0.150 A 
ATOM      5  C4  UNL d   1       0.507  -1.406  -1.606  0.00  0.00    -0.007 A 
ATOM      6  C5  UNL d   1       0.388  -2.794  -1.543  0.00  0.00     0.039 A 
ENDROOT
BRANCH   4   7
ATOM      7  O   UNL d   1       0.229   0.723  -0.634  0.00  0.00    -0.526 OA
ATOM      8  H5  UNL d   1      -0.076   1.128   0.194  0.00  0.00     0.418 HD
ENDBRANCH   4   7
TORSDOF 1
ENDMDL
