MODEL 1
REMARK minimizedAffinity -4.86149406
REMARK minimizedRMSD -1
REMARK  1 active torsions:
REMARK  status: ('A' for Active; 'I' for Inactive)
REMARK    1  A    between atoms: C3_4  and  O_7 
ROOT
ATOM      1  C   UNL d   1       0.281  -0.732  -1.721  0.00  0.00    -0.033 A 
ATOM      2  C1  UNL d   1       0.062  -0.667  -0.344  0.00  0.00     0.039 A 
ATOM      3  C2  UNL d   1       0.029  -1.839   0.415  0.00  0.00    -0.080 A 
ATOM      4  C3  UNL d   1       0.216  -3.066  -0.214  0.00  0.00     0.150 A 
ATOM      5  C4  UNL d   1       0.438  -3.138  -1.586  0.00  0.00    -0.007 A 
ATOM      6  C5  UNL d   1       0.470  -1.967  -2.342  0.00  0.00     0.039 A 
ENDROOT
BRANCH   4   7
ATOM      7  O   UNL d   1       0.187  -4.237   0.484  0.00  0.00    -0.526 OA
ATOM      8  H5  UNL d   1      -0.004  -4.035   1.415  0.00  0.00     0.418 HD
ENDBRANCH   4   7
TORSDOF 1
ENDMDL
