MODEL 1
REMARK minimizedAffinity -4.47027302
REMARK minimizedRMSD -1
REMARK  1 active torsions:
REMARK  status: ('A' for Active; 'I' for Inactive)
REMARK    1  A    between atoms: C3_4  and  O_7 
ROOT
ATOM      1  C   UNL d   1      -0.488   0.235   0.268  0.00  0.00    -0.033 A 
ATOM      2  C1  UNL d   1      -1.229  -0.547   1.156  0.00  0.00     0.039 A 
ATOM      3  C2  UNL d   1      -1.053  -1.932   1.183  0.00  0.00    -0.080 A 
ATOM      4  C3  UNL d   1      -0.133  -2.521   0.320  0.00  0.00     0.150 A 
ATOM      5  C4  UNL d   1       0.612  -1.747  -0.564  0.00  0.00    -0.007 A 
ATOM      6  C5  UNL d   1       0.434  -0.365  -0.591  0.00  0.00     0.039 A 
ENDROOT
BRANCH   4   7
ATOM      7  O   UNL d   1       0.070  -3.869   0.307  0.00  0.00    -0.526 OA
ATOM      8  H5  UNL d   1      -0.534  -4.277   0.950  0.00  0.00     0.418 HD
ENDBRANCH   4   7
TORSDOF 1
ENDMDL
