MODEL 1
REMARK minimizedAffinity -3.18245244
REMARK minimizedRMSD -1
REMARK  1 active torsions:
REMARK  status: ('A' for Active; 'I' for Inactive)
REMARK    1  A    between atoms: C3_4  and  O_7 
ROOT
ATOM      1  C   UNL d   1      -0.358   0.313   0.495  0.00  0.00    -0.033 A 
ATOM      2  C1  UNL d   1      -1.281  -0.462   1.200  0.00  0.00     0.039 A 
ATOM      3  C2  UNL d   1      -1.081  -1.837   1.338  0.00  0.00    -0.080 A 
ATOM      4  C3  UNL d   1       0.045  -2.424   0.767  0.00  0.00     0.150 A 
ATOM      5  C4  UNL d   1       0.971  -1.658   0.067  0.00  0.00    -0.007 A 
ATOM      6  C5  UNL d   1       0.769  -0.285  -0.070  0.00  0.00     0.039 A 
ENDROOT
BRANCH   4   7
ATOM      7  O   UNL d   1       0.280  -3.763   0.871  0.00  0.00    -0.526 OA
ATOM      8  H5  UNL d   1      -0.458  -4.168   1.356  0.00  0.00     0.418 HD
ENDBRANCH   4   7
TORSDOF 1
ENDMDL
