MODEL 1
REMARK minimizedAffinity -5.15471315
REMARK minimizedRMSD -1
REMARK  1 active torsions:
REMARK  status: ('A' for Active; 'I' for Inactive)
REMARK    1  A    between atoms: C3_4  and  O_7 
ROOT
ATOM      1  C   UNL d   1       0.194  -2.951  -0.083  0.00  0.00    -0.033 A 
ATOM      2  C1  UNL d   1      -0.362  -2.269   1.001  0.00  0.00     0.039 A 
ATOM      3  C2  UNL d   1      -0.384  -0.873   1.012  0.00  0.00    -0.080 A 
ATOM      4  C3  UNL d   1       0.151  -0.172  -0.065  0.00  0.00     0.150 A 
ATOM      5  C4  UNL d   1       0.703  -0.846  -1.150  0.00  0.00    -0.007 A 
ATOM      6  C5  UNL d   1       0.725  -2.240  -1.159  0.00  0.00     0.039 A 
ENDROOT
BRANCH   4   7
ATOM      7  O   UNL d   1       0.156   1.191  -0.097  0.00  0.00    -0.526 OA
ATOM      8  H5  UNL d   1      -0.231   1.519   0.731  0.00  0.00     0.418 HD
ENDBRANCH   4   7
TORSDOF 1
ENDMDL
