MODEL 1
REMARK minimizedAffinity -2.65591526
REMARK minimizedRMSD -1
REMARK  1 active torsions:
REMARK  status: ('A' for Active; 'I' for Inactive)
REMARK    1  A    between atoms: C3_4  and  O_7 
ROOT
ATOM      1  C   UNL d   1       0.628  -1.879  -0.387  0.00  0.00    -0.033 A 
ATOM      2  C1  UNL d   1       0.334  -3.243  -0.430  0.00  0.00     0.039 A 
ATOM      3  C2  UNL d   1      -0.896  -3.709   0.037  0.00  0.00    -0.080 A 
ATOM      4  C3  UNL d   1      -1.823  -2.802   0.542  0.00  0.00     0.150 A 
ATOM      5  C4  UNL d   1      -1.539  -1.441   0.585  0.00  0.00    -0.007 A 
ATOM      6  C5  UNL d   1      -0.309  -0.978   0.119  0.00  0.00     0.039 A 
ENDROOT
BRANCH   4   7
ATOM      7  O   UNL d   1      -3.036  -3.210   1.014  0.00  0.00    -0.526 OA
ATOM      8  H5  UNL d   1      -3.081  -4.178   0.948  0.00  0.00     0.418 HD
ENDBRANCH   4   7
TORSDOF 1
ENDMDL
