MODEL 1
REMARK minimizedAffinity 33.8209915
REMARK minimizedRMSD -1
REMARK  0 active torsions:
REMARK  status: ('A' for Active; 'I' for Inactive)
ROOT
ATOM      1  C   UNL d   1       1.964   1.883   3.670  0.00  0.00     0.124 A 
ATOM      2  C1  UNL d   1       1.263   2.091   4.850  0.00  0.00     0.062 A 
ATOM      3  C2  UNL d   1      -0.128   2.112   4.844  0.00  0.00     0.162 A 
ATOM      4  C3  UNL d   1      -0.830   1.921   3.653  0.00  0.00    -0.034 A 
ATOM      5  C4  UNL d   1      -0.118   1.713   2.470  0.00  0.00     0.162 A 
ATOM      6  C5  UNL d   1       1.273   1.694   2.482  0.00  0.00     0.062 A 
ATOM      7  F   UNL d   1       1.948   1.492   1.341  0.00  0.00    -0.097 F 
ATOM      8  F1  UNL d   1      -0.761   1.527   1.308  0.00  0.00    -0.096 F 
ATOM      9  I   UNL d   1      -2.911   1.951   3.640  0.00  0.00    -0.060 I 
ATOM     10  F2  UNL d   1      -0.779   2.315   5.999  0.00  0.00    -0.096 F 
ATOM     11  F3  UNL d   1       1.929   2.275   6.000  0.00  0.00    -0.097 F 
ATOM     12  F4  UNL d   1       3.303   1.865   3.679  0.00  0.00    -0.092 F 
ENDROOT
TORSDOF 0
ENDMDL
