MODEL 1
REMARK minimizedAffinity 30.6345692
REMARK minimizedRMSD -1
REMARK  0 active torsions:
REMARK  status: ('A' for Active; 'I' for Inactive)
ROOT
ATOM      1  C   UNL d   1       0.720   1.842   3.709  0.00  0.00     0.124 A 
ATOM      2  C1  UNL d   1       0.023   1.560   2.542  0.00  0.00     0.062 A 
ATOM      3  C2  UNL d   1      -1.368   1.594   2.533  0.00  0.00     0.162 A 
ATOM      4  C3  UNL d   1      -2.072   1.913   3.694  0.00  0.00    -0.034 A 
ATOM      5  C4  UNL d   1      -1.364   2.195   4.863  0.00  0.00     0.162 A 
ATOM      6  C5  UNL d   1       0.026   2.159   4.868  0.00  0.00     0.062 A 
ATOM      7  F   UNL d   1       0.698   2.432   5.996  0.00  0.00    -0.097 F 
ATOM      8  F1  UNL d   1      -2.009   2.505   5.997  0.00  0.00    -0.096 F 
ATOM      9  I   UNL d   1      -4.153   1.966   3.684  0.00  0.00    -0.060 I 
ATOM     10  F2  UNL d   1      -2.016   1.317   1.391  0.00  0.00    -0.096 F 
ATOM     11  F3  UNL d   1       0.691   1.252   1.421  0.00  0.00    -0.097 F 
ATOM     12  F4  UNL d   1       2.059   1.807   3.715  0.00  0.00    -0.092 F 
ENDROOT
TORSDOF 0
ENDMDL
