MODEL 1
REMARK minimizedAffinity 27.1177864
REMARK minimizedRMSD -1
REMARK  0 active torsions:
REMARK  status: ('A' for Active; 'I' for Inactive)
ROOT
ATOM      1  C   UNL d   1       3.275  -2.764  -0.841  0.00  0.00     0.124 A 
ATOM      2  C1  UNL d   1       2.135  -2.339  -1.509  0.00  0.00     0.062 A 
ATOM      3  C2  UNL d   1       1.853  -0.980  -1.618  0.00  0.00     0.162 A 
ATOM      4  C3  UNL d   1       2.714  -0.036  -1.058  0.00  0.00    -0.034 A 
ATOM      5  C4  UNL d   1       3.858  -0.471  -0.386  0.00  0.00     0.162 A 
ATOM      6  C5  UNL d   1       4.135  -1.830  -0.280  0.00  0.00     0.062 A 
ATOM      7  F   UNL d   1       5.237  -2.238   0.366  0.00  0.00    -0.097 F 
ATOM      8  F1  UNL d   1       4.706   0.410   0.164  0.00  0.00    -0.096 F 
ATOM      9  I   UNL d   1       2.295   1.996  -1.218  0.00  0.00    -0.060 I 
ATOM     10  F2  UNL d   1       0.745  -0.599  -2.269  0.00  0.00    -0.096 F 
ATOM     11  F3  UNL d   1       1.303  -3.240  -2.050  0.00  0.00    -0.097 F 
ATOM     12  F4  UNL d   1       3.544  -4.072  -0.736  0.00  0.00    -0.092 F 
ENDROOT
TORSDOF 0
ENDMDL
