MODEL 1
REMARK minimizedAffinity 21.8466167
REMARK minimizedRMSD -1
REMARK  0 active torsions:
REMARK  status: ('A' for Active; 'I' for Inactive)
ROOT
ATOM      1  C   UNL d   1      -3.716  -3.793  -5.258  0.00  0.00     0.124 A 
ATOM      2  C1  UNL d   1      -2.885  -4.905  -5.258  0.00  0.00     0.062 A 
ATOM      3  C2  UNL d   1      -1.723  -4.911  -4.491  0.00  0.00     0.162 A 
ATOM      4  C3  UNL d   1      -1.386  -3.801  -3.717  0.00  0.00    -0.034 A 
ATOM      5  C4  UNL d   1      -2.226  -2.686  -3.723  0.00  0.00     0.162 A 
ATOM      6  C5  UNL d   1      -3.386  -2.685  -4.491  0.00  0.00     0.062 A 
ATOM      7  F   UNL d   1      -4.187  -1.610  -4.490  0.00  0.00    -0.097 F 
ATOM      8  F1  UNL d   1      -1.931  -1.602  -2.990  0.00  0.00    -0.096 F 
ATOM      9  I   UNL d   1       0.350  -3.806  -2.569  0.00  0.00    -0.060 I 
ATOM     10  F2  UNL d   1      -0.939  -5.999  -4.510  0.00  0.00    -0.096 F 
ATOM     11  F3  UNL d   1      -3.201  -5.977  -5.999  0.00  0.00    -0.097 F 
ATOM     12  F4  UNL d   1      -4.832  -3.790  -5.997  0.00  0.00    -0.092 F 
ENDROOT
TORSDOF 0
ENDMDL
