MODEL 1
REMARK minimizedAffinity 21.0159302
REMARK minimizedRMSD -1
REMARK  0 active torsions:
REMARK  status: ('A' for Active; 'I' for Inactive)
ROOT
ATOM      1  C   UNL d   1      -3.431  -3.724  -5.165  0.00  0.00     0.124 A 
ATOM      2  C1  UNL d   1      -2.666  -4.871  -5.013  0.00  0.00     0.062 A 
ATOM      3  C2  UNL d   1      -1.568  -4.873  -4.158  0.00  0.00     0.162 A 
ATOM      4  C3  UNL d   1      -1.229  -3.723  -3.446  0.00  0.00    -0.034 A 
ATOM      5  C4  UNL d   1      -2.003  -2.572  -3.604  0.00  0.00     0.162 A 
ATOM      6  C5  UNL d   1      -3.099  -2.575  -4.460  0.00  0.00     0.062 A 
ATOM      7  F   UNL d   1      -3.837  -1.465  -4.605  0.00  0.00    -0.097 F 
ATOM      8  F1  UNL d   1      -1.705  -1.448  -2.934  0.00  0.00    -0.096 F 
ATOM      9  I   UNL d   1       0.412  -3.721  -2.166  0.00  0.00    -0.060 I 
ATOM     10  F2  UNL d   1      -0.846  -5.997  -4.031  0.00  0.00    -0.096 F 
ATOM     11  F3  UNL d   1      -2.984  -5.982  -5.694  0.00  0.00    -0.097 F 
ATOM     12  F4  UNL d   1      -4.486  -3.724  -5.989  0.00  0.00    -0.092 F 
ENDROOT
TORSDOF 0
ENDMDL
