MODEL 1
REMARK minimizedAffinity 16.111599
REMARK minimizedRMSD -1
REMARK  0 active torsions:
REMARK  status: ('A' for Active; 'I' for Inactive)
ROOT
ATOM      1  C   UNL d   1      -1.278  -3.379  -3.468  0.00  0.00     0.124 A 
ATOM      2  C1  UNL d   1      -2.625  -3.099  -3.286  0.00  0.00     0.062 A 
ATOM      3  C2  UNL d   1      -3.589  -3.796  -4.008  0.00  0.00     0.162 A 
ATOM      4  C3  UNL d   1      -3.210  -4.782  -4.919  0.00  0.00    -0.034 A 
ATOM      5  C4  UNL d   1      -1.853  -5.058  -5.098  0.00  0.00     0.162 A 
ATOM      6  C5  UNL d   1      -0.893  -4.358  -4.374  0.00  0.00     0.062 A 
ATOM      7  F   UNL d   1       0.408  -4.630  -4.552  0.00  0.00    -0.097 F 
ATOM      8  F1  UNL d   1      -1.454  -6.000  -5.965  0.00  0.00    -0.096 F 
ATOM      9  I   UNL d   1      -4.649  -5.828  -6.000  0.00  0.00    -0.060 I 
ATOM     10  F2  UNL d   1      -4.884  -3.505  -3.811  0.00  0.00    -0.096 F 
ATOM     11  F3  UNL d   1      -2.999  -2.153  -2.412  0.00  0.00    -0.097 F 
ATOM     12  F4  UNL d   1      -0.352  -2.706  -2.773  0.00  0.00    -0.092 F 
ENDROOT
TORSDOF 0
ENDMDL
