MODEL 1
REMARK minimizedAffinity 19.7285538
REMARK minimizedRMSD -1
REMARK  0 active torsions:
REMARK  status: ('A' for Active; 'I' for Inactive)
ROOT
ATOM      1  C   UNL d   1      -1.555  -2.499  -3.087  0.00  0.00     0.124 A 
ATOM      2  C1  UNL d   1      -2.596  -2.222  -3.962  0.00  0.00     0.062 A 
ATOM      3  C2  UNL d   1      -3.095  -3.220  -4.795  0.00  0.00     0.162 A 
ATOM      4  C3  UNL d   1      -2.553  -4.505  -4.756  0.00  0.00    -0.034 A 
ATOM      5  C4  UNL d   1      -1.505  -4.775  -3.874  0.00  0.00     0.162 A 
ATOM      6  C5  UNL d   1      -1.011  -3.775  -3.044  0.00  0.00     0.062 A 
ATOM      7  F   UNL d   1      -0.005  -4.044  -2.199  0.00  0.00    -0.097 F 
ATOM      8  F1  UNL d   1      -0.961  -6.000  -3.811  0.00  0.00    -0.096 F 
ATOM      9  I   UNL d   1      -3.296  -5.999  -6.000  0.00  0.00    -0.060 I 
ATOM     10  F2  UNL d   1      -4.101  -2.924  -5.631  0.00  0.00    -0.096 F 
ATOM     11  F3  UNL d   1      -3.123  -0.990  -4.006  0.00  0.00    -0.097 F 
ATOM     12  F4  UNL d   1      -1.077  -1.537  -2.287  0.00  0.00    -0.092 F 
ENDROOT
TORSDOF 0
ENDMDL
