MODEL 1
REMARK minimizedAffinity 21.4777756
REMARK minimizedRMSD -1
REMARK  0 active torsions:
REMARK  status: ('A' for Active; 'I' for Inactive)
ROOT
ATOM      1  C   UNL d   1       4.149   1.100  -1.167  0.00  0.00     0.124 A 
ATOM      2  C1  UNL d   1       2.850   1.025  -1.650  0.00  0.00     0.062 A 
ATOM      3  C2  UNL d   1       2.078  -0.109  -1.411  0.00  0.00     0.162 A 
ATOM      4  C3  UNL d   1       2.604  -1.177  -0.683  0.00  0.00    -0.034 A 
ATOM      5  C4  UNL d   1       3.911  -1.094  -0.201  0.00  0.00     0.162 A 
ATOM      6  C5  UNL d   1       4.678   0.041  -0.443  0.00  0.00     0.062 A 
ATOM      7  F   UNL d   1       5.933   0.113   0.026  0.00  0.00    -0.097 F 
ATOM      8  F1  UNL d   1       4.447  -2.102   0.503  0.00  0.00    -0.096 F 
ATOM      9  I   UNL d   1       1.454  -2.873  -0.323  0.00  0.00    -0.060 I 
ATOM     10  F2  UNL d   1       0.827  -0.155  -1.890  0.00  0.00    -0.096 F 
ATOM     11  F3  UNL d   1       2.336   2.046  -2.351  0.00  0.00    -0.097 F 
ATOM     12  F4  UNL d   1       4.889   2.192  -1.399  0.00  0.00    -0.092 F 
ENDROOT
TORSDOF 0
ENDMDL
