MODEL 1
REMARK minimizedAffinity 18.883976
REMARK minimizedRMSD -1
REMARK  0 active torsions:
REMARK  status: ('A' for Active; 'I' for Inactive)
ROOT
ATOM      1  C   UNL d   1       1.469  -2.136  -2.252  0.00  0.00     0.124 A 
ATOM      2  C1  UNL d   1       2.646  -1.957  -1.538  0.00  0.00     0.062 A 
ATOM      3  C2  UNL d   1       3.396  -3.058  -1.138  0.00  0.00     0.162 A 
ATOM      4  C3  UNL d   1       2.973  -4.350  -1.451  0.00  0.00    -0.034 A 
ATOM      5  C4  UNL d   1       1.788  -4.522  -2.169  0.00  0.00     0.162 A 
ATOM      6  C5  UNL d   1       1.041  -3.418  -2.567  0.00  0.00     0.062 A 
ATOM      7  F   UNL d   1      -0.096  -3.593  -3.256  0.00  0.00    -0.097 F 
ATOM      8  F1  UNL d   1       1.351  -5.750  -2.487  0.00  0.00    -0.096 F 
ATOM      9  I   UNL d   1       4.092  -6.000  -0.855  0.00  0.00    -0.060 I 
ATOM     10  F2  UNL d   1       4.529  -2.855  -0.449  0.00  0.00    -0.096 F 
ATOM     11  F3  UNL d   1       3.061  -0.719  -1.232  0.00  0.00    -0.097 F 
ATOM     12  F4  UNL d   1       0.748  -1.074  -2.635  0.00  0.00    -0.092 F 
ENDROOT
TORSDOF 0
ENDMDL
