MODEL 1
REMARK minimizedAffinity 19.9707317
REMARK minimizedRMSD -1
REMARK  0 active torsions:
REMARK  status: ('A' for Active; 'I' for Inactive)
ROOT
ATOM      1  C   UNL d   1      -1.173  -3.339  -3.192  0.00  0.00     0.124 A 
ATOM      2  C1  UNL d   1      -1.114  -4.500  -3.951  0.00  0.00     0.062 A 
ATOM      3  C2  UNL d   1      -2.193  -4.871  -4.747  0.00  0.00     0.162 A 
ATOM      4  C3  UNL d   1      -3.341  -4.080  -4.790  0.00  0.00    -0.034 A 
ATOM      5  C4  UNL d   1      -3.393  -2.914  -4.023  0.00  0.00     0.162 A 
ATOM      6  C5  UNL d   1      -2.312  -2.548  -3.229  0.00  0.00     0.062 A 
ATOM      7  F   UNL d   1      -2.370  -1.426  -2.497  0.00  0.00    -0.097 F 
ATOM      8  F1  UNL d   1      -4.482  -2.130  -4.041  0.00  0.00    -0.096 F 
ATOM      9  I   UNL d   1      -4.958  -4.631  -5.980  0.00  0.00    -0.060 I 
ATOM     10  F2  UNL d   1      -2.109  -5.998  -5.470  0.00  0.00    -0.096 F 
ATOM     11  F3  UNL d   1      -0.015  -5.267  -3.916  0.00  0.00    -0.097 F 
ATOM     12  F4  UNL d   1      -0.133  -2.985  -2.426  0.00  0.00    -0.092 F 
ENDROOT
TORSDOF 0
ENDMDL
