MODEL 1
REMARK minimizedAffinity 8.32993984
REMARK minimizedRMSD -1
REMARK  0 active torsions:
REMARK  status: ('A' for Active; 'I' for Inactive)
ROOT
ATOM      1  C   UNL d   1      -3.383  -3.824  -5.223  0.00  0.00     0.124 A 
ATOM      2  C1  UNL d   1      -2.535  -4.923  -5.195  0.00  0.00     0.062 A 
ATOM      3  C2  UNL d   1      -1.400  -4.910  -4.389  0.00  0.00     0.162 A 
ATOM      4  C3  UNL d   1      -1.106  -3.795  -3.604  0.00  0.00    -0.034 A 
ATOM      5  C4  UNL d   1      -1.963  -2.693  -3.639  0.00  0.00     0.162 A 
ATOM      6  C5  UNL d   1      -3.096  -2.711  -4.446  0.00  0.00     0.062 A 
ATOM      7  F   UNL d   1      -3.914  -1.648  -4.472  0.00  0.00    -0.097 F 
ATOM      8  F1  UNL d   1      -1.710  -1.605  -2.897  0.00  0.00    -0.096 F 
ATOM      9  I   UNL d   1       0.590  -3.772  -2.399  0.00  0.00    -0.060 I 
ATOM     10  F2  UNL d   1      -0.599  -5.986  -4.381  0.00  0.00    -0.096 F 
ATOM     11  F3  UNL d   1      -2.809  -5.999  -5.945  0.00  0.00    -0.097 F 
ATOM     12  F4  UNL d   1      -4.474  -3.838  -6.000  0.00  0.00    -0.092 F 
ENDROOT
TORSDOF 0
ENDMDL
