MODEL 1
REMARK minimizedAffinity 20.8952103
REMARK minimizedRMSD -1
REMARK  0 active torsions:
REMARK  status: ('A' for Active; 'I' for Inactive)
ROOT
ATOM      1  C   UNL d   1      -1.248  -3.837  -3.847  0.00  0.00     0.124 A 
ATOM      2  C1  UNL d   1      -1.751  -2.554  -3.688  0.00  0.00     0.062 A 
ATOM      3  C2  UNL d   1      -2.947  -2.189  -4.300  0.00  0.00     0.162 A 
ATOM      4  C3  UNL d   1      -3.650  -3.111  -5.077  0.00  0.00    -0.034 A 
ATOM      5  C4  UNL d   1      -3.137  -4.400  -5.233  0.00  0.00     0.162 A 
ATOM      6  C5  UNL d   1      -1.941  -4.759  -4.619  0.00  0.00     0.062 A 
ATOM      7  F   UNL d   1      -1.457  -6.000  -4.774  0.00  0.00    -0.097 F 
ATOM      8  F1  UNL d   1      -3.787  -5.311  -5.973  0.00  0.00    -0.096 F 
ATOM      9  I   UNL d   1      -5.438  -2.570  -5.993  0.00  0.00    -0.060 I 
ATOM     10  F2  UNL d   1      -3.410  -0.942  -4.129  0.00  0.00    -0.096 F 
ATOM     11  F3  UNL d   1      -1.083  -1.661  -2.944  0.00  0.00    -0.097 F 
ATOM     12  F4  UNL d   1      -0.097  -4.185  -3.258  0.00  0.00    -0.092 F 
ENDROOT
TORSDOF 0
ENDMDL
