MODEL 1
REMARK minimizedAffinity 24.5958939
REMARK minimizedRMSD -1
REMARK  0 active torsions:
REMARK  status: ('A' for Active; 'I' for Inactive)
ROOT
ATOM      1  C   UNL d   1      -1.931   2.564  -4.460  0.00  0.00     0.124 A 
ATOM      2  C1  UNL d   1      -0.686   2.238  -4.980  0.00  0.00     0.062 A 
ATOM      3  C2  UNL d   1       0.040   1.178  -4.446  0.00  0.00     0.162 A 
ATOM      4  C3  UNL d   1      -0.478   0.434  -3.385  0.00  0.00    -0.034 A 
ATOM      5  C4  UNL d   1      -1.730   0.769  -2.866  0.00  0.00     0.162 A 
ATOM      6  C5  UNL d   1      -2.452   1.830  -3.404  0.00  0.00     0.062 A 
ATOM      7  F   UNL d   1      -3.654   2.143  -2.900  0.00  0.00    -0.097 F 
ATOM      8  F1  UNL d   1      -2.257   0.075  -1.846  0.00  0.00    -0.096 F 
ATOM      9  I   UNL d   1       0.605  -1.152  -2.582  0.00  0.00    -0.060 I 
ATOM     10  F2  UNL d   1       1.240   0.885  -4.968  0.00  0.00    -0.096 F 
ATOM     11  F3  UNL d   1      -0.181   2.947  -6.000  0.00  0.00    -0.097 F 
ATOM     12  F4  UNL d   1      -2.627   3.585  -4.976  0.00  0.00    -0.092 F 
ENDROOT
TORSDOF 0
ENDMDL
