MODEL 1
REMARK minimizedAffinity 9.59200668
REMARK minimizedRMSD -1
REMARK  0 active torsions:
REMARK  status: ('A' for Active; 'I' for Inactive)
ROOT
ATOM      1  C   UNL d   1       2.934  -3.029  -1.098  0.00  0.00     0.124 A 
ATOM      2  C1  UNL d   1       2.796  -4.331  -1.557  0.00  0.00     0.062 A 
ATOM      3  C2  UNL d   1       1.613  -4.735  -2.171  0.00  0.00     0.162 A 
ATOM      4  C3  UNL d   1       0.560  -3.835  -2.330  0.00  0.00    -0.034 A 
ATOM      5  C4  UNL d   1       0.706  -2.527  -1.864  0.00  0.00     0.162 A 
ATOM      6  C5  UNL d   1       1.890  -2.128  -1.251  0.00  0.00     0.062 A 
ATOM      7  F   UNL d   1       2.022  -0.870  -0.808  0.00  0.00    -0.097 F 
ATOM      8  F1  UNL d   1      -0.287  -1.635  -2.000  0.00  0.00    -0.096 F 
ATOM      9  I   UNL d   1      -1.210  -4.434  -3.247  0.00  0.00    -0.060 I 
ATOM     10  F2  UNL d   1       1.507  -6.000  -2.606  0.00  0.00    -0.096 F 
ATOM     11  F3  UNL d   1       3.803  -5.204  -1.409  0.00  0.00    -0.097 F 
ATOM     12  F4  UNL d   1       4.073  -2.644  -0.507  0.00  0.00    -0.092 F 
ENDROOT
TORSDOF 0
ENDMDL
