MODEL 1
REMARK minimizedAffinity 18.6646996
REMARK minimizedRMSD -1
REMARK  0 active torsions:
REMARK  status: ('A' for Active; 'I' for Inactive)
ROOT
ATOM      1  C   UNL d   1      -1.084   1.467   3.372  0.00  0.00     0.124 A 
ATOM      2  C1  UNL d   1       0.292   1.455   3.558  0.00  0.00     0.062 A 
ATOM      3  C2  UNL d   1       1.141   1.202   2.485  0.00  0.00     0.162 A 
ATOM      4  C3  UNL d   1       0.618   0.959   1.215  0.00  0.00    -0.034 A 
ATOM      5  C4  UNL d   1      -0.767   0.971   1.036  0.00  0.00     0.162 A 
ATOM      6  C5  UNL d   1      -1.612   1.225   2.112  0.00  0.00     0.062 A 
ATOM      7  F   UNL d   1      -2.940   1.235   1.930  0.00  0.00    -0.097 F 
ATOM      8  F1  UNL d   1      -1.304   0.741  -0.172  0.00  0.00    -0.096 F 
ATOM      9  I   UNL d   1       1.884   0.580  -0.392  0.00  0.00    -0.060 I 
ATOM     10  F2  UNL d   1       2.466   1.198   2.694  0.00  0.00    -0.096 F 
ATOM     11  F3  UNL d   1       0.804   1.688   4.775  0.00  0.00    -0.097 F 
ATOM     12  F4  UNL d   1      -1.899   1.709   4.407  0.00  0.00    -0.092 F 
ENDROOT
TORSDOF 0
ENDMDL
