MODEL 1
REMARK minimizedAffinity 4.9996891
REMARK minimizedRMSD -1
REMARK  0 active torsions:
REMARK  status: ('A' for Active; 'I' for Inactive)
ROOT
ATOM      1  C   UNL d   1      -0.509  -3.646  -2.941  0.00  0.00     0.124 A 
ATOM      2  C1  UNL d   1      -0.938  -4.833  -3.518  0.00  0.00     0.062 A 
ATOM      3  C2  UNL d   1      -2.022  -4.836  -4.390  0.00  0.00     0.162 A 
ATOM      4  C3  UNL d   1      -2.686  -3.647  -4.693  0.00  0.00    -0.034 A 
ATOM      5  C4  UNL d   1      -2.249  -2.457  -4.108  0.00  0.00     0.162 A 
ATOM      6  C5  UNL d   1      -1.164  -2.459  -3.237  0.00  0.00     0.062 A 
ATOM      7  F   UNL d   1      -0.751  -1.311  -2.681  0.00  0.00    -0.097 F 
ATOM      8  F1  UNL d   1      -2.863  -1.295  -4.377  0.00  0.00    -0.096 F 
ATOM      9  I   UNL d   1      -4.308  -3.647  -5.996  0.00  0.00    -0.060 I 
ATOM     10  F2  UNL d   1      -2.415  -5.998  -4.933  0.00  0.00    -0.096 F 
ATOM     11  F3  UNL d   1      -0.307  -5.982  -3.233  0.00  0.00    -0.097 F 
ATOM     12  F4  UNL d   1       0.535  -3.646  -2.102  0.00  0.00    -0.092 F 
ENDROOT
TORSDOF 0
ENDMDL
