MODEL 1
REMARK minimizedAffinity 7.80096436
REMARK minimizedRMSD -1
REMARK  0 active torsions:
REMARK  status: ('A' for Active; 'I' for Inactive)
ROOT
ATOM      1  C1  DEN d   1       2.238   4.730  -0.520  0.00  0.00     0.130 A 
ATOM      2  C2  DEN d   1       1.307   5.697  -1.095  0.00  0.00    -0.031 A 
ATOM      3  C3  DEN d   1      -0.055   5.136  -0.992  0.00  0.00     0.027 A 
ATOM      4  C4  DEN d   1      -0.810   2.879   0.001  0.00  0.00     0.027 A 
ATOM      5  C5  DEN d   1      -0.379   1.715   0.597  0.00  0.00    -0.003 A 
ATOM      6  C6  DEN d   1       0.947   1.461   0.830  0.00  0.00     0.001 A 
ATOM      7  C7  DEN d   1       1.885   2.404   0.506  0.00  0.00     0.017 A 
ATOM      8  C8  DEN d   1       1.459   3.578  -0.103  0.00  0.00    -0.094 A 
ATOM      9  C9  DEN d   1       0.113   3.820  -0.319  0.00  0.00    -0.072 A 
ENDROOT
TORSDOF 0
ENDMDL
