MODEL 1
REMARK minimizedAffinity 0.544610679
REMARK minimizedRMSD -1
REMARK  0 active torsions:
REMARK  status: ('A' for Active; 'I' for Inactive)
ROOT
ATOM      1  C1  DEN d   1      -5.998   2.779  -4.889  0.00  0.00     0.130 A 
ATOM      2  C2  DEN d   1      -6.000   3.727  -5.999  0.00  0.00    -0.031 A 
ATOM      3  C3  DEN d   1      -4.705   4.436  -5.996  0.00  0.00     0.027 A 
ATOM      4  C4  DEN d   1      -2.706   4.156  -4.390  0.00  0.00     0.027 A 
ATOM      5  C5  DEN d   1      -2.241   3.481  -3.283  0.00  0.00    -0.003 A 
ATOM      6  C6  DEN d   1      -3.003   2.557  -2.619  0.00  0.00     0.001 A 
ATOM      7  C7  DEN d   1      -4.254   2.249  -3.083  0.00  0.00     0.017 A 
ATOM      8  C8  DEN d   1      -4.732   2.931  -4.194  0.00  0.00    -0.094 A 
ATOM      9  C9  DEN d   1      -3.942   3.853  -4.859  0.00  0.00    -0.072 A 
ENDROOT
TORSDOF 0
ENDMDL
