MODEL 1
REMARK minimizedAffinity 1.40945923
REMARK minimizedRMSD -1
REMARK  0 active torsions:
REMARK  status: ('A' for Active; 'I' for Inactive)
ROOT
ATOM      1  C1  DEN d   1      -1.867   4.659  -0.783  0.00  0.00     0.130 A 
ATOM      2  C2  DEN d   1      -1.292   3.383  -0.366  0.00  0.00    -0.031 A 
ATOM      3  C3  DEN d   1      -2.120   2.846   0.733  0.00  0.00     0.027 A 
ATOM      4  C4  DEN d   1      -4.229   3.859   1.819  0.00  0.00     0.027 A 
ATOM      5  C5  DEN d   1      -5.091   4.933   1.809  0.00  0.00    -0.003 A 
ATOM      6  C6  DEN d   1      -4.921   5.999   0.965  0.00  0.00     0.001 A 
ATOM      7  C7  DEN d   1      -3.889   5.992   0.064  0.00  0.00     0.017 A 
ATOM      8  C8  DEN d   1      -3.012   4.916   0.072  0.00  0.00    -0.094 A 
ATOM      9  C9  DEN d   1      -3.208   3.843   0.925  0.00  0.00    -0.072 A 
ENDROOT
TORSDOF 0
ENDMDL
