MODEL 1
REMARK minimizedAffinity -3.45349908
REMARK minimizedRMSD -1
REMARK  0 active torsions:
REMARK  status: ('A' for Active; 'I' for Inactive)
ROOT
ATOM      1  C1  DEN d   1      -2.937   2.232   1.393  0.00  0.00     0.130 A 
ATOM      2  C2  DEN d   1      -1.586   2.554   0.943  0.00  0.00    -0.031 A 
ATOM      3  C3  DEN d   1      -1.514   4.013   0.721  0.00  0.00     0.027 A 
ATOM      4  C4  DEN d   1      -3.352   5.794   1.034  0.00  0.00     0.027 A 
ATOM      5  C5  DEN d   1      -4.667   6.000   1.389  0.00  0.00    -0.003 A 
ATOM      6  C6  DEN d   1      -5.500   4.969   1.735  0.00  0.00     0.001 A 
ATOM      7  C7  DEN d   1      -5.015   3.689   1.776  0.00  0.00     0.017 A 
ATOM      8  C8  DEN d   1      -3.692   3.472   1.412  0.00  0.00    -0.094 A 
ATOM      9  C9  DEN d   1      -2.863   4.529   1.078  0.00  0.00    -0.072 A 
ENDROOT
TORSDOF 0
ENDMDL
