MODEL 1
REMARK minimizedAffinity 7.15884638
REMARK minimizedRMSD -1
REMARK  0 active torsions:
REMARK  status: ('A' for Active; 'I' for Inactive)
ROOT
ATOM      1  C1  DEN d   1       0.576   6.000  -2.239  0.00  0.00     0.130 A 
ATOM      2  C2  DEN d   1       1.874   5.838  -1.589  0.00  0.00    -0.031 A 
ATOM      3  C3  DEN d   1       1.935   4.475  -1.024  0.00  0.00     0.027 A 
ATOM      4  C4  DEN d   1       0.158   2.607  -1.098  0.00  0.00     0.027 A 
ATOM      5  C5  DEN d   1      -1.109   2.279  -1.528  0.00  0.00    -0.003 A 
ATOM      6  C6  DEN d   1      -1.909   3.172  -2.190  0.00  0.00     0.001 A 
ATOM      7  C7  DEN d   1      -1.434   4.423  -2.481  0.00  0.00     0.017 A 
ATOM      8  C8  DEN d   1      -0.160   4.764  -2.044  0.00  0.00    -0.094 A 
ATOM      9  C9  DEN d   1       0.638   3.843  -1.387  0.00  0.00    -0.072 A 
ENDROOT
TORSDOF 0
ENDMDL
