MODEL 1
REMARK minimizedAffinity 11.3212337
REMARK minimizedRMSD -1
REMARK  0 active torsions:
REMARK  status: ('A' for Active; 'I' for Inactive)
ROOT
ATOM      1  C1  DEN d   1      -2.301   0.032   3.784  0.00  0.00     0.130 A 
ATOM      2  C2  DEN d   1      -2.698   0.707   2.552  0.00  0.00    -0.031 A 
ATOM      3  C3  DEN d   1      -4.170   0.643   2.450  0.00  0.00     0.027 A 
ATOM      4  C4  DEN d   1      -5.863  -0.427   4.075  0.00  0.00     0.027 A 
ATOM      5  C5  DEN d   1      -6.000  -1.128   5.253  0.00  0.00    -0.003 A 
ATOM      6  C6  DEN d   1      -4.920  -1.518   6.000  0.00  0.00     0.001 A 
ATOM      7  C7  DEN d   1      -3.657  -1.170   5.600  0.00  0.00     0.017 A 
ATOM      8  C8  DEN d   1      -3.511  -0.470   4.410  0.00  0.00    -0.094 A 
ATOM      9  C9  DEN d   1      -4.615  -0.074   3.676  0.00  0.00    -0.072 A 
ENDROOT
TORSDOF 0
ENDMDL
