MODEL 1
REMARK minimizedAffinity -1.89102519
REMARK minimizedRMSD -1
REMARK  0 active torsions:
REMARK  status: ('A' for Active; 'I' for Inactive)
ROOT
ATOM      1  C1  DEN d   1      -3.339   5.998   0.686  0.00  0.00     0.130 A 
ATOM      2  C2  DEN d   1      -4.439   5.977   1.646  0.00  0.00    -0.031 A 
ATOM      3  C3  DEN d   1      -4.430   4.664   2.322  0.00  0.00     0.027 A 
ATOM      4  C4  DEN d   1      -2.825   2.674   1.980  0.00  0.00     0.027 A 
ATOM      5  C5  DEN d   1      -1.740   2.218   1.266  0.00  0.00    -0.003 A 
ATOM      6  C6  DEN d   1      -1.137   2.970   0.292  0.00  0.00     0.001 A 
ATOM      7  C7  DEN d   1      -1.589   4.238   0.037  0.00  0.00     0.017 A 
ATOM      8  C8  DEN d   1      -2.687   4.702   0.749  0.00  0.00    -0.094 A 
ATOM      9  C9  DEN d   1      -3.275   3.932   1.737  0.00  0.00    -0.072 A 
ENDROOT
TORSDOF 0
ENDMDL
