MODEL 1
REMARK minimizedAffinity 9.07346439
REMARK minimizedRMSD -1
REMARK  0 active torsions:
REMARK  status: ('A' for Active; 'I' for Inactive)
ROOT
ATOM      1  C1  DEN d   1       2.243  -1.189   2.950  0.00  0.00     0.130 A 
ATOM      2  C2  DEN d   1       1.372  -0.701   1.884  0.00  0.00    -0.031 A 
ATOM      3  C3  DEN d   1       1.980  -1.075   0.591  0.00  0.00     0.027 A 
ATOM      4  C4  DEN d   1       4.171  -2.359   0.139  0.00  0.00     0.027 A 
ATOM      5  C5  DEN d   1       5.258  -2.967   0.728  0.00  0.00    -0.003 A 
ATOM      6  C6  DEN d   1       5.432  -2.995   2.086  0.00  0.00     0.001 A 
ATOM      7  C7  DEN d   1       4.481  -2.443   2.903  0.00  0.00     0.017 A 
ATOM      8  C8  DEN d   1       3.387  -1.822   2.317  0.00  0.00    -0.094 A 
ATOM      9  C9  DEN d   1       3.222  -1.815   0.942  0.00  0.00    -0.072 A 
ENDROOT
TORSDOF 0
ENDMDL
