MODEL 1
REMARK minimizedAffinity -2.98326278
REMARK minimizedRMSD -1
REMARK  0 active torsions:
REMARK  status: ('A' for Active; 'I' for Inactive)
ROOT
ATOM      1  C   UNL d   1      -0.567   2.205   0.611  0.00  0.00     0.124 A 
ATOM      2  C1  UNL d   1      -0.564   1.885  -0.740  0.00  0.00     0.062 A 
ATOM      3  C2  UNL d   1      -0.078   0.652  -1.166  0.00  0.00     0.162 A 
ATOM      4  C3  UNL d   1       0.408  -0.271  -0.241  0.00  0.00    -0.034 A 
ATOM      5  C4  UNL d   1       0.403   0.058   1.116  0.00  0.00     0.162 A 
ATOM      6  C5  UNL d   1      -0.084   1.291   1.537  0.00  0.00     0.062 A 
ATOM      7  F   UNL d   1      -0.086   1.599   2.843  0.00  0.00    -0.097 F 
ATOM      8  F1  UNL d   1       0.863  -0.806   2.033  0.00  0.00    -0.096 F 
ATOM      9  I   UNL d   1       1.135  -2.115  -0.874  0.00  0.00    -0.060 I 
ATOM     10  F2  UNL d   1      -0.088   0.370  -2.478  0.00  0.00    -0.096 F 
ATOM     11  F3  UNL d   1      -1.029   2.766  -1.637  0.00  0.00    -0.097 F 
ATOM     12  F4  UNL d   1      -1.034   3.392   1.018  0.00  0.00    -0.092 F 
ENDROOT
TORSDOF 0
ENDMDL
