MODEL 1
REMARK minimizedAffinity 1.51912642
REMARK minimizedRMSD -1
REMARK  0 active torsions:
REMARK  status: ('A' for Active; 'I' for Inactive)
ROOT
ATOM      1  C   UNL d   1       0.542  -0.187   1.613  0.00  0.00     0.124 A 
ATOM      2  C1  UNL d   1       0.629  -0.612   0.295  0.00  0.00     0.062 A 
ATOM      3  C2  UNL d   1       0.176   0.206  -0.736  0.00  0.00     0.162 A 
ATOM      4  C3  UNL d   1      -0.366   1.460  -0.453  0.00  0.00    -0.034 A 
ATOM      5  C4  UNL d   1      -0.451   1.881   0.875  0.00  0.00     0.162 A 
ATOM      6  C5  UNL d   1       0.003   1.059   1.902  0.00  0.00     0.062 A 
ATOM      7  F   UNL d   1      -0.082   1.472   3.175  0.00  0.00    -0.097 F 
ATOM      8  F1  UNL d   1      -0.966   3.080   1.183  0.00  0.00    -0.096 F 
ATOM      9  I   UNL d   1      -1.043   2.686  -1.992  0.00  0.00    -0.060 I 
ATOM     10  F2  UNL d   1       0.272  -0.231  -2.000  0.00  0.00    -0.096 F 
ATOM     11  F3  UNL d   1       1.148  -1.816   0.013  0.00  0.00    -0.097 F 
ATOM     12  F4  UNL d   1       0.977  -0.976   2.603  0.00  0.00    -0.092 F 
ENDROOT
TORSDOF 0
ENDMDL
