MODEL 1
REMARK minimizedAffinity -0.314698219
REMARK minimizedRMSD -1
REMARK  0 active torsions:
REMARK  status: ('A' for Active; 'I' for Inactive)
ROOT
ATOM      1  C   UNL d   1       0.641  -1.297  -1.441  0.00  0.00     0.124 A 
ATOM      2  C1  UNL d   1       0.044  -1.726  -0.263  0.00  0.00     0.062 A 
ATOM      3  C2  UNL d   1      -0.424  -0.798   0.663  0.00  0.00     0.162 A 
ATOM      4  C3  UNL d   1      -0.300   0.569   0.414  0.00  0.00    -0.034 A 
ATOM      5  C4  UNL d   1       0.302   0.993  -0.772  0.00  0.00     0.162 A 
ATOM      6  C5  UNL d   1       0.769   0.062  -1.694  0.00  0.00     0.062 A 
ATOM      7  F   UNL d   1       1.345   0.478  -2.831  0.00  0.00    -0.097 F 
ATOM      8  F1  UNL d   1       0.438   2.299  -1.042  0.00  0.00    -0.096 F 
ATOM      9  I   UNL d   1      -0.999   1.959   1.796  0.00  0.00    -0.060 I 
ATOM     10  F2  UNL d   1      -0.996  -1.241   1.792  0.00  0.00    -0.096 F 
ATOM     11  F3  UNL d   1      -0.080  -3.038  -0.016  0.00  0.00    -0.097 F 
ATOM     12  F4  UNL d   1       1.092  -2.191  -2.329  0.00  0.00    -0.092 F 
ENDROOT
TORSDOF 0
ENDMDL
