MODEL 1
REMARK minimizedAffinity -3.70426035
REMARK minimizedRMSD -1
REMARK  0 active torsions:
REMARK  status: ('A' for Active; 'I' for Inactive)
ROOT
ATOM      1  C   UNL d   1      -0.843   2.289   1.759  0.00  0.00     0.124 A 
ATOM      2  C1  UNL d   1       0.114   1.387   2.201  0.00  0.00     0.062 A 
ATOM      3  C2  UNL d   1       0.510   0.330   1.386  0.00  0.00     0.162 A 
ATOM      4  C3  UNL d   1      -0.051   0.171   0.119  0.00  0.00    -0.034 A 
ATOM      5  C4  UNL d   1      -1.014   1.082  -0.319  0.00  0.00     0.162 A 
ATOM      6  C5  UNL d   1      -1.406   2.136   0.500  0.00  0.00     0.062 A 
ATOM      7  F   UNL d   1      -2.331   3.007   0.071  0.00  0.00    -0.097 F 
ATOM      8  F1  UNL d   1      -1.574   0.959  -1.531  0.00  0.00    -0.096 F 
ATOM      9  I   UNL d   1       0.538  -1.407  -1.103  0.00  0.00    -0.060 I 
ATOM     10  F2  UNL d   1       1.437  -0.527   1.839  0.00  0.00    -0.096 F 
ATOM     11  F3  UNL d   1       0.659   1.532   3.418  0.00  0.00    -0.097 F 
ATOM     12  F4  UNL d   1      -1.223   3.304   2.546  0.00  0.00    -0.092 F 
ENDROOT
TORSDOF 0
ENDMDL
