MODEL 1
REMARK minimizedAffinity -1.67497778
REMARK minimizedRMSD -1
REMARK  0 active torsions:
REMARK  status: ('A' for Active; 'I' for Inactive)
ROOT
ATOM      1  C   UNL d   1       0.705  -0.941  -1.659  0.00  0.00     0.124 A 
ATOM      2  C1  UNL d   1       0.239  -1.306  -0.404  0.00  0.00     0.062 A 
ATOM      3  C2  UNL d   1      -0.214  -0.335   0.484  0.00  0.00     0.162 A 
ATOM      4  C3  UNL d   1      -0.203   1.011   0.120  0.00  0.00    -0.034 A 
ATOM      5  C4  UNL d   1       0.268   1.371  -1.143  0.00  0.00     0.162 A 
ATOM      6  C5  UNL d   1       0.719   0.397  -2.028  0.00  0.00     0.062 A 
ATOM      7  F   UNL d   1       1.170   0.752  -3.240  0.00  0.00    -0.097 F 
ATOM      8  F1  UNL d   1       0.292   2.657  -1.526  0.00  0.00    -0.096 F 
ATOM      9  I   UNL d   1      -0.879   2.467   1.446  0.00  0.00    -0.060 I 
ATOM     10  F2  UNL d   1      -0.659  -0.717   1.691  0.00  0.00    -0.096 F 
ATOM     11  F3  UNL d   1       0.225  -2.598  -0.045  0.00  0.00    -0.097 F 
ATOM     12  F4  UNL d   1       1.141  -1.877  -2.512  0.00  0.00    -0.092 F 
ENDROOT
TORSDOF 0
ENDMDL
