MODEL 1
REMARK minimizedAffinity -1.22311687
REMARK minimizedRMSD -1
REMARK  0 active torsions:
REMARK  status: ('A' for Active; 'I' for Inactive)
ROOT
ATOM      1  C   UNL d   1      -0.181   2.097   0.432  0.00  0.00     0.124 A 
ATOM      2  C1  UNL d   1      -0.017   1.820  -0.918  0.00  0.00     0.062 A 
ATOM      3  C2  UNL d   1       0.002   0.503  -1.365  0.00  0.00     0.162 A 
ATOM      4  C3  UNL d   1      -0.144  -0.550  -0.461  0.00  0.00    -0.034 A 
ATOM      5  C4  UNL d   1      -0.307  -0.264   0.895  0.00  0.00     0.162 A 
ATOM      6  C5  UNL d   1      -0.326   1.055   1.337  0.00  0.00     0.062 A 
ATOM      7  F   UNL d   1      -0.485   1.320   2.642  0.00  0.00    -0.097 F 
ATOM      8  F1  UNL d   1      -0.451  -1.251   1.791  0.00  0.00    -0.096 F 
ATOM      9  I   UNL d   1      -0.115  -2.522  -1.126  0.00  0.00    -0.060 I 
ATOM     10  F2  UNL d   1       0.162   0.265  -2.676  0.00  0.00    -0.096 F 
ATOM     11  F3  UNL d   1       0.124   2.825  -1.794  0.00  0.00    -0.097 F 
ATOM     12  F4  UNL d   1      -0.198   3.366   0.860  0.00  0.00    -0.092 F 
ENDROOT
TORSDOF 0
ENDMDL
