MODEL 1
REMARK minimizedAffinity -0.207947254
REMARK minimizedRMSD -1
REMARK  0 active torsions:
REMARK  status: ('A' for Active; 'I' for Inactive)
ROOT
ATOM      1  C   UNL d   1       0.383  -0.762  -1.990  0.00  0.00     0.124 A 
ATOM      2  C1  UNL d   1      -0.054   0.516  -2.310  0.00  0.00     0.062 A 
ATOM      3  C2  UNL d   1      -0.495   1.376  -1.309  0.00  0.00     0.162 A 
ATOM      4  C3  UNL d   1      -0.499   0.962   0.023  0.00  0.00    -0.034 A 
ATOM      5  C4  UNL d   1      -0.059  -0.325   0.337  0.00  0.00     0.162 A 
ATOM      6  C5  UNL d   1       0.381  -1.181  -0.668  0.00  0.00     0.062 A 
ATOM      7  F   UNL d   1       0.803  -2.415  -0.357  0.00  0.00    -0.097 F 
ATOM      8  F1  UNL d   1      -0.050  -0.756   1.607  0.00  0.00    -0.096 F 
ATOM      9  I   UNL d   1      -1.158   2.245   1.524  0.00  0.00    -0.060 I 
ATOM     10  F2  UNL d   1      -0.912   2.605  -1.647  0.00  0.00    -0.096 F 
ATOM     11  F3  UNL d   1      -0.053   0.923  -3.588  0.00  0.00    -0.097 F 
ATOM     12  F4  UNL d   1       0.806  -1.588  -2.956  0.00  0.00    -0.092 F 
ENDROOT
TORSDOF 0
ENDMDL
