MODEL 1
REMARK minimizedAffinity -2.6992228
REMARK minimizedRMSD -1
REMARK  0 active torsions:
REMARK  status: ('A' for Active; 'I' for Inactive)
ROOT
ATOM      1  C   UNL d   1      -0.857   1.617   0.829  0.00  0.00     0.124 A 
ATOM      2  C1  UNL d   1      -0.075   0.916   1.737  0.00  0.00     0.062 A 
ATOM      3  C2  UNL d   1       0.514  -0.290   1.370  0.00  0.00     0.162 A 
ATOM      4  C3  UNL d   1       0.323  -0.804   0.087  0.00  0.00    -0.034 A 
ATOM      5  C4  UNL d   1      -0.465  -0.094  -0.821  0.00  0.00     0.162 A 
ATOM      6  C5  UNL d   1      -1.051   1.111  -0.449  0.00  0.00     0.062 A 
ATOM      7  F   UNL d   1      -1.806   1.786  -1.327  0.00  0.00    -0.097 F 
ATOM      8  F1  UNL d   1      -0.668  -0.560  -2.062  0.00  0.00    -0.096 F 
ATOM      9  I   UNL d   1       1.202  -2.608  -0.467  0.00  0.00    -0.060 I 
ATOM     10  F2  UNL d   1       1.264  -0.946   2.268  0.00  0.00    -0.096 F 
ATOM     11  F3  UNL d   1       0.114   1.402   2.972  0.00  0.00    -0.097 F 
ATOM     12  F4  UNL d   1      -1.423   2.777   1.186  0.00  0.00    -0.092 F 
ENDROOT
TORSDOF 0
ENDMDL
