MODEL 1
REMARK minimizedAffinity 1.38085723
REMARK minimizedRMSD -1
REMARK  0 active torsions:
REMARK  status: ('A' for Active; 'I' for Inactive)
ROOT
ATOM      1  C   UNL d   1       0.071   1.307   0.067  0.00  0.00     0.124 A 
ATOM      2  C1  UNL d   1       0.014   0.307   1.028  0.00  0.00     0.062 A 
ATOM      3  C2  UNL d   1       0.006  -1.031   0.646  0.00  0.00     0.162 A 
ATOM      4  C3  UNL d   1       0.056  -1.378  -0.705  0.00  0.00    -0.034 A 
ATOM      5  C4  UNL d   1       0.111  -0.366  -1.665  0.00  0.00     0.162 A 
ATOM      6  C5  UNL d   1       0.119   0.970  -1.278  0.00  0.00     0.062 A 
ATOM      7  F   UNL d   1       0.174   1.935  -2.208  0.00  0.00    -0.097 F 
ATOM      8  F1  UNL d   1       0.160  -0.664  -2.972  0.00  0.00    -0.096 F 
ATOM      9  I   UNL d   1       0.044  -3.377  -1.280  0.00  0.00    -0.060 I 
ATOM     10  F2  UNL d   1      -0.048  -1.976   1.596  0.00  0.00    -0.096 F 
ATOM     11  F3  UNL d   1      -0.034   0.631   2.328  0.00  0.00    -0.097 F 
ATOM     12  F4  UNL d   1       0.077   2.594   0.438  0.00  0.00    -0.092 F 
ENDROOT
TORSDOF 0
ENDMDL
