MODEL 1
REMARK minimizedAffinity -3.01511073
REMARK minimizedRMSD -1
REMARK  0 active torsions:
REMARK  status: ('A' for Active; 'I' for Inactive)
ROOT
ATOM      1  O1  BZF d   1      -0.550  -0.212  -1.956  0.00  0.00    -0.204 OA
ATOM      2  C2  BZF d   1       0.806  -0.476  -1.946  0.00  0.00     0.174 A 
ATOM      3  C3  BZF d   1       1.304  -0.373  -0.697  0.00  0.00    -0.012 A 
ATOM      4  C3A BZF d   1       0.172  -0.114   0.139  0.00  0.00    -0.107 A 
ATOM      5  C4  BZF d   1       0.021   0.070   1.484  0.00  0.00     0.055 A 
ATOM      6  C5  BZF d   1      -1.209   0.377   1.975  0.00  0.00    -0.016 A 
ATOM      7  C6  BZF d   1      -2.306   0.511   1.150  0.00  0.00     0.022 A 
ATOM      8  C7  BZF d   1      -2.207   0.332  -0.190  0.00  0.00     0.029 A 
ATOM      9  C7A BZF d   1      -0.972  -0.010  -0.685  0.00  0.00     0.058 A 
ENDROOT
TORSDOF 0
ENDMDL
