MODEL 1
REMARK minimizedAffinity -3.08731747
REMARK minimizedRMSD -1
REMARK  0 active torsions:
REMARK  status: ('A' for Active; 'I' for Inactive)
ROOT
ATOM      1  O1  BZF d   1       1.017  -0.839  -0.190  0.00  0.00    -0.204 OA
ATOM      2  C2  BZF d   1       2.035  -0.944   0.739  0.00  0.00     0.174 A 
ATOM      3  C3  BZF d   1       1.639  -0.471   1.938  0.00  0.00    -0.012 A 
ATOM      4  C3A BZF d   1       0.260  -0.128   1.771  0.00  0.00    -0.107 A 
ATOM      5  C4  BZF d   1      -0.690   0.379   2.611  0.00  0.00     0.055 A 
ATOM      6  C5  BZF d   1      -1.923   0.667   2.117  0.00  0.00    -0.016 A 
ATOM      7  C6  BZF d   1      -2.238   0.466   0.789  0.00  0.00     0.022 A 
ATOM      8  C7  BZF d   1      -1.330  -0.039  -0.081  0.00  0.00     0.029 A 
ATOM      9  C7A BZF d   1      -0.094  -0.363   0.422  0.00  0.00     0.058 A 
ENDROOT
TORSDOF 0
ENDMDL
