MODEL 1
REMARK minimizedAffinity -5.28435564
REMARK minimizedRMSD -1
REMARK  0 active torsions:
REMARK  status: ('A' for Active; 'I' for Inactive)
ROOT
ATOM      1  O1  BZF d   1       1.571  -0.012   0.016  0.00  0.00    -0.204 OA
ATOM      2  C2  BZF d   1       0.995  -0.068  -1.238  0.00  0.00     0.174 A 
ATOM      3  C3  BZF d   1      -0.350  -0.030  -1.149  0.00  0.00    -0.012 A 
ATOM      4  C3A BZF d   1      -0.630   0.147   0.242  0.00  0.00    -0.107 A 
ATOM      5  C4  BZF d   1      -1.786   0.273   0.959  0.00  0.00     0.055 A 
ATOM      6  C5  BZF d   1      -1.718   0.358   2.313  0.00  0.00    -0.016 A 
ATOM      7  C6  BZF d   1      -0.513   0.316   2.983  0.00  0.00     0.022 A 
ATOM      8  C7  BZF d   1       0.660   0.197   2.316  0.00  0.00     0.029 A 
ATOM      9  C7A BZF d   1       0.597   0.144   0.945  0.00  0.00     0.058 A 
ENDROOT
TORSDOF 0
ENDMDL
