MODEL 1
REMARK minimizedAffinity -2.98576784
REMARK minimizedRMSD -1
REMARK  0 active torsions:
REMARK  status: ('A' for Active; 'I' for Inactive)
ROOT
ATOM      1  O1  BZF d   1      -0.339  -0.953  -3.586  0.00  0.00    -0.204 OA
ATOM      2  C2  BZF d   1       0.175  -0.378  -4.732  0.00  0.00     0.174 A 
ATOM      3  C3  BZF d   1       1.215   0.429  -4.438  0.00  0.00    -0.012 A 
ATOM      4  C3A BZF d   1       1.419   0.281  -3.029  0.00  0.00    -0.107 A 
ATOM      5  C4  BZF d   1       2.316   0.816  -2.149  0.00  0.00     0.055 A 
ATOM      6  C5  BZF d   1       2.199   0.524  -0.827  0.00  0.00    -0.016 A 
ATOM      7  C6  BZF d   1       1.195  -0.294  -0.350  0.00  0.00     0.022 A 
ATOM      8  C7  BZF d   1       0.285  -0.851  -1.185  0.00  0.00     0.029 A 
ATOM      9  C7A BZF d   1       0.420  -0.584  -2.526  0.00  0.00     0.058 A 
ENDROOT
TORSDOF 0
ENDMDL
