MODEL 1
REMARK minimizedAffinity -1.00675309
REMARK minimizedRMSD -1
REMARK  0 active torsions:
REMARK  status: ('A' for Active; 'I' for Inactive)
ROOT
ATOM      1  O1  BZF d   1      -0.126  -1.491  -2.900  0.00  0.00    -0.204 OA
ATOM      2  C2  BZF d   1       0.717  -0.730  -3.686  0.00  0.00     0.174 A 
ATOM      3  C3  BZF d   1       1.021   0.433  -3.074  0.00  0.00    -0.012 A 
ATOM      4  C3A BZF d   1       0.399   0.355  -1.788  0.00  0.00    -0.107 A 
ATOM      5  C4  BZF d   1       0.353   1.199  -0.715  0.00  0.00     0.055 A 
ATOM      6  C5  BZF d   1      -0.402   0.858   0.362  0.00  0.00    -0.016 A 
ATOM      7  C6  BZF d   1      -1.127  -0.315   0.398  0.00  0.00     0.022 A 
ATOM      8  C7  BZF d   1      -1.109  -1.187  -0.641  0.00  0.00     0.029 A 
ATOM      9  C7A BZF d   1      -0.320  -0.860  -1.717  0.00  0.00     0.058 A 
ENDROOT
TORSDOF 0
ENDMDL
