MODEL 1
REMARK minimizedAffinity -5.99733686
REMARK minimizedRMSD -1
REMARK  2 active torsions:
REMARK  status: ('A' for Active; 'I' for Inactive)
REMARK    1  A    between atoms: C2'_3  and  C1'_4 
REMARK    2  A    between atoms: C1'_4  and  C1_5 
ROOT
ATOM      1  C1  I4B d   1       0.193  -0.082   0.103  0.00  0.00    -0.075 A 
ATOM      2  C2  I4B d   1       1.366   0.619   0.235  0.00  0.00     0.003 A 
ATOM      3  C3  I4B d   1       1.350   2.034   0.279  0.00  0.00     0.002 A 
ATOM      4  C4  I4B d   1       0.152   2.705   0.138  0.00  0.00    -0.004 A 
ATOM      5  C5  I4B d   1      -1.039   1.992   0.028  0.00  0.00     0.002 A 
ATOM      6  C6  I4B d   1      -1.020   0.590   0.022  0.00  0.00     0.003 A 
ENDROOT
BRANCH   1   7
ATOM      7  C1' I4B d   1       0.250  -1.575   0.027  0.00  0.00     0.060 C 
BRANCH   7   8
ATOM      8  C2' I4B d   1      -0.654  -2.019  -1.105  0.00  0.00    -0.013 C 
ATOM      9  C4' I4B d   1       0.129  -2.253  -2.369  0.00  0.00     0.013 C 
ATOM     10  C3' I4B d   1      -1.362  -3.267  -0.668  0.00  0.00     0.013 C 
ENDBRANCH   7   8
ENDBRANCH   1   7
TORSDOF 2
ENDMDL
