MODEL 1
REMARK minimizedAffinity 3.79906106
REMARK minimizedRMSD -1
REMARK  2 active torsions:
REMARK  status: ('A' for Active; 'I' for Inactive)
REMARK    1  A    between atoms: C2'_3  and  C1'_4 
REMARK    2  A    between atoms: C1'_4  and  C1_5 
ROOT
ATOM      1  C1  I4B d   1      -1.981  -0.475  -1.131  0.00  0.00    -0.075 A 
ATOM      2  C2  I4B d   1      -2.403   0.808  -1.380  0.00  0.00     0.003 A 
ATOM      3  C3  I4B d   1      -2.014   1.865  -0.523  0.00  0.00     0.002 A 
ATOM      4  C4  I4B d   1      -1.250   1.589   0.593  0.00  0.00    -0.004 A 
ATOM      5  C5  I4B d   1      -0.804   0.292   0.831  0.00  0.00     0.002 A 
ATOM      6  C6  I4B d   1      -1.161  -0.744  -0.043  0.00  0.00     0.003 A 
ENDROOT
BRANCH   1   7
ATOM      7  C1' I4B d   1      -2.437  -1.573  -2.039  0.00  0.00     0.060 C 
BRANCH   7   8
ATOM      8  C2' I4B d   1      -1.513  -2.757  -1.841  0.00  0.00    -0.013 C 
ATOM      9  C4' I4B d   1      -2.183  -3.843  -1.042  0.00  0.00     0.013 C 
ATOM     10  C3' I4B d   1      -1.101  -3.255  -3.194  0.00  0.00     0.013 C 
ENDBRANCH   7   8
ENDBRANCH   1   7
TORSDOF 2
ENDMDL
