MODEL 1
REMARK minimizedAffinity -1.65561712
REMARK minimizedRMSD -1
REMARK  2 active torsions:
REMARK  status: ('A' for Active; 'I' for Inactive)
REMARK    1  A    between atoms: C2'_3  and  C1'_4 
REMARK    2  A    between atoms: C1'_4  and  C1_5 
ROOT
ATOM      1  C1  I4B d   1       1.578   1.996   0.819  0.00  0.00    -0.075 A 
ATOM      2  C2  I4B d   1       1.919   0.698   0.532  0.00  0.00     0.003 A 
ATOM      3  C3  I4B d   1       0.911  -0.260   0.259  0.00  0.00     0.002 A 
ATOM      4  C4  I4B d   1      -0.416   0.110   0.334  0.00  0.00    -0.004 A 
ATOM      5  C5  I4B d   1      -0.758   1.433   0.602  0.00  0.00     0.002 A 
ATOM      6  C6  I4B d   1       0.245   2.384   0.834  0.00  0.00     0.003 A 
ENDROOT
BRANCH   1   7
ATOM      7  C1' I4B d   1       2.666   2.973   1.135  0.00  0.00     0.060 C 
BRANCH   7   8
ATOM      8  C2' I4B d   1       2.940   3.785  -0.115  0.00  0.00    -0.013 C 
ATOM      9  C4' I4B d   1       2.422   5.193   0.025  0.00  0.00     0.013 C 
ATOM     10  C3' I4B d   1       4.420   3.775  -0.358  0.00  0.00     0.013 C 
ENDBRANCH   7   8
ENDBRANCH   1   7
TORSDOF 2
ENDMDL
