MODEL 1
REMARK minimizedAffinity 0.00689358264
REMARK minimizedRMSD -1
REMARK  2 active torsions:
REMARK  status: ('A' for Active; 'I' for Inactive)
REMARK    1  A    between atoms: C2'_3  and  C1'_4 
REMARK    2  A    between atoms: C1'_4  and  C1_5 
ROOT
ATOM      1  C1  I4B d   1      -0.015  -0.695  -0.906  0.00  0.00    -0.075 A 
ATOM      2  C2  I4B d   1       1.229  -0.389  -0.414  0.00  0.00     0.003 A 
ATOM      3  C3  I4B d   1       1.400   0.717   0.455  0.00  0.00     0.002 A 
ATOM      4  C4  I4B d   1       0.316   1.513   0.762  0.00  0.00    -0.004 A 
ATOM      5  C5  I4B d   1      -0.949   1.188   0.281  0.00  0.00     0.002 A 
ATOM      6  C6  I4B d   1      -1.118   0.070  -0.548  0.00  0.00     0.003 A 
ENDROOT
BRANCH   1   7
ATOM      7  C1' I4B d   1      -0.154  -1.850  -1.846  0.00  0.00     0.060 C 
BRANCH   7   8
ATOM      8  C2' I4B d   1      -1.505  -2.491  -1.601  0.00  0.00    -0.013 C 
ATOM      9  C4' I4B d   1      -1.851  -3.468  -2.694  0.00  0.00     0.013 C 
ATOM     10  C3' I4B d   1      -1.460  -3.169  -0.264  0.00  0.00     0.013 C 
ENDBRANCH   7   8
ENDBRANCH   1   7
TORSDOF 2
ENDMDL
