MODEL 1
REMARK minimizedAffinity -5.80320787
REMARK minimizedRMSD -1
REMARK  2 active torsions:
REMARK  status: ('A' for Active; 'I' for Inactive)
REMARK    1  A    between atoms: C2'_3  and  C1'_4 
REMARK    2  A    between atoms: C1'_4  and  C1_5 
ROOT
ATOM      1  C1  I4B d   1      -0.347  -0.462   0.209  0.00  0.00    -0.075 A 
ATOM      2  C2  I4B d   1       0.668   0.451   0.069  0.00  0.00     0.003 A 
ATOM      3  C3  I4B d   1       0.395   1.838   0.152  0.00  0.00     0.002 A 
ATOM      4  C4  I4B d   1      -0.906   2.266   0.324  0.00  0.00    -0.004 A 
ATOM      5  C5  I4B d   1      -1.930   1.338   0.489  0.00  0.00     0.002 A 
ATOM      6  C6  I4B d   1      -1.647  -0.035   0.443  0.00  0.00     0.003 A 
ENDROOT
BRANCH   1   7
ATOM      7  C1' I4B d   1      -0.028  -1.918   0.082  0.00  0.00     0.060 C 
BRANCH   7   8
ATOM      8  C2' I4B d   1      -0.940  -2.506  -0.976  0.00  0.00    -0.013 C 
ATOM      9  C4' I4B d   1      -0.154  -2.979  -2.171  0.00  0.00     0.013 C 
ATOM     10  C3' I4B d   1      -1.708  -3.632  -0.352  0.00  0.00     0.013 C 
ENDBRANCH   7   8
ENDBRANCH   1   7
TORSDOF 2
ENDMDL
