MODEL 1
REMARK minimizedAffinity -4.73178577
REMARK minimizedRMSD -1
REMARK  2 active torsions:
REMARK  status: ('A' for Active; 'I' for Inactive)
REMARK    1  A    between atoms: C2'_3  and  C1'_4 
REMARK    2  A    between atoms: C1'_4  and  C1_5 
ROOT
ATOM      1  C1  I4B d   1       0.409   1.472  -0.315  0.00  0.00    -0.075 A 
ATOM      2  C2  I4B d   1      -0.356   1.930   0.728  0.00  0.00     0.003 A 
ATOM      3  C3  I4B d   1       0.032   3.089   1.442  0.00  0.00     0.002 A 
ATOM      4  C4  I4B d   1       1.211   3.726   1.113  0.00  0.00    -0.004 A 
ATOM      5  C5  I4B d   1       1.974   3.274   0.040  0.00  0.00     0.002 A 
ATOM      6  C6  I4B d   1       1.564   2.147  -0.687  0.00  0.00     0.003 A 
ENDROOT
BRANCH   1   7
ATOM      7  C1' I4B d   1      -0.014   0.226  -1.026  0.00  0.00     0.060 C 
BRANCH   7   8
ATOM      8  C2' I4B d   1       0.105  -0.930  -0.053  0.00  0.00    -0.013 C 
ATOM      9  C4' I4B d   1      -0.582  -2.161  -0.583  0.00  0.00     0.013 C 
ATOM     10  C3' I4B d   1       1.563  -1.185   0.187  0.00  0.00     0.013 C 
ENDBRANCH   7   8
ENDBRANCH   1   7
TORSDOF 2
ENDMDL
