MODEL 1
REMARK minimizedAffinity -3.41345096
REMARK minimizedRMSD -1
REMARK  2 active torsions:
REMARK  status: ('A' for Active; 'I' for Inactive)
REMARK    1  A    between atoms: C2'_3  and  C1'_4 
REMARK    2  A    between atoms: C1'_4  and  C1_5 
ROOT
ATOM      1  C1  I4B d   1       0.741   0.321   0.514  0.00  0.00    -0.075 A 
ATOM      2  C2  I4B d   1      -0.573   0.715   0.548  0.00  0.00     0.003 A 
ATOM      3  C3  I4B d   1      -0.904   2.079   0.736  0.00  0.00     0.002 A 
ATOM      4  C4  I4B d   1       0.103   3.001   0.936  0.00  0.00    -0.004 A 
ATOM      5  C5  I4B d   1       1.436   2.603   0.879  0.00  0.00     0.002 A 
ATOM      6  C6  I4B d   1       1.758   1.257   0.654  0.00  0.00     0.003 A 
ENDROOT
BRANCH   1   7
ATOM      7  C1' I4B d   1       1.053  -1.132   0.346  0.00  0.00     0.060 C 
BRANCH   7   8
ATOM      8  C2' I4B d   1       0.171  -1.675  -0.760  0.00  0.00    -0.013 C 
ATOM      9  C4' I4B d   1       0.994  -2.288  -1.862  0.00  0.00     0.013 C 
ATOM     10  C3' I4B d   1      -0.762  -2.681  -0.156  0.00  0.00     0.013 C 
ENDBRANCH   7   8
ENDBRANCH   1   7
TORSDOF 2
ENDMDL
