MODEL 1
REMARK minimizedAffinity -5.51417351
REMARK minimizedRMSD -1
REMARK  2 active torsions:
REMARK  status: ('A' for Active; 'I' for Inactive)
REMARK    1  A    between atoms: C2'_3  and  C1'_4 
REMARK    2  A    between atoms: C1'_4  and  C1_5 
ROOT
ATOM      1  C1  I4B d   1       0.111   0.235  -0.269  0.00  0.00    -0.075 A 
ATOM      2  C2  I4B d   1      -1.048   0.886   0.073  0.00  0.00     0.003 A 
ATOM      3  C3  I4B d   1      -1.067   2.297   0.184  0.00  0.00     0.002 A 
ATOM      4  C4  I4B d   1       0.100   3.009  -0.004  0.00  0.00    -0.004 A 
ATOM      5  C5  I4B d   1       1.269   2.350  -0.373  0.00  0.00     0.002 A 
ATOM      6  C6  I4B d   1       1.272   0.955  -0.519  0.00  0.00     0.003 A 
ENDROOT
BRANCH   1   7
ATOM      7  C1' I4B d   1       0.103  -1.259  -0.345  0.00  0.00     0.060 C 
BRANCH   7   8
ATOM      8  C2' I4B d   1      -0.333  -1.653  -1.742  0.00  0.00    -0.013 C 
ATOM      9  C4' I4B d   1       0.848  -2.027  -2.597  0.00  0.00     0.013 C 
ATOM     10  C3' I4B d   1      -1.298  -2.795  -1.621  0.00  0.00     0.013 C 
ENDBRANCH   7   8
ENDBRANCH   1   7
TORSDOF 2
ENDMDL
