MODEL 1
REMARK minimizedAffinity -4.24215555
REMARK minimizedRMSD -1
REMARK  2 active torsions:
REMARK  status: ('A' for Active; 'I' for Inactive)
REMARK    1  A    between atoms: C2'_3  and  C1'_4 
REMARK    2  A    between atoms: C1'_4  and  C1_5 
ROOT
ATOM      1  C1  I4B d   1      -1.045  -1.047  -1.046  0.00  0.00    -0.075 A 
ATOM      2  C2  I4B d   1      -1.632   0.191  -1.127  0.00  0.00     0.003 A 
ATOM      3  C3  I4B d   1      -1.251   1.221  -0.233  0.00  0.00     0.002 A 
ATOM      4  C4  I4B d   1      -0.321   0.956   0.752  0.00  0.00    -0.004 A 
ATOM      5  C5  I4B d   1       0.290  -0.293   0.818  0.00  0.00     0.002 A 
ATOM      6  C6  I4B d   1      -0.065  -1.297  -0.094  0.00  0.00     0.003 A 
ENDROOT
BRANCH   1   7
ATOM      7  C1' I4B d   1      -1.495  -2.121  -1.985  0.00  0.00     0.060 C 
BRANCH   7   8
ATOM      8  C2' I4B d   1      -1.363  -3.450  -1.270  0.00  0.00    -0.013 C 
ATOM      9  C4' I4B d   1      -2.712  -3.994  -0.878  0.00  0.00     0.013 C 
ATOM     10  C3' I4B d   1      -0.643  -4.397  -2.183  0.00  0.00     0.013 C 
ENDBRANCH   7   8
ENDBRANCH   1   7
TORSDOF 2
ENDMDL
