MODEL 1
REMARK minimizedAffinity -3.14923215
REMARK minimizedRMSD -1
REMARK  2 active torsions:
REMARK  status: ('A' for Active; 'I' for Inactive)
REMARK    1  A    between atoms: C2'_3  and  C1'_4 
REMARK    2  A    between atoms: C1'_4  and  C1_5 
ROOT
ATOM      1  C1  I4B d   1       1.605   1.527   0.668  0.00  0.00    -0.075 A 
ATOM      2  C2  I4B d   1       2.544   0.538   0.825  0.00  0.00     0.003 A 
ATOM      3  C3  I4B d   1       2.156  -0.824   0.793  0.00  0.00     0.002 A 
ATOM      4  C4  I4B d   1       0.822  -1.147   0.653  0.00  0.00    -0.004 A 
ATOM      5  C5  I4B d   1      -0.125  -0.143   0.471  0.00  0.00     0.002 A 
ATOM      6  C6  I4B d   1       0.270   1.202   0.466  0.00  0.00     0.003 A 
ENDROOT
BRANCH   1   7
ATOM      7  C1' I4B d   1       2.045   2.955   0.741  0.00  0.00     0.060 C 
BRANCH   7   8
ATOM      8  C2' I4B d   1       0.852   3.828   0.407  0.00  0.00    -0.013 C 
ATOM      9  C4' I4B d   1      -0.231   3.691   1.443  0.00  0.00     0.013 C 
ATOM     10  C3' I4B d   1       1.330   5.247   0.308  0.00  0.00     0.013 C 
ENDBRANCH   7   8
ENDBRANCH   1   7
TORSDOF 2
ENDMDL
