MODEL 1
REMARK minimizedAffinity 3.97634578
REMARK minimizedRMSD -1
REMARK  1 active torsions:
REMARK  status: ('A' for Active; 'I' for Inactive)
REMARK    1  A    between atoms: C1_2  and  C2_3 
ROOT
ATOM      1  C2  UNL d   1      -0.693   4.328  -0.019  0.00  0.00    -0.077 A 
ATOM      2  C3  UNL d   1      -0.702   3.578  -1.203  0.00  0.00     0.002 A 
ATOM      3  C4  UNL d   1      -0.367   2.222  -1.183  0.00  0.00     0.002 A 
ATOM      4  C5  UNL d   1      -0.026   1.605   0.018  0.00  0.00    -0.004 A 
ATOM      5  C6  UNL d   1      -0.013   2.342   1.201  0.00  0.00     0.002 A 
ATOM      6  C7  UNL d   1      -0.345   3.697   1.183  0.00  0.00     0.002 A 
ENDROOT
BRANCH   1   7
ATOM      7  C1  UNL d   1      -1.101   5.778  -0.030  0.00  0.00     0.055 C 
ATOM      8  C   UNL d   1      -2.395   5.994   0.740  0.00  0.00     0.019 C 
ENDBRANCH   1   7
TORSDOF 1
ENDMDL
