MODEL 1
REMARK minimizedAffinity 8.17520142
REMARK minimizedRMSD -1
REMARK  1 active torsions:
REMARK  status: ('A' for Active; 'I' for Inactive)
REMARK    1  A    between atoms: C1_2  and  C2_3 
ROOT
ATOM      1  C2  UNL d   1      -0.964   1.172  -0.542  0.00  0.00    -0.077 A 
ATOM      2  C3  UNL d   1      -2.339   0.978  -0.354  0.00  0.00     0.002 A 
ATOM      3  C4  UNL d   1      -2.973  -0.144  -0.892  0.00  0.00     0.002 A 
ATOM      4  C5  UNL d   1      -2.239  -1.082  -1.615  0.00  0.00    -0.004 A 
ATOM      5  C6  UNL d   1      -0.871  -0.896  -1.808  0.00  0.00     0.002 A 
ATOM      6  C7  UNL d   1      -0.236   0.225  -1.273  0.00  0.00     0.002 A 
ENDROOT
BRANCH   1   7
ATOM      7  C1  UNL d   1      -0.269   2.356   0.079  0.00  0.00     0.055 C 
ATOM      8  C   UNL d   1      -0.372   3.587  -0.811  0.00  0.00     0.019 C 
ENDBRANCH   1   7
TORSDOF 1
ENDMDL
