MODEL 1
REMARK minimizedAffinity -0.566378891
REMARK minimizedRMSD -1
REMARK  1 active torsions:
REMARK  status: ('A' for Active; 'I' for Inactive)
REMARK    1  A    between atoms: C1_2  and  C2_3 
ROOT
ATOM      1  C2  UNL d   1      -0.527   3.976  -0.606  0.00  0.00    -0.077 A 
ATOM      2  C3  UNL d   1      -0.887   3.132  -1.666  0.00  0.00     0.002 A 
ATOM      3  C4  UNL d   1      -0.817   1.745  -1.520  0.00  0.00     0.002 A 
ATOM      4  C5  UNL d   1      -0.392   1.190  -0.314  0.00  0.00    -0.004 A 
ATOM      5  C6  UNL d   1      -0.029   2.021   0.745  0.00  0.00     0.002 A 
ATOM      6  C7  UNL d   1      -0.097   3.408   0.600  0.00  0.00     0.002 A 
ENDROOT
BRANCH   1   7
ATOM      7  C1  UNL d   1      -0.648   5.471  -0.745  0.00  0.00     0.055 C 
ATOM      8  C   UNL d   1      -1.862   6.000   0.005  0.00  0.00     0.019 C 
ENDBRANCH   1   7
TORSDOF 1
ENDMDL
