MODEL 1
REMARK minimizedAffinity -0.324378222
REMARK minimizedRMSD -1
REMARK  1 active torsions:
REMARK  status: ('A' for Active; 'I' for Inactive)
REMARK    1  A    between atoms: C1_2  and  C2_3 
ROOT
ATOM      1  C2  UNL d   1      -1.355   1.316  -0.852  0.00  0.00    -0.077 A 
ATOM      2  C3  UNL d   1      -0.540   0.222  -1.177  0.00  0.00     0.002 A 
ATOM      3  C4  UNL d   1      -1.090  -1.055  -1.300  0.00  0.00     0.002 A 
ATOM      4  C5  UNL d   1      -2.456  -1.250  -1.105  0.00  0.00    -0.004 A 
ATOM      5  C6  UNL d   1      -3.274  -0.168  -0.779  0.00  0.00     0.002 A 
ATOM      6  C7  UNL d   1      -2.726   1.109  -0.654  0.00  0.00     0.002 A 
ENDROOT
BRANCH   1   7
ATOM      7  C1  UNL d   1      -0.772   2.703  -0.767  0.00  0.00     0.055 C 
ATOM      8  C   UNL d   1      -0.388   3.055   0.663  0.00  0.00     0.019 C 
ENDBRANCH   1   7
TORSDOF 1
ENDMDL
