MODEL 1
REMARK minimizedAffinity 10.6842718
REMARK minimizedRMSD -1
REMARK  1 active torsions:
REMARK  status: ('A' for Active; 'I' for Inactive)
REMARK    1  A    between atoms: C1_2  and  C2_3 
ROOT
ATOM      1  C2  UNL d   1       4.862   4.070   2.693  0.00  0.00    -0.077 A 
ATOM      2  C3  UNL d   1       3.992   4.068   3.793  0.00  0.00     0.002 A 
ATOM      3  C4  UNL d   1       4.128   5.022   4.804  0.00  0.00     0.002 A 
ATOM      4  C5  UNL d   1       5.129   5.988   4.722  0.00  0.00    -0.004 A 
ATOM      5  C6  UNL d   1       6.000   5.998   3.633  0.00  0.00     0.002 A 
ATOM      6  C7  UNL d   1       5.866   5.044   2.623  0.00  0.00     0.002 A 
ENDROOT
BRANCH   1   7
ATOM      7  C1  UNL d   1       4.686   3.073   1.579  0.00  0.00     0.055 C 
ATOM      8  C   UNL d   1       6.000   2.810   0.858  0.00  0.00     0.019 C 
ENDBRANCH   1   7
TORSDOF 1
ENDMDL
