MODEL 1
REMARK minimizedAffinity 8.79238701
REMARK minimizedRMSD -1
REMARK  1 active torsions:
REMARK  status: ('A' for Active; 'I' for Inactive)
REMARK    1  A    between atoms: C1_2  and  C2_3 
ROOT
ATOM      1  C2  UNL d   1      -3.261   5.018  -1.024  0.00  0.00    -0.077 A 
ATOM      2  C3  UNL d   1      -4.020   5.999  -1.678  0.00  0.00     0.002 A 
ATOM      3  C4  UNL d   1      -5.383   5.801  -1.905  0.00  0.00     0.002 A 
ATOM      4  C5  UNL d   1      -5.999   4.627  -1.479  0.00  0.00    -0.004 A 
ATOM      5  C6  UNL d   1      -5.253   3.645  -0.829  0.00  0.00     0.002 A 
ATOM      6  C7  UNL d   1      -3.890   3.840  -0.602  0.00  0.00     0.002 A 
ENDROOT
BRANCH   1   7
ATOM      7  C1  UNL d   1      -1.801   5.251  -0.733  0.00  0.00     0.055 C 
ATOM      8  C   UNL d   1      -1.455   4.875   0.700  0.00  0.00     0.019 C 
ENDBRANCH   1   7
TORSDOF 1
ENDMDL
