MODEL 1
REMARK minimizedAffinity -0.0116339866
REMARK minimizedRMSD -1
REMARK  1 active torsions:
REMARK  status: ('A' for Active; 'I' for Inactive)
REMARK    1  A    between atoms: C1_2  and  C2_3 
ROOT
ATOM      1  C2  UNL d   1       4.933   3.978   2.475  0.00  0.00    -0.077 A 
ATOM      2  C3  UNL d   1       5.448   5.263   2.252  0.00  0.00     0.002 A 
ATOM      3  C4  UNL d   1       5.109   5.969   1.097  0.00  0.00     0.002 A 
ATOM      4  C5  UNL d   1       4.251   5.401   0.157  0.00  0.00    -0.004 A 
ATOM      5  C6  UNL d   1       3.736   4.123   0.368  0.00  0.00     0.002 A 
ATOM      6  C7  UNL d   1       4.074   3.415   1.522  0.00  0.00     0.002 A 
ENDROOT
BRANCH   1   7
ATOM      7  C1  UNL d   1       5.258   3.235   3.744  0.00  0.00     0.055 C 
ATOM      8  C   UNL d   1       6.000   4.124   4.732  0.00  0.00     0.019 C 
ENDBRANCH   1   7
TORSDOF 1
ENDMDL
