MODEL 1
REMARK minimizedAffinity 2.31582999
REMARK minimizedRMSD -1
REMARK  1 active torsions:
REMARK  status: ('A' for Active; 'I' for Inactive)
REMARK    1  A    between atoms: C1_2  and  C2_3 
ROOT
ATOM      1  C2  UNL d   1       1.494  -1.080   4.920  0.00  0.00    -0.077 A 
ATOM      2  C3  UNL d   1       0.755   0.063   5.259  0.00  0.00     0.002 A 
ATOM      3  C4  UNL d   1       0.010   0.736   4.289  0.00  0.00     0.002 A 
ATOM      4  C5  UNL d   1      -0.007   0.273   2.976  0.00  0.00    -0.004 A 
ATOM      5  C6  UNL d   1       0.725  -0.861   2.628  0.00  0.00     0.002 A 
ATOM      6  C7  UNL d   1       1.472  -1.535   3.595  0.00  0.00     0.002 A 
ENDROOT
BRANCH   1   7
ATOM      7  C1  UNL d   1       2.258  -1.836   5.975  0.00  0.00     0.055 C 
ATOM      8  C   UNL d   1       3.723  -1.424   5.999  0.00  0.00     0.019 C 
ENDBRANCH   1   7
TORSDOF 1
ENDMDL
