MODEL 1
REMARK minimizedAffinity 12.344429
REMARK minimizedRMSD -1
REMARK  1 active torsions:
REMARK  status: ('A' for Active; 'I' for Inactive)
REMARK    1  A    between atoms: C1_2  and  C2_3 
ROOT
ATOM      1  C2  UNL d   1       1.898  -1.285   3.281  0.00  0.00    -0.077 A 
ATOM      2  C3  UNL d   1       1.610  -0.001   3.764  0.00  0.00     0.002 A 
ATOM      3  C4  UNL d   1       0.782   0.857   3.038  0.00  0.00     0.002 A 
ATOM      4  C5  UNL d   1       0.232   0.440   1.827  0.00  0.00    -0.004 A 
ATOM      5  C6  UNL d   1       0.514  -0.835   1.338  0.00  0.00     0.002 A 
ATOM      6  C7  UNL d   1       1.343  -1.694   2.061  0.00  0.00     0.002 A 
ENDROOT
BRANCH   1   7
ATOM      7  C1  UNL d   1       2.751  -2.230   4.086  0.00  0.00     0.055 C 
ATOM      8  C   UNL d   1       1.896  -3.211   4.876  0.00  0.00     0.019 C 
ENDBRANCH   1   7
TORSDOF 1
ENDMDL
