MODEL 1
REMARK minimizedAffinity 13.2457495
REMARK minimizedRMSD -1
REMARK  1 active torsions:
REMARK  status: ('A' for Active; 'I' for Inactive)
REMARK    1  A    between atoms: C1_2  and  C2_3 
ROOT
ATOM      1  C2  UNL d   1      -0.008  -3.254  -5.839  0.00  0.00    -0.077 A 
ATOM      2  C3  UNL d   1       1.043  -4.175  -5.726  0.00  0.00     0.002 A 
ATOM      3  C4  UNL d   1       0.775  -5.542  -5.623  0.00  0.00     0.002 A 
ATOM      4  C5  UNL d   1      -0.541  -5.999  -5.637  0.00  0.00    -0.004 A 
ATOM      5  C6  UNL d   1      -1.592  -5.091  -5.747  0.00  0.00     0.002 A 
ATOM      6  C7  UNL d   1      -1.327  -3.724  -5.849  0.00  0.00     0.002 A 
ENDROOT
BRANCH   1   7
ATOM      7  C1  UNL d   1       0.280  -1.784  -6.000  0.00  0.00     0.055 C 
ATOM      8  C   UNL d   1       0.685  -1.152  -4.677  0.00  0.00     0.019 C 
ENDBRANCH   1   7
TORSDOF 1
ENDMDL
