MODEL 1
REMARK minimizedAffinity 12.6400156
REMARK minimizedRMSD -1
REMARK  1 active torsions:
REMARK  status: ('A' for Active; 'I' for Inactive)
REMARK    1  A    between atoms: C1_2  and  C2_3 
ROOT
ATOM      1  C2  UNL d   1      -1.120  -3.267  -3.752  0.00  0.00    -0.077 A 
ATOM      2  C3  UNL d   1      -1.115  -3.685  -5.090  0.00  0.00     0.002 A 
ATOM      3  C4  UNL d   1      -1.122  -5.045  -5.405  0.00  0.00     0.002 A 
ATOM      4  C5  UNL d   1      -1.138  -5.998  -4.388  0.00  0.00    -0.004 A 
ATOM      5  C6  UNL d   1      -1.141  -5.592  -3.054  0.00  0.00     0.002 A 
ATOM      6  C7  UNL d   1      -1.133  -4.233  -2.737  0.00  0.00     0.002 A 
ENDROOT
BRANCH   1   7
ATOM      7  C1  UNL d   1      -1.163  -1.801  -3.410  0.00  0.00     0.055 C 
ATOM      8  C   UNL d   1      -0.278  -0.989  -4.345  0.00  0.00     0.019 C 
ENDBRANCH   1   7
TORSDOF 1
ENDMDL
