MODEL 1
REMARK minimizedAffinity 1.73782492
REMARK minimizedRMSD -1
REMARK  2 active torsions:
REMARK  status: ('A' for Active; 'I' for Inactive)
REMARK    1  A    between atoms: C2'_3  and  C1'_4 
REMARK    2  A    between atoms: C1'_4  and  C1_5 
ROOT
ATOM      1  C1  I4B d   1      -0.439  -2.022   3.608  0.00  0.00    -0.075 A 
ATOM      2  C2  I4B d   1      -0.045  -1.508   2.398  0.00  0.00     0.003 A 
ATOM      3  C3  I4B d   1       1.314  -1.568   2.006  0.00  0.00     0.002 A 
ATOM      4  C4  I4B d   1       2.248  -2.101   2.872  0.00  0.00    -0.004 A 
ATOM      5  C5  I4B d   1       1.843  -2.641   4.089  0.00  0.00     0.002 A 
ATOM      6  C6  I4B d   1       0.490  -2.613   4.455  0.00  0.00     0.003 A 
ENDROOT
BRANCH   1   7
ATOM      7  C1' I4B d   1      -1.878  -1.912   4.004  0.00  0.00     0.060 C 
BRANCH   7   8
ATOM      8  C2' I4B d   1      -1.946  -1.900   5.517  0.00  0.00    -0.013 C 
ATOM      9  C4' I4B d   1      -3.249  -1.319   6.000  0.00  0.00     0.013 C 
ATOM     10  C3' I4B d   1      -1.770  -3.309   6.000  0.00  0.00     0.013 C 
ENDBRANCH   7   8
ENDBRANCH   1   7
TORSDOF 2
ENDMDL
