MODEL 1
REMARK minimizedAffinity 0.0723020583
REMARK minimizedRMSD -1
REMARK  2 active torsions:
REMARK  status: ('A' for Active; 'I' for Inactive)
REMARK    1  A    between atoms: C2'_3  and  C1'_4 
REMARK    2  A    between atoms: C1'_4  and  C1_5 
ROOT
ATOM      1  C1  I4B d   1       0.155  -1.105  -2.222  0.00  0.00    -0.075 A 
ATOM      2  C2  I4B d   1       0.492  -1.250  -0.900  0.00  0.00     0.003 A 
ATOM      3  C3  I4B d   1       0.658  -0.110  -0.077  0.00  0.00     0.002 A 
ATOM      4  C4  I4B d   1       0.530   1.149  -0.626  0.00  0.00    -0.004 A 
ATOM      5  C5  I4B d   1       0.166   1.295  -1.962  0.00  0.00     0.002 A 
ATOM      6  C6  I4B d   1      -0.034   0.161  -2.762  0.00  0.00     0.003 A 
ENDROOT
BRANCH   1   7
ATOM      7  C1' I4B d   1       0.020  -2.329  -3.071  0.00  0.00     0.060 C 
BRANCH   7   8
ATOM      8  C2' I4B d   1       0.646  -3.488  -2.322  0.00  0.00    -0.013 C 
ATOM      9  C4' I4B d   1      -0.304  -4.651  -2.223  0.00  0.00     0.013 C 
ATOM     10  C3' I4B d   1       1.905  -3.876  -3.039  0.00  0.00     0.013 C 
ENDBRANCH   7   8
ENDBRANCH   1   7
TORSDOF 2
ENDMDL
