MODEL 1
REMARK minimizedAffinity 0.958956659
REMARK minimizedRMSD -1
REMARK  2 active torsions:
REMARK  status: ('A' for Active; 'I' for Inactive)
REMARK    1  A    between atoms: C2'_3  and  C1'_4 
REMARK    2  A    between atoms: C1'_4  and  C1_5 
ROOT
ATOM      1  C1  I4B d   1       0.333   1.905   3.290  0.00  0.00    -0.075 A 
ATOM      2  C2  I4B d   1      -0.063   2.306   4.542  0.00  0.00     0.003 A 
ATOM      3  C3  I4B d   1       0.114   3.650   4.950  0.00  0.00     0.002 A 
ATOM      4  C4  I4B d   1       0.732   4.543   4.098  0.00  0.00    -0.004 A 
ATOM      5  C5  I4B d   1       1.111   4.141   2.820  0.00  0.00     0.002 A 
ATOM      6  C6  I4B d   1       0.900   2.817   2.409  0.00  0.00     0.003 A 
ENDROOT
BRANCH   1   7
ATOM      7  C1' I4B d   1       0.162   0.470   2.905  0.00  0.00     0.060 C 
BRANCH   7   8
ATOM      8  C2' I4B d   1      -0.359   0.428   1.482  0.00  0.00    -0.013 C 
ATOM      9  C4' I4B d   1       0.773   0.377   0.489  0.00  0.00     0.013 C 
ATOM     10  C3' I4B d   1      -1.249  -0.772   1.351  0.00  0.00     0.013 C 
ENDBRANCH   7   8
ENDBRANCH   1   7
TORSDOF 2
ENDMDL
