MODEL 1
REMARK minimizedAffinity 11.9005795
REMARK minimizedRMSD -1
REMARK  2 active torsions:
REMARK  status: ('A' for Active; 'I' for Inactive)
REMARK    1  A    between atoms: C2'_3  and  C1'_4 
REMARK    2  A    between atoms: C1'_4  and  C1_5 
ROOT
ATOM      1  C1  I4B d   1       0.566  -0.838   3.714  0.00  0.00    -0.075 A 
ATOM      2  C2  I4B d   1      -0.477  -1.362   4.437  0.00  0.00     0.003 A 
ATOM      3  C3  I4B d   1      -0.249  -2.413   5.358  0.00  0.00     0.002 A 
ATOM      4  C4  I4B d   1       1.019  -2.940   5.488  0.00  0.00    -0.004 A 
ATOM      5  C5  I4B d   1       2.080  -2.392   4.772  0.00  0.00     0.002 A 
ATOM      6  C6  I4B d   1       1.855  -1.326   3.888  0.00  0.00     0.003 A 
ENDROOT
BRANCH   1   7
ATOM      7  C1' I4B d   1       0.285   0.249   2.726  0.00  0.00     0.060 C 
BRANCH   7   8
ATOM      8  C2' I4B d   1       0.073  -0.395   1.371  0.00  0.00    -0.013 C 
ATOM      9  C4' I4B d   1      -1.353  -0.850   1.201  0.00  0.00     0.013 C 
ATOM     10  C3' I4B d   1       0.452   0.604   0.319  0.00  0.00     0.013 C 
ENDBRANCH   7   8
ENDBRANCH   1   7
TORSDOF 2
ENDMDL
