MODEL 1
REMARK minimizedAffinity 0.364821792
REMARK minimizedRMSD -1
REMARK  2 active torsions:
REMARK  status: ('A' for Active; 'I' for Inactive)
REMARK    1  A    between atoms: C2'_3  and  C1'_4 
REMARK    2  A    between atoms: C1'_4  and  C1_5 
ROOT
ATOM      1  C1  I4B d   1      -5.432   2.160  -5.348  0.00  0.00    -0.075 A 
ATOM      2  C2  I4B d   1      -4.353   2.195  -4.500  0.00  0.00     0.003 A 
ATOM      3  C3  I4B d   1      -3.814   0.993  -3.982  0.00  0.00     0.002 A 
ATOM      4  C4  I4B d   1      -4.411  -0.211  -4.296  0.00  0.00    -0.004 A 
ATOM      5  C5  I4B d   1      -5.491  -0.246  -5.174  0.00  0.00     0.002 A 
ATOM      6  C6  I4B d   1      -5.997   0.945  -5.713  0.00  0.00     0.003 A 
ENDROOT
BRANCH   1   7
ATOM      7  C1' I4B d   1      -5.997   3.451  -5.850  0.00  0.00     0.060 C 
BRANCH   7   8
ATOM      8  C2' I4B d   1      -5.259   4.582  -5.163  0.00  0.00    -0.013 C 
ATOM      9  C4' I4B d   1      -5.282   5.835  -5.998  0.00  0.00     0.013 C 
ATOM     10  C3' I4B d   1      -5.901   4.810  -3.827  0.00  0.00     0.013 C 
ENDBRANCH   7   8
ENDBRANCH   1   7
TORSDOF 2
ENDMDL
