MODEL 1
REMARK minimizedAffinity 5.48936653
REMARK minimizedRMSD -1
REMARK  2 active torsions:
REMARK  status: ('A' for Active; 'I' for Inactive)
REMARK    1  A    between atoms: C2'_3  and  C1'_4 
REMARK    2  A    between atoms: C1'_4  and  C1_5 
ROOT
ATOM      1  C1  I4B d   1       0.319   3.556   2.261  0.00  0.00    -0.075 A 
ATOM      2  C2  I4B d   1       0.765   3.621   0.965  0.00  0.00     0.003 A 
ATOM      3  C3  I4B d   1       0.808   4.863   0.286  0.00  0.00     0.002 A 
ATOM      4  C4  I4B d   1       0.349   5.999   0.921  0.00  0.00    -0.004 A 
ATOM      5  C5  I4B d   1      -0.082   5.936   2.242  0.00  0.00     0.002 A 
ATOM      6  C6  I4B d   1      -0.086   4.709   2.922  0.00  0.00     0.003 A 
ENDROOT
BRANCH   1   7
ATOM      7  C1' I4B d   1       0.256   2.223   2.937  0.00  0.00     0.060 C 
BRANCH   7   8
ATOM      8  C2' I4B d   1       0.304   1.154   1.864  0.00  0.00    -0.013 C 
ATOM      9  C4' I4B d   1       0.325  -0.225   2.470  0.00  0.00     0.013 C 
ATOM     10  C3' I4B d   1      -0.889   1.337   0.975  0.00  0.00     0.013 C 
ENDBRANCH   7   8
ENDBRANCH   1   7
TORSDOF 2
ENDMDL
