MODEL 1
REMARK minimizedAffinity 7.86364937
REMARK minimizedRMSD -1
REMARK  2 active torsions:
REMARK  status: ('A' for Active; 'I' for Inactive)
REMARK    1  A    between atoms: C2'_3  and  C1'_4 
REMARK    2  A    between atoms: C1'_4  and  C1_5 
ROOT
ATOM      1  C1  I4B d   1      -3.536   3.771  -4.663  0.00  0.00    -0.075 A 
ATOM      2  C2  I4B d   1      -4.344   2.662  -4.646  0.00  0.00     0.003 A 
ATOM      3  C3  I4B d   1      -5.585   2.674  -5.326  0.00  0.00     0.002 A 
ATOM      4  C4  I4B d   1      -5.999   3.826  -5.964  0.00  0.00    -0.004 A 
ATOM      5  C5  I4B d   1      -5.169   4.942  -6.000  0.00  0.00     0.002 A 
ATOM      6  C6  I4B d   1      -3.923   4.911  -5.355  0.00  0.00     0.003 A 
ENDROOT
BRANCH   1   7
ATOM      7  C1' I4B d   1      -2.246   3.735  -3.906  0.00  0.00     0.060 C 
BRANCH   7   8
ATOM      8  C2' I4B d   1      -1.861   2.283  -3.709  0.00  0.00    -0.013 C 
ATOM      9  C4' I4B d   1      -0.467   2.159  -3.153  0.00  0.00     0.013 C 
ATOM     10  C3' I4B d   1      -2.867   1.658  -2.790  0.00  0.00     0.013 C 
ENDBRANCH   7   8
ENDBRANCH   1   7
TORSDOF 2
ENDMDL
