MODEL 1
REMARK minimizedAffinity -2.44122219
REMARK minimizedRMSD -1
REMARK  2 active torsions:
REMARK  status: ('A' for Active; 'I' for Inactive)
REMARK    1  A    between atoms: C2'_3  and  C1'_4 
REMARK    2  A    between atoms: C1'_4  and  C1_5 
ROOT
ATOM      1  C1  I4B d   1      -4.615   3.111  -2.998  0.00  0.00    -0.075 A 
ATOM      2  C2  I4B d   1      -4.012   2.179  -2.190  0.00  0.00     0.003 A 
ATOM      3  C3  I4B d   1      -4.411   2.043  -0.839  0.00  0.00     0.002 A 
ATOM      4  C4  I4B d   1      -5.374   2.888  -0.326  0.00  0.00    -0.004 A 
ATOM      5  C5  I4B d   1      -5.999   3.817  -1.152  0.00  0.00     0.002 A 
ATOM      6  C6  I4B d   1      -5.626   3.922  -2.500  0.00  0.00     0.003 A 
ENDROOT
BRANCH   1   7
ATOM      7  C1' I4B d   1      -4.146   3.250  -4.412  0.00  0.00     0.060 C 
BRANCH   7   8
ATOM      8  C2' I4B d   1      -5.151   4.106  -5.155  0.00  0.00    -0.013 C 
ATOM      9  C4' I4B d   1      -4.463   5.146  -6.000  0.00  0.00     0.013 C 
ATOM     10  C3' I4B d   1      -6.000   3.200  -5.996  0.00  0.00     0.013 C 
ENDBRANCH   7   8
ENDBRANCH   1   7
TORSDOF 2
ENDMDL
