MODEL 1
REMARK minimizedAffinity -0.0374440439
REMARK minimizedRMSD -1
REMARK  2 active torsions:
REMARK  status: ('A' for Active; 'I' for Inactive)
REMARK    1  A    between atoms: C2'_3  and  C1'_4 
REMARK    2  A    between atoms: C1'_4  and  C1_5 
ROOT
ATOM      1  C1  I4B d   1       0.144   2.268   0.519  0.00  0.00    -0.075 A 
ATOM      2  C2  I4B d   1       0.502   2.705  -0.732  0.00  0.00     0.003 A 
ATOM      3  C3  I4B d   1       1.049   1.800  -1.673  0.00  0.00     0.002 A 
ATOM      4  C4  I4B d   1       1.266   0.488  -1.308  0.00  0.00    -0.004 A 
ATOM      5  C5  I4B d   1       0.882   0.041  -0.046  0.00  0.00     0.002 A 
ATOM      6  C6  I4B d   1       0.306   0.934   0.869  0.00  0.00     0.003 A 
ENDROOT
BRANCH   1   7
ATOM      7  C1' I4B d   1      -0.400   3.258   1.500  0.00  0.00     0.060 C 
BRANCH   7   8
ATOM      8  C2' I4B d   1       0.693   4.262   1.805  0.00  0.00    -0.013 C 
ATOM      9  C4' I4B d   1       0.232   5.670   1.532  0.00  0.00     0.013 C 
ATOM     10  C3' I4B d   1       1.090   4.091   3.241  0.00  0.00     0.013 C 
ENDBRANCH   7   8
ENDBRANCH   1   7
TORSDOF 2
ENDMDL
