MODEL 1
REMARK minimizedAffinity 0.689663708
REMARK minimizedRMSD -1
REMARK  2 active torsions:
REMARK  status: ('A' for Active; 'I' for Inactive)
REMARK    1  A    between atoms: C2'_3  and  C1'_4 
REMARK    2  A    between atoms: C1'_4  and  C1_5 
ROOT
ATOM      1  C1  I4B d   1      -4.389   1.933  -3.724  0.00  0.00    -0.075 A 
ATOM      2  C2  I4B d   1      -4.636   0.724  -4.325  0.00  0.00     0.003 A 
ATOM      3  C3  I4B d   1      -5.430   0.658  -5.496  0.00  0.00     0.002 A 
ATOM      4  C4  I4B d   1      -5.994   1.812  -6.000  0.00  0.00    -0.004 A 
ATOM      5  C5  I4B d   1      -5.724   3.040  -5.403  0.00  0.00     0.002 A 
ATOM      6  C6  I4B d   1      -4.907   3.103  -4.265  0.00  0.00     0.003 A 
ENDROOT
BRANCH   1   7
ATOM      7  C1' I4B d   1      -3.574   1.962  -2.470  0.00  0.00     0.060 C 
BRANCH   7   8
ATOM      8  C2' I4B d   1      -4.500   1.676  -1.305  0.00  0.00    -0.013 C 
ATOM      9  C4' I4B d   1      -3.780   1.816   0.010  0.00  0.00     0.013 C 
ATOM     10  C3' I4B d   1      -5.659   2.624  -1.392  0.00  0.00     0.013 C 
ENDBRANCH   7   8
ENDBRANCH   1   7
TORSDOF 2
ENDMDL
