MODEL 1
REMARK minimizedAffinity -3.99579906
REMARK minimizedRMSD -1
REMARK  2 active torsions:
REMARK  status: ('A' for Active; 'I' for Inactive)
REMARK    1  A    between atoms: C1_2  and  C2_3 
REMARK    2  A    between atoms: C2_3  and  C3_4 
ROOT
ATOM      1  C3  UNL d   1      -0.120   0.004  -1.855  0.00  0.00    -0.075 A 
ATOM      2  C4  UNL d   1       0.884   0.099  -0.880  0.00  0.00     0.002 A 
ATOM      3  C5  UNL d   1       0.711  -0.486   0.375  0.00  0.00     0.002 A 
ATOM      4  C6  UNL d   1      -0.469  -1.163   0.674  0.00  0.00    -0.004 A 
ATOM      5  C7  UNL d   1      -1.480  -1.249  -0.281  0.00  0.00     0.002 A 
ATOM      6  C8  UNL d   1      -1.307  -0.669  -1.539  0.00  0.00     0.002 A 
ENDROOT
BRANCH   1   7
ATOM      7  C2  UNL d   1       0.074   0.609  -3.224  0.00  0.00     0.056 C 
BRANCH   7   8
ATOM      8  C1  UNL d   1       0.950  -0.230  -4.160  0.00  0.00     0.007 C 
ATOM      9  C   UNL d   1       1.283   0.477  -5.467  0.00  0.00     0.009 C 
ENDBRANCH   7   8
ENDBRANCH   1   7
TORSDOF 2
ENDMDL
