MODEL 1
REMARK minimizedAffinity -5.39680529
REMARK minimizedRMSD -1
REMARK  2 active torsions:
REMARK  status: ('A' for Active; 'I' for Inactive)
REMARK    1  A    between atoms: C1_2  and  C2_3 
REMARK    2  A    between atoms: C2_3  and  C3_4 
ROOT
ATOM      1  C3  UNL d   1      -0.750  -0.068  -0.787  0.00  0.00    -0.075 A 
ATOM      2  C4  UNL d   1      -1.039  -0.824   0.358  0.00  0.00     0.002 A 
ATOM      3  C5  UNL d   1      -2.224  -1.557   0.441  0.00  0.00     0.002 A 
ATOM      4  C6  UNL d   1      -3.136  -1.535  -0.611  0.00  0.00    -0.004 A 
ATOM      5  C7  UNL d   1      -2.866  -0.774  -1.746  0.00  0.00     0.002 A 
ATOM      6  C8  UNL d   1      -1.680  -0.043  -1.835  0.00  0.00     0.002 A 
ENDROOT
BRANCH   1   7
ATOM      7  C2  UNL d   1       0.544   0.704  -0.896  0.00  0.00     0.056 C 
BRANCH   7   8
ATOM      8  C1  UNL d   1       1.481   0.523   0.302  0.00  0.00     0.007 C 
ATOM      9  C   UNL d   1       2.423   1.701   0.511  0.00  0.00     0.009 C 
ENDBRANCH   7   8
ENDBRANCH   1   7
TORSDOF 2
ENDMDL
