MODEL 1
REMARK minimizedAffinity -0.575983047
REMARK minimizedRMSD -1
REMARK  2 active torsions:
REMARK  status: ('A' for Active; 'I' for Inactive)
REMARK    1  A    between atoms: C1_2  and  C2_3 
REMARK    2  A    between atoms: C2_3  and  C3_4 
ROOT
ATOM      1  C3  UNL d   1      -0.004   0.873   0.688  0.00  0.00    -0.075 A 
ATOM      2  C4  UNL d   1      -1.306   1.255   1.045  0.00  0.00     0.002 A 
ATOM      3  C5  UNL d   1      -2.225   0.306   1.494  0.00  0.00     0.002 A 
ATOM      4  C6  UNL d   1      -1.859  -1.035   1.581  0.00  0.00    -0.004 A 
ATOM      5  C7  UNL d   1      -0.574  -1.429   1.213  0.00  0.00     0.002 A 
ATOM      6  C8  UNL d   1       0.349  -0.481   0.768  0.00  0.00     0.002 A 
ENDROOT
BRANCH   1   7
ATOM      7  C2  UNL d   1       1.004   1.899   0.230  0.00  0.00     0.056 C 
BRANCH   7   8
ATOM      8  C1  UNL d   1       1.823   2.520   1.367  0.00  0.00     0.007 C 
ATOM      9  C   UNL d   1       2.969   3.393   0.874  0.00  0.00     0.009 C 
ENDBRANCH   7   8
ENDBRANCH   1   7
TORSDOF 2
ENDMDL
