MODEL 1
REMARK minimizedAffinity -3.04302812
REMARK minimizedRMSD -1
REMARK  2 active torsions:
REMARK  status: ('A' for Active; 'I' for Inactive)
REMARK    1  A    between atoms: C1_2  and  C2_3 
REMARK    2  A    between atoms: C2_3  and  C3_4 
ROOT
ATOM      1  C3  UNL d   1       4.876   3.459  -1.959  0.00  0.00    -0.075 A 
ATOM      2  C4  UNL d   1       4.849   4.429  -0.947  0.00  0.00     0.002 A 
ATOM      3  C5  UNL d   1       4.023   4.269   0.166  0.00  0.00     0.002 A 
ATOM      4  C6  UNL d   1       3.206   3.146   0.276  0.00  0.00    -0.004 A 
ATOM      5  C7  UNL d   1       3.212   2.184  -0.732  0.00  0.00     0.002 A 
ATOM      6  C8  UNL d   1       4.042   2.339  -1.844  0.00  0.00     0.002 A 
ENDROOT
BRANCH   1   7
ATOM      7  C2  UNL d   1       5.790   3.611  -3.151  0.00  0.00     0.056 C 
BRANCH   7   8
ATOM      8  C1  UNL d   1       5.056   3.684  -4.495  0.00  0.00     0.007 C 
ATOM      9  C   UNL d   1       5.976   4.008  -5.664  0.00  0.00     0.009 C 
ENDBRANCH   7   8
ENDBRANCH   1   7
TORSDOF 2
ENDMDL
