MODEL 1
REMARK minimizedAffinity -5.53418779
REMARK minimizedRMSD -1
REMARK  2 active torsions:
REMARK  status: ('A' for Active; 'I' for Inactive)
REMARK    1  A    between atoms: C1_2  and  C2_3 
REMARK    2  A    between atoms: C2_3  and  C3_4 
ROOT
ATOM      1  C3  UNL d   1       2.402   1.196   0.220  0.00  0.00    -0.075 A 
ATOM      2  C4  UNL d   1       2.848   1.735  -0.995  0.00  0.00     0.002 A 
ATOM      3  C5  UNL d   1       3.705   2.836  -1.009  0.00  0.00     0.002 A 
ATOM      4  C6  UNL d   1       4.118   3.416   0.188  0.00  0.00    -0.004 A 
ATOM      5  C7  UNL d   1       3.668   2.899   1.401  0.00  0.00     0.002 A 
ATOM      6  C8  UNL d   1       2.813   1.795   1.418  0.00  0.00     0.002 A 
ENDROOT
BRANCH   1   7
ATOM      7  C2  UNL d   1       1.497  -0.013   0.243  0.00  0.00     0.056 C 
BRANCH   7   8
ATOM      8  C1  UNL d   1       0.105   0.238  -0.344  0.00  0.00     0.007 C 
ATOM      9  C   UNL d   1      -1.024  -0.125   0.611  0.00  0.00     0.009 C 
ENDBRANCH   7   8
ENDBRANCH   1   7
TORSDOF 2
ENDMDL
