MODEL 1
REMARK minimizedAffinity -5.56560135
REMARK minimizedRMSD -1
REMARK  2 active torsions:
REMARK  status: ('A' for Active; 'I' for Inactive)
REMARK    1  A    between atoms: C1_2  and  C2_3 
REMARK    2  A    between atoms: C2_3  and  C3_4 
ROOT
ATOM      1  C3  UNL d   1      -0.017  -0.111  -0.347  0.00  0.00    -0.075 A 
ATOM      2  C4  UNL d   1      -1.169  -0.368   0.411  0.00  0.00     0.002 A 
ATOM      3  C5  UNL d   1      -2.414  -0.479  -0.208  0.00  0.00     0.002 A 
ATOM      4  C6  UNL d   1      -2.525  -0.324  -1.588  0.00  0.00    -0.004 A 
ATOM      5  C7  UNL d   1      -1.390  -0.052  -2.349  0.00  0.00     0.002 A 
ATOM      6  C8  UNL d   1      -0.142   0.055  -1.733  0.00  0.00     0.002 A 
ENDROOT
BRANCH   1   7
ATOM      7  C2  UNL d   1       1.338  -0.019   0.313  0.00  0.00     0.056 C 
BRANCH   7   8
ATOM      8  C1  UNL d   1       2.099   1.273  -0.001  0.00  0.00     0.007 C 
ATOM      9  C   UNL d   1       2.556   2.019   1.245  0.00  0.00     0.009 C 
ENDBRANCH   7   8
ENDBRANCH   1   7
TORSDOF 2
ENDMDL
