MODEL 1
REMARK minimizedAffinity -6.42981863
REMARK minimizedRMSD -1
REMARK  2 active torsions:
REMARK  status: ('A' for Active; 'I' for Inactive)
REMARK    1  A    between atoms: C1_2  and  C2_3 
REMARK    2  A    between atoms: C2_3  and  C3_4 
ROOT
ATOM      1  C3  UNL d   1       0.071  -0.280   0.121  0.00  0.00    -0.075 A 
ATOM      2  C4  UNL d   1      -0.968  -0.171   1.056  0.00  0.00     0.002 A 
ATOM      3  C5  UNL d   1      -2.299  -0.161   0.638  0.00  0.00     0.002 A 
ATOM      4  C6  UNL d   1      -2.608  -0.250  -0.717  0.00  0.00    -0.004 A 
ATOM      5  C7  UNL d   1      -1.583  -0.342  -1.657  0.00  0.00     0.002 A 
ATOM      6  C8  UNL d   1      -0.250  -0.357  -1.241  0.00  0.00     0.002 A 
ENDROOT
BRANCH   1   7
ATOM      7  C2  UNL d   1       1.512  -0.321   0.568  0.00  0.00     0.056 C 
BRANCH   7   8
ATOM      8  C1  UNL d   1       2.016   0.994   1.172  0.00  0.00     0.007 C 
ATOM      9  C   UNL d   1       2.970   1.749   0.255  0.00  0.00     0.009 C 
ENDBRANCH   7   8
ENDBRANCH   1   7
TORSDOF 2
ENDMDL
