MODEL 1
REMARK minimizedAffinity -3.64642882
REMARK minimizedRMSD -1
REMARK  1 active torsions:
REMARK  status: ('A' for Active; 'I' for Inactive)
REMARK    1  A    between atoms: C1_2  and  C2_3 
ROOT
ATOM      1  C2  UNL d   1       0.410  -1.757  -1.027  0.00  0.00    -0.081 A 
ATOM      2  C3  UNL d   1       1.395  -0.934  -0.467  0.00  0.00     0.006 A 
ATOM      3  C4  UNL d   1       1.065  -0.010   0.528  0.00  0.00     0.002 A 
ATOM      4  C5  UNL d   1      -0.253   0.101   0.984  0.00  0.00    -0.080 A 
ATOM      5  C6  UNL d   1      -0.615   1.067   2.072  0.00  0.00     0.076 C 
ATOM      6  C7  UNL d   1      -1.240  -0.709   0.412  0.00  0.00     0.002 A 
ATOM      7  C8  UNL d   1      -0.911  -1.632  -0.583  0.00  0.00     0.006 A 
ENDROOT
BRANCH   1   8
ATOM      8  C1  UNL d   1       0.775  -2.799  -2.053  0.00  0.00     0.054 C 
ATOM      9  C   UNL d   1       0.199  -4.160  -1.688  0.00  0.00     0.018 C 
ENDBRANCH   1   8
TORSDOF 1
ENDMDL
