MODEL 1
REMARK minimizedAffinity -3.47295117
REMARK minimizedRMSD -1
REMARK  1 active torsions:
REMARK  status: ('A' for Active; 'I' for Inactive)
REMARK    1  A    between atoms: C1_2  and  C2_3 
ROOT
ATOM      1  C2  UNL d   1       0.617  -3.488  -1.568  0.00  0.00    -0.081 A 
ATOM      2  C3  UNL d   1       1.234  -2.853  -0.483  0.00  0.00     0.006 A 
ATOM      3  C4  UNL d   1       1.438  -1.471  -0.494  0.00  0.00     0.002 A 
ATOM      4  C5  UNL d   1       1.021  -0.701  -1.585  0.00  0.00    -0.080 A 
ATOM      5  C6  UNL d   1       1.207   0.788  -1.597  0.00  0.00     0.076 C 
ATOM      6  C7  UNL d   1       0.421  -1.338  -2.676  0.00  0.00     0.002 A 
ATOM      7  C8  UNL d   1       0.218  -2.719  -2.666  0.00  0.00     0.006 A 
ENDROOT
BRANCH   1   8
ATOM      8  C1  UNL d   1       0.338  -4.969  -1.531  0.00  0.00     0.054 C 
ATOM      9  C   UNL d   1       1.059  -5.639  -0.370  0.00  0.00     0.018 C 
ENDBRANCH   1   8
TORSDOF 1
ENDMDL
