MODEL 1
REMARK minimizedAffinity -5.85588455
REMARK minimizedRMSD -1
REMARK  1 active torsions:
REMARK  status: ('A' for Active; 'I' for Inactive)
REMARK    1  A    between atoms: C1_2  and  C2_3 
ROOT
ATOM      1  C2  UNL d   1       1.858  -4.646   0.450  0.00  0.00    -0.081 A 
ATOM      2  C3  UNL d   1       2.249  -3.379  -0.001  0.00  0.00     0.006 A 
ATOM      3  C4  UNL d   1       1.527  -2.731  -1.006  0.00  0.00     0.002 A 
ATOM      4  C5  UNL d   1       0.397  -3.334  -1.570  0.00  0.00    -0.080 A 
ATOM      5  C6  UNL d   1      -0.405  -2.635  -2.627  0.00  0.00     0.076 C 
ATOM      6  C7  UNL d   1       0.016  -4.607  -1.131  0.00  0.00     0.002 A 
ATOM      7  C8  UNL d   1       0.739  -5.256  -0.128  0.00  0.00     0.006 A 
ENDROOT
BRANCH   1   8
ATOM      8  C1  UNL d   1       2.597  -5.320   1.578  0.00  0.00     0.054 C 
ATOM      9  C   UNL d   1       3.864  -6.000   1.081  0.00  0.00     0.018 C 
ENDBRANCH   1   8
TORSDOF 1
ENDMDL
