MODEL 1
REMARK minimizedAffinity -3.76419067
REMARK minimizedRMSD -1
REMARK  1 active torsions:
REMARK  status: ('A' for Active; 'I' for Inactive)
REMARK    1  A    between atoms: C1_2  and  C2_3 
ROOT
ATOM      1  C2  UNL d   1       0.586  -0.371  -0.059  0.00  0.00    -0.081 A 
ATOM      2  C3  UNL d   1      -0.383   0.100  -0.954  0.00  0.00     0.006 A 
ATOM      3  C4  UNL d   1      -1.422   0.920  -0.506  0.00  0.00     0.002 A 
ATOM      4  C5  UNL d   1      -1.505   1.290   0.840  0.00  0.00    -0.080 A 
ATOM      5  C6  UNL d   1      -2.597   2.194   1.328  0.00  0.00     0.076 C 
ATOM      6  C7  UNL d   1      -0.546   0.806   1.738  0.00  0.00     0.002 A 
ATOM      7  C8  UNL d   1       0.492  -0.015   1.291  0.00  0.00     0.006 A 
ENDROOT
BRANCH   1   8
ATOM      8  C1  UNL d   1       1.743  -1.202  -0.550  0.00  0.00     0.054 C 
ATOM      9  C   UNL d   1       1.260  -2.429  -1.310  0.00  0.00     0.018 C 
ENDBRANCH   1   8
TORSDOF 1
ENDMDL
