MODEL 1
REMARK minimizedAffinity -2.98812175
REMARK minimizedRMSD -1
REMARK  1 active torsions:
REMARK  status: ('A' for Active; 'I' for Inactive)
REMARK    1  A    between atoms: C1_2  and  C2_3 
ROOT
ATOM      1  C2  UNL d   1       0.567  -1.059  -0.816  0.00  0.00    -0.081 A 
ATOM      2  C3  UNL d   1       1.048   0.194  -0.416  0.00  0.00     0.006 A 
ATOM      3  C4  UNL d   1       0.193   1.120   0.186  0.00  0.00     0.002 A 
ATOM      4  C5  UNL d   1      -1.153   0.807   0.405  0.00  0.00    -0.080 A 
ATOM      5  C6  UNL d   1      -2.074   1.781   1.077  0.00  0.00     0.076 C 
ATOM      6  C7  UNL d   1      -1.637  -0.438  -0.011  0.00  0.00     0.002 A 
ATOM      7  C8  UNL d   1      -0.783  -1.364  -0.614  0.00  0.00     0.006 A 
ENDROOT
BRANCH   1   8
ATOM      8  C1  UNL d   1       1.501  -2.085  -1.407  0.00  0.00     0.054 C 
ATOM      9  C   UNL d   1       0.944  -2.659  -2.702  0.00  0.00     0.018 C 
ENDBRANCH   1   8
TORSDOF 1
ENDMDL
