MODEL 1
REMARK minimizedAffinity -6.03342485
REMARK minimizedRMSD -1
REMARK  1 active torsions:
REMARK  status: ('A' for Active; 'I' for Inactive)
REMARK    1  A    between atoms: C1_2  and  C2_3 
ROOT
ATOM      1  C2  UNL d   1       0.566   0.381   0.053  0.00  0.00    -0.081 A 
ATOM      2  C3  UNL d   1       0.369   1.544  -0.702  0.00  0.00     0.006 A 
ATOM      3  C4  UNL d   1      -0.531   2.522  -0.274  0.00  0.00     0.002 A 
ATOM      4  C5  UNL d   1      -1.243   2.359   0.919  0.00  0.00    -0.080 A 
ATOM      5  C6  UNL d   1      -2.190   3.416   1.406  0.00  0.00     0.076 C 
ATOM      6  C7  UNL d   1      -1.059   1.189   1.665  0.00  0.00     0.002 A 
ATOM      7  C8  UNL d   1      -0.160   0.210   1.237  0.00  0.00     0.006 A 
ENDROOT
BRANCH   1   8
ATOM      8  C1  UNL d   1       1.583  -0.646  -0.373  0.00  0.00     0.054 C 
ATOM      9  C   UNL d   1       0.916  -1.847  -1.027  0.00  0.00     0.018 C 
ENDBRANCH   1   8
TORSDOF 1
ENDMDL
