MODEL 1
REMARK minimizedAffinity 1.0484308
REMARK minimizedRMSD -1
REMARK  1 active torsions:
REMARK  status: ('A' for Active; 'I' for Inactive)
REMARK    1  A    between atoms: C1_2  and  C2_3 
ROOT
ATOM      1  C2  UNL d   1      -0.290   0.776  -1.411  0.00  0.00    -0.081 A 
ATOM      2  C3  UNL d   1      -1.377   1.029  -2.257  0.00  0.00     0.006 A 
ATOM      3  C4  UNL d   1      -1.343   0.627  -3.594  0.00  0.00     0.002 A 
ATOM      4  C5  UNL d   1      -0.226  -0.042  -4.106  0.00  0.00    -0.080 A 
ATOM      5  C6  UNL d   1      -0.189  -0.506  -5.531  0.00  0.00     0.076 C 
ATOM      6  C7  UNL d   1       0.867  -0.279  -3.266  0.00  0.00     0.002 A 
ATOM      7  C8  UNL d   1       0.834   0.124  -1.929  0.00  0.00     0.006 A 
ENDROOT
BRANCH   1   8
ATOM      8  C1  UNL d   1      -0.350   1.152   0.048  0.00  0.00     0.054 C 
ATOM      9  C   UNL d   1      -0.650  -0.060   0.919  0.00  0.00     0.018 C 
ENDBRANCH   1   8
TORSDOF 1
ENDMDL
