MODEL 1
REMARK minimizedAffinity 1.30843067
REMARK minimizedRMSD -1
REMARK  1 active torsions:
REMARK  status: ('A' for Active; 'I' for Inactive)
REMARK    1  A    between atoms: C1_2  and  C2_3 
ROOT
ATOM      1  C2  UNL d   1       0.375  -3.727  -1.519  0.00  0.00    -0.081 A 
ATOM      2  C3  UNL d   1       1.179  -2.996  -0.634  0.00  0.00     0.006 A 
ATOM      3  C4  UNL d   1       2.016  -3.654   0.270  0.00  0.00     0.002 A 
ATOM      4  C5  UNL d   1       2.070  -5.051   0.300  0.00  0.00    -0.080 A 
ATOM      5  C6  UNL d   1       2.988  -5.769   1.245  0.00  0.00     0.076 C 
ATOM      6  C7  UNL d   1       1.255  -5.782  -0.571  0.00  0.00     0.002 A 
ATOM      7  C8  UNL d   1       0.417  -5.125  -1.475  0.00  0.00     0.006 A 
ENDROOT
BRANCH   1   8
ATOM      8  C1  UNL d   1      -0.481  -3.021  -2.539  0.00  0.00     0.054 C 
ATOM      9  C   UNL d   1      -0.448  -3.739  -3.880  0.00  0.00     0.018 C 
ENDBRANCH   1   8
TORSDOF 1
ENDMDL
