MODEL 1
REMARK minimizedAffinity -0.147545561
REMARK minimizedRMSD -1
REMARK  1 active torsions:
REMARK  status: ('A' for Active; 'I' for Inactive)
REMARK    1  A    between atoms: C1_2  and  C2_3 
ROOT
ATOM      1  C2  UNL d   1      -1.199   1.592  -0.825  0.00  0.00    -0.081 A 
ATOM      2  C3  UNL d   1      -1.852   2.258   0.219  0.00  0.00     0.006 A 
ATOM      3  C4  UNL d   1      -1.583   1.925   1.549  0.00  0.00     0.002 A 
ATOM      4  C5  UNL d   1      -0.652   0.927   1.857  0.00  0.00    -0.080 A 
ATOM      5  C6  UNL d   1      -0.333   0.581   3.281  0.00  0.00     0.076 C 
ATOM      6  C7  UNL d   1      -0.013   0.250   0.813  0.00  0.00     0.002 A 
ATOM      7  C8  UNL d   1      -0.281   0.582  -0.516  0.00  0.00     0.006 A 
ENDROOT
BRANCH   1   8
ATOM      8  C1  UNL d   1      -1.438   1.993  -2.258  0.00  0.00     0.054 C 
ATOM      9  C   UNL d   1      -0.708   1.068  -3.221  0.00  0.00     0.018 C 
ENDBRANCH   1   8
TORSDOF 1
ENDMDL
