MODEL 1
REMARK minimizedAffinity 6.64165545
REMARK minimizedRMSD -1
REMARK  1 active torsions:
REMARK  status: ('A' for Active; 'I' for Inactive)
REMARK    1  A    between atoms: C1_2  and  C2_3 
ROOT
ATOM      1  C2  UNL d   1       2.546  -5.361   1.098  0.00  0.00    -0.081 A 
ATOM      2  C3  UNL d   1       1.373  -6.000   0.678  0.00  0.00     0.006 A 
ATOM      3  C4  UNL d   1       0.639  -5.496  -0.399  0.00  0.00     0.002 A 
ATOM      4  C5  UNL d   1       1.070  -4.351  -1.078  0.00  0.00    -0.080 A 
ATOM      5  C6  UNL d   1       0.307  -3.818  -2.254  0.00  0.00     0.076 C 
ATOM      6  C7  UNL d   1       2.232  -3.703  -0.647  0.00  0.00     0.002 A 
ATOM      7  C8  UNL d   1       2.966  -4.205   0.430  0.00  0.00     0.006 A 
ENDROOT
BRANCH   1   8
ATOM      8  C1  UNL d   1       3.375  -5.938   2.217  0.00  0.00     0.054 C 
ATOM      9  C   UNL d   1       2.676  -5.782   3.560  0.00  0.00     0.018 C 
ENDBRANCH   1   8
TORSDOF 1
ENDMDL
