MODEL 1
REMARK minimizedAffinity -2.28568459
REMARK minimizedRMSD -1
REMARK  1 active torsions:
REMARK  status: ('A' for Active; 'I' for Inactive)
REMARK    1  A    between atoms: C1_2  and  C2_3 
ROOT
ATOM      1  C2  UNL d   1      -1.326   1.165  -0.631  0.00  0.00    -0.081 A 
ATOM      2  C3  UNL d   1      -2.091   2.047   0.142  0.00  0.00     0.006 A 
ATOM      3  C4  UNL d   1      -1.886   2.139   1.521  0.00  0.00     0.002 A 
ATOM      4  C5  UNL d   1      -0.909   1.358   2.147  0.00  0.00    -0.080 A 
ATOM      5  C6  UNL d   1      -0.658   1.469   3.622  0.00  0.00     0.076 C 
ATOM      6  C7  UNL d   1      -0.157   0.464   1.377  0.00  0.00     0.002 A 
ATOM      7  C8  UNL d   1      -0.362   0.371  -0.001  0.00  0.00     0.006 A 
ENDROOT
BRANCH   1   8
ATOM      8  C1  UNL d   1      -1.500   1.110  -2.128  0.00  0.00     0.054 C 
ATOM      9  C   UNL d   1      -0.833   2.298  -2.806  0.00  0.00     0.018 C 
ENDBRANCH   1   8
TORSDOF 1
ENDMDL
