MODEL 1
REMARK minimizedAffinity 7.35774422
REMARK minimizedRMSD -1
REMARK  1 active torsions:
REMARK  status: ('A' for Active; 'I' for Inactive)
REMARK    1  A    between atoms: C1_2  and  C2_3 
ROOT
ATOM      1  C2  UNL d   1       0.587  -3.866  -1.007  0.00  0.00    -0.081 A 
ATOM      2  C3  UNL d   1       0.323  -5.179  -0.596  0.00  0.00     0.006 A 
ATOM      3  C4  UNL d   1       1.199  -5.840   0.268  0.00  0.00     0.002 A 
ATOM      4  C5  UNL d   1       2.349  -5.199   0.741  0.00  0.00    -0.080 A 
ATOM      5  C6  UNL d   1       3.282  -5.887   1.692  0.00  0.00     0.076 C 
ATOM      6  C7  UNL d   1       2.622  -3.894   0.316  0.00  0.00     0.002 A 
ATOM      7  C8  UNL d   1       1.747  -3.232  -0.548  0.00  0.00     0.006 A 
ENDROOT
BRANCH   1   8
ATOM      8  C1  UNL d   1      -0.388  -3.127  -1.887  0.00  0.00     0.054 C 
ATOM      9  C   UNL d   1      -0.153  -3.439  -3.358  0.00  0.00     0.018 C 
ENDBRANCH   1   8
TORSDOF 1
ENDMDL
