MODEL 1
REMARK minimizedAffinity 1.24787581
REMARK minimizedRMSD -1
REMARK  0 active torsions:
REMARK  status: ('A' for Active; 'I' for Inactive)
ROOT
ATOM      1  C   UNL d   1       5.502   5.245  -1.713  0.00  0.00     0.078 C 
ATOM      2  C1  UNL d   1       4.351   4.446  -2.248  0.00  0.00    -0.077 A 
ATOM      3  C2  UNL d   1       3.055   4.625  -1.750  0.00  0.00    -0.001 A 
ATOM      4  C3  UNL d   1       1.995   3.868  -2.251  0.00  0.00     0.003 A 
ATOM      5  C4  UNL d   1       2.220   2.926  -3.252  0.00  0.00    -0.005 A 
ATOM      6  C5  UNL d   1       3.507   2.739  -3.753  0.00  0.00     0.003 A 
ATOM      7  C6  UNL d   1       4.568   3.495  -3.253  0.00  0.00    -0.001 A 
ENDROOT
TORSDOF 0
ENDMDL
