MODEL 1
REMARK minimizedAffinity 2.50402164
REMARK minimizedRMSD -1
REMARK  0 active torsions:
REMARK  status: ('A' for Active; 'I' for Inactive)
ROOT
ATOM      1  C   UNL d   1      -4.162   5.589  -4.376  0.00  0.00     0.078 C 
ATOM      2  C1  UNL d   1      -4.808   5.129  -3.103  0.00  0.00    -0.077 A 
ATOM      3  C2  UNL d   1      -4.957   5.998  -2.015  0.00  0.00    -0.001 A 
ATOM      4  C3  UNL d   1      -5.551   5.554  -0.833  0.00  0.00     0.003 A 
ATOM      5  C4  UNL d   1      -6.000   4.239  -0.727  0.00  0.00    -0.005 A 
ATOM      6  C5  UNL d   1      -5.853   3.366  -1.803  0.00  0.00     0.003 A 
ATOM      7  C6  UNL d   1      -5.260   3.809  -2.986  0.00  0.00    -0.001 A 
ENDROOT
TORSDOF 0
ENDMDL
