MODEL 1
REMARK minimizedAffinity 0.126857325
REMARK minimizedRMSD -1
REMARK  0 active torsions:
REMARK  status: ('A' for Active; 'I' for Inactive)
ROOT
ATOM      1  C   UNL d   1      -2.638   1.071   5.457  0.00  0.00     0.078 C 
ATOM      2  C1  UNL d   1      -3.289   0.381   4.295  0.00  0.00    -0.077 A 
ATOM      3  C2  UNL d   1      -2.538  -0.027   3.186  0.00  0.00    -0.001 A 
ATOM      4  C3  UNL d   1      -3.159  -0.660   2.107  0.00  0.00     0.003 A 
ATOM      5  C4  UNL d   1      -4.534  -0.888   2.127  0.00  0.00    -0.005 A 
ATOM      6  C5  UNL d   1      -5.289  -0.483   3.226  0.00  0.00     0.003 A 
ATOM      7  C6  UNL d   1      -4.670   0.149   4.305  0.00  0.00    -0.001 A 
ENDROOT
TORSDOF 0
ENDMDL
