MODEL 1
REMARK minimizedAffinity 9.28526878
REMARK minimizedRMSD -1
REMARK  0 active torsions:
REMARK  status: ('A' for Active; 'I' for Inactive)
ROOT
ATOM      1  C   UNL d   1      -3.497  -6.000  -5.338  0.00  0.00     0.078 C 
ATOM      2  C1  UNL d   1      -2.390  -5.424  -4.505  0.00  0.00    -0.077 A 
ATOM      3  C2  UNL d   1      -2.665  -4.565  -3.434  0.00  0.00    -0.001 A 
ATOM      4  C3  UNL d   1      -1.625  -4.029  -2.674  0.00  0.00     0.003 A 
ATOM      5  C4  UNL d   1      -0.302  -4.345  -2.977  0.00  0.00    -0.005 A 
ATOM      6  C5  UNL d   1      -0.018  -5.198  -4.042  0.00  0.00     0.003 A 
ATOM      7  C6  UNL d   1      -1.058  -5.734  -4.804  0.00  0.00    -0.001 A 
ENDROOT
TORSDOF 0
ENDMDL
