MODEL 1
REMARK minimizedAffinity 15.716527
REMARK minimizedRMSD -1
REMARK  0 active torsions:
REMARK  status: ('A' for Active; 'I' for Inactive)
ROOT
ATOM      1  C   UNL d   1       1.859  -2.268   2.364  0.00  0.00     0.078 C 
ATOM      2  C1  UNL d   1       2.417  -3.162   1.297  0.00  0.00    -0.077 A 
ATOM      3  C2  UNL d   1       1.807  -4.384   0.989  0.00  0.00    -0.001 A 
ATOM      4  C3  UNL d   1       2.343  -5.210  -0.000  0.00  0.00     0.003 A 
ATOM      5  C4  UNL d   1       3.492  -4.824  -0.688  0.00  0.00    -0.005 A 
ATOM      6  C5  UNL d   1       4.107  -3.611  -0.386  0.00  0.00     0.003 A 
ATOM      7  C6  UNL d   1       3.572  -2.783   0.603  0.00  0.00    -0.001 A 
ENDROOT
TORSDOF 0
ENDMDL
