MODEL 1
REMARK minimizedAffinity 12.26478
REMARK minimizedRMSD -1
REMARK  0 active torsions:
REMARK  status: ('A' for Active; 'I' for Inactive)
ROOT
ATOM      1  C   UNL d   1       2.948   0.958   0.606  0.00  0.00     0.078 C 
ATOM      2  C1  UNL d   1       2.211  -0.071   1.410  0.00  0.00    -0.077 A 
ATOM      3  C2  UNL d   1       0.829  -0.245   1.267  0.00  0.00    -0.001 A 
ATOM      4  C3  UNL d   1       0.155  -1.200   2.029  0.00  0.00     0.003 A 
ATOM      5  C4  UNL d   1       0.854  -1.989   2.940  0.00  0.00    -0.005 A 
ATOM      6  C5  UNL d   1       2.229  -1.822   3.092  0.00  0.00     0.003 A 
ATOM      7  C6  UNL d   1       2.905  -0.867   2.331  0.00  0.00    -0.001 A 
ENDROOT
TORSDOF 0
ENDMDL
