MODEL 1
REMARK minimizedAffinity 11.1949043
REMARK minimizedRMSD -1
REMARK  0 active torsions:
REMARK  status: ('A' for Active; 'I' for Inactive)
ROOT
ATOM      1  C   UNL d   1       2.009   2.990  -3.015  0.00  0.00     0.078 C 
ATOM      2  C1  UNL d   1       3.397   3.501  -3.258  0.00  0.00    -0.077 A 
ATOM      3  C2  UNL d   1       4.111   3.131  -4.405  0.00  0.00    -0.001 A 
ATOM      4  C3  UNL d   1       5.407   3.607  -4.613  0.00  0.00     0.003 A 
ATOM      5  C4  UNL d   1       6.000   4.454  -3.679  0.00  0.00    -0.005 A 
ATOM      6  C5  UNL d   1       5.298   4.826  -2.534  0.00  0.00     0.003 A 
ATOM      7  C6  UNL d   1       4.002   4.351  -2.324  0.00  0.00    -0.001 A 
ENDROOT
TORSDOF 0
ENDMDL
