MODEL 1
REMARK minimizedAffinity 10.8427439
REMARK minimizedRMSD -1
REMARK  0 active torsions:
REMARK  status: ('A' for Active; 'I' for Inactive)
ROOT
ATOM      1  C   UNL d   1      -1.836   1.425   4.234  0.00  0.00     0.078 C 
ATOM      2  C1  UNL d   1      -1.722   0.428   3.119  0.00  0.00    -0.077 A 
ATOM      3  C2  UNL d   1      -2.864  -0.124   2.526  0.00  0.00    -0.001 A 
ATOM      4  C3  UNL d   1      -2.743  -1.059   1.497  0.00  0.00     0.003 A 
ATOM      5  C4  UNL d   1      -1.482  -1.450   1.052  0.00  0.00    -0.005 A 
ATOM      6  C5  UNL d   1      -0.340  -0.908   1.637  0.00  0.00     0.003 A 
ATOM      7  C6  UNL d   1      -0.459   0.027   2.667  0.00  0.00    -0.001 A 
ENDROOT
TORSDOF 0
ENDMDL
