MODEL 1
REMARK minimizedAffinity 8.41179466
REMARK minimizedRMSD -1
REMARK  0 active torsions:
REMARK  status: ('A' for Active; 'I' for Inactive)
ROOT
ATOM      1  C   UNL d   1      -1.438  -2.191   1.401  0.00  0.00     0.078 C 
ATOM      2  C1  UNL d   1      -1.642  -1.002   2.291  0.00  0.00    -0.077 A 
ATOM      3  C2  UNL d   1      -2.430   0.080   1.879  0.00  0.00    -0.001 A 
ATOM      4  C3  UNL d   1      -2.603   1.185   2.714  0.00  0.00     0.003 A 
ATOM      5  C4  UNL d   1      -1.990   1.220   3.965  0.00  0.00    -0.005 A 
ATOM      6  C5  UNL d   1      -1.202   0.149   4.383  0.00  0.00     0.003 A 
ATOM      7  C6  UNL d   1      -1.028  -0.957   3.549  0.00  0.00    -0.001 A 
ENDROOT
TORSDOF 0
ENDMDL
