MODEL 1
REMARK minimizedAffinity 8.58744907
REMARK minimizedRMSD -1
REMARK  0 active torsions:
REMARK  status: ('A' for Active; 'I' for Inactive)
ROOT
ATOM      1  C   UNL d   1       3.388   1.249  -0.017  0.00  0.00     0.078 C 
ATOM      2  C1  UNL d   1       3.464   1.912  -1.360  0.00  0.00    -0.077 A 
ATOM      3  C2  UNL d   1       2.485   1.681  -2.335  0.00  0.00    -0.001 A 
ATOM      4  C3  UNL d   1       2.574   2.298  -3.584  0.00  0.00     0.003 A 
ATOM      5  C4  UNL d   1       3.640   3.148  -3.870  0.00  0.00    -0.005 A 
ATOM      6  C5  UNL d   1       4.619   3.383  -2.907  0.00  0.00     0.003 A 
ATOM      7  C6  UNL d   1       4.533   2.767  -1.658  0.00  0.00    -0.001 A 
ENDROOT
TORSDOF 0
ENDMDL
