MODEL 1
REMARK minimizedAffinity 11.7339115
REMARK minimizedRMSD -1
REMARK  0 active torsions:
REMARK  status: ('A' for Active; 'I' for Inactive)
ROOT
ATOM      1  C   UNL d   1      -5.980  -4.874   5.940  0.00  0.00     0.078 C 
ATOM      2  C1  UNL d   1      -5.911  -4.818   4.443  0.00  0.00    -0.077 A 
ATOM      3  C2  UNL d   1      -5.773  -3.597   3.773  0.00  0.00    -0.001 A 
ATOM      4  C3  UNL d   1      -5.720  -3.558   2.378  0.00  0.00     0.003 A 
ATOM      5  C4  UNL d   1      -5.806  -4.739   1.642  0.00  0.00    -0.005 A 
ATOM      6  C5  UNL d   1      -5.946  -5.959   2.301  0.00  0.00     0.003 A 
ATOM      7  C6  UNL d   1      -5.999  -5.999   3.695  0.00  0.00    -0.001 A 
ENDROOT
TORSDOF 0
ENDMDL
