MODEL 1
REMARK minimizedAffinity 6.64682865
REMARK minimizedRMSD -1
REMARK  0 active torsions:
REMARK  status: ('A' for Active; 'I' for Inactive)
ROOT
ATOM      1  C   UNL d   1       2.990   2.924  -3.470  0.00  0.00     0.078 C 
ATOM      2  C1  UNL d   1       4.037   3.995  -3.531  0.00  0.00    -0.077 A 
ATOM      3  C2  UNL d   1       5.005   4.001  -4.543  0.00  0.00    -0.001 A 
ATOM      4  C3  UNL d   1       5.980   5.000  -4.581  0.00  0.00     0.003 A 
ATOM      5  C4  UNL d   1       5.997   5.999  -3.610  0.00  0.00    -0.005 A 
ATOM      6  C5  UNL d   1       5.039   6.000  -2.598  0.00  0.00     0.003 A 
ATOM      7  C6  UNL d   1       4.064   5.002  -2.558  0.00  0.00    -0.001 A 
ENDROOT
TORSDOF 0
ENDMDL
