MODEL 1
REMARK minimizedAffinity 8.35113525
REMARK minimizedRMSD -1
REMARK  0 active torsions:
REMARK  status: ('A' for Active; 'I' for Inactive)
ROOT
ATOM      1  C   UNL d   1       5.454   4.684  -2.607  0.00  0.00     0.078 C 
ATOM      2  C1  UNL d   1       3.980   4.503  -2.817  0.00  0.00    -0.077 A 
ATOM      3  C2  UNL d   1       3.478   3.366  -3.462  0.00  0.00    -0.001 A 
ATOM      4  C3  UNL d   1       2.104   3.216  -3.659  0.00  0.00     0.003 A 
ATOM      5  C4  UNL d   1       1.222   4.198  -3.214  0.00  0.00    -0.005 A 
ATOM      6  C5  UNL d   1       1.712   5.333  -2.573  0.00  0.00     0.003 A 
ATOM      7  C6  UNL d   1       3.086   5.486  -2.375  0.00  0.00    -0.001 A 
ENDROOT
TORSDOF 0
ENDMDL
