MODEL 1
REMARK minimizedAffinity -4.46200037
REMARK minimizedRMSD -1
REMARK  0 active torsions:
REMARK  status: ('A' for Active; 'I' for Inactive)
ROOT
ATOM      1  C1  DEN d   1      -1.362  -0.912   2.645  0.00  0.00     0.130 A 
ATOM      2  C2  DEN d   1      -0.792  -0.373   3.877  0.00  0.00    -0.031 A 
ATOM      3  C3  DEN d   1       0.266   0.590   3.507  0.00  0.00     0.027 A 
ATOM      4  C4  DEN d   1       1.068   1.298   1.161  0.00  0.00     0.027 A 
ATOM      5  C5  DEN d   1       0.892   1.104  -0.192  0.00  0.00    -0.003 A 
ATOM      6  C6  DEN d   1      -0.016   0.207  -0.689  0.00  0.00     0.001 A 
ATOM      7  C7  DEN d   1      -0.815  -0.498   0.172  0.00  0.00     0.017 A 
ATOM      8  C8  DEN d   1      -0.639  -0.313   1.537  0.00  0.00    -0.094 A 
ATOM      9  C9  DEN d   1       0.276   0.608   2.020  0.00  0.00    -0.072 A 
ENDROOT
TORSDOF 0
ENDMDL
