MODEL 1
REMARK minimizedAffinity 2.37919307
REMARK minimizedRMSD -1
REMARK  0 active torsions:
REMARK  status: ('A' for Active; 'I' for Inactive)
ROOT
ATOM      1  C1  DEN d   1      -0.695  -1.247  -0.082  0.00  0.00     0.130 A 
ATOM      2  C2  DEN d   1      -1.626  -1.963   0.785  0.00  0.00    -0.031 A 
ATOM      3  C3  DEN d   1      -1.590  -1.327   2.117  0.00  0.00     0.027 A 
ATOM      4  C4  DEN d   1      -0.194   0.690   2.915  0.00  0.00     0.027 A 
ATOM      5  C5  DEN d   1       0.748   1.622   2.539  0.00  0.00    -0.003 A 
ATOM      6  C6  DEN d   1       1.296   1.641   1.284  0.00  0.00     0.001 A 
ATOM      7  C7  DEN d   1       0.873   0.739   0.345  0.00  0.00     0.017 A 
ATOM      8  C8  DEN d   1      -0.072  -0.208   0.718  0.00  0.00    -0.094 A 
ATOM      9  C9  DEN d   1      -0.623  -0.204   1.988  0.00  0.00    -0.072 A 
ENDROOT
TORSDOF 0
ENDMDL
