MODEL 1
REMARK minimizedAffinity -4.58822918
REMARK minimizedRMSD -1
REMARK  0 active torsions:
REMARK  status: ('A' for Active; 'I' for Inactive)
ROOT
ATOM      1  C1  DEN d   1      -1.019  -0.600  -0.890  0.00  0.00     0.130 A 
ATOM      2  C2  DEN d   1       0.056  -0.129  -1.759  0.00  0.00    -0.031 A 
ATOM      3  C3  DEN d   1       1.152   0.366  -0.902  0.00  0.00     0.027 A 
ATOM      4  C4  DEN d   1       1.290   0.442   1.673  0.00  0.00     0.027 A 
ATOM      5  C5  DEN d   1       0.617   0.164   2.842  0.00  0.00    -0.003 A 
ATOM      6  C6  DEN d   1      -0.652  -0.353   2.849  0.00  0.00     0.001 A 
ATOM      7  C7  DEN d   1      -1.270  -0.649   1.663  0.00  0.00     0.017 A 
ATOM      8  C8  DEN d   1      -0.601  -0.365   0.480  0.00  0.00    -0.094 A 
ATOM      9  C9  DEN d   1       0.686   0.146   0.494  0.00  0.00    -0.072 A 
ENDROOT
TORSDOF 0
ENDMDL
