MODEL 1
REMARK minimizedAffinity -2.87797642
REMARK minimizedRMSD -1
REMARK  0 active torsions:
REMARK  status: ('A' for Active; 'I' for Inactive)
ROOT
ATOM      1  C1  DEN d   1       1.051  -0.256  -1.085  0.00  0.00     0.130 A 
ATOM      2  C2  DEN d   1       0.441   0.174  -2.340  0.00  0.00    -0.031 A 
ATOM      3  C3  DEN d   1      -1.006   0.355  -2.105  0.00  0.00     0.027 A 
ATOM      4  C4  DEN d   1      -2.353   0.016   0.069  0.00  0.00     0.027 A 
ATOM      5  C5  DEN d   1      -2.272  -0.355   1.393  0.00  0.00    -0.003 A 
ATOM      6  C6  DEN d   1      -1.094  -0.749   1.970  0.00  0.00     0.001 A 
ATOM      7  C7  DEN d   1       0.061  -0.737   1.233  0.00  0.00     0.017 A 
ATOM      8  C8  DEN d   1      -0.014  -0.371  -0.105  0.00  0.00    -0.094 A 
ATOM      9  C9  DEN d   1      -1.212   0.036  -0.667  0.00  0.00    -0.072 A 
ENDROOT
TORSDOF 0
ENDMDL
