MODEL 1
REMARK minimizedAffinity -5.38468599
REMARK minimizedRMSD -1
REMARK  0 active torsions:
REMARK  status: ('A' for Active; 'I' for Inactive)
ROOT
ATOM      1  C1  DEN d   1      -2.034   0.021  -0.174  0.00  0.00     0.130 A 
ATOM      2  C2  DEN d   1      -1.368   0.770  -1.236  0.00  0.00    -0.031 A 
ATOM      3  C3  DEN d   1       0.003   1.081  -0.784  0.00  0.00     0.027 A 
ATOM      4  C4  DEN d   1       1.154   0.475   1.443  0.00  0.00     0.027 A 
ATOM      5  C5  DEN d   1       0.986  -0.145   2.661  0.00  0.00    -0.003 A 
ATOM      6  C6  DEN d   1      -0.202  -0.719   3.031  0.00  0.00     0.001 A 
ATOM      7  C7  DEN d   1      -1.255  -0.724   2.154  0.00  0.00     0.017 A 
ATOM      8  C8  DEN d   1      -1.095  -0.094   0.927  0.00  0.00    -0.094 A 
ATOM      9  C9  DEN d   1       0.118   0.469   0.567  0.00  0.00    -0.072 A 
ENDROOT
TORSDOF 0
ENDMDL
