MODEL 1
REMARK minimizedAffinity -4.77775717
REMARK minimizedRMSD -1
REMARK  0 active torsions:
REMARK  status: ('A' for Active; 'I' for Inactive)
ROOT
ATOM      1  C1  DEN d   1      -1.393  -0.058  -0.443  0.00  0.00     0.130 A 
ATOM      2  C2  DEN d   1      -0.388   0.396  -1.400  0.00  0.00    -0.031 A 
ATOM      3  C3  DEN d   1       0.912   0.456  -0.704  0.00  0.00     0.027 A 
ATOM      4  C4  DEN d   1       1.466  -0.113   1.751  0.00  0.00     0.027 A 
ATOM      5  C5  DEN d   1       0.938  -0.531   2.953  0.00  0.00    -0.003 A 
ATOM      6  C6  DEN d   1      -0.398  -0.785   3.115  0.00  0.00     0.001 A 
ATOM      7  C7  DEN d   1      -1.246  -0.668   2.045  0.00  0.00     0.017 A 
ATOM      8  C8  DEN d   1      -0.722  -0.240   0.832  0.00  0.00    -0.094 A 
ATOM      9  C9  DEN d   1       0.633   0.000   0.685  0.00  0.00    -0.072 A 
ENDROOT
TORSDOF 0
ENDMDL
