MODEL 1
REMARK minimizedAffinity -4.9702158
REMARK minimizedRMSD -1
REMARK  0 active torsions:
REMARK  status: ('A' for Active; 'I' for Inactive)
ROOT
ATOM      1  C1  DEN d   1      -1.762   0.439   1.737  0.00  0.00     0.130 A 
ATOM      2  C2  DEN d   1      -2.105   0.671   0.337  0.00  0.00    -0.031 A 
ATOM      3  C3  DEN d   1      -0.848   0.797  -0.426  0.00  0.00     0.027 A 
ATOM      4  C4  DEN d   1       1.585   0.649   0.418  0.00  0.00     0.027 A 
ATOM      5  C5  DEN d   1       2.378   0.475   1.531  0.00  0.00    -0.003 A 
ATOM      6  C6  DEN d   1       1.852   0.312   2.785  0.00  0.00     0.001 A 
ATOM      7  C7  DEN d   1       0.493   0.274   2.951  0.00  0.00     0.017 A 
ATOM      8  C8  DEN d   1      -0.314   0.457   1.835  0.00  0.00    -0.094 A 
ATOM      9  C9  DEN d   1       0.238   0.608   0.574  0.00  0.00    -0.072 A 
ENDROOT
TORSDOF 0
ENDMDL
