MODEL 1
REMARK minimizedAffinity -4.29048777
REMARK minimizedRMSD -1
REMARK  0 active torsions:
REMARK  status: ('A' for Active; 'I' for Inactive)
ROOT
ATOM      1  C1  DEN d   1      -0.377  -0.101   2.722  0.00  0.00     0.130 A 
ATOM      2  C2  DEN d   1       1.064  -0.334   2.697  0.00  0.00    -0.031 A 
ATOM      3  C3  DEN d   1       1.552  -0.027   1.337  0.00  0.00     0.027 A 
ATOM      4  C4  DEN d   1       0.224   0.788  -0.718  0.00  0.00     0.027 A 
ATOM      5  C5  DEN d   1      -1.028   1.119  -1.186  0.00  0.00    -0.003 A 
ATOM      6  C6  DEN d   1      -2.147   1.035  -0.401  0.00  0.00     0.001 A 
ATOM      7  C7  DEN d   1      -2.029   0.653   0.909  0.00  0.00     0.017 A 
ATOM      8  C8  DEN d   1      -0.771   0.310   1.387  0.00  0.00    -0.094 A 
ATOM      9  C9  DEN d   1       0.350   0.413   0.580  0.00  0.00    -0.072 A 
ENDROOT
TORSDOF 0
ENDMDL
