MODEL 1
REMARK minimizedAffinity -3.93840218
REMARK minimizedRMSD -1
REMARK  0 active torsions:
REMARK  status: ('A' for Active; 'I' for Inactive)
ROOT
ATOM      1  C1  DEN d   1      -0.081   0.349   0.399  0.00  0.00     0.130 A 
ATOM      2  C2  DEN d   1       0.692  -0.277   1.468  0.00  0.00    -0.031 A 
ATOM      3  C3  DEN d   1       1.551  -1.314   0.863  0.00  0.00     0.027 A 
ATOM      4  C4  DEN d   1       1.763  -2.004  -1.614  0.00  0.00     0.027 A 
ATOM      5  C5  DEN d   1       1.300  -1.766  -2.889  0.00  0.00    -0.003 A 
ATOM      6  C6  DEN d   1       0.328  -0.838  -3.151  0.00  0.00     0.001 A 
ATOM      7  C7  DEN d   1      -0.182  -0.081  -2.129  0.00  0.00     0.017 A 
ATOM      8  C8  DEN d   1       0.275  -0.320  -0.840  0.00  0.00    -0.094 A 
ATOM      9  C9  DEN d   1       1.267  -1.255  -0.597  0.00  0.00    -0.072 A 
ENDROOT
TORSDOF 0
ENDMDL
