MODEL 1
REMARK minimizedAffinity -5.04733181
REMARK minimizedRMSD -1
REMARK  0 active torsions:
REMARK  status: ('A' for Active; 'I' for Inactive)
ROOT
ATOM      1  C1  DEN d   1       0.722   0.175   0.872  0.00  0.00     0.130 A 
ATOM      2  C2  DEN d   1       1.435   0.925   1.902  0.00  0.00    -0.031 A 
ATOM      3  C3  DEN d   1       0.622   0.896   3.134  0.00  0.00     0.027 A 
ATOM      4  C4  DEN d   1      -1.659  -0.236   3.546  0.00  0.00     0.027 A 
ATOM      5  C5  DEN d   1      -2.663  -0.980   2.968  0.00  0.00    -0.003 A 
ATOM      6  C6  DEN d   1      -2.627  -1.359   1.653  0.00  0.00     0.001 A 
ATOM      7  C7  DEN d   1      -1.542  -1.034   0.882  0.00  0.00     0.017 A 
ATOM      8  C8  DEN d   1      -0.528  -0.277   1.456  0.00  0.00    -0.094 A 
ATOM      9  C9  DEN d   1      -0.578   0.086   2.791  0.00  0.00    -0.072 A 
ENDROOT
TORSDOF 0
ENDMDL
