MODEL 1
REMARK minimizedAffinity -0.342038542
REMARK minimizedRMSD -1
REMARK  0 active torsions:
REMARK  status: ('A' for Active; 'I' for Inactive)
ROOT
ATOM      1  C1  DEN d   1      -0.295   1.038   0.153  0.00  0.00     0.130 A 
ATOM      2  C2  DEN d   1      -0.684  -0.107  -0.666  0.00  0.00    -0.031 A 
ATOM      3  C3  DEN d   1      -1.342  -1.095   0.214  0.00  0.00     0.027 A 
ATOM      4  C4  DEN d   1      -1.798  -0.960   2.749  0.00  0.00     0.027 A 
ATOM      5  C5  DEN d   1      -1.641  -0.188   3.878  0.00  0.00    -0.003 A 
ATOM      6  C6  DEN d   1      -0.999   1.022   3.852  0.00  0.00     0.001 A 
ATOM      7  C7  DEN d   1      -0.531   1.516   2.663  0.00  0.00     0.017 A 
ATOM      8  C8  DEN d   1      -0.679   0.739   1.521  0.00  0.00    -0.094 A 
ATOM      9  C9  DEN d   1      -1.341  -0.475   1.566  0.00  0.00    -0.072 A 
ENDROOT
TORSDOF 0
ENDMDL
