MODEL 1
REMARK minimizedAffinity -4.33236217
REMARK minimizedRMSD -1
REMARK  0 active torsions:
REMARK  status: ('A' for Active; 'I' for Inactive)
ROOT
ATOM      1  C1  DEN d   1      -1.452  -0.047   0.589  0.00  0.00     0.130 A 
ATOM      2  C2  DEN d   1      -1.134  -0.052  -0.837  0.00  0.00    -0.031 A 
ATOM      3  C3  DEN d   1       0.207   0.540  -1.008  0.00  0.00     0.027 A 
ATOM      4  C4  DEN d   1       1.818   1.455   0.787  0.00  0.00     0.027 A 
ATOM      5  C5  DEN d   1       1.984   1.683   2.135  0.00  0.00    -0.003 A 
ATOM      6  C6  DEN d   1       1.010   1.384   3.051  0.00  0.00     0.001 A 
ATOM      7  C7  DEN d   1      -0.156   0.798   2.636  0.00  0.00     0.017 A 
ATOM      8  C8  DEN d   1      -0.333   0.572   1.277  0.00  0.00    -0.094 A 
ATOM      9  C9  DEN d   1       0.668   0.870   0.368  0.00  0.00    -0.072 A 
ENDROOT
TORSDOF 0
ENDMDL
