MODEL 1
REMARK minimizedAffinity -5.01345158
REMARK minimizedRMSD -1
REMARK  0 active torsions:
REMARK  status: ('A' for Active; 'I' for Inactive)
ROOT
ATOM      1  C1  DEN d   1      -1.193  -0.070  -0.906  0.00  0.00     0.130 A 
ATOM      2  C2  DEN d   1       0.240  -0.347  -0.958  0.00  0.00    -0.031 A 
ATOM      3  C3  DEN d   1       0.726  -0.501   0.428  0.00  0.00     0.027 A 
ATOM      4  C4  DEN d   1      -0.596  -0.345   2.637  0.00  0.00     0.027 A 
ATOM      5  C5  DEN d   1      -1.837  -0.116   3.189  0.00  0.00    -0.003 A 
ATOM      6  C6  DEN d   1      -2.934   0.175   2.423  0.00  0.00     0.001 A 
ATOM      7  C7  DEN d   1      -2.822   0.201   1.058  0.00  0.00     0.017 A 
ATOM      8  C8  DEN d   1      -1.572  -0.021   0.495  0.00  0.00    -0.094 A 
ATOM      9  C9  DEN d   1      -0.477  -0.326   1.286  0.00  0.00    -0.072 A 
ENDROOT
TORSDOF 0
ENDMDL
