MODEL 1
REMARK minimizedAffinity -6.22714186
REMARK minimizedRMSD -1
REMARK  0 active torsions:
REMARK  status: ('A' for Active; 'I' for Inactive)
ROOT
ATOM      1  C1  DEN d   1      -0.874   0.704  -1.001  0.00  0.00     0.130 A 
ATOM      2  C2  DEN d   1      -2.325   0.605  -0.873  0.00  0.00    -0.031 A 
ATOM      3  C3  DEN d   1      -2.641   0.338   0.545  0.00  0.00     0.027 A 
ATOM      4  C4  DEN d   1      -1.033   0.073   2.544  0.00  0.00     0.027 A 
ATOM      5  C5  DEN d   1       0.290   0.064   2.927  0.00  0.00    -0.003 A 
ATOM      6  C6  DEN d   1       1.311   0.232   2.029  0.00  0.00     0.001 A 
ATOM      7  C7  DEN d   1       1.024   0.462   0.710  0.00  0.00     0.017 A 
ATOM      8  C8  DEN d   1      -0.308   0.465   0.315  0.00  0.00    -0.094 A 
ATOM      9  C9  DEN d   1      -1.326   0.306   1.239  0.00  0.00    -0.072 A 
ENDROOT
TORSDOF 0
ENDMDL
