MODEL 1
REMARK minimizedAffinity -3.95254397
REMARK minimizedRMSD -1
REMARK  1 active torsions:
REMARK  status: ('A' for Active; 'I' for Inactive)
REMARK    1  A    between atoms: N_2  and  C1_3 
ROOT
ATOM      1  C1  UNL d   1      -0.350   0.014  -0.253  0.00  0.00     0.143 A 
ATOM      2  C2  UNL d   1       0.084  -1.310  -0.127  0.00  0.00    -0.057 A 
ATOM      3  C3  UNL d   1       1.351  -1.705  -0.574  0.00  0.00     0.033 A 
ATOM      4  C4  UNL d   1       2.198  -0.785  -1.182  0.00  0.00    -0.042 A 
ATOM      5  C5  UNL d   1       1.778   0.531  -1.340  0.00  0.00     0.033 A 
ATOM      6  C6  UNL d   1       0.515   0.921  -0.886  0.00  0.00    -0.057 A 
ENDROOT
BRANCH   1   7
ATOM      7  N   UNL d   1      -1.635   0.447   0.082  0.00  0.00    -0.732 N 
ATOM      8  C   UNL d   1      -1.981   0.738   1.457  0.00  0.00     0.284 C 
ATOM      9  H3  UNL d   1      -2.008   1.114  -0.590  0.00  0.00     0.395 HD
ENDBRANCH   1   7
TORSDOF 1
ENDMDL
