MODEL 1
REMARK minimizedAffinity -2.89991307
REMARK minimizedRMSD -1
REMARK  1 active torsions:
REMARK  status: ('A' for Active; 'I' for Inactive)
REMARK    1  A    between atoms: N_2  and  C1_3 
ROOT
ATOM      1  C1  UNL d   1       0.605  -0.665  -0.333  0.00  0.00     0.143 A 
ATOM      2  C2  UNL d   1       1.183  -1.819  -0.872  0.00  0.00    -0.057 A 
ATOM      3  C3  UNL d   1       2.348  -1.753  -1.647  0.00  0.00     0.033 A 
ATOM      4  C4  UNL d   1       2.940  -0.525  -1.921  0.00  0.00    -0.042 A 
ATOM      5  C5  UNL d   1       2.368   0.638  -1.417  0.00  0.00     0.033 A 
ATOM      6  C6  UNL d   1       1.209   0.565  -0.638  0.00  0.00    -0.057 A 
ENDROOT
BRANCH   1   7
ATOM      7  N   UNL d   1      -0.607  -0.654   0.362  0.00  0.00    -0.732 N 
ATOM      8  C   UNL d   1      -1.320   0.586   0.581  0.00  0.00     0.284 C 
ATOM      9  H3  UNL d   1      -1.205  -1.439   0.113  0.00  0.00     0.395 HD
ENDBRANCH   1   7
TORSDOF 1
ENDMDL
