MODEL 1
REMARK minimizedAffinity -4.54018164
REMARK minimizedRMSD -1
REMARK  1 active torsions:
REMARK  status: ('A' for Active; 'I' for Inactive)
REMARK    1  A    between atoms: N_2  and  C1_3 
ROOT
ATOM      1  C1  UNL d   1      -0.141   0.309  -0.224  0.00  0.00     0.143 A 
ATOM      2  C2  UNL d   1       0.942   1.051  -0.707  0.00  0.00    -0.057 A 
ATOM      3  C3  UNL d   1       2.127   0.426  -1.114  0.00  0.00     0.033 A 
ATOM      4  C4  UNL d   1       2.260  -0.955  -1.018  0.00  0.00    -0.042 A 
ATOM      5  C5  UNL d   1       1.206  -1.711  -0.517  0.00  0.00     0.033 A 
ATOM      6  C6  UNL d   1       0.023  -1.081  -0.119  0.00  0.00    -0.057 A 
ENDROOT
BRANCH   1   7
ATOM      7  N   UNL d   1      -1.309   0.880   0.288  0.00  0.00    -0.732 N 
ATOM      8  C   UNL d   1      -1.699   0.652   1.663  0.00  0.00     0.284 C 
ATOM      9  H3  UNL d   1      -1.444   1.837  -0.029  0.00  0.00     0.395 HD
ENDBRANCH   1   7
TORSDOF 1
ENDMDL
