MODEL 1
REMARK minimizedAffinity -3.72186232
REMARK minimizedRMSD -1
REMARK  1 active torsions:
REMARK  status: ('A' for Active; 'I' for Inactive)
REMARK    1  A    between atoms: N_2  and  C1_3 
ROOT
ATOM      1  C1  UNL d   1       1.381   0.316  -0.591  0.00  0.00     0.143 A 
ATOM      2  C2  UNL d   1       1.029   1.472  -1.296  0.00  0.00    -0.057 A 
ATOM      3  C3  UNL d   1      -0.312   1.815  -1.506  0.00  0.00     0.033 A 
ATOM      4  C4  UNL d   1      -1.328   0.989  -1.038  0.00  0.00    -0.042 A 
ATOM      5  C5  UNL d   1      -1.002  -0.178  -0.357  0.00  0.00     0.033 A 
ATOM      6  C6  UNL d   1       0.339  -0.511  -0.144  0.00  0.00    -0.057 A 
ENDROOT
BRANCH   1   7
ATOM      7  N   UNL d   1       2.696  -0.130  -0.435  0.00  0.00    -0.732 N 
ATOM      8  C   UNL d   1       3.445  -0.627  -1.569  0.00  0.00     0.284 C 
ATOM      9  H3  UNL d   1       3.235   0.463   0.192  0.00  0.00     0.395 HD
ENDBRANCH   1   7
TORSDOF 1
ENDMDL
