MODEL 1
REMARK minimizedAffinity -3.45937276
REMARK minimizedRMSD -1
REMARK  1 active torsions:
REMARK  status: ('A' for Active; 'I' for Inactive)
REMARK    1  A    between atoms: N_2  and  C1_3 
ROOT
ATOM      1  C1  UNL d   1      -0.197  -0.112  -0.001  0.00  0.00     0.143 A 
ATOM      2  C2  UNL d   1       0.449  -1.323   0.269  0.00  0.00    -0.057 A 
ATOM      3  C3  UNL d   1       1.522  -1.764  -0.516  0.00  0.00     0.033 A 
ATOM      4  C4  UNL d   1       1.951  -1.011  -1.604  0.00  0.00    -0.042 A 
ATOM      5  C5  UNL d   1       1.307   0.184  -1.905  0.00  0.00     0.033 A 
ATOM      6  C6  UNL d   1       0.240   0.621  -1.115  0.00  0.00    -0.057 A 
ENDROOT
BRANCH   1   7
ATOM      7  N   UNL d   1      -1.333   0.332   0.682  0.00  0.00    -0.732 N 
ATOM      8  C   UNL d   1      -1.241   0.775   2.056  0.00  0.00     0.284 C 
ATOM      9  H3  UNL d   1      -1.936   0.908   0.099  0.00  0.00     0.395 HD
ENDBRANCH   1   7
TORSDOF 1
ENDMDL
