MODEL 1
REMARK minimizedAffinity -2.44419432
REMARK minimizedRMSD -1
REMARK  1 active torsions:
REMARK  status: ('A' for Active; 'I' for Inactive)
REMARK    1  A    between atoms: N_2  and  C1_3 
ROOT
ATOM      1  C1  UNL d   1      -0.705  -0.610   0.744  0.00  0.00     0.143 A 
ATOM      2  C2  UNL d   1      -2.094  -0.774   0.733  0.00  0.00    -0.057 A 
ATOM      3  C3  UNL d   1      -2.900  -0.213   1.730  0.00  0.00     0.033 A 
ATOM      4  C4  UNL d   1      -2.326   0.501   2.777  0.00  0.00    -0.042 A 
ATOM      5  C5  UNL d   1      -0.945   0.656   2.822  0.00  0.00     0.033 A 
ATOM      6  C6  UNL d   1      -0.146   0.099   1.819  0.00  0.00    -0.057 A 
ENDROOT
BRANCH   1   7
ATOM      7  N   UNL d   1       0.159  -1.226  -0.165  0.00  0.00    -0.732 N 
ATOM      8  C   UNL d   1       1.161  -0.455  -0.868  0.00  0.00     0.284 C 
ATOM      9  H3  UNL d   1       0.485  -2.132   0.163  0.00  0.00     0.395 HD
ENDBRANCH   1   7
TORSDOF 1
ENDMDL
