MODEL 1
REMARK minimizedAffinity -2.65927052
REMARK minimizedRMSD -1
REMARK  1 active torsions:
REMARK  status: ('A' for Active; 'I' for Inactive)
REMARK    1  A    between atoms: N_2  and  C1_3 
ROOT
ATOM      1  C1  UNL d   1      -1.006   0.104   1.047  0.00  0.00     0.143 A 
ATOM      2  C2  UNL d   1      -2.382  -0.116   0.930  0.00  0.00    -0.057 A 
ATOM      3  C3  UNL d   1      -3.247   0.107   2.008  0.00  0.00     0.033 A 
ATOM      4  C4  UNL d   1      -2.745   0.526   3.235  0.00  0.00    -0.042 A 
ATOM      5  C5  UNL d   1      -1.377   0.727   3.382  0.00  0.00     0.033 A 
ATOM      6  C6  UNL d   1      -0.519   0.510   2.300  0.00  0.00    -0.057 A 
ENDROOT
BRANCH   1   7
ATOM      7  N   UNL d   1      -0.082  -0.193   0.042  0.00  0.00    -0.732 N 
ATOM      8  C   UNL d   1       0.671  -1.429   0.074  0.00  0.00     0.284 C 
ATOM      9  H3  UNL d   1      -0.419   0.064  -0.883  0.00  0.00     0.395 HD
ENDBRANCH   1   7
TORSDOF 1
ENDMDL
