MODEL 1
REMARK minimizedAffinity -4.33728886
REMARK minimizedRMSD -1
REMARK  1 active torsions:
REMARK  status: ('A' for Active; 'I' for Inactive)
REMARK    1  A    between atoms: N_2  and  C1_3 
ROOT
ATOM      1  C1  UNL d   1      -0.090   0.084  -0.417  0.00  0.00     0.143 A 
ATOM      2  C2  UNL d   1       0.448  -1.203  -0.312  0.00  0.00    -0.057 A 
ATOM      3  C3  UNL d   1       1.709  -1.509  -0.839  0.00  0.00     0.033 A 
ATOM      4  C4  UNL d   1       2.444  -0.536  -1.508  0.00  0.00    -0.042 A 
ATOM      5  C5  UNL d   1       1.919   0.744  -1.646  0.00  0.00     0.033 A 
ATOM      6  C6  UNL d   1       0.662   1.044  -1.113  0.00  0.00    -0.057 A 
ENDROOT
BRANCH   1   7
ATOM      7  N   UNL d   1      -1.379   0.424  -0.001  0.00  0.00    -0.732 N 
ATOM      8  C   UNL d   1      -1.711   0.471   1.406  0.00  0.00     0.284 C 
ATOM      9  H3  UNL d   1      -1.775   1.186  -0.547  0.00  0.00     0.395 HD
ENDBRANCH   1   7
TORSDOF 1
ENDMDL
