MODEL 1
REMARK minimizedAffinity -4.95171976
REMARK minimizedRMSD -1
REMARK  1 active torsions:
REMARK  status: ('A' for Active; 'I' for Inactive)
REMARK    1  A    between atoms: N_2  and  C1_3 
ROOT
ATOM      1  C1  UNL d   1       0.290  -0.512  -0.181  0.00  0.00     0.143 A 
ATOM      2  C2  UNL d   1       1.058   0.632  -0.420  0.00  0.00    -0.057 A 
ATOM      3  C3  UNL d   1       2.215   0.579  -1.208  0.00  0.00     0.033 A 
ATOM      4  C4  UNL d   1       2.640  -0.630  -1.748  0.00  0.00    -0.042 A 
ATOM      5  C5  UNL d   1       1.906  -1.785  -1.503  0.00  0.00     0.033 A 
ATOM      6  C6  UNL d   1       0.749  -1.724  -0.721  0.00  0.00    -0.057 A 
ENDROOT
BRANCH   1   7
ATOM      7  N   UNL d   1      -0.814  -0.544   0.674  0.00  0.00    -0.732 N 
ATOM      8  C   UNL d   1      -1.389   0.684   1.180  0.00  0.00     0.284 C 
ATOM      9  H3  UNL d   1      -1.501  -1.240   0.396  0.00  0.00     0.395 HD
ENDBRANCH   1   7
TORSDOF 1
ENDMDL
