MODEL 1
REMARK minimizedAffinity -3.39391065
REMARK minimizedRMSD -1
REMARK  1 active torsions:
REMARK  status: ('A' for Active; 'I' for Inactive)
REMARK    1  A    between atoms: N_2  and  C1_3 
ROOT
ATOM      1  C1  UNL d   1       5.648   0.894   4.512  0.00  0.00     0.143 A 
ATOM      2  C2  UNL d   1       5.241   0.022   3.497  0.00  0.00    -0.057 A 
ATOM      3  C3  UNL d   1       5.103  -1.352   3.731  0.00  0.00     0.033 A 
ATOM      4  C4  UNL d   1       5.398  -1.883   4.982  0.00  0.00    -0.042 A 
ATOM      5  C5  UNL d   1       5.828  -1.039   6.000  0.00  0.00     0.033 A 
ATOM      6  C6  UNL d   1       5.957   0.333   5.761  0.00  0.00    -0.057 A 
ENDROOT
BRANCH   1   7
ATOM      7  N   UNL d   1       5.899   2.254   4.315  0.00  0.00    -0.732 N 
ATOM      8  C   UNL d   1       5.857   3.180   5.427  0.00  0.00     0.284 C 
ATOM      9  H3  UNL d   1       6.666   2.417   3.667  0.00  0.00     0.395 HD
ENDBRANCH   1   7
TORSDOF 1
ENDMDL
