MODEL 1
REMARK minimizedAffinity -4.88286304
REMARK minimizedRMSD -1
REMARK  3 active torsions:
REMARK  status: ('A' for Active; 'I' for Inactive)
REMARK    1  A    between atoms: C3'_2  and  C2'_3 
REMARK    2  A    between atoms: C2'_3  and  C1'_4 
REMARK    3  A    between atoms: C1'_4  and  C1_5 
ROOT
ATOM      1  C1  N4B d   1       0.536  -0.069  -0.389  0.00  0.00    -0.075 A 
ATOM      2  C2  N4B d   1      -0.839   0.249  -0.324  0.00  0.00     0.002 A 
ATOM      3  C3  N4B d   1      -1.355   0.835   0.806  0.00  0.00     0.002 A 
ATOM      4  C4  N4B d   1      -0.524   1.096   1.885  0.00  0.00    -0.004 A 
ATOM      5  C5  N4B d   1       0.808   0.809   1.804  0.00  0.00     0.002 A 
ATOM      6  C6  N4B d   1       1.341   0.223   0.674  0.00  0.00     0.002 A 
ENDROOT
BRANCH   1   7
ATOM      7  C1' N4B d   1       1.130  -0.789  -1.569  0.00  0.00     0.057 C 
BRANCH   7   8
ATOM      8  C2' N4B d   1       2.098   0.144  -2.289  0.00  0.00     0.009 C 
BRANCH   8   9
ATOM      9  C3' N4B d   1       1.809   0.222  -3.779  0.00  0.00     0.004 C 
ATOM     10  C4' N4B d   1       0.676   1.149  -4.103  0.00  0.00     0.003 C 
ENDBRANCH   8   9
ENDBRANCH   7   8
ENDBRANCH   1   7
TORSDOF 3
ENDMDL
