MODEL 1
REMARK minimizedAffinity -1.70140469
REMARK minimizedRMSD -1
REMARK  3 active torsions:
REMARK  status: ('A' for Active; 'I' for Inactive)
REMARK    1  A    between atoms: C3'_2  and  C2'_3 
REMARK    2  A    between atoms: C2'_3  and  C1'_4 
REMARK    3  A    between atoms: C1'_4  and  C1_5 
ROOT
ATOM      1  C1  N4B d   1       0.743   1.090  -2.265  0.00  0.00    -0.075 A 
ATOM      2  C2  N4B d   1      -0.089   0.741  -3.352  0.00  0.00     0.002 A 
ATOM      3  C3  N4B d   1       0.418   0.727  -4.628  0.00  0.00     0.002 A 
ATOM      4  C4  N4B d   1       1.743   1.074  -4.843  0.00  0.00    -0.004 A 
ATOM      5  C5  N4B d   1       2.547   1.385  -3.786  0.00  0.00     0.002 A 
ATOM      6  C6  N4B d   1       2.052   1.400  -2.497  0.00  0.00     0.002 A 
ENDROOT
BRANCH   1   7
ATOM      7  C1' N4B d   1       0.211   1.203  -0.862  0.00  0.00     0.057 C 
BRANCH   7   8
ATOM      8  C2' N4B d   1      -0.030  -0.196  -0.304  0.00  0.00     0.009 C 
BRANCH   8   9
ATOM      9  C3' N4B d   1       0.570  -0.367   1.081  0.00  0.00     0.004 C 
ATOM     10  C4' N4B d   1       2.042  -0.654   1.044  0.00  0.00     0.003 C 
ENDBRANCH   8   9
ENDBRANCH   7   8
ENDBRANCH   1   7
TORSDOF 3
ENDMDL
