MODEL 1
REMARK minimizedAffinity 2.50240636
REMARK minimizedRMSD -1
REMARK  3 active torsions:
REMARK  status: ('A' for Active; 'I' for Inactive)
REMARK    1  A    between atoms: C3'_2  and  C2'_3 
REMARK    2  A    between atoms: C2'_3  and  C1'_4 
REMARK    3  A    between atoms: C1'_4  and  C1_5 
ROOT
ATOM      1  C1  N4B d   1       0.767   0.446   0.014  0.00  0.00    -0.075 A 
ATOM      2  C2  N4B d   1       1.690  -0.469   0.568  0.00  0.00     0.002 A 
ATOM      3  C3  N4B d   1       2.287  -0.196   1.774  0.00  0.00     0.002 A 
ATOM      4  C4  N4B d   1       1.994   0.988   2.432  0.00  0.00    -0.004 A 
ATOM      5  C5  N4B d   1       1.083   1.855   1.903  0.00  0.00     0.002 A 
ATOM      6  C6  N4B d   1       0.471   1.592   0.694  0.00  0.00     0.002 A 
ENDROOT
BRANCH   1   7
ATOM      7  C1' N4B d   1       0.153   0.232  -1.342  0.00  0.00     0.057 C 
BRANCH   7   8
ATOM      8  C2' N4B d   1      -0.409  -1.184  -1.419  0.00  0.00     0.009 C 
BRANCH   8   9
ATOM      9  C3' N4B d   1      -1.764  -1.296  -0.741  0.00  0.00     0.004 C 
ATOM     10  C4' N4B d   1      -2.527  -0.005  -0.751  0.00  0.00     0.003 C 
ENDBRANCH   8   9
ENDBRANCH   7   8
ENDBRANCH   1   7
TORSDOF 3
ENDMDL
