MODEL 1
REMARK minimizedAffinity -2.90786242
REMARK minimizedRMSD -1
REMARK  3 active torsions:
REMARK  status: ('A' for Active; 'I' for Inactive)
REMARK    1  A    between atoms: C3'_2  and  C2'_3 
REMARK    2  A    between atoms: C2'_3  and  C1'_4 
REMARK    3  A    between atoms: C1'_4  and  C1_5 
ROOT
ATOM      1  C1  N4B d   1       0.192  -0.327  -0.075  0.00  0.00    -0.075 A 
ATOM      2  C2  N4B d   1      -1.220  -0.312  -0.065  0.00  0.00     0.002 A 
ATOM      3  C3  N4B d   1      -1.893   0.221   1.006  0.00  0.00     0.002 A 
ATOM      4  C4  N4B d   1      -1.179   0.727   2.082  0.00  0.00    -0.004 A 
ATOM      5  C5  N4B d   1       0.185   0.732   2.053  0.00  0.00     0.002 A 
ATOM      6  C6  N4B d   1       0.874   0.202   0.981  0.00  0.00     0.002 A 
ENDROOT
BRANCH   1   7
ATOM      7  C1' N4B d   1       0.971  -0.978  -1.186  0.00  0.00     0.057 C 
BRANCH   7   8
ATOM      8  C2' N4B d   1       0.487  -0.430  -2.525  0.00  0.00     0.009 C 
BRANCH   8   9
ATOM      9  C3' N4B d   1       1.609   0.229  -3.309  0.00  0.00     0.004 C 
ATOM     10  C4' N4B d   1       1.130   0.879  -4.572  0.00  0.00     0.003 C 
ENDBRANCH   8   9
ENDBRANCH   7   8
ENDBRANCH   1   7
TORSDOF 3
ENDMDL
