MODEL 1
REMARK minimizedAffinity -6.21111202
REMARK minimizedRMSD -1
REMARK  3 active torsions:
REMARK  status: ('A' for Active; 'I' for Inactive)
REMARK    1  A    between atoms: C3'_2  and  C2'_3 
REMARK    2  A    between atoms: C2'_3  and  C1'_4 
REMARK    3  A    between atoms: C1'_4  and  C1_5 
ROOT
ATOM      1  C1  N4B d   1       0.206   0.048   0.250  0.00  0.00    -0.075 A 
ATOM      2  C2  N4B d   1       0.921   0.812   1.198  0.00  0.00     0.002 A 
ATOM      3  C3  N4B d   1       0.245   1.517   2.163  0.00  0.00     0.002 A 
ATOM      4  C4  N4B d   1      -1.141   1.488   2.188  0.00  0.00    -0.004 A 
ATOM      5  C5  N4B d   1      -1.824   0.726   1.285  0.00  0.00     0.002 A 
ATOM      6  C6  N4B d   1      -1.157   0.010   0.312  0.00  0.00     0.002 A 
ENDROOT
BRANCH   1   7
ATOM      7  C1' N4B d   1       0.898  -0.671  -0.876  0.00  0.00     0.057 C 
BRANCH   7   8
ATOM      8  C2' N4B d   1       0.015  -0.620  -2.120  0.00  0.00     0.009 C 
BRANCH   8   9
ATOM      9  C3' N4B d   1       0.722   0.041  -3.291  0.00  0.00     0.004 C 
ATOM     10  C4' N4B d   1       1.826   0.960  -2.860  0.00  0.00     0.003 C 
ENDBRANCH   8   9
ENDBRANCH   7   8
ENDBRANCH   1   7
TORSDOF 3
ENDMDL
