MODEL 1
REMARK minimizedAffinity -5.58021069
REMARK minimizedRMSD -1
REMARK  3 active torsions:
REMARK  status: ('A' for Active; 'I' for Inactive)
REMARK    1  A    between atoms: C3'_2  and  C2'_3 
REMARK    2  A    between atoms: C2'_3  and  C1'_4 
REMARK    3  A    between atoms: C1'_4  and  C1_5 
ROOT
ATOM      1  C1  N4B d   1       0.020   0.082   0.459  0.00  0.00    -0.075 A 
ATOM      2  C2  N4B d   1      -1.345   0.260   0.776  0.00  0.00     0.002 A 
ATOM      3  C3  N4B d   1      -1.704   0.931   1.919  0.00  0.00     0.002 A 
ATOM      4  C4  N4B d   1      -0.719   1.416   2.766  0.00  0.00    -0.004 A 
ATOM      5  C5  N4B d   1       0.597   1.263   2.441  0.00  0.00     0.002 A 
ATOM      6  C6  N4B d   1       0.972   0.594   1.293  0.00  0.00     0.002 A 
ENDROOT
BRANCH   1   7
ATOM      7  C1' N4B d   1       0.461  -0.719  -0.735  0.00  0.00     0.057 C 
BRANCH   7   8
ATOM      8  C2' N4B d   1       1.149   0.206  -1.733  0.00  0.00     0.009 C 
BRANCH   8   9
ATOM      9  C3' N4B d   1       0.787  -0.135  -3.168  0.00  0.00     0.004 C 
ATOM     10  C4' N4B d   1       1.156   0.951  -4.134  0.00  0.00     0.003 C 
ENDBRANCH   8   9
ENDBRANCH   7   8
ENDBRANCH   1   7
TORSDOF 3
ENDMDL
