MODEL 1
REMARK minimizedAffinity -3.98624992
REMARK minimizedRMSD -1
REMARK  1 active torsions:
REMARK  status: ('A' for Active; 'I' for Inactive)
REMARK    1  A    between atoms: C3_4  and  O_7 
ROOT
ATOM      1  C   UNL d   1       0.486   0.797  -0.342  0.00  0.00    -0.033 A 
ATOM      2  C1  UNL d   1      -0.766   0.480   0.190  0.00  0.00     0.039 A 
ATOM      3  C2  UNL d   1      -1.038  -0.823   0.611  0.00  0.00    -0.080 A 
ATOM      4  C3  UNL d   1      -0.051  -1.798   0.496  0.00  0.00     0.150 A 
ATOM      5  C4  UNL d   1       1.199  -1.489  -0.030  0.00  0.00    -0.007 A 
ATOM      6  C5  UNL d   1       1.469  -0.188  -0.451  0.00  0.00     0.039 A 
ENDROOT
BRANCH   4   7
ATOM      7  O   UNL d   1      -0.271  -3.085   0.889  0.00  0.00    -0.526 OA
ATOM      8  H5  UNL d   1      -1.188  -3.158   1.205  0.00  0.00     0.418 HD
ENDBRANCH   4   7
TORSDOF 1
ENDMDL
