MODEL 1
REMARK minimizedAffinity -1.25425386
REMARK minimizedRMSD -1
REMARK  1 active torsions:
REMARK  status: ('A' for Active; 'I' for Inactive)
REMARK    1  A    between atoms: C3_4  and  O_7 
ROOT
ATOM      1  C   UNL d   1       0.437  -1.507   0.313  0.00  0.00    -0.033 A 
ATOM      2  C1  UNL d   1      -0.336  -1.169  -0.800  0.00  0.00     0.039 A 
ATOM      3  C2  UNL d   1      -0.315   0.136  -1.296  0.00  0.00    -0.080 A 
ATOM      4  C3  UNL d   1       0.483   1.091  -0.672  0.00  0.00     0.150 A 
ATOM      5  C4  UNL d   1       1.258   0.760   0.434  0.00  0.00    -0.007 A 
ATOM      6  C5  UNL d   1       1.235  -0.543   0.929  0.00  0.00     0.039 A 
ENDROOT
BRANCH   4   7
ATOM      7  O   UNL d   1       0.533   2.379  -1.118  0.00  0.00    -0.526 OA
ATOM      8  H5  UNL d   1      -0.076   2.468  -1.870  0.00  0.00     0.418 HD
ENDBRANCH   4   7
TORSDOF 1
ENDMDL
