MODEL 1
REMARK minimizedAffinity -4.80978775
REMARK minimizedRMSD -1
REMARK  1 active torsions:
REMARK  status: ('A' for Active; 'I' for Inactive)
REMARK    1  A    between atoms: C3_4  and  O_7 
ROOT
ATOM      1  C   UNL d   1      -2.095  -2.375   1.632  0.00  0.00    -0.033 A 
ATOM      2  C1  UNL d   1      -2.612  -1.079   1.684  0.00  0.00     0.039 A 
ATOM      3  C2  UNL d   1      -1.948  -0.035   1.038  0.00  0.00    -0.080 A 
ATOM      4  C3  UNL d   1      -0.771  -0.299   0.343  0.00  0.00     0.150 A 
ATOM      5  C4  UNL d   1      -0.252  -1.589   0.284  0.00  0.00    -0.007 A 
ATOM      6  C5  UNL d   1      -0.916  -2.630   0.931  0.00  0.00     0.039 A 
ENDROOT
BRANCH   4   7
ATOM      7  O   UNL d   1      -0.085   0.689  -0.299  0.00  0.00    -0.526 OA
ATOM      8  H5  UNL d   1      -0.545   1.531  -0.148  0.00  0.00     0.418 HD
ENDBRANCH   4   7
TORSDOF 1
ENDMDL
