MODEL 1
REMARK minimizedAffinity -2.27872825
REMARK minimizedRMSD -1
REMARK  1 active torsions:
REMARK  status: ('A' for Active; 'I' for Inactive)
REMARK    1  A    between atoms: C3_4  and  O_7 
ROOT
ATOM      1  C   UNL d   1      -0.767  -2.445   1.680  0.00  0.00    -0.033 A 
ATOM      2  C1  UNL d   1       0.305  -2.569   0.793  0.00  0.00     0.039 A 
ATOM      3  C2  UNL d   1       0.693  -1.483   0.007  0.00  0.00    -0.080 A 
ATOM      4  C3  UNL d   1       0.001  -0.279   0.117  0.00  0.00     0.150 A 
ATOM      5  C4  UNL d   1      -1.065  -0.147   1.000  0.00  0.00    -0.007 A 
ATOM      6  C5  UNL d   1      -1.451  -1.234   1.784  0.00  0.00     0.039 A 
ENDROOT
BRANCH   4   7
ATOM      7  O   UNL d   1       0.340   0.808  -0.634  0.00  0.00    -0.526 OA
ATOM      8  H5  UNL d   1       1.075   0.561  -1.219  0.00  0.00     0.418 HD
ENDBRANCH   4   7
TORSDOF 1
ENDMDL
