MODEL 1
REMARK minimizedAffinity -1.98329222
REMARK minimizedRMSD -1
REMARK  1 active torsions:
REMARK  status: ('A' for Active; 'I' for Inactive)
REMARK    1  A    between atoms: C3_4  and  O_7 
ROOT
ATOM      1  C   UNL d   1      -0.620  -3.104   0.374  0.00  0.00    -0.033 A 
ATOM      2  C1  UNL d   1      -1.071  -2.347   1.457  0.00  0.00     0.039 A 
ATOM      3  C2  UNL d   1      -0.815  -0.975   1.506  0.00  0.00    -0.080 A 
ATOM      4  C3  UNL d   1      -0.110  -0.374   0.467  0.00  0.00     0.150 A 
ATOM      5  C4  UNL d   1       0.339  -1.121  -0.616  0.00  0.00    -0.007 A 
ATOM      6  C5  UNL d   1       0.084  -2.491  -0.663  0.00  0.00     0.039 A 
ENDROOT
BRANCH   4   7
ATOM      7  O   UNL d   1       0.167   0.961   0.473  0.00  0.00    -0.526 OA
ATOM      8  H5  UNL d   1      -0.179   1.343   1.297  0.00  0.00     0.418 HD
ENDBRANCH   4   7
TORSDOF 1
ENDMDL
