MODEL 1
REMARK minimizedAffinity -1.20321047
REMARK minimizedRMSD -1
REMARK  1 active torsions:
REMARK  status: ('A' for Active; 'I' for Inactive)
REMARK    1  A    between atoms: C3_4  and  O_7 
ROOT
ATOM      1  C   UNL d   1       0.542   1.188  -1.001  0.00  0.00    -0.033 A 
ATOM      2  C1  UNL d   1       0.758   1.049   0.371  0.00  0.00     0.039 A 
ATOM      3  C2  UNL d   1       0.728  -0.216   0.960  0.00  0.00    -0.080 A 
ATOM      4  C3  UNL d   1       0.482  -1.333   0.167  0.00  0.00     0.150 A 
ATOM      5  C4  UNL d   1       0.270  -1.203  -1.201  0.00  0.00    -0.007 A 
ATOM      6  C5  UNL d   1       0.299   0.061  -1.788  0.00  0.00     0.039 A 
ENDROOT
BRANCH   4   7
ATOM      7  O   UNL d   1       0.438  -2.588   0.698  0.00  0.00    -0.526 OA
ATOM      8  H5  UNL d   1       0.574  -2.521   1.658  0.00  0.00     0.418 HD
ENDBRANCH   4   7
TORSDOF 1
ENDMDL
