MODEL 1
REMARK minimizedAffinity -3.44126391
REMARK minimizedRMSD -1
REMARK  1 active torsions:
REMARK  status: ('A' for Active; 'I' for Inactive)
REMARK    1  A    between atoms: C3_4  and  O_7 
ROOT
ATOM      1  C   UNL d   1       0.372  -1.146   0.240  0.00  0.00    -0.033 A 
ATOM      2  C1  UNL d   1       0.558   0.170   0.669  0.00  0.00     0.039 A 
ATOM      3  C2  UNL d   1       0.437   1.225  -0.237  0.00  0.00    -0.080 A 
ATOM      4  C3  UNL d   1       0.129   0.952  -1.567  0.00  0.00     0.150 A 
ATOM      5  C4  UNL d   1      -0.061  -0.356  -2.001  0.00  0.00    -0.007 A 
ATOM      6  C5  UNL d   1       0.062  -1.409  -1.095  0.00  0.00     0.039 A 
ENDROOT
BRANCH   4   7
ATOM      7  O   UNL d   1       0.005   1.949  -2.489  0.00  0.00    -0.526 OA
ATOM      8  H5  UNL d   1       0.192   2.797  -2.052  0.00  0.00     0.418 HD
ENDBRANCH   4   7
TORSDOF 1
ENDMDL
