MODEL 1
REMARK minimizedAffinity -4.38545227
REMARK minimizedRMSD -1
REMARK  1 active torsions:
REMARK  status: ('A' for Active; 'I' for Inactive)
REMARK    1  A    between atoms: C3_4  and  O_7 
ROOT
ATOM      1  C   UNL d   1      -0.130   1.070   0.127  0.00  0.00    -0.033 A 
ATOM      2  C1  UNL d   1       0.532  -0.143  -0.069  0.00  0.00     0.039 A 
ATOM      3  C2  UNL d   1      -0.035  -1.332   0.395  0.00  0.00    -0.080 A 
ATOM      4  C3  UNL d   1      -1.262  -1.294   1.051  0.00  0.00     0.150 A 
ATOM      5  C4  UNL d   1      -1.929  -0.089   1.247  0.00  0.00    -0.007 A 
ATOM      6  C5  UNL d   1      -1.361   1.097   0.784  0.00  0.00     0.039 A 
ENDROOT
BRANCH   4   7
ATOM      7  O   UNL d   1      -1.852  -2.428   1.526  0.00  0.00    -0.526 OA
ATOM      8  H5  UNL d   1      -1.264  -3.180   1.344  0.00  0.00     0.418 HD
ENDBRANCH   4   7
TORSDOF 1
ENDMDL
