MODEL 1
REMARK minimizedAffinity -2.22806096
REMARK minimizedRMSD -1
REMARK  1 active torsions:
REMARK  status: ('A' for Active; 'I' for Inactive)
REMARK    1  A    between atoms: C3_4  and  O_7 
ROOT
ATOM      1  C   UNL d   1       0.881  -1.590   0.264  0.00  0.00    -0.033 A 
ATOM      2  C1  UNL d   1       1.563  -0.460   0.722  0.00  0.00     0.039 A 
ATOM      3  C2  UNL d   1       1.319   0.787   0.143  0.00  0.00    -0.080 A 
ATOM      4  C3  UNL d   1       0.392   0.891  -0.890  0.00  0.00     0.150 A 
ATOM      5  C4  UNL d   1      -0.294  -0.229  -1.349  0.00  0.00    -0.007 A 
ATOM      6  C5  UNL d   1      -0.049  -1.473  -0.770  0.00  0.00     0.039 A 
ENDROOT
BRANCH   4   7
ATOM      7  O   UNL d   1       0.125   2.086  -1.489  0.00  0.00    -0.526 OA
ATOM      8  H5  UNL d   1       0.693   2.765  -1.089  0.00  0.00     0.418 HD
ENDBRANCH   4   7
TORSDOF 1
ENDMDL
