MODEL 1
REMARK minimizedAffinity -3.46634364
REMARK minimizedRMSD -1
REMARK  1 active torsions:
REMARK  status: ('A' for Active; 'I' for Inactive)
REMARK    1  A    between atoms: C3_4  and  O_7 
ROOT
ATOM      1  C   UNL d   1      -0.853   0.683   0.381  0.00  0.00    -0.033 A 
ATOM      2  C1  UNL d   1       0.237  -0.137   0.082  0.00  0.00     0.039 A 
ATOM      3  C2  UNL d   1       0.325  -1.415   0.637  0.00  0.00    -0.080 A 
ATOM      4  C3  UNL d   1      -0.683  -1.861   1.487  0.00  0.00     0.150 A 
ATOM      5  C4  UNL d   1      -1.774  -1.051   1.786  0.00  0.00    -0.007 A 
ATOM      6  C5  UNL d   1      -1.859   0.225   1.232  0.00  0.00     0.039 A 
ENDROOT
BRANCH   4   7
ATOM      7  O   UNL d   1      -0.639  -3.099   2.056  0.00  0.00    -0.526 OA
ATOM      8  H5  UNL d   1       0.185  -3.535   1.783  0.00  0.00     0.418 HD
ENDBRANCH   4   7
TORSDOF 1
ENDMDL
