MODEL 1
REMARK minimizedAffinity -3.90468121
REMARK minimizedRMSD -1
REMARK  1 active torsions:
REMARK  status: ('A' for Active; 'I' for Inactive)
REMARK    1  A    between atoms: C3_4  and  O_7 
ROOT
ATOM      1  C   UNL d   1       0.814   1.295  -1.010  0.00  0.00    -0.033 A 
ATOM      2  C1  UNL d   1       0.074   0.152  -1.315  0.00  0.00     0.039 A 
ATOM      3  C2  UNL d   1      -0.396  -0.052  -2.614  0.00  0.00    -0.080 A 
ATOM      4  C3  UNL d   1      -0.117   0.894  -3.597  0.00  0.00     0.150 A 
ATOM      5  C4  UNL d   1       0.623   2.033  -3.301  0.00  0.00    -0.007 A 
ATOM      6  C5  UNL d   1       1.090   2.235  -2.003  0.00  0.00     0.039 A 
ENDROOT
BRANCH   4   7
ATOM      7  O   UNL d   1      -0.558   0.741  -4.878  0.00  0.00    -0.526 OA
ATOM      8  H5  UNL d   1      -1.080  -0.077  -4.929  0.00  0.00     0.418 HD
ENDBRANCH   4   7
TORSDOF 1
ENDMDL
