MODEL 1
REMARK minimizedAffinity -4.5473876
REMARK minimizedRMSD -1
REMARK  1 active torsions:
REMARK  status: ('A' for Active; 'I' for Inactive)
REMARK    1  A    between atoms: C3_4  and  O_7 
ROOT
ATOM      1  C   UNL d   1       0.188   0.101   0.148  0.00  0.00    -0.033 A 
ATOM      2  C1  UNL d   1       0.605   1.365  -0.272  0.00  0.00     0.039 A 
ATOM      3  C2  UNL d   1       1.023   1.563  -1.589  0.00  0.00    -0.080 A 
ATOM      4  C3  UNL d   1       1.019   0.490  -2.476  0.00  0.00     0.150 A 
ATOM      5  C4  UNL d   1       0.602  -0.772  -2.066  0.00  0.00    -0.007 A 
ATOM      6  C5  UNL d   1       0.185  -0.968  -0.750  0.00  0.00     0.039 A 
ENDROOT
BRANCH   4   7
ATOM      7  O   UNL d   1       1.423   0.634  -3.770  0.00  0.00    -0.526 OA
ATOM      8  H5  UNL d   1       1.711   1.552  -3.902  0.00  0.00     0.418 HD
ENDBRANCH   4   7
TORSDOF 1
ENDMDL
