MODEL 1
REMARK minimizedAffinity -2.84389997
REMARK minimizedRMSD -1
REMARK  1 active torsions:
REMARK  status: ('A' for Active; 'I' for Inactive)
REMARK    1  A    between atoms: C3_4  and  O_7 
ROOT
ATOM      1  C   UNL d   1      -0.032  -2.161   0.935  0.00  0.00    -0.033 A 
ATOM      2  C1  UNL d   1      -0.749  -0.982   1.147  0.00  0.00     0.039 A 
ATOM      3  C2  UNL d   1      -0.467   0.154   0.386  0.00  0.00    -0.080 A 
ATOM      4  C3  UNL d   1       0.531   0.098  -0.582  0.00  0.00     0.150 A 
ATOM      5  C4  UNL d   1       1.247  -1.075  -0.801  0.00  0.00    -0.007 A 
ATOM      6  C5  UNL d   1       0.965  -2.208  -0.040  0.00  0.00     0.039 A 
ENDROOT
BRANCH   4   7
ATOM      7  O   UNL d   1       0.845   1.182  -1.346  0.00  0.00    -0.526 OA
ATOM      8  H5  UNL d   1       0.290   1.928  -1.065  0.00  0.00     0.418 HD
ENDBRANCH   4   7
TORSDOF 1
ENDMDL
