MODEL 1
REMARK minimizedAffinity -2.96529317
REMARK minimizedRMSD -1
REMARK  1 active torsions:
REMARK  status: ('A' for Active; 'I' for Inactive)
REMARK    1  A    between atoms: C3_4  and  O_7 
ROOT
ATOM      1  C   UNL d   1       1.139  -0.457   0.173  0.00  0.00    -0.033 A 
ATOM      2  C1  UNL d   1       1.261  -1.348   1.241  0.00  0.00     0.039 A 
ATOM      3  C2  UNL d   1       0.277  -2.314   1.463  0.00  0.00    -0.080 A 
ATOM      4  C3  UNL d   1      -0.822  -2.378   0.611  0.00  0.00     0.150 A 
ATOM      5  C4  UNL d   1      -0.948  -1.496  -0.457  0.00  0.00    -0.007 A 
ATOM      6  C5  UNL d   1       0.035  -0.532  -0.677  0.00  0.00     0.039 A 
ENDROOT
BRANCH   4   7
ATOM      7  O   UNL d   1      -1.810  -3.300   0.791  0.00  0.00    -0.526 OA
ATOM      8  H5  UNL d   1      -1.602  -3.822   1.584  0.00  0.00     0.418 HD
ENDBRANCH   4   7
TORSDOF 1
ENDMDL
