MODEL 1
REMARK minimizedAffinity -3.35982537
REMARK minimizedRMSD -1
REMARK  1 active torsions:
REMARK  status: ('A' for Active; 'I' for Inactive)
REMARK    1  A    between atoms: C3_4  and  O_7 
ROOT
ATOM      1  C   UNL d   1      -0.087   1.969  -2.505  0.00  0.00    -0.033 A 
ATOM      2  C1  UNL d   1       0.228   2.394  -3.797  0.00  0.00     0.039 A 
ATOM      3  C2  UNL d   1       1.489   2.129  -4.333  0.00  0.00    -0.080 A 
ATOM      4  C3  UNL d   1       2.425   1.439  -3.568  0.00  0.00     0.150 A 
ATOM      5  C4  UNL d   1       2.117   1.009  -2.281  0.00  0.00    -0.007 A 
ATOM      6  C5  UNL d   1       0.857   1.275  -1.747  0.00  0.00     0.039 A 
ENDROOT
BRANCH   4   7
ATOM      7  O   UNL d   1       3.672   1.161  -4.046  0.00  0.00    -0.526 OA
ATOM      8  H5  UNL d   1       3.752   1.544  -4.936  0.00  0.00     0.418 HD
ENDBRANCH   4   7
TORSDOF 1
ENDMDL
