MODEL 1
REMARK minimizedAffinity -0.436215043
REMARK minimizedRMSD -1
REMARK  0 active torsions:
REMARK  status: ('A' for Active; 'I' for Inactive)
ROOT
ATOM      1  C   UNL d   1      -0.411   0.392   0.971  0.00  0.00     0.023 A 
ATOM      2  C1  UNL d   1       0.536   0.586  -0.034  0.00  0.00     0.003 A 
ATOM      3  C2  UNL d   1       0.728  -0.392  -1.013  0.00  0.00     0.048 A 
ATOM      4  C3  UNL d   1      -0.032  -1.561  -0.980  0.00  0.00     0.023 A 
ATOM      5  C4  UNL d   1      -0.982  -1.759   0.023  0.00  0.00     0.048 A 
ATOM      6  C5  UNL d   1      -1.169  -0.779   1.000  0.00  0.00     0.003 A 
ATOM      7  I   UNL d   1       0.251  -3.017  -2.436  0.00  0.00    -0.146 I 
ENDROOT
TORSDOF 0
ENDMDL
