MODEL 1
REMARK minimizedAffinity -3.03387284
REMARK minimizedRMSD -1
REMARK  0 active torsions:
REMARK  status: ('A' for Active; 'I' for Inactive)
ROOT
ATOM      1  C   UNL d   1       0.630  -2.083  -1.638  0.00  0.00     0.023 A 
ATOM      2  C1  UNL d   1      -0.705  -2.108  -1.234  0.00  0.00     0.003 A 
ATOM      3  C2  UNL d   1      -1.152  -1.234  -0.241  0.00  0.00     0.048 A 
ATOM      4  C3  UNL d   1      -0.260  -0.336   0.342  0.00  0.00     0.023 A 
ATOM      5  C4  UNL d   1       1.077  -0.306  -0.059  0.00  0.00     0.048 A 
ATOM      6  C5  UNL d   1       1.520  -1.183  -1.052  0.00  0.00     0.003 A 
ATOM      7  I   UNL d   1      -0.923   0.966   1.820  0.00  0.00    -0.146 I 
ENDROOT
TORSDOF 0
ENDMDL
