MODEL 1
REMARK minimizedAffinity -3.2747364
REMARK minimizedRMSD -1
REMARK  0 active torsions:
REMARK  status: ('A' for Active; 'I' for Inactive)
ROOT
ATOM      1  C   UNL d   1      -0.704   0.170   1.012  0.00  0.00     0.023 A 
ATOM      2  C1  UNL d   1       0.492   0.227   0.298  0.00  0.00     0.003 A 
ATOM      3  C2  UNL d   1       0.712  -0.645  -0.770  0.00  0.00     0.048 A 
ATOM      4  C3  UNL d   1      -0.269  -1.572  -1.118  0.00  0.00     0.023 A 
ATOM      5  C4  UNL d   1      -1.468  -1.633  -0.407  0.00  0.00     0.048 A 
ATOM      6  C5  UNL d   1      -1.684  -0.759   0.660  0.00  0.00     0.003 A 
ATOM      7  I   UNL d   1       0.056  -2.872  -2.707  0.00  0.00    -0.146 I 
ENDROOT
TORSDOF 0
ENDMDL
