MODEL 1
REMARK minimizedAffinity -3.45889401
REMARK minimizedRMSD -1
REMARK  0 active torsions:
REMARK  status: ('A' for Active; 'I' for Inactive)
ROOT
ATOM      1  C   UNL d   1       0.796  -2.311  -1.457  0.00  0.00     0.023 A 
ATOM      2  C1  UNL d   1       1.572  -1.351  -0.808  0.00  0.00     0.003 A 
ATOM      3  C2  UNL d   1       0.980  -0.469   0.098  0.00  0.00     0.048 A 
ATOM      4  C3  UNL d   1      -0.389  -0.553   0.351  0.00  0.00     0.023 A 
ATOM      5  C4  UNL d   1      -1.169  -1.513  -0.296  0.00  0.00     0.048 A 
ATOM      6  C5  UNL d   1      -0.573  -2.392  -1.202  0.00  0.00     0.003 A 
ATOM      7  I   UNL d   1      -1.273   0.759   1.699  0.00  0.00    -0.146 I 
ENDROOT
TORSDOF 0
ENDMDL
