MODEL 1
REMARK minimizedAffinity 1.40415001
REMARK minimizedRMSD -1
REMARK  0 active torsions:
REMARK  status: ('A' for Active; 'I' for Inactive)
ROOT
ATOM      1  C   UNL d   1       1.031  -4.394  -2.109  0.00  0.00     0.023 A 
ATOM      2  C1  UNL d   1       0.326  -3.598  -3.012  0.00  0.00     0.003 A 
ATOM      3  C2  UNL d   1       0.197  -2.226  -2.783  0.00  0.00     0.048 A 
ATOM      4  C3  UNL d   1       0.777  -1.657  -1.650  0.00  0.00     0.023 A 
ATOM      5  C4  UNL d   1       1.484  -2.449  -0.744  0.00  0.00     0.048 A 
ATOM      6  C5  UNL d   1       1.609  -3.820  -0.976  0.00  0.00     0.003 A 
ATOM      7  I   UNL d   1       0.588   0.384  -1.308  0.00  0.00    -0.146 I 
ENDROOT
TORSDOF 0
ENDMDL
