MODEL 1
REMARK minimizedAffinity -3.03473878
REMARK minimizedRMSD -1
REMARK  0 active torsions:
REMARK  status: ('A' for Active; 'I' for Inactive)
ROOT
ATOM      1  C   UNL d   1       0.274  -3.319  -2.513  0.00  0.00     0.023 A 
ATOM      2  C1  UNL d   1      -0.943  -2.644  -2.417  0.00  0.00     0.003 A 
ATOM      3  C2  UNL d   1      -1.065  -1.540  -1.571  0.00  0.00     0.048 A 
ATOM      4  C3  UNL d   1       0.034  -1.115  -0.826  0.00  0.00     0.023 A 
ATOM      5  C4  UNL d   1       1.254  -1.786  -0.920  0.00  0.00     0.048 A 
ATOM      6  C5  UNL d   1       1.371  -2.891  -1.766  0.00  0.00     0.003 A 
ATOM      7  I   UNL d   1      -0.145   0.529   0.433  0.00  0.00    -0.146 I 
ENDROOT
TORSDOF 0
ENDMDL
