MODEL 1
REMARK minimizedAffinity -2.10208654
REMARK minimizedRMSD -1
REMARK  0 active torsions:
REMARK  status: ('A' for Active; 'I' for Inactive)
ROOT
ATOM      1  C   UNL d   1      -0.750   0.588   0.838  0.00  0.00     0.023 A 
ATOM      2  C1  UNL d   1       0.204   0.759  -0.166  0.00  0.00     0.003 A 
ATOM      3  C2  UNL d   1       0.547  -0.311  -0.995  0.00  0.00     0.048 A 
ATOM      4  C3  UNL d   1      -0.069  -1.549  -0.817  0.00  0.00     0.023 A 
ATOM      5  C4  UNL d   1      -1.024  -1.725   0.186  0.00  0.00     0.048 A 
ATOM      6  C5  UNL d   1      -1.363  -0.653   1.013  0.00  0.00     0.003 A 
ATOM      7  I   UNL d   1       0.439  -3.143  -2.050  0.00  0.00    -0.146 I 
ENDROOT
TORSDOF 0
ENDMDL
