MODEL 1
REMARK minimizedAffinity -2.89579678
REMARK minimizedRMSD -1
REMARK  0 active torsions:
REMARK  status: ('A' for Active; 'I' for Inactive)
ROOT
ATOM      1  C   UNL d   1      -1.490   2.794   1.885  0.00  0.00     0.023 A 
ATOM      2  C1  UNL d   1      -0.531   2.981   0.889  0.00  0.00     0.003 A 
ATOM      3  C2  UNL d   1      -0.023   1.883   0.192  0.00  0.00     0.048 A 
ATOM      4  C3  UNL d   1      -0.479   0.600   0.496  0.00  0.00     0.023 A 
ATOM      5  C4  UNL d   1      -1.439   0.408   1.490  0.00  0.00     0.048 A 
ATOM      6  C5  UNL d   1      -1.944   1.509   2.185  0.00  0.00     0.003 A 
ATOM      7  I   UNL d   1       0.276  -1.036  -0.540  0.00  0.00    -0.146 I 
ENDROOT
TORSDOF 0
ENDMDL
