MODEL 1
REMARK minimizedAffinity -3.98988628
REMARK minimizedRMSD -1
REMARK  0 active torsions:
REMARK  status: ('A' for Active; 'I' for Inactive)
ROOT
ATOM      1  C   UNL d   1      -1.161   1.930   1.931  0.00  0.00     0.023 A 
ATOM      2  C1  UNL d   1      -0.652   2.356   0.704  0.00  0.00     0.003 A 
ATOM      3  C2  UNL d   1      -0.140   1.425  -0.202  0.00  0.00     0.048 A 
ATOM      4  C3  UNL d   1      -0.142   0.069   0.124  0.00  0.00     0.023 A 
ATOM      5  C4  UNL d   1      -0.651  -0.362   1.350  0.00  0.00     0.048 A 
ATOM      6  C5  UNL d   1      -1.160   0.572   2.253  0.00  0.00     0.003 A 
ATOM      7  I   UNL d   1       0.619  -1.318  -1.224  0.00  0.00    -0.146 I 
ENDROOT
TORSDOF 0
ENDMDL
