MODEL 1
REMARK minimizedAffinity -3.213341
REMARK minimizedRMSD -1
REMARK  0 active torsions:
REMARK  status: ('A' for Active; 'I' for Inactive)
ROOT
ATOM      1  C   UNL d   1      -1.048   1.864   1.760  0.00  0.00     0.023 A 
ATOM      2  C1  UNL d   1      -0.257   2.211   0.664  0.00  0.00     0.003 A 
ATOM      3  C2  UNL d   1       0.224   1.218  -0.193  0.00  0.00     0.048 A 
ATOM      4  C3  UNL d   1      -0.091  -0.118   0.051  0.00  0.00     0.023 A 
ATOM      5  C4  UNL d   1      -0.882  -0.469   1.146  0.00  0.00     0.048 A 
ATOM      6  C5  UNL d   1      -1.360   0.526   2.000  0.00  0.00     0.003 A 
ATOM      7  I   UNL d   1       0.623  -1.596  -1.223  0.00  0.00    -0.146 I 
ENDROOT
TORSDOF 0
ENDMDL
