MODEL 1
REMARK minimizedAffinity -3.35573816
REMARK minimizedRMSD -1
REMARK  0 active torsions:
REMARK  status: ('A' for Active; 'I' for Inactive)
ROOT
ATOM      1  C   UNL d   1      -0.142   0.034   1.722  0.00  0.00     0.023 A 
ATOM      2  C1  UNL d   1      -1.206  -0.561   1.043  0.00  0.00     0.003 A 
ATOM      3  C2  UNL d   1      -0.965  -1.336  -0.093  0.00  0.00     0.048 A 
ATOM      4  C3  UNL d   1       0.342  -1.513  -0.545  0.00  0.00     0.023 A 
ATOM      5  C4  UNL d   1       1.410  -0.921   0.131  0.00  0.00     0.048 A 
ATOM      6  C5  UNL d   1       1.165  -0.146   1.266  0.00  0.00     0.003 A 
ATOM      7  I   UNL d   1       0.702  -2.667  -2.236  0.00  0.00    -0.146 I 
ENDROOT
TORSDOF 0
ENDMDL
