MODEL 1
REMARK minimizedAffinity -3.74253964
REMARK minimizedRMSD -1
REMARK  0 active torsions:
REMARK  status: ('A' for Active; 'I' for Inactive)
ROOT
ATOM      1  C   UNL d   1      -0.096  -0.304   1.194  0.00  0.00     0.023 A 
ATOM      2  C1  UNL d   1      -1.220  -0.557   0.408  0.00  0.00     0.003 A 
ATOM      3  C2  UNL d   1      -1.085  -1.210  -0.818  0.00  0.00     0.048 A 
ATOM      4  C3  UNL d   1       0.179  -1.609  -1.253  0.00  0.00     0.023 A 
ATOM      5  C4  UNL d   1       1.307  -1.359  -0.470  0.00  0.00     0.048 A 
ATOM      6  C5  UNL d   1       1.167  -0.704   0.755  0.00  0.00     0.003 A 
ATOM      7  I   UNL d   1       0.384  -2.582  -3.078  0.00  0.00    -0.146 I 
ENDROOT
TORSDOF 0
ENDMDL
