MODEL 1
REMARK minimizedAffinity 9.50375175
REMARK minimizedRMSD -1
REMARK  0 active torsions:
REMARK  status: ('A' for Active; 'I' for Inactive)
ROOT
ATOM      1  C1  DEN d   1      -2.554  -1.421  -1.035  0.00  0.00     0.130 A 
ATOM      2  C2  DEN d   1      -1.778  -0.210  -1.285  0.00  0.00    -0.031 A 
ATOM      3  C3  DEN d   1      -1.559   0.467   0.009  0.00  0.00     0.027 A 
ATOM      4  C4  DEN d   1      -2.339  -0.241   2.363  0.00  0.00     0.027 A 
ATOM      5  C5  DEN d   1      -3.037  -1.191   3.076  0.00  0.00    -0.003 A 
ATOM      6  C6  DEN d   1      -3.648  -2.256   2.469  0.00  0.00     0.001 A 
ATOM      7  C7  DEN d   1      -3.533  -2.423   1.115  0.00  0.00     0.017 A 
ATOM      8  C8  DEN d   1      -2.836  -1.466   0.388  0.00  0.00    -0.094 A 
ATOM      9  C9  DEN d   1      -2.216  -0.403   1.021  0.00  0.00    -0.072 A 
ENDROOT
TORSDOF 0
ENDMDL
