MODEL 1
REMARK minimizedAffinity 3.6215539
REMARK minimizedRMSD -1
REMARK  0 active torsions:
REMARK  status: ('A' for Active; 'I' for Inactive)
ROOT
ATOM      1  C1  DEN d   1      -1.992  -0.486   2.926  0.00  0.00     0.130 A 
ATOM      2  C2  DEN d   1      -2.416   0.065   1.641  0.00  0.00    -0.031 A 
ATOM      3  C3  DEN d   1      -1.231   0.143   0.764  0.00  0.00     0.027 A 
ATOM      4  C4  DEN d   1       1.206  -0.536   1.266  0.00  0.00     0.027 A 
ATOM      5  C5  DEN d   1       2.056  -1.043   2.224  0.00  0.00    -0.003 A 
ATOM      6  C6  DEN d   1       1.626  -1.365   3.484  0.00  0.00     0.001 A 
ATOM      7  C7  DEN d   1       0.301  -1.226   3.806  0.00  0.00     0.017 A 
ATOM      8  C8  DEN d   1      -0.560  -0.709   2.847  0.00  0.00    -0.094 A 
ATOM      9  C9  DEN d   1      -0.108  -0.401   1.575  0.00  0.00    -0.072 A 
ENDROOT
TORSDOF 0
ENDMDL
