MODEL 1
REMARK minimizedAffinity 10.5752831
REMARK minimizedRMSD -1
REMARK  0 active torsions:
REMARK  status: ('A' for Active; 'I' for Inactive)
ROOT
ATOM      1  C1  DEN d   1       3.856   0.002   3.383  0.00  0.00     0.130 A 
ATOM      2  C2  DEN d   1       4.919   0.902   3.820  0.00  0.00    -0.031 A 
ATOM      3  C3  DEN d   1       5.147   1.893   2.749  0.00  0.00     0.027 A 
ATOM      4  C4  DEN d   1       3.962   2.121   0.470  0.00  0.00     0.027 A 
ATOM      5  C5  DEN d   1       3.000   1.580  -0.354  0.00  0.00    -0.003 A 
ATOM      6  C6  DEN d   1       2.285   0.464  -0.008  0.00  0.00     0.001 A 
ATOM      7  C7  DEN d   1       2.490  -0.121   1.214  0.00  0.00     0.017 A 
ATOM      8  C8  DEN d   1       3.464   0.414   2.047  0.00  0.00    -0.094 A 
ATOM      9  C9  DEN d   1       4.167   1.550   1.684  0.00  0.00    -0.072 A 
ENDROOT
TORSDOF 0
ENDMDL
