MODEL 1
REMARK minimizedAffinity 2.35785437
REMARK minimizedRMSD -1
REMARK  0 active torsions:
REMARK  status: ('A' for Active; 'I' for Inactive)
ROOT
ATOM      1  C1  DEN d   1      -0.613  -0.389  -0.858  0.00  0.00     0.130 A 
ATOM      2  C2  DEN d   1      -2.059  -0.205  -0.954  0.00  0.00    -0.031 A 
ATOM      3  C3  DEN d   1      -2.603  -0.144   0.418  0.00  0.00     0.027 A 
ATOM      4  C4  DEN d   1      -1.354  -0.311   2.668  0.00  0.00     0.027 A 
ATOM      5  C5  DEN d   1      -0.121  -0.482   3.257  0.00  0.00    -0.003 A 
ATOM      6  C6  DEN d   1       1.020  -0.666   2.522  0.00  0.00     0.001 A 
ATOM      7  C7  DEN d   1       0.959  -0.639   1.154  0.00  0.00     0.017 A 
ATOM      8  C8  DEN d   1      -0.282  -0.474   0.553  0.00  0.00    -0.094 A 
ATOM      9  C9  DEN d   1      -1.423  -0.277   1.313  0.00  0.00    -0.072 A 
ENDROOT
TORSDOF 0
ENDMDL
