MODEL 1
REMARK minimizedAffinity 10.9547815
REMARK minimizedRMSD -1
REMARK  0 active torsions:
REMARK  status: ('A' for Active; 'I' for Inactive)
ROOT
ATOM      1  C1  DEN d   1       1.097  -0.435   1.419  0.00  0.00     0.130 A 
ATOM      2  C2  DEN d   1       2.033   0.327   0.596  0.00  0.00    -0.031 A 
ATOM      3  C3  DEN d   1       3.295   0.465   1.349  0.00  0.00     0.027 A 
ATOM      4  C4  DEN d   1       3.892  -0.426   3.694  0.00  0.00     0.027 A 
ATOM      5  C5  DEN d   1       3.418  -1.121   4.785  0.00  0.00    -0.003 A 
ATOM      6  C6  DEN d   1       2.137  -1.603   4.844  0.00  0.00     0.001 A 
ATOM      7  C7  DEN d   1       1.299  -1.435   3.773  0.00  0.00     0.017 A 
ATOM      8  C8  DEN d   1       1.767  -0.729   2.673  0.00  0.00    -0.094 A 
ATOM      9  C9  DEN d   1       3.069  -0.261   2.628  0.00  0.00    -0.072 A 
ENDROOT
TORSDOF 0
ENDMDL
