MODEL 1
REMARK minimizedAffinity -4.74148417
REMARK minimizedRMSD -1
REMARK  0 active torsions:
REMARK  status: ('A' for Active; 'I' for Inactive)
ROOT
ATOM      1  C   UNL d   1      -1.640   0.020   0.821  0.00  0.00     0.078 C 
ATOM      2  C1  UNL d   1      -0.415  -0.446   0.091  0.00  0.00    -0.077 A 
ATOM      3  C2  UNL d   1       0.334  -1.532   0.559  0.00  0.00    -0.001 A 
ATOM      4  C3  UNL d   1       1.477  -1.948  -0.125  0.00  0.00     0.003 A 
ATOM      5  C4  UNL d   1       1.881  -1.284  -1.282  0.00  0.00    -0.005 A 
ATOM      6  C5  UNL d   1       1.143  -0.200  -1.754  0.00  0.00     0.003 A 
ATOM      7  C6  UNL d   1      -0.000   0.218  -1.071  0.00  0.00    -0.001 A 
ENDROOT
TORSDOF 0
ENDMDL
