MODEL 1
REMARK minimizedAffinity -5.30086708
REMARK minimizedRMSD -1
REMARK  0 active torsions:
REMARK  status: ('A' for Active; 'I' for Inactive)
ROOT
ATOM      1  C   UNL d   1      -0.982   0.652   0.508  0.00  0.00     0.078 C 
ATOM      2  C1  UNL d   1       0.255   0.063  -0.102  0.00  0.00    -0.077 A 
ATOM      3  C2  UNL d   1       1.348   0.871  -0.439  0.00  0.00    -0.001 A 
ATOM      4  C3  UNL d   1       2.489   0.311  -1.015  0.00  0.00     0.003 A 
ATOM      5  C4  UNL d   1       2.548  -1.060  -1.261  0.00  0.00    -0.005 A 
ATOM      6  C5  UNL d   1       1.465  -1.872  -0.931  0.00  0.00     0.003 A 
ATOM      7  C6  UNL d   1       0.323  -1.313  -0.354  0.00  0.00    -0.001 A 
ENDROOT
TORSDOF 0
ENDMDL
