MODEL 1
REMARK minimizedAffinity 4.33885527
REMARK minimizedRMSD -1
REMARK  0 active torsions:
REMARK  status: ('A' for Active; 'I' for Inactive)
ROOT
ATOM      1  C   UNL d   1       0.430  -2.414   1.025  0.00  0.00     0.078 C 
ATOM      2  C1  UNL d   1       0.022  -1.161   0.309  0.00  0.00    -0.077 A 
ATOM      3  C2  UNL d   1       0.880  -0.542  -0.608  0.00  0.00    -0.001 A 
ATOM      4  C3  UNL d   1       0.491   0.629  -1.259  0.00  0.00     0.003 A 
ATOM      5  C4  UNL d   1      -0.757   1.193  -0.999  0.00  0.00    -0.005 A 
ATOM      6  C5  UNL d   1      -1.617   0.585  -0.087  0.00  0.00     0.003 A 
ATOM      7  C6  UNL d   1      -1.229  -0.586   0.566  0.00  0.00    -0.001 A 
ENDROOT
TORSDOF 0
ENDMDL
