MODEL 1
REMARK minimizedAffinity -2.69610357
REMARK minimizedRMSD -1
REMARK  0 active torsions:
REMARK  status: ('A' for Active; 'I' for Inactive)
ROOT
ATOM      1  C   UNL d   1       5.772   2.832   4.837  0.00  0.00     0.078 C 
ATOM      2  C1  UNL d   1       5.599   1.343   4.821  0.00  0.00    -0.077 A 
ATOM      3  C2  UNL d   1       5.255   0.670   3.642  0.00  0.00    -0.001 A 
ATOM      4  C3  UNL d   1       5.088  -0.716   3.643  0.00  0.00     0.003 A 
ATOM      5  C4  UNL d   1       5.260  -1.440   4.821  0.00  0.00    -0.005 A 
ATOM      6  C5  UNL d   1       5.600  -0.779   5.999  0.00  0.00     0.003 A 
ATOM      7  C6  UNL d   1       5.768   0.607   6.000  0.00  0.00    -0.001 A 
ENDROOT
TORSDOF 0
ENDMDL
