MODEL 1
REMARK minimizedAffinity -1.91926396
REMARK minimizedRMSD -1
REMARK  0 active torsions:
REMARK  status: ('A' for Active; 'I' for Inactive)
ROOT
ATOM      1  C   UNL d   1       2.249  -1.504  -1.124  0.00  0.00     0.078 C 
ATOM      2  C1  UNL d   1       0.928  -1.080  -0.554  0.00  0.00    -0.077 A 
ATOM      3  C2  UNL d   1      -0.146  -1.975  -0.481  0.00  0.00    -0.001 A 
ATOM      4  C3  UNL d   1      -1.373  -1.564   0.043  0.00  0.00     0.003 A 
ATOM      5  C4  UNL d   1      -1.537  -0.256   0.495  0.00  0.00    -0.005 A 
ATOM      6  C5  UNL d   1      -0.475   0.642   0.424  0.00  0.00     0.003 A 
ATOM      7  C6  UNL d   1       0.753   0.233  -0.099  0.00  0.00    -0.001 A 
ENDROOT
TORSDOF 0
ENDMDL
