MODEL 1
REMARK minimizedAffinity -5.11992693
REMARK minimizedRMSD -1
REMARK  0 active torsions:
REMARK  status: ('A' for Active; 'I' for Inactive)
ROOT
ATOM      1  C   UNL d   1      -1.046   0.735  -0.684  0.00  0.00     0.078 C 
ATOM      2  C1  UNL d   1       0.236  -0.035  -0.792  0.00  0.00    -0.077 A 
ATOM      3  C2  UNL d   1       1.390   0.556  -1.323  0.00  0.00    -0.001 A 
ATOM      4  C3  UNL d   1       2.574  -0.176  -1.427  0.00  0.00     0.003 A 
ATOM      5  C4  UNL d   1       2.615  -1.503  -1.004  0.00  0.00    -0.005 A 
ATOM      6  C5  UNL d   1       1.472  -2.100  -0.477  0.00  0.00     0.003 A 
ATOM      7  C6  UNL d   1       0.287  -1.370  -0.372  0.00  0.00    -0.001 A 
ENDROOT
TORSDOF 0
ENDMDL
