MODEL 1
REMARK minimizedAffinity -3.66317964
REMARK minimizedRMSD -1
REMARK  0 active torsions:
REMARK  status: ('A' for Active; 'I' for Inactive)
ROOT
ATOM      1  C   UNL d   1      -3.046  -1.198   3.368  0.00  0.00     0.078 C 
ATOM      2  C1  UNL d   1      -2.207  -0.218   2.602  0.00  0.00    -0.077 A 
ATOM      3  C2  UNL d   1      -1.778   0.978   3.190  0.00  0.00    -0.001 A 
ATOM      4  C3  UNL d   1      -1.005   1.884   2.463  0.00  0.00     0.003 A 
ATOM      5  C4  UNL d   1      -0.656   1.605   1.143  0.00  0.00    -0.005 A 
ATOM      6  C5  UNL d   1      -1.080   0.418   0.549  0.00  0.00     0.003 A 
ATOM      7  C6  UNL d   1      -1.853  -0.490   1.275  0.00  0.00    -0.001 A 
ENDROOT
TORSDOF 0
ENDMDL
