MODEL 1
REMARK minimizedAffinity -4.5339632
REMARK minimizedRMSD -1
REMARK  0 active torsions:
REMARK  status: ('A' for Active; 'I' for Inactive)
ROOT
ATOM      1  C   UNL d   1      -0.951   0.248   0.585  0.00  0.00     0.078 C 
ATOM      2  C1  UNL d   1       0.315  -0.256  -0.041  0.00  0.00    -0.077 A 
ATOM      3  C2  UNL d   1       1.208   0.620  -0.669  0.00  0.00    -0.001 A 
ATOM      4  C3  UNL d   1       2.378   0.136  -1.256  0.00  0.00     0.003 A 
ATOM      5  C4  UNL d   1       2.665  -1.227  -1.222  0.00  0.00    -0.005 A 
ATOM      6  C5  UNL d   1       1.781  -2.108  -0.601  0.00  0.00     0.003 A 
ATOM      7  C6  UNL d   1       0.611  -1.625  -0.014  0.00  0.00    -0.001 A 
ENDROOT
TORSDOF 0
ENDMDL
