MODEL 1
REMARK minimizedAffinity -3.19218874
REMARK minimizedRMSD -1
REMARK  0 active torsions:
REMARK  status: ('A' for Active; 'I' for Inactive)
ROOT
ATOM      1  C   UNL d   1      -3.527  -1.451   4.539  0.00  0.00     0.078 C 
ATOM      2  C1  UNL d   1      -2.872  -0.380   3.719  0.00  0.00    -0.077 A 
ATOM      3  C2  UNL d   1      -2.180   0.673   4.329  0.00  0.00    -0.001 A 
ATOM      4  C3  UNL d   1      -1.584   1.669   3.553  0.00  0.00     0.003 A 
ATOM      5  C4  UNL d   1      -1.675   1.621   2.163  0.00  0.00    -0.005 A 
ATOM      6  C5  UNL d   1      -2.364   0.578   1.548  0.00  0.00     0.003 A 
ATOM      7  C6  UNL d   1      -2.961  -0.418   2.322  0.00  0.00    -0.001 A 
ENDROOT
TORSDOF 0
ENDMDL
