MODEL 1
REMARK minimizedAffinity -1.3495549
REMARK minimizedRMSD -1
REMARK  0 active torsions:
REMARK  status: ('A' for Active; 'I' for Inactive)
ROOT
ATOM      1  C   UNL d   1      -0.780   0.356   0.251  0.00  0.00     0.078 C 
ATOM      2  C1  UNL d   1      -1.323   0.693   1.608  0.00  0.00    -0.077 A 
ATOM      3  C2  UNL d   1      -0.890   1.833   2.296  0.00  0.00    -0.001 A 
ATOM      4  C3  UNL d   1      -1.397   2.129   3.562  0.00  0.00     0.003 A 
ATOM      5  C4  UNL d   1      -2.340   1.290   4.152  0.00  0.00    -0.005 A 
ATOM      6  C5  UNL d   1      -2.776   0.152   3.476  0.00  0.00     0.003 A 
ATOM      7  C6  UNL d   1      -2.270  -0.146   2.209  0.00  0.00    -0.001 A 
ENDROOT
TORSDOF 0
ENDMDL
