MODEL 1
REMARK minimizedAffinity -5.0215745
REMARK minimizedRMSD -1
REMARK  0 active torsions:
REMARK  status: ('A' for Active; 'I' for Inactive)
ROOT
ATOM      1  C   UNL d   1      -1.392   0.032   0.385  0.00  0.00     0.078 C 
ATOM      2  C1  UNL d   1      -0.065  -0.386  -0.175  0.00  0.00    -0.077 A 
ATOM      3  C2  UNL d   1       0.371  -1.714  -0.081  0.00  0.00    -0.001 A 
ATOM      4  C3  UNL d   1       1.612  -2.087  -0.597  0.00  0.00     0.003 A 
ATOM      5  C4  UNL d   1       2.429  -1.139  -1.211  0.00  0.00    -0.005 A 
ATOM      6  C5  UNL d   1       2.004   0.184  -1.307  0.00  0.00     0.003 A 
ATOM      7  C6  UNL d   1       0.763   0.560  -0.791  0.00  0.00    -0.001 A 
ENDROOT
TORSDOF 0
ENDMDL
