MODEL 1
REMARK minimizedAffinity -2.66759706
REMARK minimizedRMSD -1
REMARK  0 active torsions:
REMARK  status: ('A' for Active; 'I' for Inactive)
ROOT
ATOM      1  C   UNL d   1      -2.515   0.446   3.376  0.00  0.00     0.078 C 
ATOM      2  C1  UNL d   1      -1.852   1.352   2.382  0.00  0.00    -0.077 A 
ATOM      3  C2  UNL d   1      -1.566   0.912   1.084  0.00  0.00    -0.001 A 
ATOM      4  C3  UNL d   1      -0.940   1.763   0.171  0.00  0.00     0.003 A 
ATOM      5  C4  UNL d   1      -0.593   3.059   0.548  0.00  0.00    -0.005 A 
ATOM      6  C5  UNL d   1      -0.871   3.505   1.838  0.00  0.00     0.003 A 
ATOM      7  C6  UNL d   1      -1.497   2.655   2.752  0.00  0.00    -0.001 A 
ENDROOT
TORSDOF 0
ENDMDL
