MODEL 1
REMARK minimizedAffinity -4.15937901
REMARK minimizedRMSD -1
REMARK  0 active torsions:
REMARK  status: ('A' for Active; 'I' for Inactive)
ROOT
ATOM      1  C   UNL d   1      -0.875   0.819   0.511  0.00  0.00     0.078 C 
ATOM      2  C1  UNL d   1      -1.887   0.853   1.617  0.00  0.00    -0.077 A 
ATOM      3  C2  UNL d   1      -2.873  -0.137   1.723  0.00  0.00    -0.001 A 
ATOM      4  C3  UNL d   1      -3.815  -0.087   2.752  0.00  0.00     0.003 A 
ATOM      5  C4  UNL d   1      -3.782   0.949   3.682  0.00  0.00    -0.005 A 
ATOM      6  C5  UNL d   1      -2.806   1.940   3.583  0.00  0.00     0.003 A 
ATOM      7  C6  UNL d   1      -1.863   1.892   2.555  0.00  0.00    -0.001 A 
ENDROOT
TORSDOF 0
ENDMDL
