MODEL 1
REMARK minimizedAffinity -4.68750191
REMARK minimizedRMSD -1
REMARK  0 active torsions:
REMARK  status: ('A' for Active; 'I' for Inactive)
ROOT
ATOM      1  C   UNL d   1       2.974  -1.076  -1.252  0.00  0.00     0.078 C 
ATOM      2  C1  UNL d   1       1.642  -0.518  -0.849  0.00  0.00    -0.077 A 
ATOM      3  C2  UNL d   1       1.308   0.816  -1.117  0.00  0.00    -0.001 A 
ATOM      4  C3  UNL d   1       0.068   1.325  -0.728  0.00  0.00     0.003 A 
ATOM      5  C4  UNL d   1      -0.848   0.508  -0.068  0.00  0.00    -0.005 A 
ATOM      6  C5  UNL d   1      -0.524  -0.819   0.204  0.00  0.00     0.003 A 
ATOM      7  C6  UNL d   1       0.716  -1.330  -0.184  0.00  0.00    -0.001 A 
ENDROOT
TORSDOF 0
ENDMDL
