MODEL 1
REMARK minimizedAffinity -4.49866438
REMARK minimizedRMSD -1
REMARK  0 active torsions:
REMARK  status: ('A' for Active; 'I' for Inactive)
ROOT
ATOM      1  C   UNL d   1      -1.376   0.318   1.001  0.00  0.00     0.078 C 
ATOM      2  C1  UNL d   1      -0.144  -0.197   0.319  0.00  0.00    -0.077 A 
ATOM      3  C2  UNL d   1       0.083  -1.572   0.182  0.00  0.00    -0.001 A 
ATOM      4  C3  UNL d   1       1.239  -2.037  -0.447  0.00  0.00     0.003 A 
ATOM      5  C4  UNL d   1       2.177  -1.134  -0.943  0.00  0.00    -0.005 A 
ATOM      6  C5  UNL d   1       1.961   0.236  -0.809  0.00  0.00     0.003 A 
ATOM      7  C6  UNL d   1       0.805   0.703  -0.180  0.00  0.00    -0.001 A 
ENDROOT
TORSDOF 0
ENDMDL
