MODEL 1
REMARK minimizedAffinity 6.39486885
REMARK minimizedRMSD -1
REMARK  1 active torsions:
REMARK  status: ('A' for Active; 'I' for Inactive)
REMARK    1  A    between atoms: C1_2  and  C2_3 
ROOT
ATOM      1  C2  UNL d   1       0.574   0.801  -1.169  0.00  0.00    -0.076 A 
ATOM      2  C3  UNL d   1       1.390  -0.310  -0.894  0.00  0.00     0.004 A 
ATOM      3  C4  UNL d   1       1.163  -1.107   0.227  0.00  0.00    -0.003 A 
ATOM      4  C5  UNL d   1       0.116  -0.805   1.091  0.00  0.00     0.000 A 
ATOM      5  C6  UNL d   1      -0.714   0.283   0.824  0.00  0.00     0.000 A 
ATOM      6  C7  UNL d   1      -0.509   1.087  -0.310  0.00  0.00    -0.073 A 
ATOM      7  C8  UNL d   1      -1.432   2.251  -0.546  0.00  0.00     0.078 C 
ENDROOT
BRANCH   1   8
ATOM      8  C1  UNL d   1       0.885   1.645  -2.385  0.00  0.00     0.053 C 
ATOM      9  C   UNL d   1       2.376   1.723  -2.674  0.00  0.00     0.018 C 
ENDBRANCH   1   8
TORSDOF 1
ENDMDL
