MODEL 1
REMARK minimizedAffinity 3.88765478
REMARK minimizedRMSD -1
REMARK  1 active torsions:
REMARK  status: ('A' for Active; 'I' for Inactive)
REMARK    1  A    between atoms: C1_2  and  C2_3 
ROOT
ATOM      1  C2  UNL d   1       4.938  -4.966  -4.538  0.00  0.00    -0.076 A 
ATOM      2  C3  UNL d   1       3.991  -5.444  -5.461  0.00  0.00     0.004 A 
ATOM      3  C4  UNL d   1       3.024  -4.597  -6.000  0.00  0.00    -0.003 A 
ATOM      4  C5  UNL d   1       2.989  -3.258  -5.625  0.00  0.00     0.000 A 
ATOM      5  C6  UNL d   1       3.931  -2.763  -4.725  0.00  0.00     0.000 A 
ATOM      6  C7  UNL d   1       4.923  -3.600  -4.184  0.00  0.00    -0.073 A 
ATOM      7  C8  UNL d   1       5.911  -3.014  -3.213  0.00  0.00     0.078 C 
ENDROOT
BRANCH   1   8
ATOM      8  C1  UNL d   1       5.946  -5.937  -3.966  0.00  0.00     0.053 C 
ATOM      9  C   UNL d   1       5.996  -5.898  -2.447  0.00  0.00     0.018 C 
ENDBRANCH   1   8
TORSDOF 1
ENDMDL
