MODEL 1
REMARK minimizedAffinity 9.28439808
REMARK minimizedRMSD -1
REMARK  1 active torsions:
REMARK  status: ('A' for Active; 'I' for Inactive)
REMARK    1  A    between atoms: C1_2  and  C2_3 
ROOT
ATOM      1  C2  UNL d   1       3.676  -4.715  -5.192  0.00  0.00    -0.076 A 
ATOM      2  C3  UNL d   1       4.886  -4.987  -5.853  0.00  0.00     0.004 A 
ATOM      3  C4  UNL d   1       5.998  -5.451  -5.153  0.00  0.00    -0.003 A 
ATOM      4  C5  UNL d   1       5.918  -5.651  -3.779  0.00  0.00     0.000 A 
ATOM      5  C6  UNL d   1       4.720  -5.404  -3.109  0.00  0.00     0.000 A 
ATOM      6  C7  UNL d   1       3.584  -4.952  -3.803  0.00  0.00    -0.073 A 
ATOM      7  C8  UNL d   1       2.320  -4.695  -3.030  0.00  0.00     0.078 C 
ENDROOT
BRANCH   1   8
ATOM      8  C1  UNL d   1       2.511  -4.188  -5.999  0.00  0.00     0.053 C 
ATOM      9  C   UNL d   1       1.324  -5.139  -6.000  0.00  0.00     0.018 C 
ENDBRANCH   1   8
TORSDOF 1
ENDMDL
