MODEL 1
REMARK minimizedAffinity 6.42814302
REMARK minimizedRMSD -1
REMARK  1 active torsions:
REMARK  status: ('A' for Active; 'I' for Inactive)
REMARK    1  A    between atoms: C1_2  and  C2_3 
ROOT
ATOM      1  C2  UNL d   1       4.403  -3.466  -4.942  0.00  0.00    -0.076 A 
ATOM      2  C3  UNL d   1       5.307  -3.764  -5.977  0.00  0.00     0.004 A 
ATOM      3  C4  UNL d   1       5.999  -4.973  -5.999  0.00  0.00    -0.003 A 
ATOM      4  C5  UNL d   1       5.798  -5.906  -4.987  0.00  0.00     0.000 A 
ATOM      5  C6  UNL d   1       4.892  -5.634  -3.962  0.00  0.00     0.000 A 
ATOM      6  C7  UNL d   1       4.174  -4.426  -3.934  0.00  0.00    -0.073 A 
ATOM      7  C8  UNL d   1       3.214  -4.184  -2.801  0.00  0.00     0.078 C 
ENDROOT
BRANCH   1   8
ATOM      8  C1  UNL d   1       3.702  -2.127  -4.957  0.00  0.00     0.053 C 
ATOM      9  C   UNL d   1       4.283  -1.176  -5.991  0.00  0.00     0.018 C 
ENDBRANCH   1   8
TORSDOF 1
ENDMDL
