MODEL 1
REMARK minimizedAffinity 5.46348763
REMARK minimizedRMSD -1
REMARK  1 active torsions:
REMARK  status: ('A' for Active; 'I' for Inactive)
REMARK    1  A    between atoms: C1_2  and  C2_3 
ROOT
ATOM      1  C2  UNL d   1      -1.840  -2.592  -1.281  0.00  0.00    -0.076 A 
ATOM      2  C3  UNL d   1      -3.140  -2.541  -0.749  0.00  0.00     0.004 A 
ATOM      3  C4  UNL d   1      -3.936  -3.683  -0.688  0.00  0.00    -0.003 A 
ATOM      4  C5  UNL d   1      -3.445  -4.896  -1.158  0.00  0.00     0.000 A 
ATOM      5  C6  UNL d   1      -2.151  -4.969  -1.673  0.00  0.00     0.000 A 
ATOM      6  C7  UNL d   1      -1.329  -3.830  -1.726  0.00  0.00    -0.073 A 
ATOM      7  C8  UNL d   1       0.056  -3.965  -2.297  0.00  0.00     0.078 C 
ENDROOT
BRANCH   1   8
ATOM      8  C1  UNL d   1      -1.033  -1.315  -1.346  0.00  0.00     0.053 C 
ATOM      9  C   UNL d   1      -0.574  -0.845   0.026  0.00  0.00     0.018 C 
ENDBRANCH   1   8
TORSDOF 1
ENDMDL
