MODEL 1
REMARK minimizedAffinity 8.97039509
REMARK minimizedRMSD -1
REMARK  1 active torsions:
REMARK  status: ('A' for Active; 'I' for Inactive)
REMARK    1  A    between atoms: C1_2  and  C2_3 
ROOT
ATOM      1  C2  UNL d   1       3.335  -3.739  -5.644  0.00  0.00    -0.076 A 
ATOM      2  C3  UNL d   1       3.704  -5.051  -5.297  0.00  0.00     0.004 A 
ATOM      3  C4  UNL d   1       5.025  -5.365  -4.984  0.00  0.00    -0.003 A 
ATOM      4  C5  UNL d   1       5.999  -4.373  -5.013  0.00  0.00     0.000 A 
ATOM      5  C6  UNL d   1       5.648  -3.064  -5.338  0.00  0.00     0.000 A 
ATOM      6  C7  UNL d   1       4.318  -2.726  -5.640  0.00  0.00    -0.073 A 
ATOM      7  C8  UNL d   1       3.996  -1.299  -5.989  0.00  0.00     0.078 C 
ENDROOT
BRANCH   1   8
ATOM      8  C1  UNL d   1       1.891  -3.463  -5.999  0.00  0.00     0.053 C 
ATOM      9  C   UNL d   1       1.040  -4.723  -6.000  0.00  0.00     0.018 C 
ENDBRANCH   1   8
TORSDOF 1
ENDMDL
