MODEL 1
REMARK minimizedAffinity 4.37443113
REMARK minimizedRMSD -1
REMARK  1 active torsions:
REMARK  status: ('A' for Active; 'I' for Inactive)
REMARK    1  A    between atoms: C1_2  and  C2_3 
ROOT
ATOM      1  C2  UNL d   1       5.296  -3.663  -3.632  0.00  0.00    -0.076 A 
ATOM      2  C3  UNL d   1       5.748  -4.857  -3.043  0.00  0.00     0.004 A 
ATOM      3  C4  UNL d   1       5.998  -5.989  -3.816  0.00  0.00    -0.003 A 
ATOM      4  C5  UNL d   1       5.801  -5.945  -5.192  0.00  0.00     0.000 A 
ATOM      5  C6  UNL d   1       5.370  -4.764  -5.796  0.00  0.00     0.000 A 
ATOM      6  C7  UNL d   1       5.129  -3.609  -5.032  0.00  0.00    -0.073 A 
ATOM      7  C8  UNL d   1       4.660  -2.365  -5.734  0.00  0.00     0.078 C 
ENDROOT
BRANCH   1   8
ATOM      8  C1  UNL d   1       5.015  -2.476  -2.739  0.00  0.00     0.053 C 
ATOM      9  C   UNL d   1       6.000  -2.369  -1.584  0.00  0.00     0.018 C 
ENDBRANCH   1   8
TORSDOF 1
ENDMDL
