MODEL 1
REMARK minimizedAffinity 10.8352699
REMARK minimizedRMSD -1
REMARK  1 active torsions:
REMARK  status: ('A' for Active; 'I' for Inactive)
REMARK    1  A    between atoms: C1_2  and  C2_3 
ROOT
ATOM      1  C2  UNL d   1       4.585  -3.707  -5.277  0.00  0.00    -0.076 A 
ATOM      2  C3  UNL d   1       5.410  -4.588  -5.997  0.00  0.00     0.004 A 
ATOM      3  C4  UNL d   1       5.979  -5.702  -5.383  0.00  0.00    -0.003 A 
ATOM      4  C5  UNL d   1       5.731  -5.954  -4.038  0.00  0.00     0.000 A 
ATOM      5  C6  UNL d   1       4.900  -5.101  -3.312  0.00  0.00     0.000 A 
ATOM      6  C7  UNL d   1       4.306  -3.982  -3.921  0.00  0.00    -0.073 A 
ATOM      7  C8  UNL d   1       3.424  -3.092  -3.089  0.00  0.00     0.078 C 
ENDROOT
BRANCH   1   8
ATOM      8  C1  UNL d   1       4.018  -2.500  -5.989  0.00  0.00     0.053 C 
ATOM      9  C   UNL d   1       4.454  -1.189  -5.352  0.00  0.00     0.018 C 
ENDBRANCH   1   8
TORSDOF 1
ENDMDL
