MODEL 1
REMARK minimizedAffinity 13.1012125
REMARK minimizedRMSD -1
REMARK  1 active torsions:
REMARK  status: ('A' for Active; 'I' for Inactive)
REMARK    1  A    between atoms: C1_2  and  C2_3 
ROOT
ATOM      1  C2  UNL d   1       5.872  -1.530   0.161  0.00  0.00    -0.076 A 
ATOM      2  C3  UNL d   1       5.848  -2.536   1.142  0.00  0.00     0.004 A 
ATOM      3  C4  UNL d   1       5.904  -2.218   2.498  0.00  0.00    -0.003 A 
ATOM      4  C5  UNL d   1       5.984  -0.888   2.895  0.00  0.00     0.000 A 
ATOM      5  C6  UNL d   1       5.991   0.125   1.935  0.00  0.00     0.000 A 
ATOM      6  C7  UNL d   1       5.918  -0.179   0.565  0.00  0.00    -0.073 A 
ATOM      7  C8  UNL d   1       5.935   0.952  -0.426  0.00  0.00     0.078 C 
ENDROOT
BRANCH   1   8
ATOM      8  C1  UNL d   1       5.836  -1.937  -1.295  0.00  0.00     0.053 C 
ATOM      9  C   UNL d   1       4.441  -2.333  -1.755  0.00  0.00     0.018 C 
ENDBRANCH   1   8
TORSDOF 1
ENDMDL
