MODEL 1
REMARK minimizedAffinity 8.83476925
REMARK minimizedRMSD -1
REMARK  1 active torsions:
REMARK  status: ('A' for Active; 'I' for Inactive)
REMARK    1  A    between atoms: C1_2  and  C2_3 
ROOT
ATOM      1  C2  UNL d   1       4.244  -4.196  -3.881  0.00  0.00    -0.076 A 
ATOM      2  C3  UNL d   1       5.008  -5.199  -3.259  0.00  0.00     0.004 A 
ATOM      3  C4  UNL d   1       5.878  -5.999  -3.998  0.00  0.00    -0.003 A 
ATOM      4  C5  UNL d   1       6.000  -5.808  -5.370  0.00  0.00     0.000 A 
ATOM      5  C6  UNL d   1       5.263  -4.806  -6.000  0.00  0.00     0.000 A 
ATOM      6  C7  UNL d   1       4.393  -3.980  -5.267  0.00  0.00    -0.073 A 
ATOM      7  C8  UNL d   1       3.619  -2.918  -5.999  0.00  0.00     0.078 C 
ENDROOT
BRANCH   1   8
ATOM      8  C1  UNL d   1       3.297  -3.378  -3.033  0.00  0.00     0.053 C 
ATOM      9  C   UNL d   1       1.989  -4.103  -2.756  0.00  0.00     0.018 C 
ENDBRANCH   1   8
TORSDOF 1
ENDMDL
