MODEL 1
REMARK minimizedAffinity 2.74910712
REMARK minimizedRMSD -1
REMARK  1 active torsions:
REMARK  status: ('A' for Active; 'I' for Inactive)
REMARK    1  A    between atoms: C1_2  and  C2_3 
ROOT
ATOM      1  C2  UNL d   1       5.344  -3.656  -3.875  0.00  0.00    -0.076 A 
ATOM      2  C3  UNL d   1       5.819  -4.837  -3.278  0.00  0.00     0.004 A 
ATOM      3  C4  UNL d   1       6.000  -5.998  -4.028  0.00  0.00    -0.003 A 
ATOM      4  C5  UNL d   1       5.709  -5.997  -5.388  0.00  0.00     0.000 A 
ATOM      5  C6  UNL d   1       5.254  -4.830  -6.000  0.00  0.00     0.000 A 
ATOM      6  C7  UNL d   1       5.082  -3.646  -5.262  0.00  0.00    -0.073 A 
ATOM      7  C8  UNL d   1       4.582  -2.418  -5.972  0.00  0.00     0.078 C 
ENDROOT
BRANCH   1   8
ATOM      8  C1  UNL d   1       5.142  -2.436  -3.006  0.00  0.00     0.053 C 
ATOM      9  C   UNL d   1       5.968  -2.486  -1.730  0.00  0.00     0.018 C 
ENDBRANCH   1   8
TORSDOF 1
ENDMDL
