MODEL 1
REMARK minimizedAffinity 10.7662659
REMARK minimizedRMSD -1
REMARK  1 active torsions:
REMARK  status: ('A' for Active; 'I' for Inactive)
REMARK    1  A    between atoms: C1_2  and  C2_3 
ROOT
ATOM      1  C2  UNL d   1       3.919  -4.273  -4.076  0.00  0.00    -0.076 A 
ATOM      2  C3  UNL d   1       3.317  -4.906  -5.177  0.00  0.00     0.004 A 
ATOM      3  C4  UNL d   1       4.046  -5.762  -6.000  0.00  0.00    -0.003 A 
ATOM      4  C5  UNL d   1       5.391  -6.000  -5.735  0.00  0.00     0.000 A 
ATOM      5  C6  UNL d   1       6.000  -5.394  -4.636  0.00  0.00     0.000 A 
ATOM      6  C7  UNL d   1       5.274  -4.541  -3.787  0.00  0.00    -0.073 A 
ATOM      7  C8  UNL d   1       5.984  -3.910  -2.620  0.00  0.00     0.078 C 
ENDROOT
BRANCH   1   8
ATOM      8  C1  UNL d   1       3.085  -3.334  -3.235  0.00  0.00     0.053 C 
ATOM      9  C   UNL d   1       1.840  -4.004  -2.674  0.00  0.00     0.018 C 
ENDBRANCH   1   8
TORSDOF 1
ENDMDL
