MODEL 1
REMARK minimizedAffinity 5.79520416
REMARK minimizedRMSD -1
REMARK  1 active torsions:
REMARK  status: ('A' for Active; 'I' for Inactive)
REMARK    1  A    between atoms: C1_2  and  C2_3 
ROOT
ATOM      1  C2  UNL d   1      -0.704  -0.171   0.919  0.00  0.00    -0.076 A 
ATOM      2  C3  UNL d   1      -2.097  -0.026   1.035  0.00  0.00     0.004 A 
ATOM      3  C4  UNL d   1      -2.734  -0.171   2.266  0.00  0.00    -0.003 A 
ATOM      4  C5  UNL d   1      -1.987  -0.463   3.402  0.00  0.00     0.000 A 
ATOM      5  C6  UNL d   1      -0.602  -0.594   3.309  0.00  0.00     0.000 A 
ATOM      6  C7  UNL d   1       0.057  -0.434   2.078  0.00  0.00    -0.073 A 
ATOM      7  C8  UNL d   1       1.552  -0.592   2.034  0.00  0.00     0.078 C 
ENDROOT
BRANCH   1   8
ATOM      8  C1  UNL d   1      -0.072  -0.029  -0.447  0.00  0.00     0.053 C 
ATOM      9  C   UNL d   1      -0.380   1.312  -1.095  0.00  0.00     0.018 C 
ENDBRANCH   1   8
TORSDOF 1
ENDMDL
