MODEL 1
REMARK minimizedAffinity 13.247098
REMARK minimizedRMSD -1
REMARK  0 active torsions:
REMARK  status: ('A' for Active; 'I' for Inactive)
ROOT
ATOM      1  N1  IND d   1       1.573   1.823   2.983  0.00  0.00    -0.196 N 
ATOM      2  C2  IND d   1       1.672   3.152   3.283  0.00  0.00     0.054 A 
ATOM      3  C3  IND d   1       2.297   3.815   2.284  0.00  0.00    -0.031 A 
ATOM      4  C4  IND d   1       3.150   2.934   0.020  0.00  0.00     0.051 A 
ATOM      5  C5  IND d   1       3.316   1.781  -0.694  0.00  0.00    -0.031 A 
ATOM      6  C6  IND d   1       2.898   0.558  -0.210  0.00  0.00     0.015 A 
ATOM      7  C7  IND d   1       2.287   0.444   1.007  0.00  0.00    -0.016 A 
ATOM      8  C8  IND d   1       2.123   1.612   1.737  0.00  0.00    -0.047 A 
ATOM      9  C9  IND d   1       2.582   2.850   1.270  0.00  0.00    -0.096 A 
ATOM     10  HN1 IND d   1       1.226   1.219   3.487  0.00  0.00     0.298 HD
ENDROOT
TORSDOF 0
ENDMDL
