MODEL 1
REMARK minimizedAffinity -1.82735479
REMARK minimizedRMSD -1
REMARK  0 active torsions:
REMARK  status: ('A' for Active; 'I' for Inactive)
ROOT
ATOM      1  N1  IND d   1      -3.753   5.876   2.065  0.00  0.00    -0.196 N 
ATOM      2  C2  IND d   1      -4.925   5.973   1.368  0.00  0.00     0.054 A 
ATOM      3  C3  IND d   1      -5.977   5.999   2.217  0.00  0.00    -0.031 A 
ATOM      4  C4  IND d   1      -6.000   5.998   4.792  0.00  0.00     0.051 A 
ATOM      5  C5  IND d   1      -5.176   5.883   5.876  0.00  0.00    -0.031 A 
ATOM      6  C6  IND d   1      -3.808   5.760   5.743  0.00  0.00     0.015 A 
ATOM      7  C7  IND d   1      -3.209   5.759   4.515  0.00  0.00    -0.016 A 
ATOM      8  C8  IND d   1      -4.043   5.868   3.411  0.00  0.00    -0.047 A 
ATOM      9  C9  IND d   1      -5.436   5.951   3.539  0.00  0.00    -0.096 A 
ATOM     10  HN1 IND d   1      -2.967   5.827   1.720  0.00  0.00     0.298 HD
ENDROOT
TORSDOF 0
ENDMDL
