MODEL 1
REMARK minimizedAffinity -2.9320755
REMARK minimizedRMSD -1
REMARK  0 active torsions:
REMARK  status: ('A' for Active; 'I' for Inactive)
ROOT
ATOM      1  N1  IND d   1      -6.000   5.947   4.743  0.00  0.00    -0.196 N 
ATOM      2  C2  IND d   1      -5.269   5.928   5.898  0.00  0.00     0.054 A 
ATOM      3  C3  IND d   1      -3.946   5.906   5.617  0.00  0.00    -0.031 A 
ATOM      4  C4  IND d   1      -2.757   6.000   3.336  0.00  0.00     0.051 A 
ATOM      5  C5  IND d   1      -3.003   5.990   1.991  0.00  0.00    -0.031 A 
ATOM      6  C6  IND d   1      -4.287   5.967   1.485  0.00  0.00     0.015 A 
ATOM      7  C7  IND d   1      -5.377   5.965   2.309  0.00  0.00    -0.016 A 
ATOM      8  C8  IND d   1      -5.131   5.968   3.674  0.00  0.00    -0.047 A 
ATOM      9  C9  IND d   1      -3.830   5.948   4.194  0.00  0.00    -0.096 A 
ATOM     10  HN1 IND d   1      -6.858   5.946   4.693  0.00  0.00     0.298 HD
ENDROOT
TORSDOF 0
ENDMDL
