MODEL 1
REMARK minimizedAffinity 0.524359167
REMARK minimizedRMSD -1
REMARK  0 active torsions:
REMARK  status: ('A' for Active; 'I' for Inactive)
ROOT
ATOM      1  N1  IND d   1      -5.996   4.877   2.398  0.00  0.00    -0.196 N 
ATOM      2  C2  IND d   1      -5.066   5.150   1.433  0.00  0.00     0.054 A 
ATOM      3  C3  IND d   1      -3.940   5.646   1.993  0.00  0.00    -0.031 A 
ATOM      4  C4  IND d   1      -3.367   6.000   4.477  0.00  0.00     0.051 A 
ATOM      5  C5  IND d   1      -3.911   5.930   5.729  0.00  0.00    -0.031 A 
ATOM      6  C6  IND d   1      -5.204   5.495   5.939  0.00  0.00     0.015 A 
ATOM      7  C7  IND d   1      -6.000   5.100   4.901  0.00  0.00    -0.016 A 
ATOM      8  C8  IND d   1      -5.452   5.176   3.628  0.00  0.00    -0.047 A 
ATOM      9  C9  IND d   1      -4.156   5.657   3.405  0.00  0.00    -0.096 A 
ATOM     10  HN1 IND d   1      -6.787   4.571   2.259  0.00  0.00     0.298 HD
ENDROOT
TORSDOF 0
ENDMDL
