MODEL 1
REMARK minimizedAffinity -4.4205718
REMARK minimizedRMSD -1
REMARK  0 active torsions:
REMARK  status: ('A' for Active; 'I' for Inactive)
ROOT
ATOM      1  N1  IND d   1      -4.001   5.996   5.623  0.00  0.00    -0.196 N 
ATOM      2  C2  IND d   1      -5.354   5.992   5.815  0.00  0.00     0.054 A 
ATOM      3  C3  IND d   1      -5.998   6.000   4.626  0.00  0.00    -0.031 A 
ATOM      4  C4  IND d   1      -5.030   5.918   2.242  0.00  0.00     0.051 A 
ATOM      5  C5  IND d   1      -3.847   5.948   1.558  0.00  0.00    -0.031 A 
ATOM      6  C6  IND d   1      -2.630   5.994   2.207  0.00  0.00     0.015 A 
ATOM      7  C7  IND d   1      -2.550   6.000   3.571  0.00  0.00    -0.016 A 
ATOM      8  C8  IND d   1      -3.750   5.977   4.269  0.00  0.00    -0.047 A 
ATOM      9  C9  IND d   1      -4.989   5.973   3.615  0.00  0.00    -0.096 A 
ATOM     10  HN1 IND d   1      -3.406   6.009   6.244  0.00  0.00     0.298 HD
ENDROOT
TORSDOF 0
ENDMDL
