MODEL 1
REMARK minimizedAffinity -2.13535571
REMARK minimizedRMSD -1
REMARK  0 active torsions:
REMARK  status: ('A' for Active; 'I' for Inactive)
ROOT
ATOM      1  N1  IND d   1      -3.848   6.000   5.295  0.00  0.00    -0.196 N 
ATOM      2  C2  IND d   1      -5.140   5.999   5.744  0.00  0.00     0.054 A 
ATOM      3  C3  IND d   1      -6.000   5.999   4.701  0.00  0.00    -0.031 A 
ATOM      4  C4  IND d   1      -5.509   5.898   2.176  0.00  0.00     0.051 A 
ATOM      5  C5  IND d   1      -4.480   5.921   1.277  0.00  0.00    -0.031 A 
ATOM      6  C6  IND d   1      -3.161   5.970   1.680  0.00  0.00     0.015 A 
ATOM      7  C7  IND d   1      -2.820   5.986   3.003  0.00  0.00    -0.016 A 
ATOM      8  C8  IND d   1      -3.863   5.970   3.918  0.00  0.00    -0.047 A 
ATOM      9  C9  IND d   1      -5.204   5.963   3.515  0.00  0.00    -0.096 A 
ATOM     10  HN1 IND d   1      -3.145   6.016   5.790  0.00  0.00     0.298 HD
ENDROOT
TORSDOF 0
ENDMDL
