MODEL 1
REMARK minimizedAffinity 7.52656364
REMARK minimizedRMSD -1
REMARK  0 active torsions:
REMARK  status: ('A' for Active; 'I' for Inactive)
ROOT
ATOM      1  N1  IND d   1       0.057  -4.938   0.038  0.00  0.00    -0.196 N 
ATOM      2  C2  IND d   1      -1.001  -5.055  -0.820  0.00  0.00     0.054 A 
ATOM      3  C3  IND d   1      -1.000  -4.038  -1.710  0.00  0.00    -0.031 A 
ATOM      4  C4  IND d   1       0.699  -2.126  -2.006  0.00  0.00     0.051 A 
ATOM      5  C5  IND d   1       1.814  -1.579  -1.437  0.00  0.00    -0.031 A 
ATOM      6  C6  IND d   1       2.415  -2.136  -0.327  0.00  0.00     0.015 A 
ATOM      7  C7  IND d   1       1.926  -3.273   0.252  0.00  0.00    -0.016 A 
ATOM      8  C8  IND d   1       0.790  -3.828  -0.319  0.00  0.00    -0.047 A 
ATOM      9  C9  IND d   1       0.151  -3.243  -1.420  0.00  0.00    -0.096 A 
ATOM     10  HN1 IND d   1       0.234  -5.469   0.691  0.00  0.00     0.298 HD
ENDROOT
TORSDOF 0
ENDMDL
