MODEL 1
REMARK minimizedAffinity 12.1808949
REMARK minimizedRMSD -1
REMARK  0 active torsions:
REMARK  status: ('A' for Active; 'I' for Inactive)
ROOT
ATOM      1  N1  IND d   1      -4.814   5.706   1.212  0.00  0.00    -0.196 N 
ATOM      2  C2  IND d   1      -5.995   5.695   1.899  0.00  0.00     0.054 A 
ATOM      3  C3  IND d   1      -5.766   5.728   3.231  0.00  0.00    -0.031 A 
ATOM      4  C4  IND d   1      -3.534   5.904   4.502  0.00  0.00     0.051 A 
ATOM      5  C5  IND d   1      -2.181   5.906   4.308  0.00  0.00    -0.031 A 
ATOM      6  C6  IND d   1      -1.625   5.844   3.046  0.00  0.00     0.015 A 
ATOM      7  C7  IND d   1      -2.406   5.787   1.926  0.00  0.00    -0.016 A 
ATOM      8  C8  IND d   1      -3.780   5.778   2.120  0.00  0.00    -0.047 A 
ATOM      9  C9  IND d   1      -4.349   5.798   3.400  0.00  0.00    -0.096 A 
ATOM     10  HN1 IND d   1      -4.730   5.674   0.357  0.00  0.00     0.298 HD
ENDROOT
TORSDOF 0
ENDMDL
