MODEL 1
REMARK minimizedAffinity 7.14563513
REMARK minimizedRMSD -1
REMARK  0 active torsions:
REMARK  status: ('A' for Active; 'I' for Inactive)
ROOT
ATOM      1  N1  IND d   1       1.328  -3.265   5.653  0.00  0.00    -0.196 N 
ATOM      2  C2  IND d   1       1.248  -2.224   4.770  0.00  0.00     0.054 A 
ATOM      3  C3  IND d   1       0.207  -2.403   3.925  0.00  0.00    -0.031 A 
ATOM      4  C4  IND d   1      -1.557  -4.277   3.877  0.00  0.00     0.051 A 
ATOM      5  C5  IND d   1      -1.878  -5.469   4.463  0.00  0.00    -0.031 A 
ATOM      6  C6  IND d   1      -1.135  -5.996   5.499  0.00  0.00     0.015 A 
ATOM      7  C7  IND d   1      -0.043  -5.343   5.996  0.00  0.00    -0.016 A 
ATOM      8  C8  IND d   1       0.291  -4.136   5.399  0.00  0.00    -0.047 A 
ATOM      9  C9  IND d   1      -0.435  -3.616   4.319  0.00  0.00    -0.096 A 
ATOM     10  HN1 IND d   1       1.925  -3.359   6.264  0.00  0.00     0.298 HD
ENDROOT
TORSDOF 0
ENDMDL
