MODEL 1
REMARK minimizedAffinity 4.63328838
REMARK minimizedRMSD -1
REMARK  0 active torsions:
REMARK  status: ('A' for Active; 'I' for Inactive)
ROOT
ATOM      1  N1  IND d   1       3.630   0.755  -1.259  0.00  0.00    -0.196 N 
ATOM      2  C2  IND d   1       2.565  -0.077  -1.051  0.00  0.00     0.054 A 
ATOM      3  C3  IND d   1       1.985   0.191   0.140  0.00  0.00    -0.031 A 
ATOM      4  C4  IND d   1       2.552   2.020   1.861  0.00  0.00     0.051 A 
ATOM      5  C5  IND d   1       3.466   3.000   2.129  0.00  0.00    -0.031 A 
ATOM      6  C6  IND d   1       4.500   3.290   1.263  0.00  0.00     0.015 A 
ATOM      7  C7  IND d   1       4.653   2.615   0.085  0.00  0.00    -0.016 A 
ATOM      8  C8  IND d   1       3.732   1.614  -0.187  0.00  0.00    -0.047 A 
ATOM      9  C9  IND d   1       2.705   1.286   0.708  0.00  0.00    -0.096 A 
ATOM     10  HN1 IND d   1       4.149   0.744  -1.945  0.00  0.00     0.298 HD
ENDROOT
TORSDOF 0
ENDMDL
