MODEL 1
REMARK minimizedAffinity 3.64142752
REMARK minimizedRMSD -1
REMARK  0 active torsions:
REMARK  status: ('A' for Active; 'I' for Inactive)
ROOT
ATOM      1  N1  IND d   1       1.074  -3.801   5.822  0.00  0.00    -0.196 N 
ATOM      2  C2  IND d   1       1.430  -2.902   4.856  0.00  0.00     0.054 A 
ATOM      3  C3  IND d   1       0.595  -2.995   3.796  0.00  0.00    -0.031 A 
ATOM      4  C4  IND d   1      -1.482  -4.482   3.476  0.00  0.00     0.051 A 
ATOM      5  C5  IND d   1      -2.185  -5.493   4.069  0.00  0.00    -0.031 A 
ATOM      6  C6  IND d   1      -1.832  -6.000   5.303  0.00  0.00     0.015 A 
ATOM      7  C7  IND d   1      -0.765  -5.505   5.998  0.00  0.00    -0.016 A 
ATOM      8  C8  IND d   1      -0.045  -4.483   5.395  0.00  0.00    -0.047 A 
ATOM      9  C9  IND d   1      -0.372  -3.993   4.124  0.00  0.00    -0.096 A 
ATOM     10  HN1 IND d   1       1.480  -3.920   6.570  0.00  0.00     0.298 HD
ENDROOT
TORSDOF 0
ENDMDL
