MODEL 1
REMARK minimizedAffinity -1.90516889
REMARK minimizedRMSD -1
REMARK  0 active torsions:
REMARK  status: ('A' for Active; 'I' for Inactive)
ROOT
ATOM      1  N1  IND d   1      -4.833   5.844   1.852  0.00  0.00    -0.196 N 
ATOM      2  C2  IND d   1      -3.521   5.898   1.474  0.00  0.00     0.054 A 
ATOM      3  C3  IND d   1      -2.722   6.000   2.559  0.00  0.00    -0.031 A 
ATOM      4  C4  IND d   1      -3.347   5.993   5.057  0.00  0.00     0.051 A 
ATOM      5  C5  IND d   1      -4.424   5.999   5.897  0.00  0.00    -0.031 A 
ATOM      6  C6  IND d   1      -5.719   5.950   5.423  0.00  0.00     0.015 A 
ATOM      7  C7  IND d   1      -5.986   5.881   4.085  0.00  0.00    -0.016 A 
ATOM      8  C8  IND d   1      -4.894   5.882   3.228  0.00  0.00    -0.047 A 
ATOM      9  C9  IND d   1      -3.579   5.975   3.702  0.00  0.00    -0.096 A 
ATOM     10  HN1 IND d   1      -5.507   5.795   1.321  0.00  0.00     0.298 HD
ENDROOT
TORSDOF 0
ENDMDL
