MODEL 1
REMARK minimizedAffinity -0.521891654
REMARK minimizedRMSD -1
REMARK  1 active torsions:
REMARK  status: ('A' for Active; 'I' for Inactive)
REMARK    1  A    between atoms: N_2  and  C1_3 
ROOT
ATOM      1  C1  UNL d   1      -1.432   0.502  -0.288  0.00  0.00     0.143 A 
ATOM      2  C2  UNL d   1      -0.295   1.307  -0.167  0.00  0.00    -0.057 A 
ATOM      3  C3  UNL d   1       0.992   0.756  -0.205  0.00  0.00     0.033 A 
ATOM      4  C4  UNL d   1       1.163  -0.619  -0.336  0.00  0.00    -0.042 A 
ATOM      5  C5  UNL d   1       0.046  -1.441  -0.433  0.00  0.00     0.033 A 
ATOM      6  C6  UNL d   1      -1.236  -0.884  -0.401  0.00  0.00    -0.057 A 
ENDROOT
BRANCH   1   7
ATOM      7  N   UNL d   1      -2.739   0.978  -0.159  0.00  0.00    -0.732 N 
ATOM      8  C   UNL d   1      -3.458   0.829   1.088  0.00  0.00     0.284 C 
ATOM      9  H3  UNL d   1      -2.870   1.881  -0.609  0.00  0.00     0.395 HD
ENDBRANCH   1   7
TORSDOF 1
ENDMDL
