MODEL 1
REMARK minimizedAffinity -2.99294972
REMARK minimizedRMSD -1
REMARK  1 active torsions:
REMARK  status: ('A' for Active; 'I' for Inactive)
REMARK    1  A    between atoms: N_2  and  C1_3 
ROOT
ATOM      1  C1  UNL d   1      -1.392  -0.035   0.116  0.00  0.00     0.143 A 
ATOM      2  C2  UNL d   1      -0.052   0.366   0.124  0.00  0.00    -0.057 A 
ATOM      3  C3  UNL d   1       0.986  -0.570   0.193  0.00  0.00     0.033 A 
ATOM      4  C4  UNL d   1       0.701  -1.929   0.285  0.00  0.00    -0.042 A 
ATOM      5  C5  UNL d   1      -0.624  -2.349   0.304  0.00  0.00     0.033 A 
ATOM      6  C6  UNL d   1      -1.657  -1.410   0.228  0.00  0.00    -0.057 A 
ENDROOT
BRANCH   1   7
ATOM      7  N   UNL d   1      -2.471   0.852   0.148  0.00  0.00    -0.732 N 
ATOM      8  C   UNL d   1      -3.355   0.896   1.293  0.00  0.00     0.284 C 
ATOM      9  H3  UNL d   1      -2.232   1.767  -0.228  0.00  0.00     0.395 HD
ENDBRANCH   1   7
TORSDOF 1
ENDMDL
