MODEL 1
REMARK minimizedAffinity -4.63827467
REMARK minimizedRMSD -1
REMARK  1 active torsions:
REMARK  status: ('A' for Active; 'I' for Inactive)
REMARK    1  A    between atoms: N_2  and  C1_3 
ROOT
ATOM      1  C1  UNL d   1       0.414  -0.177  -0.029  0.00  0.00     0.143 A 
ATOM      2  C2  UNL d   1       0.515  -1.441  -0.621  0.00  0.00    -0.057 A 
ATOM      3  C3  UNL d   1       1.599  -2.285  -0.350  0.00  0.00     0.033 A 
ATOM      4  C4  UNL d   1       2.619  -1.866   0.498  0.00  0.00    -0.042 A 
ATOM      5  C5  UNL d   1       2.552  -0.604   1.077  0.00  0.00     0.033 A 
ATOM      6  C6  UNL d   1       1.464   0.231   0.808  0.00  0.00    -0.057 A 
ENDROOT
BRANCH   1   7
ATOM      7  N   UNL d   1      -0.588   0.747  -0.335  0.00  0.00    -0.732 N 
ATOM      8  C   UNL d   1      -1.942   0.548   0.136  0.00  0.00     0.284 C 
ATOM      9  H3  UNL d   1      -0.263   1.708  -0.271  0.00  0.00     0.395 HD
ENDBRANCH   1   7
TORSDOF 1
ENDMDL
