MODEL 1
REMARK minimizedAffinity -2.00137091
REMARK minimizedRMSD -1
REMARK  1 active torsions:
REMARK  status: ('A' for Active; 'I' for Inactive)
REMARK    1  A    between atoms: N_2  and  C1_3 
ROOT
ATOM      1  C1  UNL d   1       2.009   0.311   0.313  0.00  0.00     0.143 A 
ATOM      2  C2  UNL d   1       1.407   1.566   0.173  0.00  0.00    -0.057 A 
ATOM      3  C3  UNL d   1       0.155   1.707  -0.438  0.00  0.00     0.033 A 
ATOM      4  C4  UNL d   1      -0.506   0.594  -0.947  0.00  0.00    -0.042 A 
ATOM      5  C5  UNL d   1       0.085  -0.660  -0.842  0.00  0.00     0.033 A 
ATOM      6  C6  UNL d   1       1.332  -0.795  -0.225  0.00  0.00    -0.057 A 
ENDROOT
BRANCH   1   7
ATOM      7  N   UNL d   1       3.296   0.118   0.822  0.00  0.00    -0.732 N 
ATOM      8  C   UNL d   1       4.043  -1.080   0.503  0.00  0.00     0.284 C 
ATOM      9  H3  UNL d   1       3.851   0.971   0.807  0.00  0.00     0.395 HD
ENDBRANCH   1   7
TORSDOF 1
ENDMDL
