MODEL 1
REMARK minimizedAffinity -4.34067488
REMARK minimizedRMSD -1
REMARK  1 active torsions:
REMARK  status: ('A' for Active; 'I' for Inactive)
REMARK    1  A    between atoms: N_2  and  C1_3 
ROOT
ATOM      1  C1  UNL d   1      -0.774  -0.165  -0.403  0.00  0.00     0.143 A 
ATOM      2  C2  UNL d   1      -0.504  -1.536  -0.482  0.00  0.00    -0.057 A 
ATOM      3  C3  UNL d   1       0.766  -2.045  -0.185  0.00  0.00     0.033 A 
ATOM      4  C4  UNL d   1       1.800  -1.185   0.170  0.00  0.00    -0.042 A 
ATOM      5  C5  UNL d   1       1.562   0.183   0.230  0.00  0.00     0.033 A 
ATOM      6  C6  UNL d   1       0.290   0.685  -0.061  0.00  0.00    -0.057 A 
ENDROOT
BRANCH   1   7
ATOM      7  N   UNL d   1      -1.988   0.412  -0.781  0.00  0.00    -0.732 N 
ATOM      8  C   UNL d   1      -2.886   0.959   0.214  0.00  0.00     0.284 C 
ATOM      9  H3  UNL d   1      -1.904   0.979  -1.622  0.00  0.00     0.395 HD
ENDBRANCH   1   7
TORSDOF 1
ENDMDL
