MODEL 1
REMARK minimizedAffinity -4.44296741
REMARK minimizedRMSD -1
REMARK  0 active torsions:
REMARK  status: ('A' for Active; 'I' for Inactive)
ROOT
ATOM      1  C   UNL d   1      -3.370   1.085  -5.595  0.00  0.00     0.023 A 
ATOM      2  C1  UNL d   1      -2.402   0.084  -5.514  0.00  0.00     0.003 A 
ATOM      3  C2  UNL d   1      -2.774  -1.259  -5.613  0.00  0.00     0.048 A 
ATOM      4  C3  UNL d   1      -4.116  -1.593  -5.794  0.00  0.00     0.023 A 
ATOM      5  C4  UNL d   1      -5.088  -0.595  -5.876  0.00  0.00     0.048 A 
ATOM      6  C5  UNL d   1      -4.711   0.746  -5.776  0.00  0.00     0.003 A 
ATOM      7  I   UNL d   1      -4.672  -3.590  -5.941  0.00  0.00    -0.146 I 
ENDROOT
TORSDOF 0
ENDMDL
