MODEL 1
REMARK minimizedAffinity 2.11604118
REMARK minimizedRMSD -1
REMARK  0 active torsions:
REMARK  status: ('A' for Active; 'I' for Inactive)
ROOT
ATOM      1  C   UNL d   1       0.529   1.150  -0.271  0.00  0.00     0.023 A 
ATOM      2  C1  UNL d   1       1.557   1.760  -0.991  0.00  0.00     0.003 A 
ATOM      3  C2  UNL d   1       2.560   0.982  -1.572  0.00  0.00     0.048 A 
ATOM      4  C3  UNL d   1       2.529  -0.405  -1.431  0.00  0.00     0.023 A 
ATOM      5  C4  UNL d   1       1.503  -1.019  -0.712  0.00  0.00     0.048 A 
ATOM      6  C5  UNL d   1       0.502  -0.237  -0.132  0.00  0.00     0.003 A 
ATOM      7  I   UNL d   1       4.022  -1.565  -2.295  0.00  0.00    -0.146 I 
ENDROOT
TORSDOF 0
ENDMDL
