MODEL 1
REMARK minimizedAffinity 4.04875278
REMARK minimizedRMSD -1
REMARK  0 active torsions:
REMARK  status: ('A' for Active; 'I' for Inactive)
ROOT
ATOM      1  C   UNL d   1      -1.941   2.886  -5.736  0.00  0.00     0.023 A 
ATOM      2  C1  UNL d   1      -3.216   2.341  -5.890  0.00  0.00     0.003 A 
ATOM      3  C2  UNL d   1      -4.331   3.179  -5.964  0.00  0.00     0.048 A 
ATOM      4  C3  UNL d   1      -4.163   4.561  -5.885  0.00  0.00     0.023 A 
ATOM      5  C4  UNL d   1      -2.890   5.111  -5.732  0.00  0.00     0.048 A 
ATOM      6  C5  UNL d   1      -1.778   4.270  -5.657  0.00  0.00     0.003 A 
ATOM      7  I   UNL d   1      -5.821   5.810  -5.996  0.00  0.00    -0.146 I 
ENDROOT
TORSDOF 0
ENDMDL
