MODEL 1
REMARK minimizedAffinity 1.41806948
REMARK minimizedRMSD -1
REMARK  0 active torsions:
REMARK  status: ('A' for Active; 'I' for Inactive)
ROOT
ATOM      1  C   UNL d   1      -1.151   4.717  -5.811  0.00  0.00     0.023 A 
ATOM      2  C1  UNL d   1      -1.936   5.867  -5.734  0.00  0.00     0.003 A 
ATOM      3  C2  UNL d   1      -3.328   5.768  -5.789  0.00  0.00     0.048 A 
ATOM      4  C3  UNL d   1      -3.928   4.516  -5.919  0.00  0.00     0.023 A 
ATOM      5  C4  UNL d   1      -3.145   3.362  -5.995  0.00  0.00     0.048 A 
ATOM      6  C5  UNL d   1      -1.754   3.466  -5.941  0.00  0.00     0.003 A 
ATOM      7  I   UNL d   1      -5.999   4.365  -6.000  0.00  0.00    -0.146 I 
ENDROOT
TORSDOF 0
ENDMDL
