MODEL 1
REMARK minimizedAffinity 5.88530636
REMARK minimizedRMSD -1
REMARK  0 active torsions:
REMARK  status: ('A' for Active; 'I' for Inactive)
ROOT
ATOM      1  C   UNL d   1      -6.000  -2.939  -5.720  0.00  0.00     0.023 A 
ATOM      2  C1  UNL d   1      -5.043  -3.916  -5.998  0.00  0.00     0.003 A 
ATOM      3  C2  UNL d   1      -3.769  -3.828  -5.434  0.00  0.00     0.048 A 
ATOM      4  C3  UNL d   1      -3.458  -2.761  -4.591  0.00  0.00     0.023 A 
ATOM      5  C4  UNL d   1      -4.412  -1.782  -4.309  0.00  0.00     0.048 A 
ATOM      6  C5  UNL d   1      -5.685  -1.874  -4.876  0.00  0.00     0.003 A 
ATOM      7  I   UNL d   1      -1.562  -2.627  -3.750  0.00  0.00    -0.146 I 
ENDROOT
TORSDOF 0
ENDMDL
