MODEL 1
REMARK minimizedAffinity -2.97535491
REMARK minimizedRMSD -1
REMARK  0 active torsions:
REMARK  status: ('A' for Active; 'I' for Inactive)
ROOT
ATOM      1  C   UNL d   1      -3.635   6.000  -5.682  0.00  0.00     0.023 A 
ATOM      2  C1  UNL d   1      -2.918   4.807  -5.774  0.00  0.00     0.003 A 
ATOM      3  C2  UNL d   1      -3.595   3.589  -5.865  0.00  0.00     0.048 A 
ATOM      4  C3  UNL d   1      -4.989   3.572  -5.864  0.00  0.00     0.023 A 
ATOM      5  C4  UNL d   1      -5.711   4.763  -5.773  0.00  0.00     0.048 A 
ATOM      6  C5  UNL d   1      -5.029   5.978  -5.681  0.00  0.00     0.003 A 
ATOM      7  I   UNL d   1      -6.000   1.760  -6.000  0.00  0.00    -0.146 I 
ENDROOT
TORSDOF 0
ENDMDL
