MODEL 1
REMARK minimizedAffinity 1.41692913
REMARK minimizedRMSD -1
REMARK  0 active torsions:
REMARK  status: ('A' for Active; 'I' for Inactive)
ROOT
ATOM      1  C   UNL d   1      -1.313  -3.057  -3.742  0.00  0.00     0.023 A 
ATOM      2  C1  UNL d   1      -2.262  -2.161  -4.233  0.00  0.00     0.003 A 
ATOM      3  C2  UNL d   1      -3.409  -2.637  -4.873  0.00  0.00     0.048 A 
ATOM      4  C3  UNL d   1      -3.601  -4.010  -5.015  0.00  0.00     0.023 A 
ATOM      5  C4  UNL d   1      -2.654  -4.911  -4.524  0.00  0.00     0.048 A 
ATOM      6  C5  UNL d   1      -1.509  -4.430  -3.887  0.00  0.00     0.003 A 
ATOM      7  I   UNL d   1      -5.307  -4.721  -5.966  0.00  0.00    -0.146 I 
ENDROOT
TORSDOF 0
ENDMDL
