MODEL 1
REMARK minimizedAffinity 4.37474537
REMARK minimizedRMSD -1
REMARK  0 active torsions:
REMARK  status: ('A' for Active; 'I' for Inactive)
ROOT
ATOM      1  C   UNL d   1       1.129   2.253  -0.003  0.00  0.00     0.023 A 
ATOM      2  C1  UNL d   1       0.800   1.767  -1.269  0.00  0.00     0.003 A 
ATOM      3  C2  UNL d   1       0.259   0.487  -1.408  0.00  0.00     0.048 A 
ATOM      4  C3  UNL d   1       0.048  -0.301  -0.277  0.00  0.00     0.023 A 
ATOM      5  C4  UNL d   1       0.374   0.181   0.991  0.00  0.00     0.048 A 
ATOM      6  C5  UNL d   1       0.916   1.461   1.126  0.00  0.00     0.003 A 
ATOM      7  I   UNL d   1      -0.757  -2.206  -0.482  0.00  0.00    -0.146 I 
ENDROOT
TORSDOF 0
ENDMDL
