MODEL 1
REMARK minimizedAffinity 4.77059269
REMARK minimizedRMSD -1
REMARK  0 active torsions:
REMARK  status: ('A' for Active; 'I' for Inactive)
ROOT
ATOM      1  C   UNL d   1       4.948  -3.315  -5.378  0.00  0.00     0.023 A 
ATOM      2  C1  UNL d   1       4.720  -1.952  -5.568  0.00  0.00     0.003 A 
ATOM      3  C2  UNL d   1       4.682  -1.090  -4.470  0.00  0.00     0.048 A 
ATOM      4  C3  UNL d   1       4.875  -1.597  -3.185  0.00  0.00     0.023 A 
ATOM      5  C4  UNL d   1       5.104  -2.960  -2.991  0.00  0.00     0.048 A 
ATOM      6  C5  UNL d   1       5.140  -3.818  -4.091  0.00  0.00     0.003 A 
ATOM      7  I   UNL d   1       4.820  -0.315  -1.550  0.00  0.00    -0.146 I 
ENDROOT
TORSDOF 0
ENDMDL
