MODEL 1
REMARK minimizedAffinity -2.21772838
REMARK minimizedRMSD -1
REMARK  0 active torsions:
REMARK  status: ('A' for Active; 'I' for Inactive)
ROOT
ATOM      1  C   UNL d   1      -1.845  -5.523  -4.616  0.00  0.00     0.023 A 
ATOM      2  C1  UNL d   1      -1.676  -4.158  -4.379  0.00  0.00     0.003 A 
ATOM      3  C2  UNL d   1      -2.660  -3.252  -4.776  0.00  0.00     0.048 A 
ATOM      4  C3  UNL d   1      -3.813  -3.716  -5.408  0.00  0.00     0.023 A 
ATOM      5  C4  UNL d   1      -3.988  -5.080  -5.647  0.00  0.00     0.048 A 
ATOM      6  C5  UNL d   1      -3.000  -5.983  -5.249  0.00  0.00     0.003 A 
ATOM      7  I   UNL d   1      -5.281  -2.368  -6.000  0.00  0.00    -0.146 I 
ENDROOT
TORSDOF 0
ENDMDL
