MODEL 1
REMARK minimizedAffinity 4.29080343
REMARK minimizedRMSD -1
REMARK  0 active torsions:
REMARK  status: ('A' for Active; 'I' for Inactive)
ROOT
ATOM      1  C   UNL d   1      -0.811  -2.926  -3.653  0.00  0.00     0.023 A 
ATOM      2  C1  UNL d   1      -1.171  -4.259  -3.853  0.00  0.00     0.003 A 
ATOM      3  C2  UNL d   1      -2.359  -4.571  -4.518  0.00  0.00     0.048 A 
ATOM      4  C3  UNL d   1      -3.182  -3.545  -4.981  0.00  0.00     0.023 A 
ATOM      5  C4  UNL d   1      -2.826  -2.210  -4.783  0.00  0.00     0.048 A 
ATOM      6  C5  UNL d   1      -1.638  -1.903  -4.118  0.00  0.00     0.003 A 
ATOM      7  I   UNL d   1      -4.950  -4.007  -5.970  0.00  0.00    -0.146 I 
ENDROOT
TORSDOF 0
ENDMDL
