MODEL 1
REMARK minimizedAffinity -2.59448886
REMARK minimizedRMSD -1
REMARK  0 active torsions:
REMARK  status: ('A' for Active; 'I' for Inactive)
ROOT
ATOM      1  C   UNL d   1      -3.793  -4.523  -5.631  0.00  0.00     0.023 A 
ATOM      2  C1  UNL d   1      -5.104  -4.126  -5.897  0.00  0.00     0.003 A 
ATOM      3  C2  UNL d   1      -5.416  -2.769  -6.000  0.00  0.00     0.048 A 
ATOM      4  C3  UNL d   1      -4.413  -1.814  -5.836  0.00  0.00     0.023 A 
ATOM      5  C4  UNL d   1      -3.100  -2.207  -5.571  0.00  0.00     0.048 A 
ATOM      6  C5  UNL d   1      -2.793  -3.565  -5.468  0.00  0.00     0.003 A 
ATOM      7  I   UNL d   1      -4.876   0.206  -5.989  0.00  0.00    -0.146 I 
ENDROOT
TORSDOF 0
ENDMDL
