MODEL 1
REMARK minimizedAffinity -0.820175469
REMARK minimizedRMSD -1
REMARK  0 active torsions:
REMARK  status: ('A' for Active; 'I' for Inactive)
ROOT
ATOM      1  C   UNL d   1      -3.179   5.858  -5.992  0.00  0.00     0.023 A 
ATOM      2  C1  UNL d   1      -4.567   5.991  -5.995  0.00  0.00     0.003 A 
ATOM      3  C2  UNL d   1      -5.378   4.855  -5.994  0.00  0.00     0.048 A 
ATOM      4  C3  UNL d   1      -4.795   3.588  -5.988  0.00  0.00     0.023 A 
ATOM      5  C4  UNL d   1      -3.406   3.451  -5.984  0.00  0.00     0.048 A 
ATOM      6  C5  UNL d   1      -2.598   4.590  -5.986  0.00  0.00     0.003 A 
ATOM      7  I   UNL d   1      -6.000   1.895  -5.985  0.00  0.00    -0.146 I 
ENDROOT
TORSDOF 0
ENDMDL
