MODEL 1
REMARK minimizedAffinity 4.99166965
REMARK minimizedRMSD -1
REMARK  0 active torsions:
REMARK  status: ('A' for Active; 'I' for Inactive)
ROOT
ATOM      1  C   UNL d   1      -1.387  -4.872  -4.108  0.00  0.00     0.023 A 
ATOM      2  C1  UNL d   1      -1.244  -3.548  -3.695  0.00  0.00     0.003 A 
ATOM      3  C2  UNL d   1      -2.309  -2.655  -3.825  0.00  0.00     0.048 A 
ATOM      4  C3  UNL d   1      -3.516  -3.093  -4.369  0.00  0.00     0.023 A 
ATOM      5  C4  UNL d   1      -3.665  -4.418  -4.783  0.00  0.00     0.048 A 
ATOM      6  C5  UNL d   1      -2.596  -5.307  -4.651  0.00  0.00     0.003 A 
ATOM      7  I   UNL d   1      -5.104  -1.766  -4.564  0.00  0.00    -0.146 I 
ENDROOT
TORSDOF 0
ENDMDL
