MODEL 1
REMARK minimizedAffinity -0.847388208
REMARK minimizedRMSD -1
REMARK  0 active torsions:
REMARK  status: ('A' for Active; 'I' for Inactive)
ROOT
ATOM      1  C   UNL d   1       3.448   4.283   3.584  0.00  0.00     0.023 A 
ATOM      2  C1  UNL d   1       3.913   2.970   3.508  0.00  0.00     0.003 A 
ATOM      3  C2  UNL d   1       3.266   2.046   2.686  0.00  0.00     0.048 A 
ATOM      4  C3  UNL d   1       2.155   2.441   1.942  0.00  0.00     0.023 A 
ATOM      5  C4  UNL d   1       1.687   3.754   2.014  0.00  0.00     0.048 A 
ATOM      6  C5  UNL d   1       2.336   4.675   2.838  0.00  0.00     0.003 A 
ATOM      7  I   UNL d   1       1.190   1.067   0.717  0.00  0.00    -0.146 I 
ENDROOT
TORSDOF 0
ENDMDL
