MODEL 1
REMARK minimizedAffinity 9.96991062
REMARK minimizedRMSD -1
REMARK  2 active torsions:
REMARK  status: ('A' for Active; 'I' for Inactive)
REMARK    1  A    between atoms: C1_2  and  C2_3 
REMARK    2  A    between atoms: C2_3  and  C3_4 
ROOT
ATOM      1  C3  UNL d   1      -3.461   1.606   3.936  0.00  0.00    -0.075 A 
ATOM      2  C4  UNL d   1      -4.814   1.812   3.630  0.00  0.00     0.002 A 
ATOM      3  C5  UNL d   1      -5.633   2.539   4.495  0.00  0.00     0.002 A 
ATOM      4  C6  UNL d   1      -5.113   3.060   5.678  0.00  0.00    -0.004 A 
ATOM      5  C7  UNL d   1      -3.775   2.847   6.000  0.00  0.00     0.002 A 
ATOM      6  C8  UNL d   1      -2.952   2.124   5.135  0.00  0.00     0.002 A 
ENDROOT
BRANCH   1   7
ATOM      7  C2  UNL d   1      -2.562   0.846   2.990  0.00  0.00     0.056 C 
BRANCH   7   8
ATOM      8  C1  UNL d   1      -1.262   1.578   2.640  0.00  0.00     0.007 C 
ATOM      9  C   UNL d   1      -0.017   0.872   3.160  0.00  0.00     0.009 C 
ENDBRANCH   7   8
ENDBRANCH   1   7
TORSDOF 2
ENDMDL
