MODEL 1
REMARK minimizedAffinity 9.55210876
REMARK minimizedRMSD -1
REMARK  2 active torsions:
REMARK  status: ('A' for Active; 'I' for Inactive)
REMARK    1  A    between atoms: C1_2  and  C2_3 
REMARK    2  A    between atoms: C2_3  and  C3_4 
ROOT
ATOM      1  C3  UNL d   1      -0.987   1.488   2.897  0.00  0.00    -0.075 A 
ATOM      2  C4  UNL d   1       0.051   0.706   2.369  0.00  0.00     0.002 A 
ATOM      3  C5  UNL d   1       1.294   0.658   3.000  0.00  0.00     0.002 A 
ATOM      4  C6  UNL d   1       1.519   1.398   4.159  0.00  0.00    -0.004 A 
ATOM      5  C7  UNL d   1       0.501   2.191   4.683  0.00  0.00     0.002 A 
ATOM      6  C8  UNL d   1      -0.745   2.237   4.056  0.00  0.00     0.002 A 
ENDROOT
BRANCH   1   7
ATOM      7  C2  UNL d   1      -2.344   1.521   2.236  0.00  0.00     0.056 C 
BRANCH   7   8
ATOM      8  C1  UNL d   1      -3.438   0.789   3.020  0.00  0.00     0.007 C 
ATOM      9  C   UNL d   1      -4.276   1.717   3.889  0.00  0.00     0.009 C 
ENDBRANCH   7   8
ENDBRANCH   1   7
TORSDOF 2
ENDMDL
