MODEL 1
REMARK minimizedAffinity 4.71190262
REMARK minimizedRMSD -1
REMARK  2 active torsions:
REMARK  status: ('A' for Active; 'I' for Inactive)
REMARK    1  A    between atoms: C1_2  and  C2_3 
REMARK    2  A    between atoms: C2_3  and  C3_4 
ROOT
ATOM      1  C3  UNL d   1       0.887  -3.588  -2.317  0.00  0.00    -0.075 A 
ATOM      2  C4  UNL d   1       0.827  -2.221  -2.625  0.00  0.00     0.002 A 
ATOM      3  C5  UNL d   1       1.695  -1.318  -2.011  0.00  0.00     0.002 A 
ATOM      4  C6  UNL d   1       2.625  -1.767  -1.076  0.00  0.00    -0.004 A 
ATOM      5  C7  UNL d   1       2.682  -3.120  -0.750  0.00  0.00     0.002 A 
ATOM      6  C8  UNL d   1       1.818  -4.027  -1.366  0.00  0.00     0.002 A 
ENDROOT
BRANCH   1   7
ATOM      7  C2  UNL d   1      -0.030  -4.575  -3.000  0.00  0.00     0.056 C 
BRANCH   7   8
ATOM      8  C1  UNL d   1      -1.501  -4.446  -2.591  0.00  0.00     0.007 C 
ATOM      9  C   UNL d   1      -2.250  -3.376  -3.375  0.00  0.00     0.009 C 
ENDBRANCH   7   8
ENDBRANCH   1   7
TORSDOF 2
ENDMDL
