MODEL 1
REMARK minimizedAffinity 15.3594427
REMARK minimizedRMSD -1
REMARK  2 active torsions:
REMARK  status: ('A' for Active; 'I' for Inactive)
REMARK    1  A    between atoms: C1_2  and  C2_3 
REMARK    2  A    between atoms: C2_3  and  C3_4 
ROOT
ATOM      1  C3  UNL d   1       1.373   1.570   3.032  0.00  0.00    -0.075 A 
ATOM      2  C4  UNL d   1       0.201   0.800   3.080  0.00  0.00     0.002 A 
ATOM      3  C5  UNL d   1      -0.343   0.415   4.306  0.00  0.00     0.002 A 
ATOM      4  C6  UNL d   1       0.281   0.783   5.496  0.00  0.00    -0.004 A 
ATOM      5  C7  UNL d   1       1.454   1.533   5.459  0.00  0.00     0.002 A 
ATOM      6  C8  UNL d   1       1.999   1.925   4.235  0.00  0.00     0.002 A 
ENDROOT
BRANCH   1   7
ATOM      7  C2  UNL d   1       1.951   2.016   1.710  0.00  0.00     0.056 C 
BRANCH   7   8
ATOM      8  C1  UNL d   1       3.406   1.590   1.490  0.00  0.00     0.007 C 
ATOM      9  C   UNL d   1       3.819   1.597   0.025  0.00  0.00     0.009 C 
ENDBRANCH   7   8
ENDBRANCH   1   7
TORSDOF 2
ENDMDL
