MODEL 1
REMARK minimizedAffinity 14.8546743
REMARK minimizedRMSD -1
REMARK  2 active torsions:
REMARK  status: ('A' for Active; 'I' for Inactive)
REMARK    1  A    between atoms: C1_2  and  C2_3 
REMARK    2  A    between atoms: C2_3  and  C3_4 
ROOT
ATOM      1  C3  UNL d   1      -2.534   1.407   3.174  0.00  0.00    -0.075 A 
ATOM      2  C4  UNL d   1      -3.307   0.277   2.872  0.00  0.00     0.002 A 
ATOM      3  C5  UNL d   1      -4.636   0.195   3.289  0.00  0.00     0.002 A 
ATOM      4  C6  UNL d   1      -5.205   1.235   4.021  0.00  0.00    -0.004 A 
ATOM      5  C7  UNL d   1      -4.442   2.355   4.341  0.00  0.00     0.002 A 
ATOM      6  C8  UNL d   1      -3.113   2.442   3.921  0.00  0.00     0.002 A 
ENDROOT
BRANCH   1   7
ATOM      7  C2  UNL d   1      -1.105   1.515   2.701  0.00  0.00     0.056 C 
BRANCH   7   8
ATOM      8  C1  UNL d   1      -0.245   0.290   3.027  0.00  0.00     0.007 C 
ATOM      9  C   UNL d   1       0.895   0.595   3.989  0.00  0.00     0.009 C 
ENDBRANCH   7   8
ENDBRANCH   1   7
TORSDOF 2
ENDMDL
