MODEL 1
REMARK minimizedAffinity 11.5348415
REMARK minimizedRMSD -1
REMARK  2 active torsions:
REMARK  status: ('A' for Active; 'I' for Inactive)
REMARK    1  A    between atoms: C1_2  and  C2_3 
REMARK    2  A    between atoms: C2_3  and  C3_4 
ROOT
ATOM      1  C3  UNL d   1       3.067   0.262  -1.333  0.00  0.00    -0.075 A 
ATOM      2  C4  UNL d   1       2.367   0.161  -2.544  0.00  0.00     0.002 A 
ATOM      3  C5  UNL d   1       1.683  -1.010  -2.871  0.00  0.00     0.002 A 
ATOM      4  C6  UNL d   1       1.699  -2.097  -1.999  0.00  0.00    -0.004 A 
ATOM      5  C7  UNL d   1       2.406  -2.013  -0.801  0.00  0.00     0.002 A 
ATOM      6  C8  UNL d   1       3.087  -0.841  -0.469  0.00  0.00     0.002 A 
ENDROOT
BRANCH   1   7
ATOM      7  C2  UNL d   1       3.785   1.537  -0.960  0.00  0.00     0.056 C 
BRANCH   7   8
ATOM      8  C1  UNL d   1       4.375   1.530   0.454  0.00  0.00     0.007 C 
ATOM      9  C   UNL d   1       3.550   2.331   1.453  0.00  0.00     0.009 C 
ENDBRANCH   7   8
ENDBRANCH   1   7
TORSDOF 2
ENDMDL
