MODEL 1
REMARK minimizedAffinity 7.80449057
REMARK minimizedRMSD -1
REMARK  2 active torsions:
REMARK  status: ('A' for Active; 'I' for Inactive)
REMARK    1  A    between atoms: C1_2  and  C2_3 
REMARK    2  A    between atoms: C2_3  and  C3_4 
ROOT
ATOM      1  C3  UNL d   1       1.634  -2.630  -1.951  0.00  0.00    -0.075 A 
ATOM      2  C4  UNL d   1       1.654  -1.233  -2.078  0.00  0.00     0.002 A 
ATOM      3  C5  UNL d   1       2.244  -0.441  -1.093  0.00  0.00     0.002 A 
ATOM      4  C6  UNL d   1       2.811  -1.032   0.033  0.00  0.00    -0.004 A 
ATOM      5  C7  UNL d   1       2.783  -2.417   0.178  0.00  0.00     0.002 A 
ATOM      6  C8  UNL d   1       2.197  -3.213  -0.808  0.00  0.00     0.002 A 
ENDROOT
BRANCH   1   7
ATOM      7  C2  UNL d   1       1.023  -3.495  -3.028  0.00  0.00     0.056 C 
BRANCH   7   8
ATOM      8  C1  UNL d   1       1.914  -3.677  -4.262  0.00  0.00     0.007 C 
ATOM      9  C   UNL d   1       3.263  -2.982  -4.136  0.00  0.00     0.009 C 
ENDBRANCH   7   8
ENDBRANCH   1   7
TORSDOF 2
ENDMDL
