MODEL 1
REMARK minimizedAffinity 15.9604816
REMARK minimizedRMSD -1
REMARK  2 active torsions:
REMARK  status: ('A' for Active; 'I' for Inactive)
REMARK    1  A    between atoms: C1_2  and  C2_3 
REMARK    2  A    between atoms: C2_3  and  C3_4 
ROOT
ATOM      1  C3  UNL d   1      -2.108   1.078   3.601  0.00  0.00    -0.075 A 
ATOM      2  C4  UNL d   1      -1.566   1.059   2.308  0.00  0.00     0.002 A 
ATOM      3  C5  UNL d   1      -0.183   1.043   2.120  0.00  0.00     0.002 A 
ATOM      4  C6  UNL d   1       0.672   1.056   3.219  0.00  0.00    -0.004 A 
ATOM      5  C7  UNL d   1       0.144   1.092   4.508  0.00  0.00     0.002 A 
ATOM      6  C8  UNL d   1      -1.238   1.103   4.699  0.00  0.00     0.002 A 
ENDROOT
BRANCH   1   7
ATOM      7  C2  UNL d   1      -3.604   1.066   3.811  0.00  0.00     0.056 C 
BRANCH   7   8
ATOM      8  C1  UNL d   1      -4.166   2.379   4.364  0.00  0.00     0.007 C 
ATOM      9  C   UNL d   1      -4.328   2.373   5.878  0.00  0.00     0.009 C 
ENDBRANCH   7   8
ENDBRANCH   1   7
TORSDOF 2
ENDMDL
