MODEL 1
REMARK minimizedAffinity 9.96714306
REMARK minimizedRMSD -1
REMARK  2 active torsions:
REMARK  status: ('A' for Active; 'I' for Inactive)
REMARK    1  A    between atoms: C1_2  and  C2_3 
REMARK    2  A    between atoms: C2_3  and  C3_4 
ROOT
ATOM      1  C3  UNL d   1       2.608   2.547   0.865  0.00  0.00    -0.075 A 
ATOM      2  C4  UNL d   1       2.026   3.732   0.392  0.00  0.00     0.002 A 
ATOM      3  C5  UNL d   1       2.063   4.047  -0.967  0.00  0.00     0.002 A 
ATOM      4  C6  UNL d   1       2.690   3.188  -1.867  0.00  0.00    -0.004 A 
ATOM      5  C7  UNL d   1       3.286   2.016  -1.406  0.00  0.00     0.002 A 
ATOM      6  C8  UNL d   1       3.247   1.696  -0.048  0.00  0.00     0.002 A 
ENDROOT
BRANCH   1   7
ATOM      7  C2  UNL d   1       2.546   2.186   2.330  0.00  0.00     0.056 C 
BRANCH   7   8
ATOM      8  C1  UNL d   1       1.136   1.855   2.831  0.00  0.00     0.007 C 
ATOM      9  C   UNL d   1       1.104   1.423   4.291  0.00  0.00     0.009 C 
ENDBRANCH   7   8
ENDBRANCH   1   7
TORSDOF 2
ENDMDL
