MODEL 1
REMARK minimizedAffinity 4.83134747
REMARK minimizedRMSD -1
REMARK  2 active torsions:
REMARK  status: ('A' for Active; 'I' for Inactive)
REMARK    1  A    between atoms: C1_2  and  C2_3 
REMARK    2  A    between atoms: C2_3  and  C3_4 
ROOT
ATOM      1  C3  UNL d   1       2.602   0.268  -1.719  0.00  0.00    -0.075 A 
ATOM      2  C4  UNL d   1       2.635  -0.775  -0.782  0.00  0.00     0.002 A 
ATOM      3  C5  UNL d   1       2.318  -2.079  -1.162  0.00  0.00     0.002 A 
ATOM      4  C6  UNL d   1       1.953  -2.355  -2.478  0.00  0.00    -0.004 A 
ATOM      5  C7  UNL d   1       1.901  -1.324  -3.413  0.00  0.00     0.002 A 
ATOM      6  C8  UNL d   1       2.222  -0.019  -3.037  0.00  0.00     0.002 A 
ENDROOT
BRANCH   1   7
ATOM      7  C2  UNL d   1       2.973   1.676  -1.320  0.00  0.00     0.056 C 
BRANCH   7   8
ATOM      8  C1  UNL d   1       3.719   1.771   0.015  0.00  0.00     0.007 C 
ATOM      9  C   UNL d   1       5.218   1.987  -0.149  0.00  0.00     0.009 C 
ENDBRANCH   7   8
ENDBRANCH   1   7
TORSDOF 2
ENDMDL
