MODEL 1
REMARK minimizedAffinity 18.8738251
REMARK minimizedRMSD -1
REMARK  2 active torsions:
REMARK  status: ('A' for Active; 'I' for Inactive)
REMARK    1  A    between atoms: C1_2  and  C2_3 
REMARK    2  A    between atoms: C2_3  and  C3_4 
ROOT
ATOM      1  C3  UNL d   1      -3.882  -0.858   5.146  0.00  0.00    -0.075 A 
ATOM      2  C4  UNL d   1      -3.512   0.191   6.000  0.00  0.00     0.002 A 
ATOM      3  C5  UNL d   1      -3.370   1.488   5.508  0.00  0.00     0.002 A 
ATOM      4  C6  UNL d   1      -3.584   1.751   4.156  0.00  0.00    -0.004 A 
ATOM      5  C7  UNL d   1      -3.936   0.714   3.296  0.00  0.00     0.002 A 
ATOM      6  C8  UNL d   1      -4.084  -0.585   3.787  0.00  0.00     0.002 A 
ENDROOT
BRANCH   1   7
ATOM      7  C2  UNL d   1      -4.067  -2.259   5.678  0.00  0.00     0.056 C 
BRANCH   7   8
ATOM      8  C1  UNL d   1      -3.661  -3.360   4.692  0.00  0.00     0.007 C 
ATOM      9  C   UNL d   1      -3.621  -4.746   5.322  0.00  0.00     0.009 C 
ENDBRANCH   7   8
ENDBRANCH   1   7
TORSDOF 2
ENDMDL
