MODEL 1
REMARK minimizedAffinity 11.4657211
REMARK minimizedRMSD -1
REMARK  0 active torsions:
REMARK  status: ('A' for Active; 'I' for Inactive)
ROOT
ATOM      1  C   UNL d   1       5.536   2.078   2.362  0.00  0.00     0.124 A 
ATOM      2  C1  UNL d   1       5.594   2.489   3.686  0.00  0.00     0.062 A 
ATOM      3  C2  UNL d   1       5.723   1.550   4.706  0.00  0.00     0.162 A 
ATOM      4  C3  UNL d   1       5.797   0.190   4.405  0.00  0.00    -0.034 A 
ATOM      5  C4  UNL d   1       5.737  -0.216   3.071  0.00  0.00     0.162 A 
ATOM      6  C5  UNL d   1       5.608   0.726   2.055  0.00  0.00     0.062 A 
ATOM      7  F   UNL d   1       5.552   0.327   0.776  0.00  0.00    -0.097 F 
ATOM      8  F1  UNL d   1       5.805  -1.516   2.746  0.00  0.00    -0.096 F 
ATOM      9  I   UNL d   1       5.990  -1.216   5.926  0.00  0.00    -0.060 I 
ATOM     10  F2  UNL d   1       5.776   1.976   5.976  0.00  0.00    -0.096 F 
ATOM     11  F3  UNL d   1       5.524   3.794   3.985  0.00  0.00    -0.097 F 
ATOM     12  F4  UNL d   1       5.410   2.983   1.383  0.00  0.00    -0.092 F 
ENDROOT
TORSDOF 0
ENDMDL
