MODEL 1
REMARK minimizedAffinity 15.9678297
REMARK minimizedRMSD -1
REMARK  0 active torsions:
REMARK  status: ('A' for Active; 'I' for Inactive)
ROOT
ATOM      1  C   UNL d   1      -1.919   4.066   3.681  0.00  0.00     0.124 A 
ATOM      2  C1  UNL d   1      -2.792   3.347   4.486  0.00  0.00     0.062 A 
ATOM      3  C2  UNL d   1      -2.992   1.988   4.263  0.00  0.00     0.162 A 
ATOM      4  C3  UNL d   1      -2.316   1.337   3.230  0.00  0.00    -0.034 A 
ATOM      5  C4  UNL d   1      -1.440   2.067   2.425  0.00  0.00     0.162 A 
ATOM      6  C5  UNL d   1      -1.244   3.425   2.652  0.00  0.00     0.062 A 
ATOM      7  F   UNL d   1      -0.400   4.118   1.873  0.00  0.00    -0.097 F 
ATOM      8  F1  UNL d   1      -0.774   1.473   1.423  0.00  0.00    -0.096 F 
ATOM      9  I   UNL d   1      -2.612  -0.695   2.893  0.00  0.00    -0.060 I 
ATOM     10  F2  UNL d   1      -3.842   1.318   5.056  0.00  0.00    -0.096 F 
ATOM     11  F3  UNL d   1      -3.446   3.964   5.481  0.00  0.00    -0.097 F 
ATOM     12  F4  UNL d   1      -1.730   5.374   3.898  0.00  0.00    -0.092 F 
ENDROOT
TORSDOF 0
ENDMDL
