MODEL 1
REMARK minimizedAffinity 6.56911135
REMARK minimizedRMSD -1
REMARK  0 active torsions:
REMARK  status: ('A' for Active; 'I' for Inactive)
ROOT
ATOM      1  C   UNL d   1       5.869  -0.814   2.856  0.00  0.00     0.124 A 
ATOM      2  C1  UNL d   1       5.838  -0.550   4.218  0.00  0.00     0.062 A 
ATOM      3  C2  UNL d   1       5.856   0.764   4.676  0.00  0.00     0.162 A 
ATOM      4  C3  UNL d   1       5.904   1.825   3.771  0.00  0.00    -0.034 A 
ATOM      5  C4  UNL d   1       5.936   1.551   2.403  0.00  0.00     0.162 A 
ATOM      6  C5  UNL d   1       5.917   0.236   1.950  0.00  0.00     0.062 A 
ATOM      7  F   UNL d   1       5.947  -0.018   0.633  0.00  0.00    -0.097 F 
ATOM      8  F1  UNL d   1       5.982   2.547   1.506  0.00  0.00    -0.096 F 
ATOM      9  I   UNL d   1       5.931   3.791   4.453  0.00  0.00    -0.060 I 
ATOM     10  F2  UNL d   1       5.826   0.990   5.998  0.00  0.00    -0.096 F 
ATOM     11  F3  UNL d   1       5.792  -1.563   5.095  0.00  0.00    -0.097 F 
ATOM     12  F4  UNL d   1       5.852  -2.080   2.417  0.00  0.00    -0.092 F 
ENDROOT
TORSDOF 0
ENDMDL
