MODEL 1
REMARK minimizedAffinity 3.10001898
REMARK minimizedRMSD -1
REMARK  0 active torsions:
REMARK  status: ('A' for Active; 'I' for Inactive)
ROOT
ATOM      1  C   UNL d   1       5.907   2.479   2.376  0.00  0.00     0.124 A 
ATOM      2  C1  UNL d   1       5.925   1.121   2.089  0.00  0.00     0.062 A 
ATOM      3  C2  UNL d   1       5.931   0.188   3.122  0.00  0.00     0.162 A 
ATOM      4  C3  UNL d   1       5.917   0.609   4.451  0.00  0.00    -0.034 A 
ATOM      5  C4  UNL d   1       5.900   1.976   4.732  0.00  0.00     0.162 A 
ATOM      6  C5  UNL d   1       5.895   2.905   3.697  0.00  0.00     0.062 A 
ATOM      7  F   UNL d   1       5.877   4.217   3.976  0.00  0.00    -0.097 F 
ATOM      8  F1  UNL d   1       5.887   2.416   5.999  0.00  0.00    -0.096 F 
ATOM      9  I   UNL d   1       5.926  -0.784   5.998  0.00  0.00    -0.060 I 
ATOM     10  F2  UNL d   1       5.948  -1.118   2.815  0.00  0.00    -0.096 F 
ATOM     11  F3  UNL d   1       5.938   0.707   0.814  0.00  0.00    -0.097 F 
ATOM     12  F4  UNL d   1       5.903   3.375   1.381  0.00  0.00    -0.092 F 
ENDROOT
TORSDOF 0
ENDMDL
