MODEL 1
REMARK minimizedAffinity 6.61470366
REMARK minimizedRMSD -1
REMARK  0 active torsions:
REMARK  status: ('A' for Active; 'I' for Inactive)
ROOT
ATOM      1  C   UNL d   1       5.954   4.669   3.131  0.00  0.00     0.124 A 
ATOM      2  C1  UNL d   1       5.949   4.211   4.442  0.00  0.00     0.062 A 
ATOM      3  C2  UNL d   1       5.955   2.845   4.705  0.00  0.00     0.162 A 
ATOM      4  C3  UNL d   1       5.966   1.925   3.656  0.00  0.00    -0.034 A 
ATOM      5  C4  UNL d   1       5.970   2.394   2.341  0.00  0.00     0.162 A 
ATOM      6  C5  UNL d   1       5.965   3.761   2.083  0.00  0.00     0.062 A 
ATOM      7  F   UNL d   1       5.969   4.202   0.816  0.00  0.00    -0.097 F 
ATOM      8  F1  UNL d   1       5.981   1.538   1.308  0.00  0.00    -0.096 F 
ATOM      9  I   UNL d   1       5.974  -0.119   4.046  0.00  0.00    -0.060 I 
ATOM     10  F2  UNL d   1       5.950   2.430   5.981  0.00  0.00    -0.096 F 
ATOM     11  F3  UNL d   1       5.939   5.087   5.457  0.00  0.00    -0.097 F 
ATOM     12  F4  UNL d   1       5.948   5.985   2.881  0.00  0.00    -0.092 F 
ENDROOT
TORSDOF 0
ENDMDL
