MODEL 1
REMARK minimizedAffinity 5.20419693
REMARK minimizedRMSD -1
REMARK  0 active torsions:
REMARK  status: ('A' for Active; 'I' for Inactive)
ROOT
ATOM      1  C   UNL d   1       5.945   2.181   2.302  0.00  0.00     0.124 A 
ATOM      2  C1  UNL d   1       5.946   0.817   2.047  0.00  0.00     0.062 A 
ATOM      3  C2  UNL d   1       5.962  -0.092   3.101  0.00  0.00     0.162 A 
ATOM      4  C3  UNL d   1       5.976   0.360   4.420  0.00  0.00    -0.034 A 
ATOM      5  C4  UNL d   1       5.975   1.734   4.669  0.00  0.00     0.162 A 
ATOM      6  C5  UNL d   1       5.959   2.638   3.613  0.00  0.00     0.062 A 
ATOM      7  F   UNL d   1       5.957   3.956   3.861  0.00  0.00    -0.097 F 
ATOM      8  F1  UNL d   1       5.987   2.203   5.926  0.00  0.00    -0.096 F 
ATOM      9  I   UNL d   1       6.000  -0.996   5.999  0.00  0.00    -0.060 I 
ATOM     10  F2  UNL d   1       5.964  -1.405   2.825  0.00  0.00    -0.096 F 
ATOM     11  F3  UNL d   1       5.934   0.373   0.782  0.00  0.00    -0.097 F 
ATOM     12  F4  UNL d   1       5.930   3.054   1.286  0.00  0.00    -0.092 F 
ENDROOT
TORSDOF 0
ENDMDL
