MODEL 1
REMARK minimizedAffinity 17.3682976
REMARK minimizedRMSD -1
REMARK  0 active torsions:
REMARK  status: ('A' for Active; 'I' for Inactive)
ROOT
ATOM      1  C   UNL d   1       5.282   1.196   3.638  0.00  0.00     0.124 A 
ATOM      2  C1  UNL d   1       5.541   1.729   2.383  0.00  0.00     0.062 A 
ATOM      3  C2  UNL d   1       5.746   3.098   2.232  0.00  0.00     0.162 A 
ATOM      4  C3  UNL d   1       5.692   3.944   3.340  0.00  0.00    -0.034 A 
ATOM      5  C4  UNL d   1       5.430   3.401   4.599  0.00  0.00     0.162 A 
ATOM      6  C5  UNL d   1       5.226   2.032   4.744  0.00  0.00     0.062 A 
ATOM      7  F   UNL d   1       4.976   1.520   5.958  0.00  0.00    -0.097 F 
ATOM      8  F1  UNL d   1       5.372   4.185   5.685  0.00  0.00    -0.096 F 
ATOM      9  I   UNL d   1       5.997   5.990   3.118  0.00  0.00    -0.060 I 
ATOM     10  F2  UNL d   1       5.995   3.585   1.007  0.00  0.00    -0.096 F 
ATOM     11  F3  UNL d   1       5.595   0.924   1.312  0.00  0.00    -0.097 F 
ATOM     12  F4  UNL d   1       5.085  -0.120   3.781  0.00  0.00    -0.092 F 
ENDROOT
TORSDOF 0
ENDMDL
