MODEL 1
REMARK minimizedAffinity 2.65238953
REMARK minimizedRMSD -1
REMARK  0 active torsions:
REMARK  status: ('A' for Active; 'I' for Inactive)
ROOT
ATOM      1  C   UNL d   1       5.937   3.196   3.638  0.00  0.00     0.124 A 
ATOM      2  C1  UNL d   1       5.967   2.507   2.433  0.00  0.00     0.062 A 
ATOM      3  C2  UNL d   1       5.969   1.115   2.423  0.00  0.00     0.162 A 
ATOM      4  C3  UNL d   1       5.940   0.402   3.621  0.00  0.00    -0.034 A 
ATOM      5  C4  UNL d   1       5.911   1.102   4.829  0.00  0.00     0.162 A 
ATOM      6  C5  UNL d   1       5.909   2.493   4.834  0.00  0.00     0.062 A 
ATOM      7  F   UNL d   1       5.880   3.157   5.999  0.00  0.00    -0.097 F 
ATOM      8  F1  UNL d   1       5.882   0.448   6.000  0.00  0.00    -0.096 F 
ATOM      9  I   UNL d   1       5.943  -1.679   3.610  0.00  0.00    -0.060 I 
ATOM     10  F2  UNL d   1       5.998   0.475   1.244  0.00  0.00    -0.096 F 
ATOM     11  F3  UNL d   1       5.995   3.184   1.276  0.00  0.00    -0.097 F 
ATOM     12  F4  UNL d   1       5.937   4.535   3.645  0.00  0.00    -0.092 F 
ENDROOT
TORSDOF 0
ENDMDL
