MODEL 1
REMARK minimizedAffinity 12.3618307
REMARK minimizedRMSD -1
REMARK  0 active torsions:
REMARK  status: ('A' for Active; 'I' for Inactive)
ROOT
ATOM      1  C   UNL d   1       4.179  -0.073   3.243  0.00  0.00     0.124 A 
ATOM      2  C1  UNL d   1       4.840   0.162   4.440  0.00  0.00     0.062 A 
ATOM      3  C2  UNL d   1       5.361   1.422   4.717  0.00  0.00     0.162 A 
ATOM      4  C3  UNL d   1       5.222   2.459   3.794  0.00  0.00    -0.034 A 
ATOM      5  C4  UNL d   1       4.556   2.215   2.591  0.00  0.00     0.162 A 
ATOM      6  C5  UNL d   1       4.038   0.953   2.320  0.00  0.00     0.062 A 
ATOM      7  F   UNL d   1       3.399   0.728   1.162  0.00  0.00    -0.097 F 
ATOM      8  F1  UNL d   1       4.405   3.189   1.682  0.00  0.00    -0.096 F 
ATOM      9  I   UNL d   1       5.999   4.346   4.204  0.00  0.00    -0.060 I 
ATOM     10  F2  UNL d   1       5.995   1.621   5.882  0.00  0.00    -0.096 F 
ATOM     11  F3  UNL d   1       4.978  -0.829   5.333  0.00  0.00    -0.097 F 
ATOM     12  F4  UNL d   1       3.680  -1.288   2.978  0.00  0.00    -0.092 F 
ENDROOT
TORSDOF 0
ENDMDL
