MODEL 1
REMARK minimizedAffinity 8.82119465
REMARK minimizedRMSD -1
REMARK  0 active torsions:
REMARK  status: ('A' for Active; 'I' for Inactive)
ROOT
ATOM      1  C   UNL d   1       5.950   3.709   3.277  0.00  0.00     0.124 A 
ATOM      2  C1  UNL d   1       5.970   2.859   2.180  0.00  0.00     0.062 A 
ATOM      3  C2  UNL d   1       5.979   1.479   2.364  0.00  0.00     0.162 A 
ATOM      4  C3  UNL d   1       5.968   0.941   3.650  0.00  0.00    -0.034 A 
ATOM      5  C4  UNL d   1       5.949   1.802   4.749  0.00  0.00     0.162 A 
ATOM      6  C5  UNL d   1       5.940   3.180   4.560  0.00  0.00     0.062 A 
ATOM      7  F   UNL d   1       5.921   4.000   5.621  0.00  0.00    -0.097 F 
ATOM      8  F1  UNL d   1       5.938   1.318   5.999  0.00  0.00    -0.096 F 
ATOM      9  I   UNL d   1       5.981  -1.122   3.930  0.00  0.00    -0.060 I 
ATOM     10  F2  UNL d   1       5.997   0.681   1.286  0.00  0.00    -0.096 F 
ATOM     11  F3  UNL d   1       5.980   3.367   0.939  0.00  0.00    -0.097 F 
ATOM     12  F4  UNL d   1       5.942   5.036   3.097  0.00  0.00    -0.092 F 
ENDROOT
TORSDOF 0
ENDMDL
