MODEL 1
REMARK minimizedAffinity 3.74916863
REMARK minimizedRMSD -1
REMARK  0 active torsions:
REMARK  status: ('A' for Active; 'I' for Inactive)
ROOT
ATOM      1  C   UNL d   1       4.365   2.442   2.770  0.00  0.00     0.124 A 
ATOM      2  C1  UNL d   1       4.995   2.823   3.947  0.00  0.00     0.062 A 
ATOM      3  C2  UNL d   1       5.394   1.862   4.871  0.00  0.00     0.162 A 
ATOM      4  C3  UNL d   1       5.166   0.509   4.621  0.00  0.00    -0.034 A 
ATOM      5  C4  UNL d   1       4.532   0.132   3.436  0.00  0.00     0.162 A 
ATOM      6  C5  UNL d   1       4.135   1.097   2.516  0.00  0.00     0.062 A 
ATOM      7  F   UNL d   1       3.527   0.727   1.379  0.00  0.00    -0.097 F 
ATOM      8  F1  UNL d   1       4.298  -1.160   3.164  0.00  0.00    -0.096 F 
ATOM      9  I   UNL d   1       5.762  -0.932   6.000  0.00  0.00    -0.060 I 
ATOM     10  F2  UNL d   1       6.000   2.259   6.000  0.00  0.00    -0.096 F 
ATOM     11  F3  UNL d   1       5.218   4.122   4.196  0.00  0.00    -0.097 F 
ATOM     12  F4  UNL d   1       3.981   3.369   1.884  0.00  0.00    -0.092 F 
ENDROOT
TORSDOF 0
ENDMDL
