MODEL 1
REMARK minimizedAffinity 8.21235085
REMARK minimizedRMSD -1
REMARK  0 active torsions:
REMARK  status: ('A' for Active; 'I' for Inactive)
ROOT
ATOM      1  C   UNL d   1       5.879   3.609   3.637  0.00  0.00     0.124 A 
ATOM      2  C1  UNL d   1       5.874   2.919   2.433  0.00  0.00     0.062 A 
ATOM      3  C2  UNL d   1       5.906   1.528   2.422  0.00  0.00     0.162 A 
ATOM      4  C3  UNL d   1       5.942   0.816   3.621  0.00  0.00    -0.034 A 
ATOM      5  C4  UNL d   1       5.948   1.516   4.829  0.00  0.00     0.162 A 
ATOM      6  C5  UNL d   1       5.916   2.907   4.834  0.00  0.00     0.062 A 
ATOM      7  F   UNL d   1       5.921   3.571   5.999  0.00  0.00    -0.097 F 
ATOM      8  F1  UNL d   1       5.982   0.863   6.000  0.00  0.00    -0.096 F 
ATOM      9  I   UNL d   1       5.989  -1.265   3.610  0.00  0.00    -0.060 I 
ATOM     10  F2  UNL d   1       5.900   0.888   1.243  0.00  0.00    -0.096 F 
ATOM     11  F3  UNL d   1       5.839   3.595   1.275  0.00  0.00    -0.097 F 
ATOM     12  F4  UNL d   1       5.850   4.947   3.644  0.00  0.00    -0.092 F 
ENDROOT
TORSDOF 0
ENDMDL
