MODEL 1
REMARK minimizedAffinity 15.9445314
REMARK minimizedRMSD -1
REMARK  0 active torsions:
REMARK  status: ('A' for Active; 'I' for Inactive)
ROOT
ATOM      1  C   UNL d   1       4.576   0.025   3.493  0.00  0.00     0.124 A 
ATOM      2  C1  UNL d   1       5.096   0.485   4.696  0.00  0.00     0.062 A 
ATOM      3  C2  UNL d   1       5.498   1.811   4.823  0.00  0.00     0.162 A 
ATOM      4  C3  UNL d   1       5.383   2.688   3.745  0.00  0.00    -0.034 A 
ATOM      5  C4  UNL d   1       4.860   2.219   2.539  0.00  0.00     0.162 A 
ATOM      6  C5  UNL d   1       4.459   0.892   2.416  0.00  0.00     0.062 A 
ATOM      7  F   UNL d   1       3.958   0.451   1.254  0.00  0.00    -0.097 F 
ATOM      8  F1  UNL d   1       4.735   3.035   1.482  0.00  0.00    -0.096 F 
ATOM      9  I   UNL d   1       5.984   4.672   3.932  0.00  0.00    -0.060 I 
ATOM     10  F2  UNL d   1       5.997   2.227   5.997  0.00  0.00    -0.096 F 
ATOM     11  F3  UNL d   1       5.211  -0.351   5.738  0.00  0.00    -0.097 F 
ATOM     12  F4  UNL d   1       4.190  -1.251   3.373  0.00  0.00    -0.092 F 
ENDROOT
TORSDOF 0
ENDMDL
