MODEL 1
REMARK minimizedAffinity 16.5709209
REMARK minimizedRMSD -1
REMARK  0 active torsions:
REMARK  status: ('A' for Active; 'I' for Inactive)
ROOT
ATOM      1  C   UNL d   1       5.740  -1.273   3.600  0.00  0.00     0.124 A 
ATOM      2  C1  UNL d   1       5.791  -0.538   4.777  0.00  0.00     0.062 A 
ATOM      3  C2  UNL d   1       5.844   0.852   4.732  0.00  0.00     0.162 A 
ATOM      4  C3  UNL d   1       5.846   1.518   3.506  0.00  0.00    -0.034 A 
ATOM      5  C4  UNL d   1       5.796   0.772   2.327  0.00  0.00     0.162 A 
ATOM      6  C5  UNL d   1       5.743  -0.618   2.377  0.00  0.00     0.062 A 
ATOM      7  F   UNL d   1       5.694  -1.326   1.239  0.00  0.00    -0.097 F 
ATOM      8  F1  UNL d   1       5.797   1.379   1.131  0.00  0.00    -0.096 F 
ATOM      9  I   UNL d   1       5.925   3.596   3.434  0.00  0.00    -0.060 I 
ATOM     10  F2  UNL d   1       5.892   1.537   5.884  0.00  0.00    -0.096 F 
ATOM     11  F3  UNL d   1       5.789  -1.168   5.960  0.00  0.00    -0.097 F 
ATOM     12  F4  UNL d   1       5.690  -2.610   3.646  0.00  0.00    -0.092 F 
ENDROOT
TORSDOF 0
ENDMDL
