MODEL 1
REMARK minimizedAffinity 4.43268538
REMARK minimizedRMSD -1
REMARK  0 active torsions:
REMARK  status: ('A' for Active; 'I' for Inactive)
ROOT
ATOM      1  C   UNL d   1       5.966   3.121   3.609  0.00  0.00     0.124 A 
ATOM      2  C1  UNL d   1       5.958   2.430   4.813  0.00  0.00     0.062 A 
ATOM      3  C2  UNL d   1       5.964   1.038   4.821  0.00  0.00     0.162 A 
ATOM      4  C3  UNL d   1       5.978   0.327   3.621  0.00  0.00    -0.034 A 
ATOM      5  C4  UNL d   1       5.986   1.029   2.414  0.00  0.00     0.162 A 
ATOM      6  C5  UNL d   1       5.980   2.420   2.411  0.00  0.00     0.062 A 
ATOM      7  F   UNL d   1       5.988   3.086   1.247  0.00  0.00    -0.097 F 
ATOM      8  F1  UNL d   1       6.000   0.377   1.242  0.00  0.00    -0.096 F 
ATOM      9  I   UNL d   1       5.987  -1.754   3.629  0.00  0.00    -0.060 I 
ATOM     10  F2  UNL d   1       5.956   0.396   5.999  0.00  0.00    -0.096 F 
ATOM     11  F3  UNL d   1       5.944   3.104   5.971  0.00  0.00    -0.097 F 
ATOM     12  F4  UNL d   1       5.960   4.460   3.604  0.00  0.00    -0.092 F 
ENDROOT
TORSDOF 0
ENDMDL
