MODEL 1
REMARK minimizedAffinity 9.35515213
REMARK minimizedRMSD -1
REMARK  0 active torsions:
REMARK  status: ('A' for Active; 'I' for Inactive)
ROOT
ATOM      1  N1  IND d   1       0.735   3.930  -0.626  0.00  0.00    -0.196 N 
ATOM      2  C2  IND d   1      -0.383   3.319  -1.122  0.00  0.00     0.054 A 
ATOM      3  C3  IND d   1      -0.931   2.512  -0.187  0.00  0.00    -0.031 A 
ATOM      4  C4  IND d   1      -0.220   2.119   2.255  0.00  0.00     0.051 A 
ATOM      5  C5  IND d   1       0.762   2.428   3.154  0.00  0.00    -0.031 A 
ATOM      6  C6  IND d   1       1.805   3.272   2.833  0.00  0.00     0.015 A 
ATOM      7  C7  IND d   1       1.899   3.851   1.599  0.00  0.00    -0.016 A 
ATOM      8  C8  IND d   1       0.907   3.534   0.682  0.00  0.00    -0.047 A 
ATOM      9  C9  IND d   1      -0.131   2.645   0.988  0.00  0.00    -0.096 A 
ATOM     10  HN1 IND d   1       1.245   4.471  -1.059  0.00  0.00     0.298 HD
ENDROOT
TORSDOF 0
ENDMDL
