MODEL 1
REMARK minimizedAffinity 10.5514088
REMARK minimizedRMSD -1
REMARK  0 active torsions:
REMARK  status: ('A' for Active; 'I' for Inactive)
ROOT
ATOM      1  N1  IND d   1       4.319  -3.762  -3.823  0.00  0.00    -0.196 N 
ATOM      2  C2  IND d   1       4.062  -4.941  -4.466  0.00  0.00     0.054 A 
ATOM      3  C3  IND d   1       4.383  -5.988  -3.673  0.00  0.00    -0.031 A 
ATOM      4  C4  IND d   1       5.250  -6.000  -1.249  0.00  0.00     0.051 A 
ATOM      5  C5  IND d   1       5.673  -5.166  -0.253  0.00  0.00    -0.031 A 
ATOM      6  C6  IND d   1       5.664  -3.794  -0.397  0.00  0.00     0.015 A 
ATOM      7  C7  IND d   1       5.219  -3.201  -1.545  0.00  0.00    -0.016 A 
ATOM      8  C8  IND d   1       4.794  -4.045  -2.561  0.00  0.00    -0.047 A 
ATOM      9  C9  IND d   1       4.841  -5.439  -2.436  0.00  0.00    -0.096 A 
ATOM     10  HN1 IND d   1       4.203  -2.976  -4.151  0.00  0.00     0.298 HD
ENDROOT
TORSDOF 0
ENDMDL
