MODEL 1
REMARK minimizedAffinity 3.03858137
REMARK minimizedRMSD -1
REMARK  0 active torsions:
REMARK  status: ('A' for Active; 'I' for Inactive)
ROOT
ATOM      1  N1  IND d   1      -5.997   3.990  -4.689  0.00  0.00    -0.196 N 
ATOM      2  C2  IND d   1      -5.063   4.069  -5.684  0.00  0.00     0.054 A 
ATOM      3  C3  IND d   1      -3.918   3.459  -5.303  0.00  0.00    -0.031 A 
ATOM      4  C4  IND d   1      -3.390   2.180  -3.132  0.00  0.00     0.051 A 
ATOM      5  C5  IND d   1      -3.916   1.869  -1.910  0.00  0.00    -0.031 A 
ATOM      6  C6  IND d   1      -5.190   2.255  -1.545  0.00  0.00     0.015 A 
ATOM      7  C7  IND d   1      -5.992   2.960  -2.397  0.00  0.00    -0.016 A 
ATOM      8  C8  IND d   1      -5.458   3.283  -3.637  0.00  0.00    -0.047 A 
ATOM      9  C9  IND d   1      -4.151   2.931  -3.997  0.00  0.00    -0.096 A 
ATOM     10  HN1 IND d   1      -6.788   4.327  -4.716  0.00  0.00     0.298 HD
ENDROOT
TORSDOF 0
ENDMDL
