MODEL 1
REMARK minimizedAffinity 8.21487141
REMARK minimizedRMSD -1
REMARK  0 active torsions:
REMARK  status: ('A' for Active; 'I' for Inactive)
ROOT
ATOM      1  N1  IND d   1      -3.820   2.630  -4.845  0.00  0.00    -0.196 N 
ATOM      2  C2  IND d   1      -3.369   3.873  -5.191  0.00  0.00     0.054 A 
ATOM      3  C3  IND d   1      -3.849   4.803  -4.335  0.00  0.00    -0.031 A 
ATOM      4  C4  IND d   1      -5.308   4.495  -2.236  0.00  0.00     0.051 A 
ATOM      5  C5  IND d   1      -6.000   3.548  -1.535  0.00  0.00    -0.031 A 
ATOM      6  C6  IND d   1      -5.998   2.219  -1.907  0.00  0.00     0.015 A 
ATOM      7  C7  IND d   1      -5.292   1.784  -2.992  0.00  0.00    -0.016 A 
ATOM      8  C8  IND d   1      -4.594   2.744  -3.711  0.00  0.00    -0.047 A 
ATOM      9  C9  IND d   1      -4.627   4.101  -3.364  0.00  0.00    -0.096 A 
ATOM     10  HN1 IND d   1      -3.649   1.899  -5.265  0.00  0.00     0.298 HD
ENDROOT
TORSDOF 0
ENDMDL
