MODEL 1
REMARK minimizedAffinity 8.35574341
REMARK minimizedRMSD -1
REMARK  0 active torsions:
REMARK  status: ('A' for Active; 'I' for Inactive)
ROOT
ATOM      1  N1  IND d   1      -3.892   3.042  -2.227  0.00  0.00    -0.196 N 
ATOM      2  C2  IND d   1      -5.001   2.324  -1.877  0.00  0.00     0.054 A 
ATOM      3  C3  IND d   1      -6.000   2.541  -2.762  0.00  0.00    -0.031 A 
ATOM      4  C4  IND d   1      -6.000   3.955  -4.914  0.00  0.00     0.051 A 
ATOM      5  C5  IND d   1      -5.228   4.825  -5.631  0.00  0.00    -0.031 A 
ATOM      6  C6  IND d   1      -3.944   5.149  -5.244  0.00  0.00     0.015 A 
ATOM      7  C7  IND d   1      -3.377   4.605  -4.126  0.00  0.00    -0.016 A 
ATOM      8  C8  IND d   1      -4.161   3.727  -3.391  0.00  0.00    -0.047 A 
ATOM      9  C9  IND d   1      -5.480   3.426  -3.756  0.00  0.00    -0.096 A 
ATOM     10  HN1 IND d   1      -3.150   3.063  -1.792  0.00  0.00     0.298 HD
ENDROOT
TORSDOF 0
ENDMDL
