MODEL 1
REMARK minimizedAffinity 7.8897047
REMARK minimizedRMSD -1
REMARK  0 active torsions:
REMARK  status: ('A' for Active; 'I' for Inactive)
ROOT
ATOM      1  N1  IND d   1       0.519  -4.044  -0.399  0.00  0.00    -0.196 N 
ATOM      2  C2  IND d   1      -0.336  -4.015  -1.465  0.00  0.00     0.054 A 
ATOM      3  C3  IND d   1      -0.276  -2.814  -2.083  0.00  0.00    -0.031 A 
ATOM      4  C4  IND d   1       1.227  -0.787  -1.577  0.00  0.00     0.051 A 
ATOM      5  C5  IND d   1       2.146  -0.325  -0.677  0.00  0.00    -0.031 A 
ATOM      6  C6  IND d   1       2.580  -1.096   0.382  0.00  0.00     0.015 A 
ATOM      7  C7  IND d   1       2.118  -2.368   0.574  0.00  0.00    -0.016 A 
ATOM      8  C8  IND d   1       1.180  -2.837  -0.334  0.00  0.00    -0.047 A 
ATOM      9  C9  IND d   1       0.703  -2.044  -1.385  0.00  0.00    -0.096 A 
ATOM     10  HN1 IND d   1       0.626  -4.705   0.141  0.00  0.00     0.298 HD
ENDROOT
TORSDOF 0
ENDMDL
