MODEL 1
REMARK minimizedAffinity 7.70166016
REMARK minimizedRMSD -1
REMARK  0 active torsions:
REMARK  status: ('A' for Active; 'I' for Inactive)
ROOT
ATOM      1  N1  IND d   1       0.968   1.703  -0.441  0.00  0.00    -0.196 N 
ATOM      2  C2  IND d   1      -0.163   1.705  -1.210  0.00  0.00     0.054 A 
ATOM      3  C3  IND d   1      -1.241   2.022  -0.460  0.00  0.00    -0.031 A 
ATOM      4  C4  IND d   1      -1.369   2.676   2.027  0.00  0.00     0.051 A 
ATOM      5  C5  IND d   1      -0.602   2.781   3.154  0.00  0.00    -0.031 A 
ATOM      6  C6  IND d   1       0.754   2.529   3.139  0.00  0.00     0.015 A 
ATOM      7  C7  IND d   1       1.400   2.173   1.989  0.00  0.00    -0.016 A 
ATOM      8  C8  IND d   1       0.624   2.058   0.845  0.00  0.00    -0.047 A 
ATOM      9  C9  IND d   1      -0.760   2.271   0.862  0.00  0.00    -0.096 A 
ATOM     10  HN1 IND d   1       1.760   1.511  -0.715  0.00  0.00     0.298 HD
ENDROOT
TORSDOF 0
ENDMDL
