MODEL 1
REMARK minimizedAffinity 2.26745152
REMARK minimizedRMSD -1
REMARK  0 active torsions:
REMARK  status: ('A' for Active; 'I' for Inactive)
ROOT
ATOM      1  N1  IND d   1      -3.859   2.121  -2.639  0.00  0.00    -0.196 N 
ATOM      2  C2  IND d   1      -5.004   2.129  -1.892  0.00  0.00     0.054 A 
ATOM      3  C3  IND d   1      -5.999   2.753  -2.562  0.00  0.00    -0.031 A 
ATOM      4  C4  IND d   1      -5.999   3.747  -4.937  0.00  0.00     0.051 A 
ATOM      5  C5  IND d   1      -5.175   4.009  -5.995  0.00  0.00    -0.031 A 
ATOM      6  C6  IND d   1      -3.844   3.647  -5.989  0.00  0.00     0.015 A 
ATOM      7  C7  IND d   1      -3.287   2.994  -4.925  0.00  0.00    -0.016 A 
ATOM      8  C8  IND d   1      -4.120   2.732  -3.846  0.00  0.00    -0.047 A 
ATOM      9  C9  IND d   1      -5.461   3.136  -3.829  0.00  0.00    -0.096 A 
ATOM     10  HN1 IND d   1      -3.104   1.791  -2.396  0.00  0.00     0.298 HD
ENDROOT
TORSDOF 0
ENDMDL
