MODEL 1
REMARK minimizedAffinity 1.07456124
REMARK minimizedRMSD -1
REMARK  0 active torsions:
REMARK  status: ('A' for Active; 'I' for Inactive)
ROOT
ATOM      1  N1  IND d   1       0.411   2.165   0.009  0.00  0.00    -0.196 N 
ATOM      2  C2  IND d   1       0.388   1.718   1.300  0.00  0.00     0.054 A 
ATOM      3  C3  IND d   1       0.005   2.710   2.135  0.00  0.00    -0.031 A 
ATOM      4  C4  IND d   1      -0.728   5.116   1.587  0.00  0.00     0.051 A 
ATOM      5  C5  IND d   1      -0.837   6.000   0.550  0.00  0.00    -0.031 A 
ATOM      6  C6  IND d   1      -0.532   5.642  -0.748  0.00  0.00     0.015 A 
ATOM      7  C7  IND d   1      -0.115   4.378  -1.059  0.00  0.00    -0.016 A 
ATOM      8  C8  IND d   1       0.003   3.481  -0.007  0.00  0.00    -0.047 A 
ATOM      9  C9  IND d   1      -0.264   3.850   1.318  0.00  0.00    -0.096 A 
ATOM     10  HN1 IND d   1       0.642   1.702  -0.678  0.00  0.00     0.298 HD
ENDROOT
TORSDOF 0
ENDMDL
