MODEL 1
REMARK minimizedAffinity 4.9364028
REMARK minimizedRMSD -1
REMARK  0 active torsions:
REMARK  status: ('A' for Active; 'I' for Inactive)
ROOT
ATOM      1  C   UNL d   1       2.641  -2.926   0.763  0.00  0.00    -0.002 A 
ATOM      2  C1  UNL d   1       2.086  -4.198   0.787  0.00  0.00     0.010 A 
ATOM      3  C2  UNL d   1       0.880  -4.433   1.452  0.00  0.00     0.041 A 
ATOM      4  C3  UNL d   1       0.236  -3.359   2.095  0.00  0.00    -0.075 A 
ATOM      5  S   UNL d   1      -1.249  -3.411   2.970  0.00  0.00     0.015 SA
ATOM      6  C4  UNL d   1      -1.182  -1.746   3.330  0.00  0.00     0.022 A 
ATOM      7  C5  UNL d   1      -0.060  -1.150   2.804  0.00  0.00     0.026 A 
ATOM      8  C6  UNL d   1       0.775  -2.069   2.083  0.00  0.00    -0.082 A 
ATOM      9  C7  UNL d   1       1.999  -1.863   1.402  0.00  0.00     0.045 A 
ENDROOT
TORSDOF 0
ENDMDL
