MODEL 1
REMARK minimizedAffinity 18.582901
REMARK minimizedRMSD -1
REMARK  0 active torsions:
REMARK  status: ('A' for Active; 'I' for Inactive)
ROOT
ATOM      1  C   UNL d   1       3.711  -3.084   0.704  0.00  0.00    -0.002 A 
ATOM      2  C1  UNL d   1       2.821  -3.776  -0.105  0.00  0.00     0.010 A 
ATOM      3  C2  UNL d   1       1.451  -3.517  -0.036  0.00  0.00     0.041 A 
ATOM      4  C3  UNL d   1       0.986  -2.540   0.866  0.00  0.00    -0.075 A 
ATOM      5  S   UNL d   1      -0.648  -2.053   1.121  0.00  0.00     0.015 SA
ATOM      6  C4  UNL d   1      -0.203  -0.915   2.309  0.00  0.00     0.022 A 
ATOM      7  C5  UNL d   1       1.156  -0.894   2.518  0.00  0.00     0.026 A 
ATOM      8  C6  UNL d   1       1.864  -1.829   1.690  0.00  0.00    -0.082 A 
ATOM      9  C7  UNL d   1       3.247  -2.116   1.598  0.00  0.00     0.045 A 
ENDROOT
TORSDOF 0
ENDMDL
