MODEL 1
REMARK minimizedAffinity 18.1731567
REMARK minimizedRMSD -1
REMARK  0 active torsions:
REMARK  status: ('A' for Active; 'I' for Inactive)
ROOT
ATOM      1  C   UNL d   1      -3.352   0.580  -2.564  0.00  0.00    -0.002 A 
ATOM      2  C1  UNL d   1      -2.556   1.556  -1.982  0.00  0.00     0.010 A 
ATOM      3  C2  UNL d   1      -2.677   2.893  -2.365  0.00  0.00     0.041 A 
ATOM      4  C3  UNL d   1      -3.621   3.236  -3.353  0.00  0.00    -0.075 A 
ATOM      5  S   UNL d   1      -3.945   4.809  -3.979  0.00  0.00     0.015 SA
ATOM      6  C4  UNL d   1      -5.148   4.222  -5.034  0.00  0.00     0.022 A 
ATOM      7  C5  UNL d   1      -5.312   2.862  -4.924  0.00  0.00     0.026 A 
ATOM      8  C6  UNL d   1      -4.435   2.271  -3.953  0.00  0.00    -0.082 A 
ATOM      9  C7  UNL d   1      -4.288   0.924  -3.543  0.00  0.00     0.045 A 
ENDROOT
TORSDOF 0
ENDMDL
