MODEL 1
REMARK minimizedAffinity 18.3123894
REMARK minimizedRMSD -1
REMARK  0 active torsions:
REMARK  status: ('A' for Active; 'I' for Inactive)
ROOT
ATOM      1  C   UNL d   1       2.880  -1.524   2.080  0.00  0.00    -0.002 A 
ATOM      2  C1  UNL d   1       3.643  -2.398   1.319  0.00  0.00     0.010 A 
ATOM      3  C2  UNL d   1       3.180  -2.855   0.084  0.00  0.00     0.041 A 
ATOM      4  C3  UNL d   1       1.925  -2.413  -0.379  0.00  0.00    -0.075 A 
ATOM      5  S   UNL d   1       1.156  -2.839  -1.862  0.00  0.00     0.015 SA
ATOM      6  C4  UNL d   1      -0.204  -1.870  -1.521  0.00  0.00     0.022 A 
ATOM      7  C5  UNL d   1      -0.091  -1.230  -0.310  0.00  0.00     0.026 A 
ATOM      8  C6  UNL d   1       1.139  -1.532   0.368  0.00  0.00    -0.082 A 
ATOM      9  C7  UNL d   1       1.636  -1.088   1.617  0.00  0.00     0.045 A 
ENDROOT
TORSDOF 0
ENDMDL
