MODEL 1
REMARK minimizedAffinity -3.76896739
REMARK minimizedRMSD -1
REMARK  0 active torsions:
REMARK  status: ('A' for Active; 'I' for Inactive)
ROOT
ATOM      1  C2' OXE d   1      -1.562   1.380   1.899  0.00  0.00     0.078 C 
ATOM      2  C1' OXE d   1      -0.407  -1.101   2.523  0.00  0.00     0.078 C 
ATOM      3  C1  OXE d   1      -0.190  -0.554   1.135  0.00  0.00    -0.078 A 
ATOM      4  C2  OXE d   1      -0.798   0.639   0.823  0.00  0.00    -0.078 A 
ATOM      5  C3  OXE d   1      -0.586   1.215  -0.426  0.00  0.00     0.003 A 
ATOM      6  C4  OXE d   1       0.114   0.518  -1.419  0.00  0.00    -0.002 A 
ATOM      7  C5  OXE d   1       0.708  -0.717  -1.135  0.00  0.00    -0.002 A 
ATOM      8  C6  OXE d   1       0.601  -1.245   0.147  0.00  0.00     0.003 A 
ENDROOT
TORSDOF 0
ENDMDL
