MODEL 1
REMARK minimizedAffinity -4.81485462
REMARK minimizedRMSD -1
REMARK  0 active torsions:
REMARK  status: ('A' for Active; 'I' for Inactive)
ROOT
ATOM      1  C2' OXE d   1      -0.804   2.648  -1.373  0.00  0.00     0.078 C 
ATOM      2  C1' OXE d   1      -2.006   2.022   1.085  0.00  0.00     0.078 C 
ATOM      3  C1  OXE d   1      -1.061   1.010   0.487  0.00  0.00    -0.078 A 
ATOM      4  C2  OXE d   1      -0.513   1.305  -0.739  0.00  0.00    -0.078 A 
ATOM      5  C3  OXE d   1       0.408   0.431  -1.310  0.00  0.00     0.003 A 
ATOM      6  C4  OXE d   1       0.663  -0.814  -0.722  0.00  0.00    -0.002 A 
ATOM      7  C5  OXE d   1       0.085  -1.150   0.507  0.00  0.00    -0.002 A 
ATOM      8  C6  OXE d   1      -0.744  -0.234   1.144  0.00  0.00     0.003 A 
ENDROOT
TORSDOF 0
ENDMDL
