MODEL 1
REMARK minimizedAffinity -1.36744368
REMARK minimizedRMSD -1
REMARK  0 active torsions:
REMARK  status: ('A' for Active; 'I' for Inactive)
ROOT
ATOM      1  C2' OXE d   1      -1.262   1.053   2.142  0.00  0.00     0.078 C 
ATOM      2  C1' OXE d   1      -0.119  -1.414   2.841  0.00  0.00     0.078 C 
ATOM      3  C1  OXE d   1       0.137  -0.889   1.450  0.00  0.00    -0.078 A 
ATOM      4  C2  OXE d   1      -0.465   0.297   1.102  0.00  0.00    -0.078 A 
ATOM      5  C3  OXE d   1      -0.218   0.853  -0.150  0.00  0.00     0.003 A 
ATOM      6  C4  OXE d   1       0.513   0.142  -1.110  0.00  0.00    -0.002 A 
ATOM      7  C5  OXE d   1       1.101  -1.086  -0.789  0.00  0.00    -0.002 A 
ATOM      8  C6  OXE d   1       0.959  -1.594   0.497  0.00  0.00     0.003 A 
ENDROOT
TORSDOF 0
ENDMDL
