MODEL 1
REMARK minimizedAffinity -4.0684185
REMARK minimizedRMSD -1
REMARK  0 active torsions:
REMARK  status: ('A' for Active; 'I' for Inactive)
ROOT
ATOM      1  C2' OXE d   1       1.190  -0.560  -0.897  0.00  0.00     0.078 C 
ATOM      2  C1' OXE d   1      -0.004   1.927  -1.415  0.00  0.00     0.078 C 
ATOM      3  C1  OXE d   1      -0.399   1.207  -0.150  0.00  0.00    -0.078 A 
ATOM      4  C2  OXE d   1       0.155  -0.031   0.072  0.00  0.00    -0.078 A 
ATOM      5  C3  OXE d   1      -0.133  -0.713   1.251  0.00  0.00     0.003 A 
ATOM      6  C4  OXE d   1      -1.098  -0.221   2.137  0.00  0.00    -0.002 A 
ATOM      7  C5  OXE d   1      -1.704   1.019   1.910  0.00  0.00    -0.002 A 
ATOM      8  C6  OXE d   1      -1.334   1.764   0.796  0.00  0.00     0.003 A 
ENDROOT
TORSDOF 0
ENDMDL
