MODEL 1
REMARK minimizedAffinity -4.51155663
REMARK minimizedRMSD -1
REMARK  0 active torsions:
REMARK  status: ('A' for Active; 'I' for Inactive)
ROOT
ATOM      1  C2' OXE d   1       0.386  -1.167   2.011  0.00  0.00     0.078 C 
ATOM      2  C1' OXE d   1       0.185  -1.101  -0.788  0.00  0.00     0.078 C 
ATOM      3  C1  OXE d   1      -0.488   0.000  -0.008  0.00  0.00    -0.078 A 
ATOM      4  C2  OXE d   1      -0.424  -0.065   1.363  0.00  0.00    -0.078 A 
ATOM      5  C3  OXE d   1      -0.981   0.954   2.129  0.00  0.00     0.003 A 
ATOM      6  C4  OXE d   1      -1.738   1.964   1.522  0.00  0.00    -0.002 A 
ATOM      7  C5  OXE d   1      -1.849   2.028   0.129  0.00  0.00    -0.002 A 
ATOM      8  C6  OXE d   1      -1.196   1.080  -0.651  0.00  0.00     0.003 A 
ENDROOT
TORSDOF 0
ENDMDL
