MODEL 1
REMARK minimizedAffinity -3.40410113
REMARK minimizedRMSD -1
REMARK  0 active torsions:
REMARK  status: ('A' for Active; 'I' for Inactive)
ROOT
ATOM      1  C2' OXE d   1      -1.534   1.932   0.763  0.00  0.00     0.078 C 
ATOM      2  C1' OXE d   1       0.087   2.644  -1.416  0.00  0.00     0.078 C 
ATOM      3  C1  OXE d   1       0.363   1.327  -0.734  0.00  0.00    -0.078 A 
ATOM      4  C2  OXE d   1      -0.404   1.009   0.360  0.00  0.00    -0.078 A 
ATOM      5  C3  OXE d   1      -0.228  -0.219   0.992  0.00  0.00     0.003 A 
ATOM      6  C4  OXE d   1       0.826  -1.063   0.620  0.00  0.00    -0.002 A 
ATOM      7  C5  OXE d   1       1.645  -0.739  -0.467  0.00  0.00    -0.002 A 
ATOM      8  C6  OXE d   1       1.401   0.430  -1.179  0.00  0.00     0.003 A 
ENDROOT
TORSDOF 0
ENDMDL
