MODEL 1
REMARK minimizedAffinity -4.37297487
REMARK minimizedRMSD -1
REMARK  0 active torsions:
REMARK  status: ('A' for Active; 'I' for Inactive)
ROOT
ATOM      1  C2' OXE d   1       1.310  -0.891   0.840  0.00  0.00     0.078 C 
ATOM      2  C1' OXE d   1      -1.336  -0.227   0.177  0.00  0.00     0.078 C 
ATOM      3  C1  OXE d   1      -0.614  -1.210  -0.710  0.00  0.00    -0.078 A 
ATOM      4  C2  OXE d   1       0.696  -1.494  -0.405  0.00  0.00    -0.078 A 
ATOM      5  C3  OXE d   1       1.390  -2.435  -1.159  0.00  0.00     0.003 A 
ATOM      6  C4  OXE d   1       0.818  -2.981  -2.315  0.00  0.00    -0.002 A 
ATOM      7  C5  OXE d   1      -0.501  -2.675  -2.666  0.00  0.00    -0.002 A 
ATOM      8  C6  OXE d   1      -1.243  -1.826  -1.852  0.00  0.00     0.003 A 
ENDROOT
TORSDOF 0
ENDMDL
