MODEL 1
REMARK minimizedAffinity -4.34520912
REMARK minimizedRMSD -1
REMARK  0 active torsions:
REMARK  status: ('A' for Active; 'I' for Inactive)
ROOT
ATOM      1  C2' OXE d   1      -1.304   1.068   1.545  0.00  0.00     0.078 C 
ATOM      2  C1' OXE d   1       0.523  -0.944   2.249  0.00  0.00     0.078 C 
ATOM      3  C1  OXE d   1       0.361  -0.621   0.785  0.00  0.00    -0.078 A 
ATOM      4  C2  OXE d   1      -0.569   0.332   0.446  0.00  0.00    -0.078 A 
ATOM      5  C3  OXE d   1      -0.718   0.706  -0.886  0.00  0.00     0.003 A 
ATOM      6  C4  OXE d   1      -0.041   0.014  -1.898  0.00  0.00    -0.002 A 
ATOM      7  C5  OXE d   1       0.881  -0.988  -1.577  0.00  0.00    -0.002 A 
ATOM      8  C6  OXE d   1       1.125  -1.287  -0.241  0.00  0.00     0.003 A 
ENDROOT
TORSDOF 0
ENDMDL
