MODEL 1
REMARK minimizedAffinity -2.27664781
REMARK minimizedRMSD -1
REMARK  0 active torsions:
REMARK  status: ('A' for Active; 'I' for Inactive)
ROOT
ATOM      1  C2' OXE d   1      -2.056   1.824   1.712  0.00  0.00     0.078 C 
ATOM      2  C1' OXE d   1      -1.022  -0.600   2.679  0.00  0.00     0.078 C 
ATOM      3  C1  OXE d   1      -0.581  -0.143   1.311  0.00  0.00    -0.078 A 
ATOM      4  C2  OXE d   1      -1.128   1.021   0.826  0.00  0.00    -0.078 A 
ATOM      5  C3  OXE d   1      -0.714   1.516  -0.407  0.00  0.00     0.003 A 
ATOM      6  C4  OXE d   1       0.137   0.762  -1.224  0.00  0.00    -0.002 A 
ATOM      7  C5  OXE d   1       0.675  -0.446  -0.766  0.00  0.00    -0.002 A 
ATOM      8  C6  OXE d   1       0.360  -0.890   0.513  0.00  0.00     0.003 A 
ENDROOT
TORSDOF 0
ENDMDL
