MODEL 1
REMARK minimizedAffinity -4.59433889
REMARK minimizedRMSD -1
REMARK  0 active torsions:
REMARK  status: ('A' for Active; 'I' for Inactive)
ROOT
ATOM      1  C2' OXE d   1       1.256  -0.342  -0.710  0.00  0.00     0.078 C 
ATOM      2  C1' OXE d   1       0.367   2.209  -1.472  0.00  0.00     0.078 C 
ATOM      3  C1  OXE d   1      -0.269   1.576  -0.259  0.00  0.00    -0.078 A 
ATOM      4  C2  OXE d   1       0.139   0.308   0.079  0.00  0.00    -0.078 A 
ATOM      5  C3  OXE d   1      -0.375  -0.300   1.220  0.00  0.00     0.003 A 
ATOM      6  C4  OXE d   1      -1.414   0.304   1.938  0.00  0.00    -0.002 A 
ATOM      7  C5  OXE d   1      -1.872   1.578   1.587  0.00  0.00    -0.002 A 
ATOM      8  C6  OXE d   1      -1.282   2.244   0.519  0.00  0.00     0.003 A 
ENDROOT
TORSDOF 0
ENDMDL
