MODEL 1
REMARK minimizedAffinity -4.19786644
REMARK minimizedRMSD -1
REMARK  0 active torsions:
REMARK  status: ('A' for Active; 'I' for Inactive)
ROOT
ATOM      1  C2' OXE d   1       0.586  -0.565   2.433  0.00  0.00     0.078 C 
ATOM      2  C1' OXE d   1       0.645  -0.652  -0.373  0.00  0.00     0.078 C 
ATOM      3  C1  OXE d   1      -0.328   0.297   0.281  0.00  0.00    -0.078 A 
ATOM      4  C2  OXE d   1      -0.383   0.299   1.654  0.00  0.00    -0.078 A 
ATOM      5  C3  OXE d   1      -1.224   1.195   2.309  0.00  0.00     0.003 A 
ATOM      6  C4  OXE d   1      -2.123   1.983   1.582  0.00  0.00    -0.002 A 
ATOM      7  C5  OXE d   1      -2.112   1.968   0.183  0.00  0.00    -0.002 A 
ATOM      8  C6  OXE d   1      -1.192   1.163  -0.481  0.00  0.00     0.003 A 
ENDROOT
TORSDOF 0
ENDMDL
