MODEL 1
REMARK minimizedAffinity -5.14762115
REMARK minimizedRMSD -1
REMARK  0 active torsions:
REMARK  status: ('A' for Active; 'I' for Inactive)
ROOT
ATOM      1  C2' OXE d   1       0.431  -1.092  -0.341  0.00  0.00     0.078 C 
ATOM      2  C1' OXE d   1      -1.315  -0.891   1.848  0.00  0.00     0.078 C 
ATOM      3  C1  OXE d   1      -0.975   0.374   1.100  0.00  0.00    -0.078 A 
ATOM      4  C2  OXE d   1      -0.084   0.273   0.060  0.00  0.00    -0.078 A 
ATOM      5  C3  OXE d   1       0.222   1.401  -0.698  0.00  0.00     0.003 A 
ATOM      6  C4  OXE d   1      -0.250   2.662  -0.314  0.00  0.00    -0.002 A 
ATOM      7  C5  OXE d   1      -1.128   2.792   0.767  0.00  0.00    -0.002 A 
ATOM      8  C6  OXE d   1      -1.534   1.655   1.457  0.00  0.00     0.003 A 
ENDROOT
TORSDOF 0
ENDMDL
