MODEL 1
REMARK minimizedAffinity -4.52966356
REMARK minimizedRMSD -1
REMARK  0 active torsions:
REMARK  status: ('A' for Active; 'I' for Inactive)
ROOT
ATOM      1  C2' OXE d   1      -0.852  -0.909   2.254  0.00  0.00     0.078 C 
ATOM      2  C1' OXE d   1      -2.096   1.537   1.664  0.00  0.00     0.078 C 
ATOM      3  C1  OXE d   1      -1.003   1.062   0.739  0.00  0.00    -0.078 A 
ATOM      4  C2  OXE d   1      -0.368  -0.113   1.061  0.00  0.00    -0.078 A 
ATOM      5  C3  OXE d   1       0.609  -0.624   0.212  0.00  0.00     0.003 A 
ATOM      6  C4  OXE d   1       1.058   0.124  -0.883  0.00  0.00    -0.002 A 
ATOM      7  C5  OXE d   1       0.452   1.342  -1.207  0.00  0.00    -0.002 A 
ATOM      8  C6  OXE d   1      -0.606   1.804  -0.432  0.00  0.00     0.003 A 
ENDROOT
TORSDOF 0
ENDMDL
