MODEL 1
REMARK minimizedAffinity -4.18667841
REMARK minimizedRMSD -1
REMARK  0 active torsions:
REMARK  status: ('A' for Active; 'I' for Inactive)
ROOT
ATOM      1  C2' OXE d   1       1.346   0.020  -0.870  0.00  0.00     0.078 C 
ATOM      2  C1' OXE d   1      -0.162   2.311  -1.467  0.00  0.00     0.078 C 
ATOM      3  C1  OXE d   1      -0.494   1.560  -0.202  0.00  0.00    -0.078 A 
ATOM      4  C2  OXE d   1       0.218   0.414   0.059  0.00  0.00    -0.078 A 
ATOM      5  C3  OXE d   1      -0.011  -0.286   1.240  0.00  0.00     0.003 A 
ATOM      6  C4  OXE d   1      -1.063   0.079   2.088  0.00  0.00    -0.002 A 
ATOM      7  C5  OXE d   1      -1.827   1.220   1.820  0.00  0.00    -0.002 A 
ATOM      8  C6  OXE d   1      -1.528   1.994   0.704  0.00  0.00     0.003 A 
ENDROOT
TORSDOF 0
ENDMDL
