MODEL 1
REMARK minimizedAffinity -5.06854725
REMARK minimizedRMSD -1
REMARK  0 active torsions:
REMARK  status: ('A' for Active; 'I' for Inactive)
ROOT
ATOM      1  C2' OXE d   1      -2.284   2.232   1.176  0.00  0.00     0.078 C 
ATOM      2  C1' OXE d   1      -0.685   2.492  -1.116  0.00  0.00     0.078 C 
ATOM      3  C1  OXE d   1      -0.440   1.305  -0.219  0.00  0.00    -0.078 A 
ATOM      4  C2  OXE d   1      -1.196   1.210   0.925  0.00  0.00    -0.078 A 
ATOM      5  C3  OXE d   1      -1.048   0.106   1.759  0.00  0.00     0.003 A 
ATOM      6  C4  OXE d   1      -0.033  -0.829   1.525  0.00  0.00    -0.002 A 
ATOM      7  C5  OXE d   1       0.775  -0.730   0.387  0.00  0.00    -0.002 A 
ATOM      8  C6  OXE d   1       0.556   0.305  -0.516  0.00  0.00     0.003 A 
ENDROOT
TORSDOF 0
ENDMDL
