MODEL 1
REMARK minimizedAffinity -5.06184435
REMARK minimizedRMSD -1
REMARK  0 active torsions:
REMARK  status: ('A' for Active; 'I' for Inactive)
ROOT
ATOM      1  C2' OXE d   1       0.141  -0.971   2.380  0.00  0.00     0.078 C 
ATOM      2  C1' OXE d   1       0.875  -0.757  -0.321  0.00  0.00     0.078 C 
ATOM      3  C1  OXE d   1      -0.165   0.201   0.204  0.00  0.00    -0.078 A 
ATOM      4  C2  OXE d   1      -0.552   0.059   1.515  0.00  0.00    -0.078 A 
ATOM      5  C3  OXE d   1      -1.468   0.951   2.064  0.00  0.00     0.003 A 
ATOM      6  C4  OXE d   1      -2.112   1.895   1.254  0.00  0.00    -0.002 A 
ATOM      7  C5  OXE d   1      -1.761   2.030  -0.093  0.00  0.00    -0.002 A 
ATOM      8  C6  OXE d   1      -0.762   1.222  -0.622  0.00  0.00     0.003 A 
ENDROOT
TORSDOF 0
ENDMDL
