MODEL 1
REMARK minimizedAffinity -2.95422673
REMARK minimizedRMSD -1
REMARK  0 active torsions:
REMARK  status: ('A' for Active; 'I' for Inactive)
ROOT
ATOM      1  C2' OXE d   1      -1.806   2.236   0.738  0.00  0.00     0.078 C 
ATOM      2  C1' OXE d   1      -0.376   3.148  -1.499  0.00  0.00     0.078 C 
ATOM      3  C1  OXE d   1      -0.079   1.758  -0.993  0.00  0.00    -0.078 A 
ATOM      4  C2  OXE d   1      -0.750   1.338   0.130  0.00  0.00    -0.078 A 
ATOM      5  C3  OXE d   1      -0.555   0.044   0.606  0.00  0.00     0.003 A 
ATOM      6  C4  OXE d   1       0.431  -0.776   0.045  0.00  0.00    -0.002 A 
ATOM      7  C5  OXE d   1       1.154  -0.352  -1.075  0.00  0.00    -0.002 A 
ATOM      8  C6  OXE d   1       0.881   0.893  -1.631  0.00  0.00     0.003 A 
ENDROOT
TORSDOF 0
ENDMDL
