MODEL 1
REMARK minimizedAffinity -2.06917596
REMARK minimizedRMSD -1
REMARK  1 active torsions:
REMARK  status: ('A' for Active; 'I' for Inactive)
REMARK    1  A    between atoms: C1_2  and  C2_3 
ROOT
ATOM      1  C2  UNL d   1       0.878  -2.250   2.271  0.00  0.00    -0.076 A 
ATOM      2  C3  UNL d   1      -0.169  -2.277   3.209  0.00  0.00     0.004 A 
ATOM      3  C4  UNL d   1      -0.577  -3.474   3.794  0.00  0.00    -0.003 A 
ATOM      4  C5  UNL d   1       0.056  -4.664   3.452  0.00  0.00     0.000 A 
ATOM      5  C6  UNL d   1       1.108  -4.654   2.537  0.00  0.00     0.000 A 
ATOM      6  C7  UNL d   1       1.543  -3.453   1.950  0.00  0.00    -0.073 A 
ATOM      7  C8  UNL d   1       2.678  -3.501   0.965  0.00  0.00     0.078 C 
ENDROOT
BRANCH   1   8
ATOM      8  C1  UNL d   1       1.259  -0.926   1.649  0.00  0.00     0.053 C 
ATOM      9  C   UNL d   1       0.198  -0.405   0.691  0.00  0.00     0.018 C 
ENDBRANCH   1   8
TORSDOF 1
ENDMDL
