MODEL 1
REMARK minimizedAffinity -0.407637894
REMARK minimizedRMSD -1
REMARK  1 active torsions:
REMARK  status: ('A' for Active; 'I' for Inactive)
REMARK    1  A    between atoms: C1_2  and  C2_3 
ROOT
ATOM      1  C2  UNL d   1      -0.355  -0.490   0.559  0.00  0.00    -0.076 A 
ATOM      2  C3  UNL d   1      -0.783  -0.339   1.890  0.00  0.00     0.004 A 
ATOM      3  C4  UNL d   1      -0.042  -0.868   2.946  0.00  0.00    -0.003 A 
ATOM      4  C5  UNL d   1       1.138  -1.555   2.689  0.00  0.00     0.000 A 
ATOM      5  C6  UNL d   1       1.587  -1.700   1.376  0.00  0.00     0.000 A 
ATOM      6  C7  UNL d   1       0.861  -1.159   0.301  0.00  0.00    -0.073 A 
ATOM      7  C8  UNL d   1       1.389  -1.349  -1.094  0.00  0.00     0.078 C 
ENDROOT
BRANCH   1   8
ATOM      8  C1  UNL d   1      -1.213   0.081  -0.547  0.00  0.00     0.053 C 
ATOM      9  C   UNL d   1      -2.423  -0.788  -0.853  0.00  0.00     0.018 C 
ENDBRANCH   1   8
TORSDOF 1
ENDMDL
