MODEL 1
REMARK minimizedAffinity -0.931961417
REMARK minimizedRMSD -1
REMARK  1 active torsions:
REMARK  status: ('A' for Active; 'I' for Inactive)
REMARK    1  A    between atoms: C1_2  and  C2_3 
ROOT
ATOM      1  C2  UNL d   1      -0.921  -0.698   0.913  0.00  0.00    -0.076 A 
ATOM      2  C3  UNL d   1      -0.497   0.061  -0.192  0.00  0.00     0.004 A 
ATOM      3  C4  UNL d   1       0.853   0.337  -0.398  0.00  0.00    -0.003 A 
ATOM      4  C5  UNL d   1       1.803  -0.142   0.498  0.00  0.00     0.000 A 
ATOM      5  C6  UNL d   1       1.403  -0.911   1.590  0.00  0.00     0.000 A 
ATOM      6  C7  UNL d   1       0.046  -1.212   1.803  0.00  0.00    -0.073 A 
ATOM      7  C8  UNL d   1      -0.330  -2.041   3.001  0.00  0.00     0.078 C 
ENDROOT
BRANCH   1   8
ATOM      8  C1  UNL d   1      -2.401  -0.942   1.100  0.00  0.00     0.053 C 
ATOM      9  C   UNL d   1      -3.076  -1.431  -0.173  0.00  0.00     0.018 C 
ENDBRANCH   1   8
TORSDOF 1
ENDMDL
