MODEL 1
REMARK minimizedAffinity -2.89072895
REMARK minimizedRMSD -1
REMARK  1 active torsions:
REMARK  status: ('A' for Active; 'I' for Inactive)
REMARK    1  A    between atoms: C1_2  and  C2_3 
ROOT
ATOM      1  C2  UNL d   1      -0.290  -0.611   0.656  0.00  0.00    -0.076 A 
ATOM      2  C3  UNL d   1      -0.753  -0.277   1.940  0.00  0.00     0.004 A 
ATOM      3  C4  UNL d   1       0.119  -0.228   3.027  0.00  0.00    -0.003 A 
ATOM      4  C5  UNL d   1       1.469  -0.511   2.846  0.00  0.00     0.000 A 
ATOM      5  C6  UNL d   1       1.948  -0.827   1.575  0.00  0.00     0.000 A 
ATOM      6  C7  UNL d   1       1.086  -0.865   0.466  0.00  0.00    -0.073 A 
ATOM      7  C8  UNL d   1       1.656  -1.218  -0.880  0.00  0.00     0.078 C 
ENDROOT
BRANCH   1   8
ATOM      8  C1  UNL d   1      -1.287  -0.675  -0.479  0.00  0.00     0.053 C 
ATOM      9  C   UNL d   1      -2.598  -1.327  -0.067  0.00  0.00     0.018 C 
ENDBRANCH   1   8
TORSDOF 1
ENDMDL
