MODEL 1
REMARK minimizedAffinity 10.7559433
REMARK minimizedRMSD -1
REMARK  0 active torsions:
REMARK  status: ('A' for Active; 'I' for Inactive)
ROOT
ATOM      1  N1  IND d   1      -1.071   3.262   2.289  0.00  0.00    -0.196 N 
ATOM      2  C2  IND d   1       0.213   2.990   2.672  0.00  0.00     0.054 A 
ATOM      3  C3  IND d   1       0.452   1.661   2.607  0.00  0.00    -0.031 A 
ATOM      4  C4  IND d   1      -1.086  -0.240   1.801  0.00  0.00     0.051 A 
ATOM      5  C5  IND d   1      -2.364  -0.489   1.387  0.00  0.00    -0.031 A 
ATOM      6  C6  IND d   1      -3.295   0.521   1.246  0.00  0.00     0.015 A 
ATOM      7  C7  IND d   1      -2.977   1.824   1.505  0.00  0.00    -0.016 A 
ATOM      8  C8  IND d   1      -1.682   2.079   1.933  0.00  0.00    -0.047 A 
ATOM      9  C9  IND d   1      -0.745   1.054   2.118  0.00  0.00    -0.096 A 
ATOM     10  HN1 IND d   1      -1.435   4.040   2.272  0.00  0.00     0.298 HD
ENDROOT
TORSDOF 0
ENDMDL
