MODEL 1
REMARK minimizedAffinity 15.6443863
REMARK minimizedRMSD -1
REMARK  0 active torsions:
REMARK  status: ('A' for Active; 'I' for Inactive)
ROOT
ATOM      1  N1  IND d   1      -5.645  -2.348   0.902  0.00  0.00    -0.196 N 
ATOM      2  C2  IND d   1      -5.093  -1.548  -0.060  0.00  0.00     0.054 A 
ATOM      3  C3  IND d   1      -4.628  -2.297  -1.085  0.00  0.00    -0.031 A 
ATOM      4  C4  IND d   1      -4.757  -4.844  -1.440  0.00  0.00     0.051 A 
ATOM      5  C5  IND d   1      -5.137  -6.000  -0.818  0.00  0.00    -0.031 A 
ATOM      6  C6  IND d   1      -5.721  -5.998   0.432  0.00  0.00     0.015 A 
ATOM      7  C7  IND d   1      -5.957  -4.833   1.106  0.00  0.00    -0.016 A 
ATOM      8  C8  IND d   1      -5.565  -3.657   0.481  0.00  0.00    -0.047 A 
ATOM      9  C9  IND d   1      -4.934  -3.656  -0.769  0.00  0.00    -0.096 A 
ATOM     10  HN1 IND d   1      -5.984  -2.079   1.644  0.00  0.00     0.298 HD
ENDROOT
TORSDOF 0
ENDMDL
