MODEL 1
REMARK minimizedAffinity 6.44591713
REMARK minimizedRMSD -1
REMARK  0 active torsions:
REMARK  status: ('A' for Active; 'I' for Inactive)
ROOT
ATOM      1  N1  IND d   1      -6.000  -2.878   0.418  0.00  0.00    -0.196 N 
ATOM      2  C2  IND d   1      -5.034  -2.217   1.124  0.00  0.00     0.054 A 
ATOM      3  C3  IND d   1      -3.858  -2.881   1.048  0.00  0.00    -0.031 A 
ATOM      4  C4  IND d   1      -3.268  -5.016  -0.265  0.00  0.00     0.051 A 
ATOM      5  C5  IND d   1      -3.829  -5.999  -1.030  0.00  0.00    -0.031 A 
ATOM      6  C6  IND d   1      -5.169  -5.991  -1.361  0.00  0.00     0.015 A 
ATOM      7  C7  IND d   1      -5.999  -4.988  -0.946  0.00  0.00    -0.016 A 
ATOM      8  C8  IND d   1      -5.434  -3.992  -0.163  0.00  0.00    -0.047 A 
ATOM      9  C9  IND d   1      -4.085  -4.017   0.212  0.00  0.00    -0.096 A 
ATOM     10  HN1 IND d   1      -6.823  -2.638   0.349  0.00  0.00     0.298 HD
ENDROOT
TORSDOF 0
ENDMDL
