MODEL 1
REMARK minimizedAffinity -1.46940386
REMARK minimizedRMSD -1
REMARK  0 active torsions:
REMARK  status: ('A' for Active; 'I' for Inactive)
ROOT
ATOM      1  N1  IND d   1      -2.265  -1.954  -1.485  0.00  0.00    -0.196 N 
ATOM      2  C2  IND d   1      -1.176  -1.841  -2.303  0.00  0.00     0.054 A 
ATOM      3  C3  IND d   1      -0.747  -3.064  -2.688  0.00  0.00    -0.031 A 
ATOM      4  C4  IND d   1      -1.743  -5.382  -2.178  0.00  0.00     0.051 A 
ATOM      5  C5  IND d   1      -2.717  -5.998  -1.443  0.00  0.00    -0.031 A 
ATOM      6  C6  IND d   1      -3.610  -5.282  -0.671  0.00  0.00     0.015 A 
ATOM      7  C7  IND d   1      -3.569  -3.918  -0.614  0.00  0.00    -0.016 A 
ATOM      8  C8  IND d   1      -2.577  -3.290  -1.353  0.00  0.00    -0.047 A 
ATOM      9  C9  IND d   1      -1.641  -4.013  -2.105  0.00  0.00    -0.096 A 
ATOM     10  HN1 IND d   1      -2.684  -1.302  -1.114  0.00  0.00     0.298 HD
ENDROOT
TORSDOF 0
ENDMDL
