MODEL 1
REMARK minimizedAffinity 0.442880541
REMARK minimizedRMSD -1
REMARK  0 active torsions:
REMARK  status: ('A' for Active; 'I' for Inactive)
ROOT
ATOM      1  N1  IND d   1       1.561  -2.235  -3.636  0.00  0.00    -0.196 N 
ATOM      2  C2  IND d   1       2.698  -1.477  -3.615  0.00  0.00     0.054 A 
ATOM      3  C3  IND d   1       2.560  -0.444  -2.754  0.00  0.00    -0.031 A 
ATOM      4  C4  IND d   1       0.593   0.136  -1.198  0.00  0.00     0.051 A 
ATOM      5  C5  IND d   1      -0.684  -0.242  -0.889  0.00  0.00    -0.031 A 
ATOM      6  C6  IND d   1      -1.288  -1.328  -1.489  0.00  0.00     0.015 A 
ATOM      7  C7  IND d   1      -0.632  -2.086  -2.417  0.00  0.00    -0.016 A 
ATOM      8  C8  IND d   1       0.662  -1.700  -2.739  0.00  0.00    -0.047 A 
ATOM      9  C9  IND d   1       1.265  -0.574  -2.165  0.00  0.00    -0.096 A 
ATOM     10  HN1 IND d   1       1.429  -2.929  -4.126  0.00  0.00     0.298 HD
ENDROOT
TORSDOF 0
ENDMDL
