MODEL 1
REMARK minimizedAffinity -6.1116066
REMARK minimizedRMSD -1
REMARK  0 active torsions:
REMARK  status: ('A' for Active; 'I' for Inactive)
ROOT
ATOM      1  N1  IND d   1       0.245   0.189  -1.365  0.00  0.00    -0.196 N 
ATOM      2  C2  IND d   1      -0.953  -0.342  -1.755  0.00  0.00     0.054 A 
ATOM      3  C3  IND d   1      -1.616  -0.840  -0.688  0.00  0.00    -0.031 A 
ATOM      4  C4  IND d   1      -0.970  -0.800   1.804  0.00  0.00     0.051 A 
ATOM      5  C5  IND d   1       0.049  -0.455   2.647  0.00  0.00    -0.031 A 
ATOM      6  C6  IND d   1       1.208   0.137   2.187  0.00  0.00     0.015 A 
ATOM      7  C7  IND d   1       1.386   0.417   0.862  0.00  0.00    -0.016 A 
ATOM      8  C8  IND d   1       0.357   0.062   0.002  0.00  0.00    -0.047 A 
ATOM      9  C9  IND d   1      -0.803  -0.578   0.457  0.00  0.00    -0.096 A 
ATOM     10  HN1 IND d   1       0.830   0.543  -1.887  0.00  0.00     0.298 HD
ENDROOT
TORSDOF 0
ENDMDL
