MODEL 1
REMARK minimizedAffinity -4.69153595
REMARK minimizedRMSD -1
REMARK  0 active torsions:
REMARK  status: ('A' for Active; 'I' for Inactive)
ROOT
ATOM      1  N1  IND d   1      -1.483   0.293  -1.841  0.00  0.00    -0.196 N 
ATOM      2  C2  IND d   1      -2.595   0.023  -1.093  0.00  0.00     0.054 A 
ATOM      3  C3  IND d   1      -2.945  -1.277  -1.222  0.00  0.00    -0.031 A 
ATOM      4  C4  IND d   1      -1.776  -3.163  -2.526  0.00  0.00     0.051 A 
ATOM      5  C5  IND d   1      -0.745  -3.395  -3.392  0.00  0.00    -0.031 A 
ATOM      6  C6  IND d   1       0.112  -2.390  -3.792  0.00  0.00     0.015 A 
ATOM      7  C7  IND d   1      -0.024  -1.112  -3.329  0.00  0.00    -0.016 A 
ATOM      8  C8  IND d   1      -1.075  -0.871  -2.454  0.00  0.00    -0.047 A 
ATOM      9  C9  IND d   1      -1.973  -1.878  -2.079  0.00  0.00    -0.096 A 
ATOM     10  HN1 IND d   1      -1.103   1.060  -1.916  0.00  0.00     0.298 HD
ENDROOT
TORSDOF 0
ENDMDL
