MODEL 1
REMARK minimizedAffinity -0.0757294744
REMARK minimizedRMSD -1
REMARK  0 active torsions:
REMARK  status: ('A' for Active; 'I' for Inactive)
ROOT
ATOM      1  N1  IND d   1      -1.229   0.876  -0.744  0.00  0.00    -0.196 N 
ATOM      2  C2  IND d   1      -2.457   0.291  -0.884  0.00  0.00     0.054 A 
ATOM      3  C3  IND d   1      -2.429  -0.633  -1.870  0.00  0.00    -0.031 A 
ATOM      4  C4  IND d   1      -0.450  -1.422  -3.315  0.00  0.00     0.051 A 
ATOM      5  C5  IND d   1       0.864  -1.157  -3.579  0.00  0.00    -0.031 A 
ATOM      6  C6  IND d   1       1.563  -0.182  -2.896  0.00  0.00     0.015 A 
ATOM      7  C7  IND d   1       0.974   0.559  -1.911  0.00  0.00    -0.016 A 
ATOM      8  C8  IND d   1      -0.363   0.297  -1.645  0.00  0.00    -0.047 A 
ATOM      9  C9  IND d   1      -1.089  -0.662  -2.365  0.00  0.00    -0.096 A 
ATOM     10  HN1 IND d   1      -1.031   1.501  -0.188  0.00  0.00     0.298 HD
ENDROOT
TORSDOF 0
ENDMDL
