MODEL 1
REMARK minimizedAffinity -4.70468521
REMARK minimizedRMSD -1
REMARK  0 active torsions:
REMARK  status: ('A' for Active; 'I' for Inactive)
ROOT
ATOM      1  N1  IND d   1      -2.674  -0.240  -2.131  0.00  0.00    -0.196 N 
ATOM      2  C2  IND d   1      -2.264   0.540  -1.086  0.00  0.00     0.054 A 
ATOM      3  C3  IND d   1      -0.915   0.542  -1.002  0.00  0.00    -0.031 A 
ATOM      4  C4  IND d   1       0.821  -0.581  -2.536  0.00  0.00     0.051 A 
ATOM      5  C5  IND d   1       0.928  -1.429  -3.602  0.00  0.00    -0.031 A 
ATOM      6  C6  IND d   1      -0.183  -1.933  -4.247  0.00  0.00     0.015 A 
ATOM      7  C7  IND d   1      -1.448  -1.596  -3.856  0.00  0.00    -0.016 A 
ATOM      8  C8  IND d   1      -1.560  -0.740  -2.769  0.00  0.00    -0.047 A 
ATOM      9  C9  IND d   1      -0.437  -0.260  -2.083  0.00  0.00    -0.096 A 
ATOM     10  HN1 IND d   1      -3.491  -0.393  -2.353  0.00  0.00     0.298 HD
ENDROOT
TORSDOF 0
ENDMDL
