MODEL 1
REMARK minimizedAffinity -3.93599606
REMARK minimizedRMSD -1
REMARK  0 active torsions:
REMARK  status: ('A' for Active; 'I' for Inactive)
ROOT
ATOM      1  N1  IND d   1      -4.780  -0.235  -2.652  0.00  0.00    -0.196 N 
ATOM      2  C2  IND d   1      -5.211  -1.145  -3.577  0.00  0.00     0.054 A 
ATOM      3  C3  IND d   1      -4.244  -2.058  -3.823  0.00  0.00    -0.031 A 
ATOM      4  C4  IND d   1      -1.919  -2.309  -2.747  0.00  0.00     0.051 A 
ATOM      5  C5  IND d   1      -1.062  -1.694  -1.878  0.00  0.00    -0.031 A 
ATOM      6  C6  IND d   1      -1.409  -0.539  -1.206  0.00  0.00     0.015 A 
ATOM      7  C7  IND d   1      -2.636   0.039  -1.372  0.00  0.00    -0.016 A 
ATOM      8  C8  IND d   1      -3.505  -0.578  -2.259  0.00  0.00    -0.047 A 
ATOM      9  C9  IND d   1      -3.143  -1.726  -2.976  0.00  0.00    -0.096 A 
ATOM     10  HN1 IND d   1      -5.230   0.439  -2.365  0.00  0.00     0.298 HD
ENDROOT
TORSDOF 0
ENDMDL
