MODEL 1
REMARK minimizedAffinity -4.7909832
REMARK minimizedRMSD -1
REMARK  0 active torsions:
REMARK  status: ('A' for Active; 'I' for Inactive)
ROOT
ATOM      1  N1  IND d   1      -1.303   0.162  -1.196  0.00  0.00    -0.196 N 
ATOM      2  C2  IND d   1      -2.576  -0.174  -0.828  0.00  0.00     0.054 A 
ATOM      3  C3  IND d   1      -2.625  -0.457   0.493  0.00  0.00    -0.031 A 
ATOM      4  C4  IND d   1      -0.759  -0.333   2.262  0.00  0.00     0.051 A 
ATOM      5  C5  IND d   1       0.583  -0.110   2.400  0.00  0.00    -0.031 A 
ATOM      6  C6  IND d   1       1.380   0.224   1.324  0.00  0.00     0.015 A 
ATOM      7  C7  IND d   1       0.861   0.360   0.068  0.00  0.00    -0.016 A 
ATOM      8  C8  IND d   1      -0.500   0.127  -0.077  0.00  0.00    -0.047 A 
ATOM      9  C9  IND d   1      -1.306  -0.254   1.004  0.00  0.00    -0.096 A 
ATOM     10  HN1 IND d   1      -1.046   0.361  -1.992  0.00  0.00     0.298 HD
ENDROOT
TORSDOF 0
ENDMDL
