MODEL 1
REMARK minimizedAffinity -4.9079299
REMARK minimizedRMSD -1
REMARK  0 active torsions:
REMARK  status: ('A' for Active; 'I' for Inactive)
ROOT
ATOM      1  N1  IND d   1       0.647   0.377  -1.346  0.00  0.00    -0.196 N 
ATOM      2  C2  IND d   1      -0.532  -0.082  -1.863  0.00  0.00     0.054 A 
ATOM      3  C3  IND d   1      -1.374  -0.439  -0.867  0.00  0.00    -0.031 A 
ATOM      4  C4  IND d   1      -1.063  -0.259   1.682  0.00  0.00     0.051 A 
ATOM      5  C5  IND d   1      -0.137   0.066   2.634  0.00  0.00    -0.031 A 
ATOM      6  C6  IND d   1       1.122   0.523   2.301  0.00  0.00     0.015 A 
ATOM      7  C7  IND d   1       1.500   0.683   0.998  0.00  0.00    -0.016 A 
ATOM      8  C8  IND d   1       0.565   0.348   0.029  0.00  0.00    -0.047 A 
ATOM      9  C9  IND d   1      -0.699  -0.156   0.360  0.00  0.00    -0.096 A 
ATOM     10  HN1 IND d   1       1.327   0.640  -1.803  0.00  0.00     0.298 HD
ENDROOT
TORSDOF 0
ENDMDL
