MODEL 1
REMARK minimizedAffinity -3.34638739
REMARK minimizedRMSD -1
REMARK  0 active torsions:
REMARK  status: ('A' for Active; 'I' for Inactive)
ROOT
ATOM      1  N1  IND d   1       1.196   0.727  -0.840  0.00  0.00    -0.196 N 
ATOM      2  C2  IND d   1       2.091   0.962   0.167  0.00  0.00     0.054 A 
ATOM      3  C3  IND d   1       1.609   0.500   1.342  0.00  0.00    -0.031 A 
ATOM      4  C4  IND d   1      -0.579  -0.767   1.828  0.00  0.00     0.051 A 
ATOM      5  C5  IND d   1      -1.736  -1.185   1.234  0.00  0.00    -0.031 A 
ATOM      6  C6  IND d   1      -1.979  -0.986  -0.110  0.00  0.00     0.015 A 
ATOM      7  C7  IND d   1      -1.064  -0.368  -0.915  0.00  0.00    -0.016 A 
ATOM      8  C8  IND d   1       0.109   0.064  -0.313  0.00  0.00    -0.047 A 
ATOM      9  C9  IND d   1       0.343  -0.098   1.058  0.00  0.00    -0.096 A 
ATOM     10  HN1 IND d   1       1.296   0.954  -1.663  0.00  0.00     0.298 HD
ENDROOT
TORSDOF 0
ENDMDL
