MODEL 1
REMARK minimizedAffinity -4.38709784
REMARK minimizedRMSD -1
REMARK  0 active torsions:
REMARK  status: ('A' for Active; 'I' for Inactive)
ROOT
ATOM      1  N1  IND d   1      -0.010   0.386  -1.128  0.00  0.00    -0.196 N 
ATOM      2  C2  IND d   1      -1.209  -0.105  -1.563  0.00  0.00     0.054 A 
ATOM      3  C3  IND d   1      -2.019  -0.367  -0.513  0.00  0.00    -0.031 A 
ATOM      4  C4  IND d   1      -1.622   0.031   1.999  0.00  0.00     0.051 A 
ATOM      5  C5  IND d   1      -0.663   0.429   2.888  0.00  0.00    -0.031 A 
ATOM      6  C6  IND d   1       0.587   0.843   2.475  0.00  0.00     0.015 A 
ATOM      7  C7  IND d   1       0.922   0.887   1.152  0.00  0.00    -0.016 A 
ATOM      8  C8  IND d   1      -0.046   0.477   0.246  0.00  0.00    -0.047 A 
ATOM      9  C9  IND d   1      -1.302   0.015   0.662  0.00  0.00    -0.096 A 
ATOM     10  HN1 IND d   1       0.656   0.602  -1.628  0.00  0.00     0.298 HD
ENDROOT
TORSDOF 0
ENDMDL
