MODEL 1
REMARK minimizedAffinity -2.34647608
REMARK minimizedRMSD -1
REMARK  0 active torsions:
REMARK  status: ('A' for Active; 'I' for Inactive)
ROOT
ATOM      1  N1  IND d   1      -2.137   0.171  -0.801  0.00  0.00    -0.196 N 
ATOM      2  C2  IND d   1      -3.107  -0.664  -1.280  0.00  0.00     0.054 A 
ATOM      3  C3  IND d   1      -2.581  -1.535  -2.170  0.00  0.00    -0.031 A 
ATOM      4  C4  IND d   1      -0.135  -1.834  -2.915  0.00  0.00     0.051 A 
ATOM      5  C5  IND d   1       1.108  -1.281  -2.780  0.00  0.00    -0.031 A 
ATOM      6  C6  IND d   1       1.337  -0.195  -1.960  0.00  0.00     0.015 A 
ATOM      7  C7  IND d   1       0.331   0.373  -1.233  0.00  0.00    -0.016 A 
ATOM      8  C8  IND d   1      -0.934  -0.181  -1.372  0.00  0.00    -0.047 A 
ATOM      9  C9  IND d   1      -1.181  -1.257  -2.235  0.00  0.00    -0.096 A 
ATOM     10  HN1 IND d   1      -2.258   0.810  -0.238  0.00  0.00     0.298 HD
ENDROOT
TORSDOF 0
ENDMDL
