MODEL 1
REMARK minimizedAffinity 0.860817254
REMARK minimizedRMSD -1
REMARK  0 active torsions:
REMARK  status: ('A' for Active; 'I' for Inactive)
ROOT
ATOM      1  O1  BZF d   1       5.999   4.894   3.883  0.00  0.00    -0.204 OA
ATOM      2  C2  BZF d   1       5.120   5.436   4.802  0.00  0.00     0.174 A 
ATOM      3  C3  BZF d   1       4.064   5.999   4.179  0.00  0.00    -0.012 A 
ATOM      4  C3A BZF d   1       4.252   5.716   2.790  0.00  0.00    -0.107 A 
ATOM      5  C4  BZF d   1       3.527   6.000   1.667  0.00  0.00     0.055 A 
ATOM      6  C5  BZF d   1       4.023   5.644   0.453  0.00  0.00    -0.016 A 
ATOM      7  C6  BZF d   1       5.241   5.010   0.324  0.00  0.00     0.022 A 
ATOM      8  C7  BZF d   1       5.993   4.702   1.408  0.00  0.00     0.029 A 
ATOM      9  C7A BZF d   1       5.479   5.031   2.639  0.00  0.00     0.058 A 
ENDROOT
TORSDOF 0
ENDMDL
