MODEL 1
REMARK minimizedAffinity 8.34940529
REMARK minimizedRMSD -1
REMARK  0 active torsions:
REMARK  status: ('A' for Active; 'I' for Inactive)
ROOT
ATOM      1  O1  BZF d   1       2.716  -0.578  -1.225  0.00  0.00    -0.204 OA
ATOM      2  C2  BZF d   1       1.847  -1.625  -1.465  0.00  0.00     0.174 A 
ATOM      3  C3  BZF d   1       0.860  -1.245  -2.302  0.00  0.00    -0.012 A 
ATOM      4  C3A BZF d   1       1.181   0.098  -2.676  0.00  0.00    -0.107 A 
ATOM      5  C4  BZF d   1       0.586   1.010  -3.501  0.00  0.00     0.055 A 
ATOM      6  C5  BZF d   1       1.113   2.260  -3.592  0.00  0.00    -0.016 A 
ATOM      7  C6  BZF d   1       2.228   2.632  -2.871  0.00  0.00     0.022 A 
ATOM      8  C7  BZF d   1       2.855   1.760  -2.044  0.00  0.00     0.029 A 
ATOM      9  C7A BZF d   1       2.345   0.487  -1.975  0.00  0.00     0.058 A 
ENDROOT
TORSDOF 0
ENDMDL
