MODEL 1
REMARK minimizedAffinity 8.21883202
REMARK minimizedRMSD -1
REMARK  0 active torsions:
REMARK  status: ('A' for Active; 'I' for Inactive)
ROOT
ATOM      1  O1  BZF d   1       2.751  -2.229  -0.759  0.00  0.00    -0.204 OA
ATOM      2  C2  BZF d   1       1.727  -3.121  -1.016  0.00  0.00     0.174 A 
ATOM      3  C3  BZF d   1       0.748  -2.532  -1.732  0.00  0.00    -0.012 A 
ATOM      4  C3A BZF d   1       1.228  -1.215  -2.015  0.00  0.00    -0.107 A 
ATOM      5  C4  BZF d   1       0.713  -0.155  -2.705  0.00  0.00     0.055 A 
ATOM      6  C5  BZF d   1       1.403   1.015  -2.733  0.00  0.00    -0.016 A 
ATOM      7  C6  BZF d   1       2.608   1.162  -2.077  0.00  0.00     0.022 A 
ATOM      8  C7  BZF d   1       3.162   0.138  -1.383  0.00  0.00     0.029 A 
ATOM      9  C7A BZF d   1       2.483  -1.056  -1.381  0.00  0.00     0.058 A 
ENDROOT
TORSDOF 0
ENDMDL
