MODEL 1
REMARK minimizedAffinity 5.47461605
REMARK minimizedRMSD -1
REMARK  0 active torsions:
REMARK  status: ('A' for Active; 'I' for Inactive)
ROOT
ATOM      1  O1  BZF d   1       5.339   3.682   2.297  0.00  0.00    -0.204 OA
ATOM      2  C2  BZF d   1       5.392   4.831   1.531  0.00  0.00     0.174 A 
ATOM      3  C3  BZF d   1       5.555   5.919   2.312  0.00  0.00    -0.012 A 
ATOM      4  C3A BZF d   1       5.699   5.410   3.641  0.00  0.00    -0.107 A 
ATOM      5  C4  BZF d   1       5.904   6.000   4.856  0.00  0.00     0.055 A 
ATOM      6  C5  BZF d   1       5.925   5.225   5.972  0.00  0.00    -0.016 A 
ATOM      7  C6  BZF d   1       5.738   3.859   5.911  0.00  0.00     0.022 A 
ATOM      8  C7  BZF d   1       5.536   3.228   4.729  0.00  0.00     0.029 A 
ATOM      9  C7A BZF d   1       5.547   4.004   3.596  0.00  0.00     0.058 A 
ENDROOT
TORSDOF 0
ENDMDL
