MODEL 1
REMARK minimizedAffinity 8.66050911
REMARK minimizedRMSD -1
REMARK  0 active torsions:
REMARK  status: ('A' for Active; 'I' for Inactive)
ROOT
ATOM      1  O1  BZF d   1       4.460   5.977   1.673  0.00  0.00    -0.204 OA
ATOM      2  C2  BZF d   1       5.095   5.162   0.755  0.00  0.00     0.174 A 
ATOM      3  C3  BZF d   1       5.799   4.197   1.380  0.00  0.00    -0.012 A 
ATOM      4  C3A BZF d   1       5.517   4.366   2.773  0.00  0.00    -0.107 A 
ATOM      5  C4  BZF d   1       5.910   3.701   3.898  0.00  0.00     0.055 A 
ATOM      6  C5  BZF d   1       5.514   4.165   5.113  0.00  0.00    -0.016 A 
ATOM      7  C6  BZF d   1       4.730   5.293   5.238  0.00  0.00     0.022 A 
ATOM      8  C7  BZF d   1       4.311   5.984   4.150  0.00  0.00     0.029 A 
ATOM      9  C7A BZF d   1       4.682   5.498   2.920  0.00  0.00     0.058 A 
ENDROOT
TORSDOF 0
ENDMDL
