MODEL 1
REMARK minimizedAffinity -1.53855884
REMARK minimizedRMSD -1
REMARK  0 active torsions:
REMARK  status: ('A' for Active; 'I' for Inactive)
ROOT
ATOM      1  O1  BZF d   1       5.981   4.225   4.272  0.00  0.00    -0.204 OA
ATOM      2  C2  BZF d   1       5.319   5.095   5.116  0.00  0.00     0.174 A 
ATOM      3  C3  BZF d   1       4.557   5.957   4.413  0.00  0.00    -0.012 A 
ATOM      4  C3A BZF d   1       4.682   5.544   3.049  0.00  0.00    -0.107 A 
ATOM      5  C4  BZF d   1       4.148   6.000   1.877  0.00  0.00     0.055 A 
ATOM      6  C5  BZF d   1       4.529   5.421   0.709  0.00  0.00    -0.016 A 
ATOM      7  C6  BZF d   1       5.445   4.390   0.674  0.00  0.00     0.022 A 
ATOM      8  C7  BZF d   1       5.999   3.901   1.811  0.00  0.00     0.029 A 
ATOM      9  C7A BZF d   1       5.590   4.462   2.996  0.00  0.00     0.058 A 
ENDROOT
TORSDOF 0
ENDMDL
