MODEL 1
REMARK minimizedAffinity 7.97578287
REMARK minimizedRMSD -1
REMARK  0 active torsions:
REMARK  status: ('A' for Active; 'I' for Inactive)
ROOT
ATOM      1  O1  BZF d   1      -2.681   0.381   4.529  0.00  0.00    -0.204 OA
ATOM      2  C2  BZF d   1      -1.924   0.383   3.373  0.00  0.00     0.174 A 
ATOM      3  C3  BZF d   1      -2.570  -0.258   2.377  0.00  0.00    -0.012 A 
ATOM      4  C3A BZF d   1      -3.847  -0.607   2.920  0.00  0.00    -0.107 A 
ATOM      5  C4  BZF d   1      -4.941  -1.246   2.410  0.00  0.00     0.055 A 
ATOM      6  C5  BZF d   1      -6.000  -1.494   3.225  0.00  0.00    -0.016 A 
ATOM      7  C6  BZF d   1      -5.997  -1.123   4.554  0.00  0.00     0.022 A 
ATOM      8  C7  BZF d   1      -4.936  -0.482   5.103  0.00  0.00     0.029 A 
ATOM      9  C7A BZF d   1      -3.878  -0.200   4.274  0.00  0.00     0.058 A 
ENDROOT
TORSDOF 0
ENDMDL
