MODEL 1
REMARK minimizedAffinity 8.27649593
REMARK minimizedRMSD -1
REMARK  0 active torsions:
REMARK  status: ('A' for Active; 'I' for Inactive)
ROOT
ATOM      1  O1  BZF d   1      -1.489   2.371   3.210  0.00  0.00    -0.204 OA
ATOM      2  C2  BZF d   1      -1.784   1.097   2.762  0.00  0.00     0.174 A 
ATOM      3  C3  BZF d   1      -2.927   1.095   2.046  0.00  0.00    -0.012 A 
ATOM      4  C3A BZF d   1      -3.325   2.467   1.968  0.00  0.00    -0.107 A 
ATOM      5  C4  BZF d   1      -4.374   3.107   1.374  0.00  0.00     0.055 A 
ATOM      6  C5  BZF d   1      -4.514   4.448   1.548  0.00  0.00    -0.016 A 
ATOM      7  C6  BZF d   1      -3.628   5.177   2.314  0.00  0.00     0.022 A 
ATOM      8  C7  BZF d   1      -2.569   4.586   2.919  0.00  0.00     0.029 A 
ATOM      9  C7A BZF d   1      -2.406   3.237   2.718  0.00  0.00     0.058 A 
ENDROOT
TORSDOF 0
ENDMDL
