MODEL 1
REMARK minimizedAffinity 12.352685
REMARK minimizedRMSD -1
REMARK  0 active torsions:
REMARK  status: ('A' for Active; 'I' for Inactive)
ROOT
ATOM      1  O1  BZF d   1      -2.982   0.673   5.742  0.00  0.00    -0.204 OA
ATOM      2  C2  BZF d   1      -3.723  -0.493   5.778  0.00  0.00     0.174 A 
ATOM      3  C3  BZF d   1      -3.644  -1.146   4.601  0.00  0.00    -0.012 A 
ATOM      4  C3A BZF d   1      -2.727  -0.385   3.809  0.00  0.00    -0.107 A 
ATOM      5  C4  BZF d   1      -2.227  -0.536   2.547  0.00  0.00     0.055 A 
ATOM      6  C5  BZF d   1      -1.406   0.423   2.043  0.00  0.00    -0.016 A 
ATOM      7  C6  BZF d   1      -1.070   1.546   2.770  0.00  0.00     0.022 A 
ATOM      8  C7  BZF d   1      -1.537   1.737   4.028  0.00  0.00     0.029 A 
ATOM      9  C7A BZF d   1      -2.340   0.754   4.552  0.00  0.00     0.058 A 
ENDROOT
TORSDOF 0
ENDMDL
