MODEL 1
REMARK minimizedAffinity -0.816380262
REMARK minimizedRMSD -1
REMARK  0 active torsions:
REMARK  status: ('A' for Active; 'I' for Inactive)
ROOT
ATOM      1  O1  BZF d   1       5.997   4.466   3.978  0.00  0.00    -0.204 OA
ATOM      2  C2  BZF d   1       5.257   5.241   4.850  0.00  0.00     0.174 A 
ATOM      3  C3  BZF d   1       4.367   6.000   4.179  0.00  0.00    -0.012 A 
ATOM      4  C3A BZF d   1       4.499   5.611   2.808  0.00  0.00    -0.107 A 
ATOM      5  C4  BZF d   1       3.872   5.997   1.658  0.00  0.00     0.055 A 
ATOM      6  C5  BZF d   1       4.287   5.476   0.473  0.00  0.00    -0.016 A 
ATOM      7  C6  BZF d   1       5.326   4.572   0.401  0.00  0.00     0.022 A 
ATOM      8  C7  BZF d   1       5.975   4.155   1.516  0.00  0.00     0.029 A 
ATOM      9  C7A BZF d   1       5.537   4.655   2.718  0.00  0.00     0.058 A 
ENDROOT
TORSDOF 0
ENDMDL
