MODEL 1
REMARK minimizedAffinity 15.086071
REMARK minimizedRMSD -1
REMARK  0 active torsions:
REMARK  status: ('A' for Active; 'I' for Inactive)
ROOT
ATOM      1  O1  BZF d   1       0.107   0.920  -4.690  0.00  0.00    -0.204 OA
ATOM      2  C2  BZF d   1       0.418   1.685  -3.582  0.00  0.00     0.174 A 
ATOM      3  C3  BZF d   1       0.915   0.915  -2.593  0.00  0.00    -0.012 A 
ATOM      4  C3A BZF d   1       1.000  -0.401  -3.147  0.00  0.00    -0.107 A 
ATOM      5  C4  BZF d   1       1.432  -1.601  -2.657  0.00  0.00     0.055 A 
ATOM      6  C5  BZF d   1       1.314  -2.711  -3.431  0.00  0.00    -0.016 A 
ATOM      7  C6  BZF d   1       0.766  -2.661  -4.696  0.00  0.00     0.022 A 
ATOM      8  C7  BZF d   1       0.328  -1.493  -5.227  0.00  0.00     0.029 A 
ATOM      9  C7A BZF d   1       0.476  -0.363  -4.460  0.00  0.00     0.058 A 
ENDROOT
TORSDOF 0
ENDMDL
