MODEL 1
REMARK minimizedAffinity 16.0653324
REMARK minimizedRMSD -1
REMARK  0 active torsions:
REMARK  status: ('A' for Active; 'I' for Inactive)
ROOT
ATOM      1  O1  BZF d   1      -2.473   0.000   3.428  0.00  0.00    -0.204 OA
ATOM      2  C2  BZF d   1      -1.807   1.189   3.654  0.00  0.00     0.174 A 
ATOM      3  C3  BZF d   1      -1.239   1.643   2.518  0.00  0.00    -0.012 A 
ATOM      4  C3A BZF d   1      -1.650   0.726   1.500  0.00  0.00    -0.107 A 
ATOM      5  C4  BZF d   1      -1.422   0.652   0.155  0.00  0.00     0.055 A 
ATOM      6  C5  BZF d   1      -1.907  -0.411  -0.539  0.00  0.00    -0.016 A 
ATOM      7  C6  BZF d   1      -2.619  -1.418   0.078  0.00  0.00     0.022 A 
ATOM      8  C7  BZF d   1      -2.875  -1.386   1.408  0.00  0.00     0.029 A 
ATOM      9  C7A BZF d   1      -2.414  -0.297   2.108  0.00  0.00     0.058 A 
ENDROOT
TORSDOF 0
ENDMDL
