MODEL 1
REMARK minimizedAffinity 0.9903965
REMARK minimizedRMSD -1
REMARK  0 active torsions:
REMARK  status: ('A' for Active; 'I' for Inactive)
ROOT
ATOM      1  O1  BZF d   1       4.397   5.924   2.393  0.00  0.00    -0.204 OA
ATOM      2  C2  BZF d   1       5.020   5.100   1.476  0.00  0.00     0.174 A 
ATOM      3  C3  BZF d   1       5.772   4.171   2.102  0.00  0.00    -0.012 A 
ATOM      4  C3A BZF d   1       5.534   4.373   3.498  0.00  0.00    -0.107 A 
ATOM      5  C4  BZF d   1       5.984   3.750   4.627  0.00  0.00     0.055 A 
ATOM      6  C5  BZF d   1       5.619   4.238   5.842  0.00  0.00    -0.016 A 
ATOM      7  C6  BZF d   1       4.810   5.349   5.964  0.00  0.00     0.022 A 
ATOM      8  C7  BZF d   1       4.334   5.997   4.873  0.00  0.00     0.029 A 
ATOM      9  C7A BZF d   1       4.675   5.487   3.645  0.00  0.00     0.058 A 
ENDROOT
TORSDOF 0
ENDMDL
