MODEL 1
REMARK minimizedAffinity 12.0128822
REMARK minimizedRMSD -1
REMARK  0 active torsions:
REMARK  status: ('A' for Active; 'I' for Inactive)
ROOT
ATOM      1  O1  BZF d   1      -1.974   2.822  -0.945  0.00  0.00    -0.204 OA
ATOM      2  C2  BZF d   1      -1.349   1.830  -1.674  0.00  0.00     0.174 A 
ATOM      3  C3  BZF d   1      -1.054   0.773  -0.890  0.00  0.00    -0.012 A 
ATOM      4  C3A BZF d   1      -1.608   1.089   0.391  0.00  0.00    -0.107 A 
ATOM      5  C4  BZF d   1      -1.654   0.425   1.583  0.00  0.00     0.055 A 
ATOM      6  C5  BZF d   1      -2.205   1.042   2.662  0.00  0.00    -0.016 A 
ATOM      7  C6  BZF d   1      -2.713   2.323   2.585  0.00  0.00     0.022 A 
ATOM      8  C7  BZF d   1      -2.694   3.019   1.422  0.00  0.00     0.029 A 
ATOM      9  C7A BZF d   1      -2.168   2.386   0.323  0.00  0.00     0.058 A 
ENDROOT
TORSDOF 0
ENDMDL
