MODEL 1
REMARK minimizedAffinity 3.71916652
REMARK minimizedRMSD -1
REMARK  0 active torsions:
REMARK  status: ('A' for Active; 'I' for Inactive)
ROOT
ATOM      1  O1  BZF d   1       4.005   5.983   4.770  0.00  0.00    -0.204 OA
ATOM      2  C2  BZF d   1       5.062   5.505   5.519  0.00  0.00     0.174 A 
ATOM      3  C3  BZF d   1       5.966   4.887   4.732  0.00  0.00    -0.012 A 
ATOM      4  C3A BZF d   1       5.486   5.066   3.396  0.00  0.00    -0.107 A 
ATOM      5  C4  BZF d   1       5.958   4.692   2.170  0.00  0.00     0.055 A 
ATOM      6  C5  BZF d   1       5.213   4.959   1.066  0.00  0.00    -0.016 A 
ATOM      7  C6  BZF d   1       3.991   5.593   1.150  0.00  0.00     0.022 A 
ATOM      8  C7  BZF d   1       3.483   5.988   2.343  0.00  0.00     0.029 A 
ATOM      9  C7A BZF d   1       4.249   5.749   3.458  0.00  0.00     0.058 A 
ENDROOT
TORSDOF 0
ENDMDL
