MODEL 1
REMARK minimizedAffinity -2.93785667
REMARK minimizedRMSD -1
REMARK  0 active torsions:
REMARK  status: ('A' for Active; 'I' for Inactive)
ROOT
ATOM      1  C1  BNZ d   1      -2.248   3.438  -2.420  0.00  0.00     0.000 A 
ATOM      2  C2  BNZ d   1      -1.085   4.161  -2.432  0.00  0.00     0.000 A 
ATOM      3  C3  BNZ d   1       0.129   3.535  -2.370  0.00  0.00     0.000 A 
ATOM      4  C4  BNZ d   1       0.177   2.192  -2.257  0.00  0.00     0.000 A 
ATOM      5  C5  BNZ d   1      -0.987   1.450  -2.235  0.00  0.00     0.000 A 
ATOM      6  C6  BNZ d   1      -2.206   2.080  -2.336  0.00  0.00     0.000 A 
ENDROOT
TORSDOF 0
ENDMDL
