MODEL 1
REMARK minimizedAffinity -4.52745819
REMARK minimizedRMSD -1
REMARK  0 active torsions:
REMARK  status: ('A' for Active; 'I' for Inactive)
ROOT
ATOM      1  C1  BNZ d   1       1.119  -1.077   0.267  0.00  0.00     0.000 A 
ATOM      2  C2  BNZ d   1       0.078  -0.560  -0.457  0.00  0.00     0.000 A 
ATOM      3  C3  BNZ d   1      -1.076  -0.167   0.161  0.00  0.00     0.000 A 
ATOM      4  C4  BNZ d   1      -1.203  -0.329   1.494  0.00  0.00     0.000 A 
ATOM      5  C5  BNZ d   1      -0.166  -0.858   2.236  0.00  0.00     0.000 A 
ATOM      6  C6  BNZ d   1       1.009  -1.216   1.616  0.00  0.00     0.000 A 
ENDROOT
TORSDOF 0
ENDMDL
