MODEL 1
REMARK minimizedAffinity -3.82026076
REMARK minimizedRMSD -1
REMARK  0 active torsions:
REMARK  status: ('A' for Active; 'I' for Inactive)
ROOT
ATOM      1  C1  BNZ d   1      -0.690  -0.286   0.872  0.00  0.00     0.000 A 
ATOM      2  C2  BNZ d   1      -0.736  -0.911   2.090  0.00  0.00     0.000 A 
ATOM      3  C3  BNZ d   1       0.413  -1.277   2.733  0.00  0.00     0.000 A 
ATOM      4  C4  BNZ d   1       1.604  -1.054   2.141  0.00  0.00     0.000 A 
ATOM      5  C5  BNZ d   1       1.667  -0.434   0.909  0.00  0.00     0.000 A 
ATOM      6  C6  BNZ d   1       0.510  -0.031   0.283  0.00  0.00     0.000 A 
ENDROOT
TORSDOF 0
ENDMDL
