MODEL 1
REMARK minimizedAffinity -4.44335127
REMARK minimizedRMSD -1
REMARK  0 active torsions:
REMARK  status: ('A' for Active; 'I' for Inactive)
ROOT
ATOM      1  C1  BNZ d   1       2.031  -1.361   1.175  0.00  0.00     0.000 A 
ATOM      2  C2  BNZ d   1       1.465  -0.675   0.133  0.00  0.00     0.000 A 
ATOM      3  C3  BNZ d   1       0.294   0.009   0.299  0.00  0.00     0.000 A 
ATOM      4  C4  BNZ d   1      -0.331  -0.025   1.494  0.00  0.00     0.000 A 
ATOM      5  C5  BNZ d   1       0.222  -0.720   2.552  0.00  0.00     0.000 A 
ATOM      6  C6  BNZ d   1       1.421  -1.375   2.391  0.00  0.00     0.000 A 
ENDROOT
TORSDOF 0
ENDMDL
