MODEL 1
REMARK minimizedAffinity -3.70753527
REMARK minimizedRMSD -1
REMARK  0 active torsions:
REMARK  status: ('A' for Active; 'I' for Inactive)
ROOT
ATOM      1  C1  BNZ d   1      -0.241  -0.173   0.620  0.00  0.00     0.000 A 
ATOM      2  C2  BNZ d   1      -0.787  -0.140   1.875  0.00  0.00     0.000 A 
ATOM      3  C3  BNZ d   1      -0.034  -0.445   2.974  0.00  0.00     0.000 A 
ATOM      4  C4  BNZ d   1       1.251  -0.821   2.814  0.00  0.00     0.000 A 
ATOM      5  C5  BNZ d   1       1.814  -0.868   1.554  0.00  0.00     0.000 A 
ATOM      6  C6  BNZ d   1       1.064  -0.523   0.453  0.00  0.00     0.000 A 
ENDROOT
TORSDOF 0
ENDMDL
