MODEL 1
REMARK minimizedAffinity -3.80524516
REMARK minimizedRMSD -1
REMARK  0 active torsions:
REMARK  status: ('A' for Active; 'I' for Inactive)
ROOT
ATOM      1  C1  BNZ d   1       1.120  -0.798   2.008  0.00  0.00     0.000 A 
ATOM      2  C2  BNZ d   1       1.162  -1.178   0.693  0.00  0.00     0.000 A 
ATOM      3  C3  BNZ d   1       0.723  -0.339  -0.293  0.00  0.00     0.000 A 
ATOM      4  C4  BNZ d   1       0.206   0.861   0.040  0.00  0.00     0.000 A 
ATOM      5  C5  BNZ d   1       0.149   1.255   1.362  0.00  0.00     0.000 A 
ATOM      6  C6  BNZ d   1       0.627   0.424   2.348  0.00  0.00     0.000 A 
ENDROOT
TORSDOF 0
ENDMDL
