MODEL 1
REMARK minimizedAffinity -0.646341562
REMARK minimizedRMSD -1
REMARK  0 active torsions:
REMARK  status: ('A' for Active; 'I' for Inactive)
ROOT
ATOM      1  C1  BNZ d   1       2.423  -0.553   2.510  0.00  0.00     0.000 A 
ATOM      2  C2  BNZ d   1       1.337  -0.603   3.344  0.00  0.00     0.000 A 
ATOM      3  C3  BNZ d   1       0.085  -0.840   2.848  0.00  0.00     0.000 A 
ATOM      4  C4  BNZ d   1      -0.085  -0.988   1.519  0.00  0.00     0.000 A 
ATOM      5  C5  BNZ d   1       0.999  -0.931   0.665  0.00  0.00     0.000 A 
ATOM      6  C6  BNZ d   1       2.263  -0.731   1.171  0.00  0.00     0.000 A 
ENDROOT
TORSDOF 0
ENDMDL
