MODEL 1
REMARK minimizedAffinity -2.15767574
REMARK minimizedRMSD -1
REMARK  0 active torsions:
REMARK  status: ('A' for Active; 'I' for Inactive)
ROOT
ATOM      1  C1  BNZ d   1       0.689   0.256   3.772  0.00  0.00     0.000 A 
ATOM      2  C2  BNZ d   1       1.652  -0.589   3.289  0.00  0.00     0.000 A 
ATOM      3  C3  BNZ d   1       1.388  -1.423   2.238  0.00  0.00     0.000 A 
ATOM      4  C4  BNZ d   1       0.152  -1.440   1.699  0.00  0.00     0.000 A 
ATOM      5  C5  BNZ d   1      -0.832  -0.601   2.182  0.00  0.00     0.000 A 
ATOM      6  C6  BNZ d   1      -0.552   0.265   3.214  0.00  0.00     0.000 A 
ENDROOT
TORSDOF 0
ENDMDL
