MODEL 1
REMARK minimizedAffinity -2.75243378
REMARK minimizedRMSD -1
REMARK  0 active torsions:
REMARK  status: ('A' for Active; 'I' for Inactive)
ROOT
ATOM      1  O1  BZF d   1       0.264  -0.048  -0.807  0.00  0.00    -0.204 OA
ATOM      2  C2  BZF d   1       0.260   1.275  -0.411  0.00  0.00     0.174 A 
ATOM      3  C3  BZF d   1      -0.308   1.409   0.805  0.00  0.00    -0.012 A 
ATOM      4  C3A BZF d   1      -0.599   0.075   1.233  0.00  0.00    -0.107 A 
ATOM      5  C4  BZF d   1      -1.155  -0.446   2.366  0.00  0.00     0.055 A 
ATOM      6  C5  BZF d   1      -1.367  -1.787   2.441  0.00  0.00    -0.016 A 
ATOM      7  C6  BZF d   1      -1.041  -2.632   1.401  0.00  0.00     0.022 A 
ATOM      8  C7  BZF d   1      -0.483  -2.162   0.259  0.00  0.00     0.029 A 
ATOM      9  C7A BZF d   1      -0.237  -0.812   0.194  0.00  0.00     0.058 A 
ENDROOT
TORSDOF 0
ENDMDL
