MODEL 1
REMARK minimizedAffinity -5.26678991
REMARK minimizedRMSD -1
REMARK  0 active torsions:
REMARK  status: ('A' for Active; 'I' for Inactive)
ROOT
ATOM      1  O1  BZF d   1      -0.724   0.510   0.385  0.00  0.00    -0.204 OA
ATOM      2  C2  BZF d   1      -0.146   1.106  -0.719  0.00  0.00     0.174 A 
ATOM      3  C3  BZF d   1       0.439   0.183  -1.510  0.00  0.00    -0.012 A 
ATOM      4  C3A BZF d   1       0.134  -1.078  -0.906  0.00  0.00    -0.107 A 
ATOM      5  C4  BZF d   1       0.425  -2.371  -1.235  0.00  0.00     0.055 A 
ATOM      6  C5  BZF d   1       0.040  -3.368  -0.395  0.00  0.00    -0.016 A 
ATOM      7  C6  BZF d   1      -0.631  -3.108   0.782  0.00  0.00     0.022 A 
ATOM      8  C7  BZF d   1      -0.946  -1.842   1.148  0.00  0.00     0.029 A 
ATOM      9  C7A BZF d   1      -0.588  -0.834   0.285  0.00  0.00     0.058 A 
ENDROOT
TORSDOF 0
ENDMDL
