MODEL 1
REMARK minimizedAffinity 1.39512777
REMARK minimizedRMSD -1
REMARK  0 active torsions:
REMARK  status: ('A' for Active; 'I' for Inactive)
ROOT
ATOM      1  O1  BZF d   1      -2.200  -2.644   0.831  0.00  0.00    -0.204 OA
ATOM      2  C2  BZF d   1      -1.508  -3.222  -0.216  0.00  0.00     0.174 A 
ATOM      3  C3  BZF d   1      -0.832  -2.287  -0.915  0.00  0.00    -0.012 A 
ATOM      4  C3A BZF d   1      -1.045  -1.061  -0.209  0.00  0.00    -0.107 A 
ATOM      5  C4  BZF d   1      -0.617   0.221  -0.403  0.00  0.00     0.055 A 
ATOM      6  C5  BZF d   1      -1.065   1.200   0.427  0.00  0.00    -0.016 A 
ATOM      7  C6  BZF d   1      -1.944   0.933   1.456  0.00  0.00     0.022 A 
ATOM      8  C7  BZF d   1      -2.392  -0.324   1.691  0.00  0.00     0.029 A 
ATOM      9  C7A BZF d   1      -1.915  -1.321   0.875  0.00  0.00     0.058 A 
ENDROOT
TORSDOF 0
ENDMDL
