MODEL 1
REMARK minimizedAffinity -2.32967734
REMARK minimizedRMSD -1
REMARK  0 active torsions:
REMARK  status: ('A' for Active; 'I' for Inactive)
ROOT
ATOM      1  O1  BZF d   1      -1.420  -2.067   0.616  0.00  0.00    -0.204 OA
ATOM      2  C2  BZF d   1      -1.556  -1.767   1.957  0.00  0.00     0.174 A 
ATOM      3  C3  BZF d   1      -1.070  -0.537   2.224  0.00  0.00    -0.012 A 
ATOM      4  C3A BZF d   1      -0.686  -0.001   0.954  0.00  0.00    -0.107 A 
ATOM      5  C4  BZF d   1      -0.149   1.192   0.562  0.00  0.00     0.055 A 
ATOM      6  C5  BZF d   1       0.176   1.372  -0.745  0.00  0.00    -0.016 A 
ATOM      7  C6  BZF d   1      -0.015   0.380  -1.685  0.00  0.00     0.022 A 
ATOM      8  C7  BZF d   1      -0.549  -0.818  -1.344  0.00  0.00     0.029 A 
ATOM      9  C7A BZF d   1      -0.910  -0.992  -0.030  0.00  0.00     0.058 A 
ENDROOT
TORSDOF 0
ENDMDL
