MODEL 1
REMARK minimizedAffinity -4.34056091
REMARK minimizedRMSD -1
REMARK  0 active torsions:
REMARK  status: ('A' for Active; 'I' for Inactive)
ROOT
ATOM      1  O1  BZF d   1       0.720  -1.215  -1.648  0.00  0.00    -0.204 OA
ATOM      2  C2  BZF d   1       0.822  -2.586  -1.784  0.00  0.00     0.174 A 
ATOM      3  C3  BZF d   1       0.240  -3.215  -0.743  0.00  0.00    -0.012 A 
ATOM      4  C3A BZF d   1      -0.339  -2.174   0.050  0.00  0.00    -0.107 A 
ATOM      5  C4  BZF d   1      -1.066  -2.167   1.206  0.00  0.00     0.055 A 
ATOM      6  C5  BZF d   1      -1.417  -0.977   1.759  0.00  0.00    -0.016 A 
ATOM      7  C6  BZF d   1      -1.054   0.225   1.187  0.00  0.00     0.022 A 
ATOM      8  C7  BZF d   1      -0.338   0.269   0.037  0.00  0.00     0.029 A 
ATOM      9  C7A BZF d   1      -0.009  -0.932  -0.542  0.00  0.00     0.058 A 
ENDROOT
TORSDOF 0
ENDMDL
