MODEL 1
REMARK minimizedAffinity -4.50702572
REMARK minimizedRMSD -1
REMARK  0 active torsions:
REMARK  status: ('A' for Active; 'I' for Inactive)
ROOT
ATOM      1  O1  BZF d   1       0.725  -1.817  -2.475  0.00  0.00    -0.204 OA
ATOM      2  C2  BZF d   1       0.430  -3.127  -2.801  0.00  0.00     0.174 A 
ATOM      3  C3  BZF d   1      -0.085  -3.779  -1.738  0.00  0.00    -0.012 A 
ATOM      4  C3A BZF d   1      -0.199  -2.791  -0.709  0.00  0.00    -0.107 A 
ATOM      5  C4  BZF d   1      -0.658  -2.824   0.576  0.00  0.00     0.055 A 
ATOM      6  C5  BZF d   1      -0.564  -1.703   1.339  0.00  0.00    -0.016 A 
ATOM      7  C6  BZF d   1      -0.013  -0.536   0.852  0.00  0.00     0.022 A 
ATOM      8  C7  BZF d   1       0.451  -0.455  -0.419  0.00  0.00     0.029 A 
ATOM      9  C7A BZF d   1       0.328  -1.576  -1.203  0.00  0.00     0.058 A 
ENDROOT
TORSDOF 0
ENDMDL
