MODEL 1
REMARK minimizedAffinity -4.60980558
REMARK minimizedRMSD -1
REMARK  0 active torsions:
REMARK  status: ('A' for Active; 'I' for Inactive)
ROOT
ATOM      1  O1  BZF d   1       0.396   0.373  -0.697  0.00  0.00    -0.204 OA
ATOM      2  C2  BZF d   1      -0.247   0.911   0.401  0.00  0.00     0.174 A 
ATOM      3  C3  BZF d   1      -0.797  -0.062   1.156  0.00  0.00    -0.012 A 
ATOM      4  C3A BZF d   1      -0.398  -1.289   0.539  0.00  0.00    -0.107 A 
ATOM      5  C4  BZF d   1      -0.618  -2.604   0.835  0.00  0.00     0.055 A 
ATOM      6  C5  BZF d   1      -0.150  -3.559  -0.011  0.00  0.00    -0.016 A 
ATOM      7  C6  BZF d   1       0.537  -3.235  -1.163  0.00  0.00     0.022 A 
ATOM      8  C7  BZF d   1       0.784  -1.945  -1.496  0.00  0.00     0.029 A 
ATOM      9  C7A BZF d   1       0.341  -0.979  -0.626  0.00  0.00     0.058 A 
ENDROOT
TORSDOF 0
ENDMDL
