MODEL 1
REMARK minimizedAffinity -3.62971711
REMARK minimizedRMSD -1
REMARK  0 active torsions:
REMARK  status: ('A' for Active; 'I' for Inactive)
ROOT
ATOM      1  O1  BZF d   1      -0.620  -0.497   0.523  0.00  0.00    -0.204 OA
ATOM      2  C2  BZF d   1      -1.146  -1.361   1.464  0.00  0.00     0.174 A 
ATOM      3  C3  BZF d   1      -1.222  -2.615   0.974  0.00  0.00    -0.012 A 
ATOM      4  C3A BZF d   1      -0.626  -2.548  -0.325  0.00  0.00    -0.107 A 
ATOM      5  C4  BZF d   1      -0.393  -3.475  -1.300  0.00  0.00     0.055 A 
ATOM      6  C5  BZF d   1       0.141  -3.071  -2.482  0.00  0.00    -0.016 A 
ATOM      7  C6  BZF d   1       0.449  -1.748  -2.725  0.00  0.00     0.022 A 
ATOM      8  C7  BZF d   1       0.240  -0.792  -1.787  0.00  0.00     0.029 A 
ATOM      9  C7A BZF d   1      -0.269  -1.203  -0.579  0.00  0.00     0.058 A 
ENDROOT
TORSDOF 0
ENDMDL
