MODEL 1
REMARK minimizedAffinity -5.56662607
REMARK minimizedRMSD -1
REMARK  0 active torsions:
REMARK  status: ('A' for Active; 'I' for Inactive)
ROOT
ATOM      1  O1  BZF d   1      -0.090   0.193  -0.730  0.00  0.00    -0.204 OA
ATOM      2  C2  BZF d   1      -0.506   0.708   0.483  0.00  0.00     0.174 A 
ATOM      3  C3  BZF d   1      -0.830  -0.283   1.338  0.00  0.00    -0.012 A 
ATOM      4  C3A BZF d   1      -0.515  -1.495   0.646  0.00  0.00    -0.107 A 
ATOM      5  C4  BZF d   1      -0.601  -2.816   0.980  0.00  0.00     0.055 A 
ATOM      6  C5  BZF d   1      -0.281  -3.755   0.051  0.00  0.00    -0.016 A 
ATOM      7  C6  BZF d   1       0.122  -3.408  -1.222  0.00  0.00     0.022 A 
ATOM      8  C7  BZF d   1       0.228  -2.110  -1.598  0.00  0.00     0.029 A 
ATOM      9  C7A BZF d   1      -0.063  -1.159  -0.651  0.00  0.00     0.058 A 
ENDROOT
TORSDOF 0
ENDMDL
