MODEL 1
REMARK minimizedAffinity 0.561124206
REMARK minimizedRMSD -1
REMARK  0 active torsions:
REMARK  status: ('A' for Active; 'I' for Inactive)
ROOT
ATOM      1  O1  BZF d   1      -0.319   0.059  -0.844  0.00  0.00    -0.204 OA
ATOM      2  C2  BZF d   1       0.417   1.185  -0.530  0.00  0.00     0.174 A 
ATOM      3  C3  BZF d   1      -0.106   1.815   0.542  0.00  0.00    -0.012 A 
ATOM      4  C3A BZF d   1      -1.185   0.983   0.978  0.00  0.00    -0.107 A 
ATOM      5  C4  BZF d   1      -2.079   1.067   2.007  0.00  0.00     0.055 A 
ATOM      6  C5  BZF d   1      -3.055   0.127   2.113  0.00  0.00    -0.016 A 
ATOM      7  C6  BZF d   1      -3.170  -0.905   1.206  0.00  0.00     0.022 A 
ATOM      8  C7  BZF d   1      -2.304  -1.033   0.171  0.00  0.00     0.029 A 
ATOM      9  C7A BZF d   1      -1.297  -0.104   0.080  0.00  0.00     0.058 A 
ENDROOT
TORSDOF 0
ENDMDL
