MODEL 1
REMARK minimizedAffinity 4.0594821
REMARK minimizedRMSD -1
REMARK  0 active torsions:
REMARK  status: ('A' for Active; 'I' for Inactive)
ROOT
ATOM      1  O1  BZF d   1       1.147   5.369   3.751  0.00  0.00    -0.204 OA
ATOM      2  C2  BZF d   1      -0.087   5.990   3.755  0.00  0.00     0.174 A 
ATOM      3  C3  BZF d   1      -0.626   5.992   2.519  0.00  0.00    -0.012 A 
ATOM      4  C3A BZF d   1       0.289   5.250   1.708  0.00  0.00    -0.107 A 
ATOM      5  C4  BZF d   1       0.299   4.892   0.390  0.00  0.00     0.055 A 
ATOM      6  C5  BZF d   1       1.377   4.230  -0.107  0.00  0.00    -0.016 A 
ATOM      7  C6  BZF d   1       2.462   3.914   0.684  0.00  0.00     0.022 A 
ATOM      8  C7  BZF d   1       2.496   4.243   1.998  0.00  0.00     0.029 A 
ATOM      9  C7A BZF d   1       1.395   4.883   2.510  0.00  0.00     0.058 A 
ENDROOT
TORSDOF 0
ENDMDL
