MODEL 1
REMARK minimizedAffinity 5.3334775
REMARK minimizedRMSD -1
REMARK  0 active torsions:
REMARK  status: ('A' for Active; 'I' for Inactive)
ROOT
ATOM      1  O1  BZF d   1      -0.727   1.113   0.140  0.00  0.00    -0.204 OA
ATOM      2  C2  BZF d   1      -0.180   0.606  -1.023  0.00  0.00     0.174 A 
ATOM      3  C3  BZF d   1      -0.238  -0.742  -1.031  0.00  0.00    -0.012 A 
ATOM      4  C3A BZF d   1      -0.944  -1.095   0.162  0.00  0.00    -0.107 A 
ATOM      5  C4  BZF d   1      -1.332  -2.286   0.706  0.00  0.00     0.055 A 
ATOM      6  C5  BZF d   1      -1.942  -2.291   1.921  0.00  0.00    -0.016 A 
ATOM      7  C6  BZF d   1      -2.175  -1.125   2.620  0.00  0.00     0.022 A 
ATOM      8  C7  BZF d   1      -1.813   0.082   2.119  0.00  0.00     0.029 A 
ATOM      9  C7A BZF d   1      -1.226   0.092   0.877  0.00  0.00     0.058 A 
ENDROOT
TORSDOF 0
ENDMDL
