MODEL 1
REMARK minimizedAffinity 4.28508282
REMARK minimizedRMSD -1
REMARK  0 active torsions:
REMARK  status: ('A' for Active; 'I' for Inactive)
ROOT
ATOM      1  O1  BZF d   1      -0.398  -1.976   3.349  0.00  0.00    -0.204 OA
ATOM      2  C2  BZF d   1       0.562  -1.034   3.664  0.00  0.00     0.174 A 
ATOM      3  C3  BZF d   1       0.498   0.015   2.819  0.00  0.00    -0.012 A 
ATOM      4  C3A BZF d   1      -0.629  -0.247   1.978  0.00  0.00    -0.107 A 
ATOM      5  C4  BZF d   1      -1.213   0.437   0.950  0.00  0.00     0.055 A 
ATOM      6  C5  BZF d   1      -2.256  -0.129   0.288  0.00  0.00    -0.016 A 
ATOM      7  C6  BZF d   1      -2.737  -1.378   0.624  0.00  0.00     0.022 A 
ATOM      8  C7  BZF d   1      -2.193  -2.093   1.639  0.00  0.00     0.029 A 
ATOM      9  C7A BZF d   1      -1.160  -1.509   2.331  0.00  0.00     0.058 A 
ENDROOT
TORSDOF 0
ENDMDL
