MODEL 1
REMARK minimizedAffinity -3.64669037
REMARK minimizedRMSD -1
REMARK  0 active torsions:
REMARK  status: ('A' for Active; 'I' for Inactive)
ROOT
ATOM      1  O1  BZF d   1       0.090  -0.945  -2.172  0.00  0.00    -0.204 OA
ATOM      2  C2  BZF d   1       0.417  -2.161  -2.740  0.00  0.00     0.174 A 
ATOM      3  C3  BZF d   1       0.321  -3.154  -1.832  0.00  0.00    -0.012 A 
ATOM      4  C3A BZF d   1      -0.181  -2.531  -0.645  0.00  0.00    -0.107 A 
ATOM      5  C4  BZF d   1      -0.503  -2.999   0.597  0.00  0.00     0.055 A 
ATOM      6  C5  BZF d   1      -0.897  -2.118   1.553  0.00  0.00    -0.016 A 
ATOM      7  C6  BZF d   1      -0.976  -0.763   1.304  0.00  0.00     0.022 A 
ATOM      8  C7  BZF d   1      -0.672  -0.252   0.086  0.00  0.00     0.029 A 
ATOM      9  C7A BZF d   1      -0.305  -1.144  -0.892  0.00  0.00     0.058 A 
ENDROOT
TORSDOF 0
ENDMDL
