MODEL 1
REMARK minimizedAffinity 9.78146076
REMARK minimizedRMSD -1
REMARK  0 active torsions:
REMARK  status: ('A' for Active; 'I' for Inactive)
ROOT
ATOM      1  O1  BZF d   1      -0.394   0.388  -1.012  0.00  0.00    -0.204 OA
ATOM      2  C2  BZF d   1       0.915   0.664  -1.358  0.00  0.00     0.174 A 
ATOM      3  C3  BZF d   1       1.725   0.559  -0.285  0.00  0.00    -0.012 A 
ATOM      4  C3A BZF d   1       0.884   0.105   0.779  0.00  0.00    -0.107 A 
ATOM      5  C4  BZF d   1       1.112  -0.201   2.091  0.00  0.00     0.055 A 
ATOM      6  C5  BZF d   1       0.062  -0.545   2.881  0.00  0.00    -0.016 A 
ATOM      7  C6  BZF d   1      -1.229  -0.589   2.395  0.00  0.00     0.022 A 
ATOM      8  C7  BZF d   1      -1.504  -0.298   1.100  0.00  0.00     0.029 A 
ATOM      9  C7A BZF d   1      -0.440   0.018   0.291  0.00  0.00     0.058 A 
ENDROOT
TORSDOF 0
ENDMDL
