MODEL 1
REMARK minimizedAffinity -4.49844217
REMARK minimizedRMSD -1
REMARK  0 active torsions:
REMARK  status: ('A' for Active; 'I' for Inactive)
ROOT
ATOM      1  O1  BZF d   1       0.954   4.989   2.790  0.00  0.00    -0.204 OA
ATOM      2  C2  BZF d   1      -0.327   4.883   3.295  0.00  0.00     0.174 A 
ATOM      3  C3  BZF d   1      -1.076   4.062   2.530  0.00  0.00    -0.012 A 
ATOM      4  C3A BZF d   1      -0.181   3.556   1.535  0.00  0.00    -0.107 A 
ATOM      5  C4  BZF d   1      -0.330   2.682   0.495  0.00  0.00     0.055 A 
ATOM      6  C5  BZF d   1       0.722   2.456  -0.334  0.00  0.00    -0.016 A 
ATOM      7  C6  BZF d   1       1.935   3.090  -0.157  0.00  0.00     0.022 A 
ATOM      8  C7  BZF d   1       2.132   3.961   0.863  0.00  0.00     0.029 A 
ATOM      9  C7A BZF d   1       1.080   4.166   1.722  0.00  0.00     0.058 A 
ENDROOT
TORSDOF 0
ENDMDL
