MODEL 1
REMARK minimizedAffinity 4.39112568
REMARK minimizedRMSD -1
REMARK  0 active torsions:
REMARK  status: ('A' for Active; 'I' for Inactive)
ROOT
ATOM      1  O1  BZF d   1      -0.405  -0.015  -1.534  0.00  0.00    -0.204 OA
ATOM      2  C2  BZF d   1      -0.232   1.111  -0.753  0.00  0.00     0.174 A 
ATOM      3  C3  BZF d   1      -0.705   0.906   0.493  0.00  0.00    -0.012 A 
ATOM      4  C3A BZF d   1      -1.122  -0.463   0.517  0.00  0.00    -0.107 A 
ATOM      5  C4  BZF d   1      -1.663  -1.263   1.483  0.00  0.00     0.055 A 
ATOM      6  C5  BZF d   1      -2.024  -2.533   1.162  0.00  0.00    -0.016 A 
ATOM      7  C6  BZF d   1      -1.862  -3.034  -0.113  0.00  0.00     0.022 A 
ATOM      8  C7  BZF d   1      -1.324  -2.280  -1.103  0.00  0.00     0.029 A 
ATOM      9  C7A BZF d   1      -0.928  -1.007  -0.774  0.00  0.00     0.058 A 
ENDROOT
TORSDOF 0
ENDMDL
