MODEL 1
REMARK minimizedAffinity -5.16827488
REMARK minimizedRMSD -1
REMARK  0 active torsions:
REMARK  status: ('A' for Active; 'I' for Inactive)
ROOT
ATOM      1  O1  BZF d   1      -0.115  -0.281  -2.204  0.00  0.00    -0.204 OA
ATOM      2  C2  BZF d   1      -0.140   0.904  -1.495  0.00  0.00     0.174 A 
ATOM      3  C3  BZF d   1      -0.229   0.667  -0.170  0.00  0.00    -0.012 A 
ATOM      4  C3A BZF d   1      -0.169  -0.756  -0.037  0.00  0.00    -0.107 A 
ATOM      5  C4  BZF d   1      -0.193  -1.601   1.035  0.00  0.00     0.055 A 
ATOM      6  C5  BZF d   1      -0.190  -2.943   0.819  0.00  0.00    -0.016 A 
ATOM      7  C6  BZF d   1      -0.168  -3.473  -0.454  0.00  0.00     0.022 A 
ATOM      8  C7  BZF d   1      -0.138  -2.675  -1.549  0.00  0.00     0.029 A 
ATOM      9  C7A BZF d   1      -0.108  -1.319  -1.333  0.00  0.00     0.058 A 
ENDROOT
TORSDOF 0
ENDMDL
