MODEL 1
REMARK minimizedAffinity -5.01718998
REMARK minimizedRMSD -1
REMARK  0 active torsions:
REMARK  status: ('A' for Active; 'I' for Inactive)
ROOT
ATOM      1  O1  BZF d   1      -0.724  -0.285   0.775  0.00  0.00    -0.204 OA
ATOM      2  C2  BZF d   1      -1.132  -1.162   1.762  0.00  0.00     0.174 A 
ATOM      3  C3  BZF d   1      -1.128  -2.431   1.305  0.00  0.00    -0.012 A 
ATOM      4  C3A BZF d   1      -0.602  -2.351  -0.023  0.00  0.00    -0.107 A 
ATOM      5  C4  BZF d   1      -0.341  -3.283  -0.986  0.00  0.00     0.055 A 
ATOM      6  C5  BZF d   1       0.102  -2.869  -2.203  0.00  0.00    -0.016 A 
ATOM      7  C6  BZF d   1       0.288  -1.533  -2.492  0.00  0.00     0.022 A 
ATOM      8  C7  BZF d   1       0.046  -0.573  -1.567  0.00  0.00     0.029 A 
ATOM      9  C7A BZF d   1      -0.369  -0.990  -0.326  0.00  0.00     0.058 A 
ENDROOT
TORSDOF 0
ENDMDL
