MODEL 1
REMARK minimizedAffinity -2.92546916
REMARK minimizedRMSD -1
REMARK  0 active torsions:
REMARK  status: ('A' for Active; 'I' for Inactive)
ROOT
ATOM      1  C   UNL d   1       0.065  -1.301  -0.249  0.00  0.00     0.078 C 
ATOM      2  C1  UNL d   1       0.454   0.098   0.126  0.00  0.00    -0.077 A 
ATOM      3  C2  UNL d   1      -0.091   0.719   1.257  0.00  0.00    -0.001 A 
ATOM      4  C3  UNL d   1       0.273   2.025   1.589  0.00  0.00     0.003 A 
ATOM      5  C4  UNL d   1       1.182   2.722   0.795  0.00  0.00    -0.005 A 
ATOM      6  C5  UNL d   1       1.727   2.113  -0.334  0.00  0.00     0.003 A 
ATOM      7  C6  UNL d   1       1.365   0.807  -0.667  0.00  0.00    -0.001 A 
ENDROOT
TORSDOF 0
ENDMDL
