MODEL 1
REMARK minimizedAffinity -3.69512773
REMARK minimizedRMSD -1
REMARK  0 active torsions:
REMARK  status: ('A' for Active; 'I' for Inactive)
ROOT
ATOM      1  C   UNL d   1      -0.543  -0.422  -1.025  0.00  0.00     0.078 C 
ATOM      2  C1  UNL d   1       0.126   0.543  -0.093  0.00  0.00    -0.077 A 
ATOM      3  C2  UNL d   1       0.920   1.587  -0.583  0.00  0.00    -0.001 A 
ATOM      4  C3  UNL d   1       1.544   2.472   0.298  0.00  0.00     0.003 A 
ATOM      5  C4  UNL d   1       1.383   2.322   1.673  0.00  0.00    -0.005 A 
ATOM      6  C5  UNL d   1       0.596   1.284   2.170  0.00  0.00     0.003 A 
ATOM      7  C6  UNL d   1      -0.029   0.398   1.292  0.00  0.00    -0.001 A 
ENDROOT
TORSDOF 0
ENDMDL
