MODEL 1
REMARK minimizedAffinity -5.46769762
REMARK minimizedRMSD -1
REMARK  0 active torsions:
REMARK  status: ('A' for Active; 'I' for Inactive)
ROOT
ATOM      1  C   UNL d   1       1.206   2.847   1.272  0.00  0.00     0.078 C 
ATOM      2  C1  UNL d   1       0.777   1.482   0.821  0.00  0.00    -0.077 A 
ATOM      3  C2  UNL d   1       1.572   0.727  -0.050  0.00  0.00    -0.001 A 
ATOM      4  C3  UNL d   1       1.155  -0.537  -0.469  0.00  0.00     0.003 A 
ATOM      5  C4  UNL d   1      -0.058  -1.058  -0.022  0.00  0.00    -0.005 A 
ATOM      6  C5  UNL d   1      -0.856  -0.313   0.844  0.00  0.00     0.003 A 
ATOM      7  C6  UNL d   1      -0.441   0.952   1.264  0.00  0.00    -0.001 A 
ENDROOT
TORSDOF 0
ENDMDL
