MODEL 1
REMARK minimizedAffinity -3.95482755
REMARK minimizedRMSD -1
REMARK  0 active torsions:
REMARK  status: ('A' for Active; 'I' for Inactive)
ROOT
ATOM      1  C   UNL d   1       1.612   2.563   0.044  0.00  0.00     0.078 C 
ATOM      2  C1  UNL d   1       1.212   1.124  -0.092  0.00  0.00    -0.077 A 
ATOM      3  C2  UNL d   1      -0.114   0.767  -0.363  0.00  0.00    -0.001 A 
ATOM      4  C3  UNL d   1      -0.474  -0.577  -0.477  0.00  0.00     0.003 A 
ATOM      5  C4  UNL d   1       0.486  -1.574  -0.321  0.00  0.00    -0.005 A 
ATOM      6  C5  UNL d   1       1.808  -1.228  -0.048  0.00  0.00     0.003 A 
ATOM      7  C6  UNL d   1       2.170   0.115   0.066  0.00  0.00    -0.001 A 
ENDROOT
TORSDOF 0
ENDMDL
