MODEL 1
REMARK minimizedAffinity -5.02683163
REMARK minimizedRMSD -1
REMARK  0 active torsions:
REMARK  status: ('A' for Active; 'I' for Inactive)
ROOT
ATOM      1  C   UNL d   1       2.236   1.662  -0.801  0.00  0.00     0.078 C 
ATOM      2  C1  UNL d   1       2.052   1.600   0.686  0.00  0.00    -0.077 A 
ATOM      3  C2  UNL d   1       3.039   1.048   1.512  0.00  0.00    -0.001 A 
ATOM      4  C3  UNL d   1       2.851   0.989   2.894  0.00  0.00     0.003 A 
ATOM      5  C4  UNL d   1       1.676   1.478   3.461  0.00  0.00    -0.005 A 
ATOM      6  C5  UNL d   1       0.687   2.027   2.647  0.00  0.00     0.003 A 
ATOM      7  C6  UNL d   1       0.874   2.088   1.265  0.00  0.00    -0.001 A 
ENDROOT
TORSDOF 0
ENDMDL
