MODEL 1
REMARK minimizedAffinity -1.96273553
REMARK minimizedRMSD -1
REMARK  0 active torsions:
REMARK  status: ('A' for Active; 'I' for Inactive)
ROOT
ATOM      1  C   UNL d   1      -1.244   0.748   2.244  0.00  0.00     0.078 C 
ATOM      2  C1  UNL d   1      -0.068   0.995   1.346  0.00  0.00    -0.077 A 
ATOM      3  C2  UNL d   1       0.528   2.260   1.270  0.00  0.00    -0.001 A 
ATOM      4  C3  UNL d   1       1.615   2.479   0.423  0.00  0.00     0.003 A 
ATOM      5  C4  UNL d   1       2.117   1.437  -0.355  0.00  0.00    -0.005 A 
ATOM      6  C5  UNL d   1       1.530   0.175  -0.287  0.00  0.00     0.003 A 
ATOM      7  C6  UNL d   1       0.442  -0.045   0.559  0.00  0.00    -0.001 A 
ENDROOT
TORSDOF 0
ENDMDL
