MODEL 1
REMARK minimizedAffinity -5.10732937
REMARK minimizedRMSD -1
REMARK  0 active torsions:
REMARK  status: ('A' for Active; 'I' for Inactive)
ROOT
ATOM      1  C   UNL d   1       1.165   2.483   0.719  0.00  0.00     0.078 C 
ATOM      2  C1  UNL d   1       0.867   1.060   0.351  0.00  0.00    -0.077 A 
ATOM      3  C2  UNL d   1       1.869   0.219  -0.147  0.00  0.00    -0.001 A 
ATOM      4  C3  UNL d   1       1.576  -1.100  -0.495  0.00  0.00     0.003 A 
ATOM      5  C4  UNL d   1       0.279  -1.590  -0.350  0.00  0.00    -0.005 A 
ATOM      6  C5  UNL d   1      -0.725  -0.760   0.143  0.00  0.00     0.003 A 
ATOM      7  C6  UNL d   1      -0.434   0.560   0.491  0.00  0.00    -0.001 A 
ENDROOT
TORSDOF 0
ENDMDL
