MODEL 1
REMARK minimizedAffinity -3.13208747
REMARK minimizedRMSD -1
REMARK  0 active torsions:
REMARK  status: ('A' for Active; 'I' for Inactive)
ROOT
ATOM      1  C   UNL d   1      -0.358  -1.412   0.211  0.00  0.00     0.078 C 
ATOM      2  C1  UNL d   1       0.593  -0.320  -0.179  0.00  0.00    -0.077 A 
ATOM      3  C2  UNL d   1       0.217   1.026  -0.100  0.00  0.00    -0.001 A 
ATOM      4  C3  UNL d   1       1.109   2.032  -0.476  0.00  0.00     0.003 A 
ATOM      5  C4  UNL d   1       2.382   1.702  -0.935  0.00  0.00    -0.005 A 
ATOM      6  C5  UNL d   1       2.765   0.365  -1.019  0.00  0.00     0.003 A 
ATOM      7  C6  UNL d   1       1.874  -0.642  -0.644  0.00  0.00    -0.001 A 
ENDROOT
TORSDOF 0
ENDMDL
