MODEL 1
REMARK minimizedAffinity -2.26913023
REMARK minimizedRMSD -1
REMARK  0 active torsions:
REMARK  status: ('A' for Active; 'I' for Inactive)
ROOT
ATOM      1  C   UNL d   1      -2.567  -0.635  -3.526  0.00  0.00     0.078 C 
ATOM      2  C1  UNL d   1      -1.724  -0.764  -2.292  0.00  0.00    -0.077 A 
ATOM      3  C2  UNL d   1      -1.096   0.353  -1.727  0.00  0.00    -0.001 A 
ATOM      4  C3  UNL d   1      -0.306   0.216  -0.585  0.00  0.00     0.003 A 
ATOM      5  C4  UNL d   1      -0.136  -1.037   0.002  0.00  0.00    -0.005 A 
ATOM      6  C5  UNL d   1      -0.754  -2.154  -0.555  0.00  0.00     0.003 A 
ATOM      7  C6  UNL d   1      -1.545  -2.019  -1.697  0.00  0.00    -0.001 A 
ENDROOT
TORSDOF 0
ENDMDL
