MODEL 1
REMARK minimizedAffinity -5.3336277
REMARK minimizedRMSD -1
REMARK  0 active torsions:
REMARK  status: ('A' for Active; 'I' for Inactive)
ROOT
ATOM      1  C   UNL d   1      -0.513  -1.417  -0.017  0.00  0.00     0.078 C 
ATOM      2  C1  UNL d   1      -0.007  -0.052   0.343  0.00  0.00    -0.077 A 
ATOM      3  C2  UNL d   1      -0.621   0.702   1.351  0.00  0.00    -0.001 A 
ATOM      4  C3  UNL d   1      -0.144   1.975   1.668  0.00  0.00     0.003 A 
ATOM      5  C4  UNL d   1       0.947   2.506   0.983  0.00  0.00    -0.005 A 
ATOM      6  C5  UNL d   1       1.562   1.763  -0.023  0.00  0.00     0.003 A 
ATOM      7  C6  UNL d   1       1.088   0.490  -0.342  0.00  0.00    -0.001 A 
ENDROOT
TORSDOF 0
ENDMDL
