MODEL 1
REMARK minimizedAffinity -3.68175435
REMARK minimizedRMSD -1
REMARK  0 active torsions:
REMARK  status: ('A' for Active; 'I' for Inactive)
ROOT
ATOM      1  C   UNL d   1       0.798   2.469   0.967  0.00  0.00     0.078 C 
ATOM      2  C1  UNL d   1       0.644   1.033   0.561  0.00  0.00    -0.077 A 
ATOM      3  C2  UNL d   1      -0.459   0.279   0.980  0.00  0.00    -0.001 A 
ATOM      4  C3  UNL d   1      -0.585  -1.058   0.603  0.00  0.00     0.003 A 
ATOM      5  C4  UNL d   1       0.389  -1.654  -0.196  0.00  0.00    -0.005 A 
ATOM      6  C5  UNL d   1       1.492  -0.913  -0.616  0.00  0.00     0.003 A 
ATOM      7  C6  UNL d   1       1.619   0.425  -0.239  0.00  0.00    -0.001 A 
ENDROOT
TORSDOF 0
ENDMDL
