MODEL 1
REMARK minimizedAffinity -4.9725399
REMARK minimizedRMSD -1
REMARK  0 active torsions:
REMARK  status: ('A' for Active; 'I' for Inactive)
ROOT
ATOM      1  C   UNL d   1       0.951   2.878   0.771  0.00  0.00     0.078 C 
ATOM      2  C1  UNL d   1       0.452   1.470   0.636  0.00  0.00    -0.077 A 
ATOM      3  C2  UNL d   1       1.185   0.510  -0.073  0.00  0.00    -0.001 A 
ATOM      4  C3  UNL d   1       0.704  -0.794  -0.199  0.00  0.00     0.003 A 
ATOM      5  C4  UNL d   1      -0.513  -1.150   0.380  0.00  0.00    -0.005 A 
ATOM      6  C5  UNL d   1      -1.251  -0.201   1.084  0.00  0.00     0.003 A 
ATOM      7  C6  UNL d   1      -0.771   1.104   1.212  0.00  0.00    -0.001 A 
ENDROOT
TORSDOF 0
ENDMDL
