MODEL 1
REMARK minimizedAffinity -5.0157733
REMARK minimizedRMSD -1
REMARK  0 active torsions:
REMARK  status: ('A' for Active; 'I' for Inactive)
ROOT
ATOM      1  C   UNL d   1       2.812  -0.498  -0.493  0.00  0.00     0.078 C 
ATOM      2  C1  UNL d   1       1.689   0.213   0.201  0.00  0.00    -0.077 A 
ATOM      3  C2  UNL d   1       1.630   1.611   0.231  0.00  0.00    -0.001 A 
ATOM      4  C3  UNL d   1       0.584   2.260   0.890  0.00  0.00     0.003 A 
ATOM      5  C4  UNL d   1      -0.410   1.517   1.524  0.00  0.00    -0.005 A 
ATOM      6  C5  UNL d   1      -0.358   0.125   1.502  0.00  0.00     0.003 A 
ATOM      7  C6  UNL d   1       0.687  -0.525   0.844  0.00  0.00    -0.001 A 
ENDROOT
TORSDOF 0
ENDMDL
