MODEL 1
REMARK minimizedAffinity -4.18790293
REMARK minimizedRMSD -1
REMARK  0 active torsions:
REMARK  status: ('A' for Active; 'I' for Inactive)
ROOT
ATOM      1  C2' OXE d   1       1.876   3.997  -1.813  0.00  0.00     0.078 C 
ATOM      2  C1' OXE d   1       0.978   3.691   0.829  0.00  0.00     0.078 C 
ATOM      3  C1  OXE d   1       1.188   2.443   0.008  0.00  0.00    -0.078 A 
ATOM      4  C2  OXE d   1       1.582   2.604  -1.298  0.00  0.00    -0.078 A 
ATOM      5  C3  OXE d   1       1.843   1.485  -2.083  0.00  0.00     0.003 A 
ATOM      6  C4  OXE d   1       1.559   0.201  -1.602  0.00  0.00    -0.002 A 
ATOM      7  C5  OXE d   1       1.118   0.016  -0.287  0.00  0.00    -0.002 A 
ATOM      8  C6  OXE d   1       0.969   1.121   0.543  0.00  0.00     0.003 A 
ENDROOT
TORSDOF 0
ENDMDL
