MODEL 1
REMARK minimizedAffinity -0.629254997
REMARK minimizedRMSD -1
REMARK  0 active torsions:
REMARK  status: ('A' for Active; 'I' for Inactive)
ROOT
ATOM      1  C2' OXE d   1       1.220   4.157  -1.107  0.00  0.00     0.078 C 
ATOM      2  C1' OXE d   1       0.862   2.459   1.099  0.00  0.00     0.078 C 
ATOM      3  C1  OXE d   1       1.090   1.822  -0.249  0.00  0.00    -0.078 A 
ATOM      4  C2  OXE d   1       1.218   2.660  -1.331  0.00  0.00    -0.078 A 
ATOM      5  C3  OXE d   1       1.485   2.127  -2.588  0.00  0.00     0.003 A 
ATOM      6  C4  OXE d   1       1.471   0.741  -2.788  0.00  0.00    -0.002 A 
ATOM      7  C5  OXE d   1       1.303  -0.130  -1.707  0.00  0.00    -0.002 A 
ATOM      8  C6  OXE d   1       1.155   0.393  -0.427  0.00  0.00     0.003 A 
ENDROOT
TORSDOF 0
ENDMDL
