MODEL 1
REMARK minimizedAffinity -2.16096497
REMARK minimizedRMSD -1
REMARK  0 active torsions:
REMARK  status: ('A' for Active; 'I' for Inactive)
ROOT
ATOM      1  C2' OXE d   1       0.894  -0.479  -0.055  0.00  0.00     0.078 C 
ATOM      2  C1' OXE d   1       1.372   1.575   1.799  0.00  0.00     0.078 C 
ATOM      3  C1  OXE d   1       1.430   1.923   0.332  0.00  0.00    -0.078 A 
ATOM      4  C2  OXE d   1       1.241   0.902  -0.568  0.00  0.00    -0.078 A 
ATOM      5  C3  OXE d   1       1.230   1.179  -1.932  0.00  0.00     0.003 A 
ATOM      6  C4  OXE d   1       1.562   2.457  -2.398  0.00  0.00    -0.002 A 
ATOM      7  C5  OXE d   1       1.797   3.502  -1.499  0.00  0.00    -0.002 A 
ATOM      8  C6  OXE d   1       1.694   3.262  -0.133  0.00  0.00     0.003 A 
ENDROOT
TORSDOF 0
ENDMDL
