MODEL 1
REMARK minimizedAffinity -3.46828938
REMARK minimizedRMSD -1
REMARK  0 active torsions:
REMARK  status: ('A' for Active; 'I' for Inactive)
ROOT
ATOM      1  C2' OXE d   1       1.024   0.024  -0.575  0.00  0.00     0.078 C 
ATOM      2  C1' OXE d   1       1.370   1.452   1.817  0.00  0.00     0.078 C 
ATOM      3  C1  OXE d   1       1.394   2.229   0.524  0.00  0.00    -0.078 A 
ATOM      4  C2  OXE d   1       1.271   1.516  -0.644  0.00  0.00    -0.078 A 
ATOM      5  C3  OXE d   1       1.232   2.189  -1.861  0.00  0.00     0.003 A 
ATOM      6  C4  OXE d   1       1.471   3.568  -1.917  0.00  0.00    -0.002 A 
ATOM      7  C5  OXE d   1       1.638   4.307  -0.741  0.00  0.00    -0.002 A 
ATOM      8  C6  OXE d   1       1.560   3.661   0.487  0.00  0.00     0.003 A 
ENDROOT
TORSDOF 0
ENDMDL
