MODEL 1
REMARK minimizedAffinity -2.63856363
REMARK minimizedRMSD -1
REMARK  0 active torsions:
REMARK  status: ('A' for Active; 'I' for Inactive)
ROOT
ATOM      1  C2' OXE d   1       1.315   1.131  -3.263  0.00  0.00     0.078 C 
ATOM      2  C1' OXE d   1       2.150   3.359  -1.773  0.00  0.00     0.078 C 
ATOM      3  C1  OXE d   1       1.645   2.156  -1.016  0.00  0.00    -0.078 A 
ATOM      4  C2  OXE d   1       1.195   1.088  -1.754  0.00  0.00    -0.078 A 
ATOM      5  C3  OXE d   1       0.770  -0.068  -1.106  0.00  0.00     0.003 A 
ATOM      6  C4  OXE d   1       0.653  -0.096   0.289  0.00  0.00    -0.002 A 
ATOM      7  C5  OXE d   1       1.068   0.996   1.058  0.00  0.00    -0.002 A 
ATOM      8  C6  OXE d   1       1.606   2.111   0.425  0.00  0.00     0.003 A 
ENDROOT
TORSDOF 0
ENDMDL
