MODEL 1
REMARK minimizedAffinity 0.127736032
REMARK minimizedRMSD -1
REMARK  0 active torsions:
REMARK  status: ('A' for Active; 'I' for Inactive)
ROOT
ATOM      1  C2' OXE d   1       1.921   3.983  -1.090  0.00  0.00     0.078 C 
ATOM      2  C1' OXE d   1       1.719   2.689   1.393  0.00  0.00     0.078 C 
ATOM      3  C1  OXE d   1       1.538   1.856   0.149  0.00  0.00    -0.078 A 
ATOM      4  C2  OXE d   1       1.593   2.506  -1.060  0.00  0.00    -0.078 A 
ATOM      5  C3  OXE d   1       1.487   1.775  -2.241  0.00  0.00     0.003 A 
ATOM      6  C4  OXE d   1       1.173   0.411  -2.205  0.00  0.00    -0.002 A 
ATOM      7  C5  OXE d   1       1.074  -0.262  -0.982  0.00  0.00    -0.002 A 
ATOM      8  C6  OXE d   1       1.296   0.435   0.200  0.00  0.00     0.003 A 
ENDROOT
TORSDOF 0
ENDMDL
