MODEL 1
REMARK minimizedAffinity 9.90098667
REMARK minimizedRMSD -1
REMARK  0 active torsions:
REMARK  status: ('A' for Active; 'I' for Inactive)
ROOT
ATOM      1  C2' OXE d   1      -5.579   1.252   3.303  0.00  0.00     0.078 C 
ATOM      2  C1' OXE d   1      -3.292   1.780   4.843  0.00  0.00     0.078 C 
ATOM      3  C1  OXE d   1      -3.367   2.387   3.464  0.00  0.00    -0.078 A 
ATOM      4  C2  OXE d   1      -4.469   2.086   2.700  0.00  0.00    -0.078 A 
ATOM      5  C3  OXE d   1      -4.615   2.664   1.442  0.00  0.00     0.003 A 
ATOM      6  C4  OXE d   1      -3.579   3.426   0.888  0.00  0.00    -0.002 A 
ATOM      7  C5  OXE d   1      -2.431   3.712   1.634  0.00  0.00    -0.002 A 
ATOM      8  C6  OXE d   1      -2.328   3.237   2.937  0.00  0.00     0.003 A 
ENDROOT
TORSDOF 0
ENDMDL
