MODEL 1
REMARK minimizedAffinity 0.703214109
REMARK minimizedRMSD -1
REMARK  0 active torsions:
REMARK  status: ('A' for Active; 'I' for Inactive)
ROOT
ATOM      1  C2' OXE d   1       2.451  -1.283   0.146  0.00  0.00     0.078 C 
ATOM      2  C1' OXE d   1       1.246  -0.641  -2.307  0.00  0.00     0.078 C 
ATOM      3  C1  OXE d   1       0.763  -1.877  -1.588  0.00  0.00    -0.078 A 
ATOM      4  C2  OXE d   1       1.391  -2.209  -0.411  0.00  0.00    -0.078 A 
ATOM      5  C3  OXE d   1       0.948  -3.308   0.320  0.00  0.00     0.003 A 
ATOM      6  C4  OXE d   1      -0.026  -4.164  -0.208  0.00  0.00    -0.002 A 
ATOM      7  C5  OXE d   1      -0.650  -3.866  -1.424  0.00  0.00    -0.002 A 
ATOM      8  C6  OXE d   1      -0.298  -2.705  -2.104  0.00  0.00     0.003 A 
ENDROOT
TORSDOF 0
ENDMDL
