MODEL 1
REMARK minimizedAffinity -1.8985461
REMARK minimizedRMSD -1
REMARK  0 active torsions:
REMARK  status: ('A' for Active; 'I' for Inactive)
ROOT
ATOM      1  C2' OXE d   1       1.227  -0.010  -1.540  0.00  0.00     0.078 C 
ATOM      2  C1' OXE d   1       2.119   0.735   1.016  0.00  0.00     0.078 C 
ATOM      3  C1  OXE d   1       1.692   1.832   0.072  0.00  0.00    -0.078 A 
ATOM      4  C2  OXE d   1       1.301   1.461  -1.192  0.00  0.00    -0.078 A 
ATOM      5  C3  OXE d   1       0.846   2.428  -2.084  0.00  0.00     0.003 A 
ATOM      6  C4  OXE d   1       0.927   3.787  -1.758  0.00  0.00    -0.002 A 
ATOM      7  C5  OXE d   1       1.360   4.189  -0.490  0.00  0.00    -0.002 A 
ATOM      8  C6  OXE d   1       1.705   3.223   0.450  0.00  0.00     0.003 A 
ENDROOT
TORSDOF 0
ENDMDL
