MODEL 1
REMARK minimizedAffinity 1.36979342
REMARK minimizedRMSD -1
REMARK  0 active torsions:
REMARK  status: ('A' for Active; 'I' for Inactive)
ROOT
ATOM      1  C2' OXE d   1       1.636   4.320  -1.545  0.00  0.00     0.078 C 
ATOM      2  C1' OXE d   1       1.364   3.876   1.213  0.00  0.00     0.078 C 
ATOM      3  C1  OXE d   1       1.355   2.673   0.303  0.00  0.00    -0.078 A 
ATOM      4  C2  OXE d   1       1.442   2.903  -1.049  0.00  0.00    -0.078 A 
ATOM      5  C3  OXE d   1       1.493   1.826  -1.929  0.00  0.00     0.003 A 
ATOM      6  C4  OXE d   1       1.303   0.520  -1.463  0.00  0.00    -0.002 A 
ATOM      7  C5  OXE d   1       1.173   0.267  -0.093  0.00  0.00    -0.002 A 
ATOM      8  C6  OXE d   1       1.239   1.326   0.805  0.00  0.00     0.003 A 
ENDROOT
TORSDOF 0
ENDMDL
