MODEL 1
REMARK minimizedAffinity -6.02258873
REMARK minimizedRMSD -1
REMARK  0 active torsions:
REMARK  status: ('A' for Active; 'I' for Inactive)
ROOT
ATOM      1  C2' OXE d   1       1.776   4.514  -0.576  0.00  0.00     0.078 C 
ATOM      2  C1' OXE d   1       1.342   3.463   1.991  0.00  0.00     0.078 C 
ATOM      3  C1  OXE d   1       1.220   2.524   0.817  0.00  0.00    -0.078 A 
ATOM      4  C2  OXE d   1       1.388   3.057  -0.438  0.00  0.00    -0.078 A 
ATOM      5  C3  OXE d   1       1.340   2.224  -1.553  0.00  0.00     0.003 A 
ATOM      6  C4  OXE d   1       0.971   0.880  -1.418  0.00  0.00    -0.002 A 
ATOM      7  C5  OXE d   1       0.757   0.327  -0.151  0.00  0.00    -0.002 A 
ATOM      8  C6  OXE d   1       0.918   1.123   0.977  0.00  0.00     0.003 A 
ENDROOT
TORSDOF 0
ENDMDL
