MODEL 1
REMARK minimizedAffinity -4.00578976
REMARK minimizedRMSD -1
REMARK  0 active torsions:
REMARK  status: ('A' for Active; 'I' for Inactive)
ROOT
ATOM      1  C2' OXE d   1       0.795  -0.526  -0.616  0.00  0.00     0.078 C 
ATOM      2  C1' OXE d   1       0.796   0.882   1.813  0.00  0.00     0.078 C 
ATOM      3  C1  OXE d   1       0.954   1.675   0.539  0.00  0.00    -0.078 A 
ATOM      4  C2  OXE d   1       1.000   0.973  -0.641  0.00  0.00    -0.078 A 
ATOM      5  C3  OXE d   1       1.089   1.660  -1.849  0.00  0.00     0.003 A 
ATOM      6  C4  OXE d   1       1.288   3.046  -1.863  0.00  0.00    -0.002 A 
ATOM      7  C5  OXE d   1       1.285   3.776  -0.669  0.00  0.00    -0.002 A 
ATOM      8  C6  OXE d   1       1.077   3.112   0.535  0.00  0.00     0.003 A 
ENDROOT
TORSDOF 0
ENDMDL
