MODEL 1
REMARK minimizedAffinity 6.68995571
REMARK minimizedRMSD -1
REMARK  0 active torsions:
REMARK  status: ('A' for Active; 'I' for Inactive)
ROOT
ATOM      1  C2' OXE d   1       1.939   2.550  -1.398  0.00  0.00     0.078 C 
ATOM      2  C1' OXE d   1       2.134   1.901   1.326  0.00  0.00     0.078 C 
ATOM      3  C1  OXE d   1       1.614   0.842   0.386  0.00  0.00    -0.078 A 
ATOM      4  C2  OXE d   1       1.478   1.184  -0.938  0.00  0.00    -0.078 A 
ATOM      5  C3  OXE d   1       1.056   0.228  -1.857  0.00  0.00     0.003 A 
ATOM      6  C4  OXE d   1       0.622  -1.031  -1.421  0.00  0.00    -0.002 A 
ATOM      7  C5  OXE d   1       0.715  -1.385  -0.071  0.00  0.00    -0.002 A 
ATOM      8  C6  OXE d   1       1.247  -0.477   0.837  0.00  0.00     0.003 A 
ENDROOT
TORSDOF 0
ENDMDL
