MODEL 1
REMARK minimizedAffinity -2.20846558
REMARK minimizedRMSD -1
REMARK  0 active torsions:
REMARK  status: ('A' for Active; 'I' for Inactive)
ROOT
ATOM      1  C2' OXE d   1       1.372   3.534  -1.295  0.00  0.00     0.078 C 
ATOM      2  C1' OXE d   1       1.114   2.101   1.104  0.00  0.00     0.078 C 
ATOM      3  C1  OXE d   1       1.103   1.320  -0.186  0.00  0.00    -0.078 A 
ATOM      4  C2  OXE d   1       1.184   2.034  -1.358  0.00  0.00    -0.078 A 
ATOM      5  C3  OXE d   1       1.234   1.359  -2.574  0.00  0.00     0.003 A 
ATOM      6  C4  OXE d   1       1.049  -0.028  -2.623  0.00  0.00    -0.002 A 
ATOM      7  C5  OXE d   1       0.925  -0.770  -1.444  0.00  0.00    -0.002 A 
ATOM      8  C6  OXE d   1       0.993  -0.118  -0.218  0.00  0.00     0.003 A 
ENDROOT
TORSDOF 0
ENDMDL
