MODEL 1
REMARK minimizedAffinity -2.72300553
REMARK minimizedRMSD -1
REMARK  0 active torsions:
REMARK  status: ('A' for Active; 'I' for Inactive)
ROOT
ATOM      1  C2' OXE d   1       0.920   1.354   1.851  0.00  0.00     0.078 C 
ATOM      2  C1' OXE d   1       0.729  -0.618  -0.137  0.00  0.00     0.078 C 
ATOM      3  C1  OXE d   1       1.088   0.782  -0.567  0.00  0.00    -0.078 A 
ATOM      4  C2  OXE d   1       1.133   1.750   0.406  0.00  0.00    -0.078 A 
ATOM      5  C3  OXE d   1       1.513   3.047   0.071  0.00  0.00     0.003 A 
ATOM      6  C4  OXE d   1       1.699   3.408  -1.269  0.00  0.00    -0.002 A 
ATOM      7  C5  OXE d   1       1.618   2.445  -2.281  0.00  0.00    -0.002 A 
ATOM      8  C6  OXE d   1       1.356   1.122  -1.943  0.00  0.00     0.003 A 
ENDROOT
TORSDOF 0
ENDMDL
