MODEL 1
REMARK minimizedAffinity -2.41255593
REMARK minimizedRMSD -1
REMARK  0 active torsions:
REMARK  status: ('A' for Active; 'I' for Inactive)
ROOT
ATOM      1  C2' OXE d   1       1.410   3.898  -1.081  0.00  0.00     0.078 C 
ATOM      2  C1' OXE d   1       0.442   2.751   1.292  0.00  0.00     0.078 C 
ATOM      3  C1  OXE d   1       0.883   1.821   0.190  0.00  0.00    -0.078 A 
ATOM      4  C2  OXE d   1       1.311   2.391  -0.985  0.00  0.00    -0.078 A 
ATOM      5  C3  OXE d   1       1.781   1.579  -2.014  0.00  0.00     0.003 A 
ATOM      6  C4  OXE d   1       1.677   0.186  -1.921  0.00  0.00    -0.002 A 
ATOM      7  C5  OXE d   1       1.207  -0.415  -0.749  0.00  0.00    -0.002 A 
ATOM      8  C6  OXE d   1       0.847   0.386   0.330  0.00  0.00     0.003 A 
ENDROOT
TORSDOF 0
ENDMDL
