MODEL 1
REMARK minimizedAffinity -2.21194744
REMARK minimizedRMSD -1
REMARK  0 active torsions:
REMARK  status: ('A' for Active; 'I' for Inactive)
ROOT
ATOM      1  C2' OXE d   1       1.510   4.547  -1.111  0.00  0.00     0.078 C 
ATOM      2  C1' OXE d   1       0.073   2.941  -2.910  0.00  0.00     0.078 C 
ATOM      3  C1  OXE d   1       0.673   2.275  -1.697  0.00  0.00    -0.078 A 
ATOM      4  C2  OXE d   1       1.414   3.060  -0.846  0.00  0.00    -0.078 A 
ATOM      5  C3  OXE d   1       1.944   2.507   0.316  0.00  0.00     0.003 A 
ATOM      6  C4  OXE d   1       1.859   1.129   0.548  0.00  0.00    -0.002 A 
ATOM      7  C5  OXE d   1       1.143   0.304  -0.326  0.00  0.00    -0.002 A 
ATOM      8  C6  OXE d   1       0.509   0.868  -1.428  0.00  0.00     0.003 A 
ENDROOT
TORSDOF 0
ENDMDL
