MODEL 1
REMARK minimizedAffinity -3.00513983
REMARK minimizedRMSD -1
REMARK  0 active torsions:
REMARK  status: ('A' for Active; 'I' for Inactive)
ROOT
ATOM      1  C2' OXE d   1       1.428   3.710  -1.066  0.00  0.00     0.078 C 
ATOM      2  C1' OXE d   1       0.726   2.394   1.312  0.00  0.00     0.078 C 
ATOM      3  C1  OXE d   1       1.056   1.545   0.109  0.00  0.00    -0.078 A 
ATOM      4  C2  OXE d   1       1.353   2.198  -1.063  0.00  0.00    -0.078 A 
ATOM      5  C3  OXE d   1       1.718   1.464  -2.188  0.00  0.00     0.003 A 
ATOM      6  C4  OXE d   1       1.636   0.066  -2.179  0.00  0.00    -0.002 A 
ATOM      7  C5  OXE d   1       1.297  -0.618  -1.007  0.00  0.00    -0.002 A 
ATOM      8  C6  OXE d   1       1.046   0.104   0.155  0.00  0.00     0.003 A 
ENDROOT
TORSDOF 0
ENDMDL
