MODEL 1
REMARK minimizedAffinity -3.67460823
REMARK minimizedRMSD -1
REMARK  0 active torsions:
REMARK  status: ('A' for Active; 'I' for Inactive)
ROOT
ATOM      1  C2' OXE d   1       0.716   1.173   1.400  0.00  0.00     0.078 C 
ATOM      2  C1' OXE d   1       1.322  -0.683  -0.617  0.00  0.00     0.078 C 
ATOM      3  C1  OXE d   1       1.323   0.780  -0.984  0.00  0.00    -0.078 A 
ATOM      4  C2  OXE d   1       0.980   1.678  -0.002  0.00  0.00    -0.078 A 
ATOM      5  C3  OXE d   1       1.019   3.043  -0.272  0.00  0.00     0.003 A 
ATOM      6  C4  OXE d   1       1.254   3.502  -1.574  0.00  0.00    -0.002 A 
ATOM      7  C5  OXE d   1       1.567   2.601  -2.598  0.00  0.00    -0.002 A 
ATOM      8  C6  OXE d   1       1.647   1.243  -2.310  0.00  0.00     0.003 A 
ENDROOT
TORSDOF 0
ENDMDL
