MODEL 1
REMARK minimizedAffinity 1.92547596
REMARK minimizedRMSD -1
REMARK  0 active torsions:
REMARK  status: ('A' for Active; 'I' for Inactive)
ROOT
ATOM      1  C2' OXE d   1      -1.992   0.691   4.630  0.00  0.00     0.078 C 
ATOM      2  C1' OXE d   1      -3.890   2.759   4.683  0.00  0.00     0.078 C 
ATOM      3  C1  OXE d   1      -4.329   1.414   4.159  0.00  0.00    -0.078 A 
ATOM      4  C2  OXE d   1      -3.381   0.421   4.093  0.00  0.00    -0.078 A 
ATOM      5  C3  OXE d   1      -3.746  -0.854   3.669  0.00  0.00     0.003 A 
ATOM      6  C4  OXE d   1      -5.030  -1.092   3.165  0.00  0.00    -0.002 A 
ATOM      7  C5  OXE d   1      -5.999  -0.084   3.186  0.00  0.00    -0.002 A 
ATOM      8  C6  OXE d   1      -5.678   1.160   3.718  0.00  0.00     0.003 A 
ENDROOT
TORSDOF 0
ENDMDL
