MODEL 1
REMARK minimizedAffinity 0.943783879
REMARK minimizedRMSD -1
REMARK  1 active torsions:
REMARK  status: ('A' for Active; 'I' for Inactive)
REMARK    1  A    between atoms: N_2  and  C1_3 
ROOT
ATOM      1  C1  UNL d   1       0.931   0.867   0.617  0.00  0.00     0.143 A 
ATOM      2  C2  UNL d   1       1.164   0.420  -0.688  0.00  0.00    -0.057 A 
ATOM      3  C3  UNL d   1       1.654   1.283  -1.675  0.00  0.00     0.033 A 
ATOM      4  C4  UNL d   1       1.894   2.622  -1.380  0.00  0.00    -0.042 A 
ATOM      5  C5  UNL d   1       1.646   3.094  -0.096  0.00  0.00     0.033 A 
ATOM      6  C6  UNL d   1       1.163   2.225   0.887  0.00  0.00    -0.057 A 
ENDROOT
BRANCH   1   7
ATOM      7  N   UNL d   1       0.352   0.082   1.617  0.00  0.00    -0.732 N 
ATOM      8  C   UNL d   1      -0.057   0.671   2.874  0.00  0.00     0.284 C 
ATOM      9  H3  UNL d   1      -0.306  -0.599   1.244  0.00  0.00     0.395 HD
ENDBRANCH   1   7
TORSDOF 1
ENDMDL
