MODEL 1
REMARK minimizedAffinity 2.02674389
REMARK minimizedRMSD -1
REMARK  1 active torsions:
REMARK  status: ('A' for Active; 'I' for Inactive)
REMARK    1  A    between atoms: N_2  and  C1_3 
ROOT
ATOM      1  C1  UNL d   1      -0.638   5.651  -4.735  0.00  0.00     0.143 A 
ATOM      2  C2  UNL d   1      -2.021   5.855  -4.678  0.00  0.00    -0.057 A 
ATOM      3  C3  UNL d   1      -2.684   5.999  -3.454  0.00  0.00     0.033 A 
ATOM      4  C4  UNL d   1      -1.977   5.911  -2.259  0.00  0.00    -0.042 A 
ATOM      5  C5  UNL d   1      -0.606   5.684  -2.290  0.00  0.00     0.033 A 
ATOM      6  C6  UNL d   1       0.051   5.548  -3.517  0.00  0.00    -0.057 A 
ENDROOT
BRANCH   1   7
ATOM      7  N   UNL d   1       0.063   5.402  -5.917  0.00  0.00    -0.732 N 
ATOM      8  C   UNL d   1       1.509   5.458  -5.942  0.00  0.00     0.284 C 
ATOM      9  H3  UNL d   1      -0.332   4.629  -6.448  0.00  0.00     0.395 HD
ENDBRANCH   1   7
TORSDOF 1
ENDMDL
