MODEL 1
REMARK minimizedAffinity 6.77006435
REMARK minimizedRMSD -1
REMARK  1 active torsions:
REMARK  status: ('A' for Active; 'I' for Inactive)
REMARK    1  A    between atoms: N_2  and  C1_3 
ROOT
ATOM      1  C1  UNL d   1      -2.388  -1.722  -3.579  0.00  0.00     0.143 A 
ATOM      2  C2  UNL d   1      -2.381  -1.031  -4.796  0.00  0.00    -0.057 A 
ATOM      3  C3  UNL d   1      -1.189  -0.800  -5.493  0.00  0.00     0.033 A 
ATOM      4  C4  UNL d   1       0.025  -1.233  -4.969  0.00  0.00    -0.042 A 
ATOM      5  C5  UNL d   1       0.045  -1.900  -3.749  0.00  0.00     0.033 A 
ATOM      6  C6  UNL d   1      -1.150  -2.133  -3.061  0.00  0.00    -0.057 A 
ENDROOT
BRANCH   1   7
ATOM      7  N   UNL d   1      -3.528  -1.897  -2.790  0.00  0.00    -0.732 N 
ATOM      8  C   UNL d   1      -3.461  -1.740  -1.353  0.00  0.00     0.284 C 
ATOM      9  H3  UNL d   1      -4.360  -1.492  -3.215  0.00  0.00     0.395 HD
ENDBRANCH   1   7
TORSDOF 1
ENDMDL
