MODEL 1
REMARK minimizedAffinity 0.47999382
REMARK minimizedRMSD -1
REMARK  1 active torsions:
REMARK  status: ('A' for Active; 'I' for Inactive)
REMARK    1  A    between atoms: N_2  and  C1_3 
ROOT
ATOM      1  C1  UNL d   1       1.375   5.999  -5.129  0.00  0.00     0.143 A 
ATOM      2  C2  UNL d   1       0.104   5.986  -5.714  0.00  0.00    -0.057 A 
ATOM      3  C3  UNL d   1      -1.056   6.000  -4.931  0.00  0.00     0.033 A 
ATOM      4  C4  UNL d   1      -0.966   5.998  -3.543  0.00  0.00    -0.042 A 
ATOM      5  C5  UNL d   1       0.287   5.986  -2.939  0.00  0.00     0.033 A 
ATOM      6  C6  UNL d   1       1.442   5.979  -3.727  0.00  0.00    -0.057 A 
ENDROOT
BRANCH   1   7
ATOM      7  N   UNL d   1       2.565   5.886  -5.852  0.00  0.00    -0.732 N 
ATOM      8  C   UNL d   1       3.842   5.880  -5.172  0.00  0.00     0.284 C 
ATOM      9  H3  UNL d   1       2.495   5.214  -6.613  0.00  0.00     0.395 HD
ENDBRANCH   1   7
TORSDOF 1
ENDMDL
