MODEL 1
REMARK minimizedAffinity 2.43635535
REMARK minimizedRMSD -1
REMARK  1 active torsions:
REMARK  status: ('A' for Active; 'I' for Inactive)
REMARK    1  A    between atoms: N_2  and  C1_3 
ROOT
ATOM      1  C1  UNL d   1      -3.620   5.882  -3.588  0.00  0.00     0.143 A 
ATOM      2  C2  UNL d   1      -2.462   5.997  -4.365  0.00  0.00    -0.057 A 
ATOM      3  C3  UNL d   1      -1.190   5.974  -3.780  0.00  0.00     0.033 A 
ATOM      4  C4  UNL d   1      -1.055   5.865  -2.400  0.00  0.00    -0.042 A 
ATOM      5  C5  UNL d   1      -2.193   5.774  -1.606  0.00  0.00     0.033 A 
ATOM      6  C6  UNL d   1      -3.460   5.791  -2.197  0.00  0.00    -0.057 A 
ENDROOT
BRANCH   1   7
ATOM      7  N   UNL d   1      -4.915   5.997  -4.100  0.00  0.00    -0.732 N 
ATOM      8  C   UNL d   1      -5.145   5.999  -5.529  0.00  0.00     0.284 C 
ATOM      9  H3  UNL d   1      -5.592   5.453  -3.570  0.00  0.00     0.395 HD
ENDBRANCH   1   7
TORSDOF 1
ENDMDL
