MODEL 1
REMARK minimizedAffinity 6.62330437
REMARK minimizedRMSD -1
REMARK  1 active torsions:
REMARK  status: ('A' for Active; 'I' for Inactive)
REMARK    1  A    between atoms: N_2  and  C1_3 
ROOT
ATOM      1  C1  UNL d   1       2.588   5.366  -5.457  0.00  0.00     0.143 A 
ATOM      2  C2  UNL d   1       3.823   5.996  -5.277  0.00  0.00    -0.057 A 
ATOM      3  C3  UNL d   1       4.886   5.343  -4.640  0.00  0.00     0.033 A 
ATOM      4  C4  UNL d   1       4.721   4.054  -4.145  0.00  0.00    -0.042 A 
ATOM      5  C5  UNL d   1       3.494   3.417  -4.291  0.00  0.00     0.033 A 
ATOM      6  C6  UNL d   1       2.439   4.072  -4.934  0.00  0.00    -0.057 A 
ENDROOT
BRANCH   1   7
ATOM      7  N   UNL d   1       1.463   5.997  -5.995  0.00  0.00    -0.732 N 
ATOM      8  C   UNL d   1       0.201   5.983  -5.287  0.00  0.00     0.284 C 
ATOM      9  H3  UNL d   1       1.688   6.891  -6.425  0.00  0.00     0.395 HD
ENDBRANCH   1   7
TORSDOF 1
ENDMDL
