MODEL 1
REMARK minimizedAffinity -2.44529486
REMARK minimizedRMSD -1
REMARK  1 active torsions:
REMARK  status: ('A' for Active; 'I' for Inactive)
REMARK    1  A    between atoms: N_2  and  C1_3 
ROOT
ATOM      1  C1  UNL d   1      -1.081   5.981  -3.505  0.00  0.00     0.143 A 
ATOM      2  C2  UNL d   1       0.317   5.967  -3.536  0.00  0.00    -0.057 A 
ATOM      3  C3  UNL d   1       1.015   5.848  -4.744  0.00  0.00     0.033 A 
ATOM      4  C4  UNL d   1       0.324   5.711  -5.943  0.00  0.00    -0.042 A 
ATOM      5  C5  UNL d   1      -1.067   5.698  -5.933  0.00  0.00     0.033 A 
ATOM      6  C6  UNL d   1      -1.758   5.823  -4.724  0.00  0.00    -0.057 A 
ENDROOT
BRANCH   1   7
ATOM      7  N   UNL d   1      -1.833   5.997  -2.327  0.00  0.00    -0.732 N 
ATOM      8  C   UNL d   1      -3.279   6.000  -2.375  0.00  0.00     0.284 C 
ATOM      9  H3  UNL d   1      -1.442   5.391  -1.609  0.00  0.00     0.395 HD
ENDBRANCH   1   7
TORSDOF 1
ENDMDL
