MODEL 1
REMARK minimizedAffinity 5.22826958
REMARK minimizedRMSD -1
REMARK  1 active torsions:
REMARK  status: ('A' for Active; 'I' for Inactive)
REMARK    1  A    between atoms: N_2  and  C1_3 
ROOT
ATOM      1  C1  UNL d   1      -1.976   5.920  -2.319  0.00  0.00     0.143 A 
ATOM      2  C2  UNL d   1      -1.177   5.941  -1.171  0.00  0.00    -0.057 A 
ATOM      3  C3  UNL d   1      -1.744   5.963   0.109  0.00  0.00     0.033 A 
ATOM      4  C4  UNL d   1      -3.126   5.993   0.263  0.00  0.00    -0.042 A 
ATOM      5  C5  UNL d   1      -3.940   5.998  -0.864  0.00  0.00     0.033 A 
ATOM      6  C6  UNL d   1      -3.368   5.969  -2.139  0.00  0.00    -0.057 A 
ENDROOT
BRANCH   1   7
ATOM      7  N   UNL d   1      -1.472   5.998  -3.619  0.00  0.00    -0.732 N 
ATOM      8  C   UNL d   1      -0.045   5.991  -3.859  0.00  0.00     0.284 C 
ATOM      9  H3  UNL d   1      -2.007   5.435  -4.277  0.00  0.00     0.395 HD
ENDBRANCH   1   7
TORSDOF 1
ENDMDL
