MODEL 1
REMARK minimizedAffinity 8.59291553
REMARK minimizedRMSD -1
REMARK  1 active torsions:
REMARK  status: ('A' for Active; 'I' for Inactive)
REMARK    1  A    between atoms: N_2  and  C1_3 
ROOT
ATOM      1  C1  UNL d   1      -1.570   0.804   2.690  0.00  0.00     0.143 A 
ATOM      2  C2  UNL d   1      -2.514   1.044   1.686  0.00  0.00    -0.057 A 
ATOM      3  C3  UNL d   1      -2.236   0.758   0.344  0.00  0.00     0.033 A 
ATOM      4  C4  UNL d   1      -0.993   0.251  -0.022  0.00  0.00    -0.042 A 
ATOM      5  C5  UNL d   1      -0.031   0.028   0.956  0.00  0.00     0.033 A 
ATOM      6  C6  UNL d   1      -0.317   0.310   2.295  0.00  0.00    -0.057 A 
ENDROOT
BRANCH   1   7
ATOM      7  N   UNL d   1      -1.751   1.159   4.029  0.00  0.00    -0.732 N 
ATOM      8  C   UNL d   1      -0.839   0.683   5.047  0.00  0.00     0.284 C 
ATOM      9  H3  UNL d   1      -2.025   2.133   4.138  0.00  0.00     0.395 HD
ENDBRANCH   1   7
TORSDOF 1
ENDMDL
