MODEL 1
REMARK minimizedAffinity -2.87971282
REMARK minimizedRMSD -1
REMARK  1 active torsions:
REMARK  status: ('A' for Active; 'I' for Inactive)
REMARK    1  A    between atoms: N_2  and  C1_3 
ROOT
ATOM      1  C1  UNL d   1       0.426   5.294  -3.948  0.00  0.00     0.143 A 
ATOM      2  C2  UNL d   1       0.179   4.395  -4.992  0.00  0.00    -0.057 A 
ATOM      3  C3  UNL d   1       1.126   4.174  -5.999  0.00  0.00     0.033 A 
ATOM      4  C4  UNL d   1       2.329   4.871  -5.996  0.00  0.00    -0.042 A 
ATOM      5  C5  UNL d   1       2.586   5.787  -4.983  0.00  0.00     0.033 A 
ATOM      6  C6  UNL d   1       1.640   5.999  -3.976  0.00  0.00    -0.057 A 
ENDROOT
BRANCH   1   7
ATOM      7  N   UNL d   1      -0.515   5.631  -2.972  0.00  0.00    -0.732 N 
ATOM      8  C   UNL d   1      -1.864   5.996  -3.345  0.00  0.00     0.284 C 
ATOM      9  H3  UNL d   1      -0.457   5.029  -2.153  0.00  0.00     0.395 HD
ENDBRANCH   1   7
TORSDOF 1
ENDMDL
