MODEL 1
REMARK minimizedAffinity 2.38413596
REMARK minimizedRMSD -1
REMARK  1 active torsions:
REMARK  status: ('A' for Active; 'I' for Inactive)
REMARK    1  A    between atoms: N_2  and  C1_3 
ROOT
ATOM      1  C1  UNL d   1       1.392   5.894  -4.912  0.00  0.00     0.143 A 
ATOM      2  C2  UNL d   1       1.679   5.959  -3.544  0.00  0.00    -0.057 A 
ATOM      3  C3  UNL d   1       0.657   5.996  -2.588  0.00  0.00     0.033 A 
ATOM      4  C4  UNL d   1      -0.676   5.999  -2.986  0.00  0.00    -0.042 A 
ATOM      5  C5  UNL d   1      -0.985   5.960  -4.341  0.00  0.00     0.033 A 
ATOM      6  C6  UNL d   1       0.040   5.916  -5.291  0.00  0.00    -0.057 A 
ENDROOT
BRANCH   1   7
ATOM      7  N   UNL d   1       2.363   5.954  -5.914  0.00  0.00    -0.732 N 
ATOM      8  C   UNL d   1       3.762   5.771  -5.597  0.00  0.00     0.284 C 
ATOM      9  H3  UNL d   1       2.066   5.489  -6.770  0.00  0.00     0.395 HD
ENDBRANCH   1   7
TORSDOF 1
ENDMDL
