MODEL 1
REMARK minimizedAffinity 6.66012144
REMARK minimizedRMSD -1
REMARK  1 active torsions:
REMARK  status: ('A' for Active; 'I' for Inactive)
REMARK    1  A    between atoms: N_2  and  C1_3 
ROOT
ATOM      1  C1  UNL d   1      -2.975  -1.766  -2.893  0.00  0.00     0.143 A 
ATOM      2  C2  UNL d   1      -2.859  -1.150  -1.642  0.00  0.00    -0.057 A 
ATOM      3  C3  UNL d   1      -3.341  -1.766  -0.481  0.00  0.00     0.033 A 
ATOM      4  C4  UNL d   1      -3.976  -3.001  -0.555  0.00  0.00    -0.042 A 
ATOM      5  C5  UNL d   1      -4.126  -3.621  -1.791  0.00  0.00     0.033 A 
ATOM      6  C6  UNL d   1      -3.636  -3.003  -2.946  0.00  0.00    -0.057 A 
ENDROOT
BRANCH   1   7
ATOM      7  N   UNL d   1      -2.605  -1.160  -4.096  0.00  0.00    -0.732 N 
ATOM      8  C   UNL d   1      -1.466  -1.645  -4.845  0.00  0.00     0.284 C 
ATOM      9  H3  UNL d   1      -3.407  -0.915  -4.671  0.00  0.00     0.395 HD
ENDBRANCH   1   7
TORSDOF 1
ENDMDL
