MODEL 1
REMARK minimizedAffinity 4.330791
REMARK minimizedRMSD -1
REMARK  0 active torsions:
REMARK  status: ('A' for Active; 'I' for Inactive)
ROOT
ATOM      1  C4' PXY d   1      -3.445  -0.575  -0.384  0.00  0.00     0.077 C 
ATOM      2  C1' PXY d   1      -1.629   3.919  -3.534  0.00  0.00     0.077 C 
ATOM      3  C1  PXY d   1      -2.117   2.743  -2.713  0.00  0.00    -0.082 A 
ATOM      4  C2  PXY d   1      -1.434   2.362  -1.645  0.00  0.00     0.003 A 
ATOM      5  C3  PXY d   1      -1.844   1.280  -0.909  0.00  0.00     0.003 A 
ATOM      6  C4  PXY d   1      -2.994   0.614  -1.238  0.00  0.00    -0.082 A 
ATOM      7  C5  PXY d   1      -3.702   1.003  -2.319  0.00  0.00     0.003 A 
ATOM      8  C6  PXY d   1      -3.247   2.078  -3.077  0.00  0.00     0.003 A 
ENDROOT
TORSDOF 0
ENDMDL
