MODEL 1
REMARK minimizedAffinity 17.5237465
REMARK minimizedRMSD -1
REMARK  0 active torsions:
REMARK  status: ('A' for Active; 'I' for Inactive)
ROOT
ATOM      1  C4' PXY d   1      -4.014  -0.706   0.703  0.00  0.00     0.077 C 
ATOM      2  C1' PXY d   1      -2.849   2.840  -3.711  0.00  0.00     0.077 C 
ATOM      3  C1  PXY d   1      -3.142   1.911  -2.549  0.00  0.00    -0.082 A 
ATOM      4  C2  PXY d   1      -4.150   1.058  -2.632  0.00  0.00     0.003 A 
ATOM      5  C3  PXY d   1      -4.449   0.233  -1.579  0.00  0.00     0.003 A 
ATOM      6  C4  PXY d   1      -3.675   0.244  -0.449  0.00  0.00    -0.082 A 
ATOM      7  C5  PXY d   1      -2.639   1.104  -0.361  0.00  0.00     0.003 A 
ATOM      8  C6  PXY d   1      -2.377   1.962  -1.425  0.00  0.00     0.003 A 
ENDROOT
TORSDOF 0
ENDMDL
