MODEL 1
REMARK minimizedAffinity 5.4296174
REMARK minimizedRMSD -1
REMARK  0 active torsions:
REMARK  status: ('A' for Active; 'I' for Inactive)
ROOT
ATOM      1  C4' PXY d   1       1.585  -0.944   3.197  0.00  0.00     0.077 C 
ATOM      2  C1' PXY d   1      -1.916   3.334   1.507  0.00  0.00     0.077 C 
ATOM      3  C1  PXY d   1      -0.990   2.214   1.940  0.00  0.00    -0.082 A 
ATOM      4  C2  PXY d   1      -1.455   1.239   2.704  0.00  0.00     0.003 A 
ATOM      5  C3  PXY d   1      -0.624   0.236   3.131  0.00  0.00     0.003 A 
ATOM      6  C4  PXY d   1       0.684   0.202   2.728  0.00  0.00    -0.082 A 
ATOM      7  C5  PXY d   1       1.163   1.187   1.939  0.00  0.00     0.003 A 
ATOM      8  C6  PXY d   1       0.313   2.218   1.550  0.00  0.00     0.003 A 
ENDROOT
TORSDOF 0
ENDMDL
