MODEL 1
REMARK minimizedAffinity 0.363683254
REMARK minimizedRMSD -1
REMARK  0 active torsions:
REMARK  status: ('A' for Active; 'I' for Inactive)
ROOT
ATOM      1  C4' PXY d   1       0.694   3.764  -0.470  0.00  0.00     0.077 C 
ATOM      2  C1' PXY d   1       0.192  -0.924   2.875  0.00  0.00     0.077 C 
ATOM      3  C1  PXY d   1       0.327   0.298   1.988  0.00  0.00    -0.082 A 
ATOM      4  C2  PXY d   1       0.554   1.481   2.535  0.00  0.00     0.003 A 
ATOM      5  C3  PXY d   1       0.647   2.602   1.749  0.00  0.00     0.003 A 
ATOM      6  C4  PXY d   1       0.560   2.502   0.387  0.00  0.00    -0.082 A 
ATOM      7  C5  PXY d   1       0.339   1.296  -0.179  0.00  0.00     0.003 A 
ATOM      8  C6  PXY d   1       0.206   0.178   0.638  0.00  0.00     0.003 A 
ENDROOT
TORSDOF 0
ENDMDL
