MODEL 1
REMARK minimizedAffinity -3.98319864
REMARK minimizedRMSD -1
REMARK  0 active torsions:
REMARK  status: ('A' for Active; 'I' for Inactive)
ROOT
ATOM      1  C4' PXY d   1       0.321   4.479  -1.179  0.00  0.00     0.077 C 
ATOM      2  C1' PXY d   1      -0.008  -0.366   1.957  0.00  0.00     0.077 C 
ATOM      3  C1  PXY d   1       0.084   0.898   1.125  0.00  0.00    -0.082 A 
ATOM      4  C2  PXY d   1       0.056   2.078   1.723  0.00  0.00     0.003 A 
ATOM      5  C3  PXY d   1       0.106   3.232   0.984  0.00  0.00     0.003 A 
ATOM      6  C4  PXY d   1       0.240   3.177  -0.378  0.00  0.00    -0.082 A 
ATOM      7  C5  PXY d   1       0.280   1.977  -0.994  0.00  0.00     0.003 A 
ATOM      8  C6  PXY d   1       0.186   0.818  -0.229  0.00  0.00     0.003 A 
ENDROOT
TORSDOF 0
ENDMDL
