MODEL 1
REMARK minimizedAffinity 1.82355809
REMARK minimizedRMSD -1
REMARK  0 active torsions:
REMARK  status: ('A' for Active; 'I' for Inactive)
ROOT
ATOM      1  C4' PXY d   1      -4.168   6.000   1.157  0.00  0.00     0.077 C 
ATOM      2  C1' PXY d   1       0.252   3.200  -1.300  0.00  0.00     0.077 C 
ATOM      3  C1  PXY d   1      -0.907   3.926  -0.646  0.00  0.00    -0.082 A 
ATOM      4  C2  PXY d   1      -1.684   4.709  -1.376  0.00  0.00     0.003 A 
ATOM      5  C3  PXY d   1      -2.717   5.398  -0.795  0.00  0.00     0.003 A 
ATOM      6  C4  PXY d   1      -2.992   5.241   0.537  0.00  0.00    -0.082 A 
ATOM      7  C5  PXY d   1      -2.210   4.434   1.287  0.00  0.00     0.003 A 
ATOM      8  C6  PXY d   1      -1.141   3.777   0.686  0.00  0.00     0.003 A 
ENDROOT
TORSDOF 0
ENDMDL
