MODEL 1
REMARK minimizedAffinity 8.33716774
REMARK minimizedRMSD -1
REMARK  0 active torsions:
REMARK  status: ('A' for Active; 'I' for Inactive)
ROOT
ATOM      1  C4' PXY d   1      -0.322  -3.365  -1.892  0.00  0.00     0.077 C 
ATOM      2  C1' PXY d   1       4.159  -0.828   0.735  0.00  0.00     0.077 C 
ATOM      3  C1  PXY d   1       2.987  -1.505   0.051  0.00  0.00    -0.082 A 
ATOM      4  C2  PXY d   1       2.470  -0.970  -1.043  0.00  0.00     0.003 A 
ATOM      5  C3  PXY d   1       1.390  -1.552  -1.656  0.00  0.00     0.003 A 
ATOM      6  C4  PXY d   1       0.867  -2.721  -1.174  0.00  0.00    -0.082 A 
ATOM      7  C5  PXY d   1       1.395  -3.279  -0.064  0.00  0.00     0.003 A 
ATOM      8  C6  PXY d   1       2.465  -2.651   0.567  0.00  0.00     0.003 A 
ENDROOT
TORSDOF 0
ENDMDL
