MODEL 1
REMARK minimizedAffinity 10.1634254
REMARK minimizedRMSD -1
REMARK  0 active torsions:
REMARK  status: ('A' for Active; 'I' for Inactive)
ROOT
ATOM      1  C4' PXY d   1       1.577   5.680  -2.356  0.00  0.00     0.077 C 
ATOM      2  C1' PXY d   1      -1.474   2.004   0.898  0.00  0.00     0.077 C 
ATOM      3  C1  PXY d   1      -0.663   2.962   0.049  0.00  0.00    -0.082 A 
ATOM      4  C2  PXY d   1      -1.161   4.149  -0.255  0.00  0.00     0.003 A 
ATOM      5  C3  PXY d   1      -0.454   5.016  -1.049  0.00  0.00     0.003 A 
ATOM      6  C4  PXY d   1       0.798   4.684  -1.493  0.00  0.00    -0.082 A 
ATOM      7  C5  PXY d   1       1.317   3.478  -1.178  0.00  0.00     0.003 A 
ATOM      8  C6  PXY d   1       0.567   2.597  -0.406  0.00  0.00     0.003 A 
ENDROOT
TORSDOF 0
ENDMDL
