MODEL 1
REMARK minimizedAffinity 10.3844366
REMARK minimizedRMSD -1
REMARK  0 active torsions:
REMARK  status: ('A' for Active; 'I' for Inactive)
ROOT
ATOM      1  C4' PXY d   1       2.507   4.447   0.472  0.00  0.00     0.077 C 
ATOM      2  C1' PXY d   1      -2.237   2.351   3.023  0.00  0.00     0.077 C 
ATOM      3  C1  PXY d   1      -0.988   2.902   2.366  0.00  0.00    -0.082 A 
ATOM      4  C2  PXY d   1      -1.066   3.441   1.160  0.00  0.00     0.003 A 
ATOM      5  C3  PXY d   1       0.060   3.915   0.537  0.00  0.00     0.003 A 
ATOM      6  C4  PXY d   1       1.270   3.886   1.178  0.00  0.00    -0.082 A 
ATOM      7  C5  PXY d   1       1.356   3.348   2.413  0.00  0.00     0.003 A 
ATOM      8  C6  PXY d   1       0.209   2.835   3.010  0.00  0.00     0.003 A 
ENDROOT
TORSDOF 0
ENDMDL
