MODEL 1
REMARK minimizedAffinity 16.8997765
REMARK minimizedRMSD -1
REMARK  0 active torsions:
REMARK  status: ('A' for Active; 'I' for Inactive)
ROOT
ATOM      1  C4' PXY d   1       1.794   3.966  -0.760  0.00  0.00     0.077 C 
ATOM      2  C1' PXY d   1      -2.089   2.333   3.198  0.00  0.00     0.077 C 
ATOM      3  C1  PXY d   1      -1.061   2.761   2.169  0.00  0.00    -0.082 A 
ATOM      4  C2  PXY d   1      -1.455   3.392   1.075  0.00  0.00     0.003 A 
ATOM      5  C3  PXY d   1      -0.543   3.758   0.119  0.00  0.00     0.003 A 
ATOM      6  C4  PXY d   1       0.793   3.524   0.310  0.00  0.00    -0.082 A 
ATOM      7  C5  PXY d   1       1.203   2.890   1.429  0.00  0.00     0.003 A 
ATOM      8  C6  PXY d   1       0.257   2.490   2.368  0.00  0.00     0.003 A 
ENDROOT
TORSDOF 0
ENDMDL
