MODEL 1
REMARK minimizedAffinity -0.211876273
REMARK minimizedRMSD -1
REMARK  1 active torsions:
REMARK  status: ('A' for Active; 'I' for Inactive)
REMARK    1  A    between atoms: C1_2  and  C2_3 
ROOT
ATOM      1  C2  UNL d   1       4.711  -2.986  -1.121  0.00  0.00    -0.077 A 
ATOM      2  C3  UNL d   1       4.115  -2.703  -2.358  0.00  0.00     0.002 A 
ATOM      3  C4  UNL d   1       3.887  -3.725  -3.281  0.00  0.00     0.002 A 
ATOM      4  C5  UNL d   1       4.247  -5.036  -2.976  0.00  0.00    -0.004 A 
ATOM      5  C6  UNL d   1       4.842  -5.327  -1.749  0.00  0.00     0.002 A 
ATOM      6  C7  UNL d   1       5.072  -4.307  -0.825  0.00  0.00     0.002 A 
ENDROOT
BRANCH   1   7
ATOM      7  C1  UNL d   1       4.913  -1.893  -0.103  0.00  0.00     0.055 C 
ATOM      8  C   UNL d   1       3.591  -1.459   0.513  0.00  0.00     0.019 C 
ENDBRANCH   1   7
TORSDOF 1
ENDMDL
