MODEL 1
REMARK minimizedAffinity 0.709459722
REMARK minimizedRMSD -1
REMARK  1 active torsions:
REMARK  status: ('A' for Active; 'I' for Inactive)
REMARK    1  A    between atoms: C1_2  and  C2_3 
ROOT
ATOM      1  C2  UNL d   1      -0.452   3.305  -0.759  0.00  0.00    -0.077 A 
ATOM      2  C3  UNL d   1       0.804   3.672  -1.262  0.00  0.00     0.002 A 
ATOM      3  C4  UNL d   1       1.104   5.014  -1.503  0.00  0.00     0.002 A 
ATOM      4  C5  UNL d   1       0.155   6.000  -1.240  0.00  0.00    -0.004 A 
ATOM      5  C6  UNL d   1      -1.098   5.645  -0.741  0.00  0.00     0.002 A 
ATOM      6  C7  UNL d   1      -1.400   4.303  -0.501  0.00  0.00     0.002 A 
ENDROOT
BRANCH   1   7
ATOM      7  C1  UNL d   1      -0.759   1.863  -0.452  0.00  0.00     0.055 C 
ATOM      8  C   UNL d   1      -1.724   1.273  -1.471  0.00  0.00     0.019 C 
ENDBRANCH   1   7
TORSDOF 1
ENDMDL
