MODEL 1
REMARK minimizedAffinity -1.0497086
REMARK minimizedRMSD -1
REMARK  1 active torsions:
REMARK  status: ('A' for Active; 'I' for Inactive)
REMARK    1  A    between atoms: C1_2  and  C2_3 
ROOT
ATOM      1  C2  UNL d   1       4.176  -4.339  -2.932  0.00  0.00    -0.077 A 
ATOM      2  C3  UNL d   1       3.546  -3.088  -2.877  0.00  0.00     0.002 A 
ATOM      3  C4  UNL d   1       3.779  -2.227  -1.803  0.00  0.00     0.002 A 
ATOM      4  C5  UNL d   1       4.644  -2.605  -0.779  0.00  0.00    -0.004 A 
ATOM      5  C6  UNL d   1       5.275  -3.848  -0.824  0.00  0.00     0.002 A 
ATOM      6  C7  UNL d   1       5.042  -4.711  -1.896  0.00  0.00     0.002 A 
ENDROOT
BRANCH   1   7
ATOM      7  C1  UNL d   1       3.965  -5.249  -4.114  0.00  0.00     0.055 C 
ATOM      8  C   UNL d   1       5.240  -5.999  -4.470  0.00  0.00     0.019 C 
ENDBRANCH   1   7
TORSDOF 1
ENDMDL
