MODEL 1
REMARK minimizedAffinity 3.17174864
REMARK minimizedRMSD -1
REMARK  1 active torsions:
REMARK  status: ('A' for Active; 'I' for Inactive)
REMARK    1  A    between atoms: C1_2  and  C2_3 
ROOT
ATOM      1  C2  UNL d   1       3.684  -4.496  -1.500  0.00  0.00    -0.077 A 
ATOM      2  C3  UNL d   1       4.902  -4.680  -0.829  0.00  0.00     0.002 A 
ATOM      3  C4  UNL d   1       5.714  -3.586  -0.527  0.00  0.00     0.002 A 
ATOM      4  C5  UNL d   1       5.316  -2.300  -0.887  0.00  0.00    -0.004 A 
ATOM      5  C6  UNL d   1       4.108  -2.107  -1.556  0.00  0.00     0.002 A 
ATOM      6  C7  UNL d   1       3.296  -3.200  -1.860  0.00  0.00     0.002 A 
ENDROOT
BRANCH   1   7
ATOM      7  C1  UNL d   1       2.784  -5.670  -1.783  0.00  0.00     0.055 C 
ATOM      8  C   UNL d   1       1.565  -5.665  -0.871  0.00  0.00     0.019 C 
ENDBRANCH   1   7
TORSDOF 1
ENDMDL
