MODEL 1
REMARK minimizedAffinity 6.32035255
REMARK minimizedRMSD -1
REMARK  1 active torsions:
REMARK  status: ('A' for Active; 'I' for Inactive)
REMARK    1  A    between atoms: C1_2  and  C2_3 
ROOT
ATOM      1  C2  UNL d   1      -0.101   2.743   0.772  0.00  0.00    -0.077 A 
ATOM      2  C3  UNL d   1       0.224   4.105   0.708  0.00  0.00     0.002 A 
ATOM      3  C4  UNL d   1       0.328   4.749  -0.527  0.00  0.00     0.002 A 
ATOM      4  C5  UNL d   1       0.105   4.039  -1.705  0.00  0.00    -0.004 A 
ATOM      5  C6  UNL d   1      -0.216   2.684  -1.652  0.00  0.00     0.002 A 
ATOM      6  C7  UNL d   1      -0.320   2.039  -0.419  0.00  0.00     0.002 A 
ENDROOT
BRANCH   1   7
ATOM      7  C1  UNL d   1      -0.262   2.059   2.105  0.00  0.00     0.055 C 
ATOM      8  C   UNL d   1      -1.731   1.859   2.450  0.00  0.00     0.019 C 
ENDBRANCH   1   7
TORSDOF 1
ENDMDL
