MODEL 1
REMARK minimizedAffinity 2.2552917
REMARK minimizedRMSD -1
REMARK  1 active torsions:
REMARK  status: ('A' for Active; 'I' for Inactive)
REMARK    1  A    between atoms: N_2  and  C1_3 
ROOT
ATOM      1  C1  UNL d   1      -1.541  -3.486   2.738  0.00  0.00     0.143 A 
ATOM      2  C2  UNL d   1      -0.961  -4.759   2.690  0.00  0.00    -0.057 A 
ATOM      3  C3  UNL d   1      -0.359  -5.238   1.520  0.00  0.00     0.033 A 
ATOM      4  C4  UNL d   1      -0.352  -4.462   0.366  0.00  0.00    -0.042 A 
ATOM      5  C5  UNL d   1      -0.945  -3.204   0.384  0.00  0.00     0.033 A 
ATOM      6  C6  UNL d   1      -1.538  -2.728   1.557  0.00  0.00    -0.057 A 
ENDROOT
BRANCH   1   7
ATOM      7  N   UNL d   1      -2.241  -2.993   3.842  0.00  0.00    -0.732 N 
ATOM      8  C   UNL d   1      -1.850  -1.746   4.465  0.00  0.00     0.284 C 
ATOM      9  H3  UNL d   1      -3.247  -3.114   3.749  0.00  0.00     0.395 HD
ENDBRANCH   1   7
TORSDOF 1
ENDMDL
