MODEL 1
REMARK minimizedAffinity 8.4694519
REMARK minimizedRMSD -1
REMARK  1 active torsions:
REMARK  status: ('A' for Active; 'I' for Inactive)
REMARK    1  A    between atoms: N_2  and  C1_3 
ROOT
ATOM      1  C1  UNL d   1      -4.865   3.341  -0.319  0.00  0.00     0.143 A 
ATOM      2  C2  UNL d   1      -6.000   4.151  -0.433  0.00  0.00    -0.057 A 
ATOM      3  C3  UNL d   1      -6.000   5.470   0.035  0.00  0.00     0.033 A 
ATOM      4  C4  UNL d   1      -4.870   5.995   0.655  0.00  0.00    -0.042 A 
ATOM      5  C5  UNL d   1      -3.739   5.200   0.802  0.00  0.00     0.033 A 
ATOM      6  C6  UNL d   1      -3.743   3.885   0.326  0.00  0.00    -0.057 A 
ENDROOT
BRANCH   1   7
ATOM      7  N   UNL d   1      -4.834   1.990  -0.676  0.00  0.00    -0.732 N 
ATOM      8  C   UNL d   1      -3.991   1.533  -1.760  0.00  0.00     0.284 C 
ATOM      9  H3  UNL d   1      -4.842   1.374   0.133  0.00  0.00     0.395 HD
ENDBRANCH   1   7
TORSDOF 1
ENDMDL
