MODEL 1
REMARK minimizedAffinity 9.62630081
REMARK minimizedRMSD -1
REMARK  1 active torsions:
REMARK  status: ('A' for Active; 'I' for Inactive)
REMARK    1  A    between atoms: N_2  and  C1_3 
ROOT
ATOM      1  C1  UNL d   1      -0.836  -2.807  -1.873  0.00  0.00     0.143 A 
ATOM      2  C2  UNL d   1      -1.285  -1.825  -0.983  0.00  0.00    -0.057 A 
ATOM      3  C3  UNL d   1      -1.463  -2.105   0.377  0.00  0.00     0.033 A 
ATOM      4  C4  UNL d   1      -1.222  -3.384   0.868  0.00  0.00    -0.042 A 
ATOM      5  C5  UNL d   1      -0.798  -4.382  -0.002  0.00  0.00     0.033 A 
ATOM      6  C6  UNL d   1      -0.616  -4.095  -1.358  0.00  0.00    -0.057 A 
ENDROOT
BRANCH   1   7
ATOM      7  N   UNL d   1      -0.734  -2.618  -3.253  0.00  0.00    -0.732 N 
ATOM      8  C   UNL d   1      -1.841  -2.067  -4.005  0.00  0.00     0.284 C 
ATOM      9  H3  UNL d   1       0.177  -2.258  -3.529  0.00  0.00     0.395 HD
ENDBRANCH   1   7
TORSDOF 1
ENDMDL
