MODEL 1
REMARK minimizedAffinity 13.7317095
REMARK minimizedRMSD -1
REMARK  1 active torsions:
REMARK  status: ('A' for Active; 'I' for Inactive)
REMARK    1  A    between atoms: N_2  and  C1_3 
ROOT
ATOM      1  C1  UNL d   1      -0.080  -1.468   5.564  0.00  0.00     0.143 A 
ATOM      2  C2  UNL d   1      -0.422  -2.752   6.000  0.00  0.00    -0.057 A 
ATOM      3  C3  UNL d   1      -1.624  -3.355   5.609  0.00  0.00     0.033 A 
ATOM      4  C4  UNL d   1      -2.520  -2.670   4.795  0.00  0.00    -0.042 A 
ATOM      5  C5  UNL d   1      -2.212  -1.383   4.371  0.00  0.00     0.033 A 
ATOM      6  C6  UNL d   1      -1.008  -0.788   4.759  0.00  0.00    -0.057 A 
ENDROOT
BRANCH   1   7
ATOM      7  N   UNL d   1       1.053  -0.776   5.998  0.00  0.00    -0.732 N 
ATOM      8  C   UNL d   1       2.352  -1.415   6.000  0.00  0.00     0.284 C 
ATOM      9  H3  UNL d   1       1.066   0.190   5.676  0.00  0.00     0.395 HD
ENDBRANCH   1   7
TORSDOF 1
ENDMDL
