MODEL 1
REMARK minimizedAffinity 4.67335176
REMARK minimizedRMSD -1
REMARK  1 active torsions:
REMARK  status: ('A' for Active; 'I' for Inactive)
REMARK    1  A    between atoms: N_2  and  C1_3 
ROOT
ATOM      1  C1  UNL d   1      -3.147   3.976  -5.129  0.00  0.00     0.143 A 
ATOM      2  C2  UNL d   1      -4.239   3.858  -5.995  0.00  0.00    -0.057 A 
ATOM      3  C3  UNL d   1      -5.270   4.805  -5.998  0.00  0.00     0.033 A 
ATOM      4  C4  UNL d   1      -5.240   5.876  -5.110  0.00  0.00    -0.042 A 
ATOM      5  C5  UNL d   1      -4.177   6.000  -4.223  0.00  0.00     0.033 A 
ATOM      6  C6  UNL d   1      -3.148   5.054  -4.230  0.00  0.00    -0.057 A 
ENDROOT
BRANCH   1   7
ATOM      7  N   UNL d   1      -2.141   3.014  -5.010  0.00  0.00    -0.732 N 
ATOM      8  C   UNL d   1      -1.019   3.005  -5.924  0.00  0.00     0.284 C 
ATOM      9  H3  UNL d   1      -1.890   2.832  -4.041  0.00  0.00     0.395 HD
ENDBRANCH   1   7
TORSDOF 1
ENDMDL
