MODEL 1
REMARK minimizedAffinity 8.14525604
REMARK minimizedRMSD -1
REMARK  1 active torsions:
REMARK  status: ('A' for Active; 'I' for Inactive)
REMARK    1  A    between atoms: N_2  and  C1_3 
ROOT
ATOM      1  C1  UNL d   1      -4.490   3.706  -0.042  0.00  0.00     0.143 A 
ATOM      2  C2  UNL d   1      -4.511   4.840  -0.861  0.00  0.00    -0.057 A 
ATOM      3  C3  UNL d   1      -5.238   5.981  -0.501  0.00  0.00     0.033 A 
ATOM      4  C4  UNL d   1      -5.982   5.998   0.674  0.00  0.00    -0.042 A 
ATOM      5  C5  UNL d   1      -5.995   4.874   1.491  0.00  0.00     0.033 A 
ATOM      6  C6  UNL d   1      -5.262   3.739   1.130  0.00  0.00    -0.057 A 
ENDROOT
BRANCH   1   7
ATOM      7  N   UNL d   1      -3.866   2.506  -0.392  0.00  0.00    -0.732 N 
ATOM      8  C   UNL d   1      -4.602   1.466  -1.080  0.00  0.00     0.284 C 
ATOM      9  H3  UNL d   1      -2.921   2.646  -0.740  0.00  0.00     0.395 HD
ENDBRANCH   1   7
TORSDOF 1
ENDMDL
