MODEL 1
REMARK minimizedAffinity 3.26588535
REMARK minimizedRMSD -1
REMARK  1 active torsions:
REMARK  status: ('A' for Active; 'I' for Inactive)
REMARK    1  A    between atoms: N_2  and  C1_3 
ROOT
ATOM      1  C1  UNL d   1      -3.191  -0.008  -1.755  0.00  0.00     0.143 A 
ATOM      2  C2  UNL d   1      -3.780  -0.753  -0.728  0.00  0.00    -0.057 A 
ATOM      3  C3  UNL d   1      -5.171  -0.808  -0.576  0.00  0.00     0.033 A 
ATOM      4  C4  UNL d   1      -5.999  -0.093  -1.435  0.00  0.00    -0.042 A 
ATOM      5  C5  UNL d   1      -5.435   0.675  -2.448  0.00  0.00     0.033 A 
ATOM      6  C6  UNL d   1      -4.046   0.720  -2.598  0.00  0.00    -0.057 A 
ENDROOT
BRANCH   1   7
ATOM      7  N   UNL d   1      -1.813   0.166  -1.898  0.00  0.00    -0.732 N 
ATOM      8  C   UNL d   1      -1.117   1.190  -1.149  0.00  0.00     0.284 C 
ATOM      9  H3  UNL d   1      -1.313  -0.719  -1.954  0.00  0.00     0.395 HD
ENDBRANCH   1   7
TORSDOF 1
ENDMDL
