MODEL 1
REMARK minimizedAffinity 3.85064054
REMARK minimizedRMSD -1
REMARK  1 active torsions:
REMARK  status: ('A' for Active; 'I' for Inactive)
REMARK    1  A    between atoms: N_2  and  C1_3 
ROOT
ATOM      1  C1  UNL d   1       3.336  -0.249  -0.710  0.00  0.00     0.143 A 
ATOM      2  C2  UNL d   1       2.292   0.395  -0.039  0.00  0.00    -0.057 A 
ATOM      3  C3  UNL d   1       1.286  -0.333   0.607  0.00  0.00     0.033 A 
ATOM      4  C4  UNL d   1       1.290  -1.723   0.568  0.00  0.00    -0.042 A 
ATOM      5  C5  UNL d   1       2.305  -2.385  -0.115  0.00  0.00     0.033 A 
ATOM      6  C6  UNL d   1       3.311  -1.652  -0.752  0.00  0.00    -0.057 A 
ENDROOT
BRANCH   1   7
ATOM      7  N   UNL d   1       4.311   0.419  -1.455  0.00  0.00    -0.732 N 
ATOM      8  C   UNL d   1       5.133   1.442  -0.844  0.00  0.00     0.284 C 
ATOM      9  H3  UNL d   1       4.819  -0.205  -2.079  0.00  0.00     0.395 HD
ENDBRANCH   1   7
TORSDOF 1
ENDMDL
