MODEL 1
REMARK minimizedAffinity 1.87999439
REMARK minimizedRMSD -1
REMARK  1 active torsions:
REMARK  status: ('A' for Active; 'I' for Inactive)
REMARK    1  A    between atoms: N_2  and  C1_3 
ROOT
ATOM      1  C1  UNL d   1       2.549  -2.312  -0.387  0.00  0.00     0.143 A 
ATOM      2  C2  UNL d   1       3.075  -2.724  -1.616  0.00  0.00    -0.057 A 
ATOM      3  C3  UNL d   1       4.016  -1.946  -2.301  0.00  0.00     0.033 A 
ATOM      4  C4  UNL d   1       4.426  -0.722  -1.781  0.00  0.00    -0.042 A 
ATOM      5  C5  UNL d   1       3.898  -0.281  -0.573  0.00  0.00     0.033 A 
ATOM      6  C6  UNL d   1       2.963  -1.066   0.109  0.00  0.00    -0.057 A 
ENDROOT
BRANCH   1   7
ATOM      7  N   UNL d   1       1.537  -2.994   0.294  0.00  0.00    -0.732 N 
ATOM      8  C   UNL d   1       0.295  -3.324  -0.370  0.00  0.00     0.284 C 
ATOM      9  H3  UNL d   1       1.901  -3.735   0.888  0.00  0.00     0.395 HD
ENDBRANCH   1   7
TORSDOF 1
ENDMDL
