MODEL 1
REMARK minimizedAffinity 5.10616446
REMARK minimizedRMSD -1
REMARK  1 active torsions:
REMARK  status: ('A' for Active; 'I' for Inactive)
REMARK    1  A    between atoms: N_2  and  C1_3 
ROOT
ATOM      1  C1  UNL d   1      -0.538   1.263  -0.518  0.00  0.00     0.143 A 
ATOM      2  C2  UNL d   1      -1.112   0.399  -1.456  0.00  0.00    -0.057 A 
ATOM      3  C3  UNL d   1      -2.460   0.513  -1.817  0.00  0.00     0.033 A 
ATOM      4  C4  UNL d   1      -3.267   1.478  -1.223  0.00  0.00    -0.042 A 
ATOM      5  C5  UNL d   1      -2.723   2.331  -0.269  0.00  0.00     0.033 A 
ATOM      6  C6  UNL d   1      -1.375   2.217   0.082  0.00  0.00    -0.057 A 
ENDROOT
BRANCH   1   7
ATOM      7  N   UNL d   1       0.771   1.138  -0.044  0.00  0.00    -0.732 N 
ATOM      8  C   UNL d   1       1.607   0.036  -0.470  0.00  0.00     0.284 C 
ATOM      9  H3  UNL d   1       1.254   2.032   0.004  0.00  0.00     0.395 HD
ENDBRANCH   1   7
TORSDOF 1
ENDMDL
