MODEL 1
REMARK minimizedAffinity 2.00456619
REMARK minimizedRMSD -1
REMARK  1 active torsions:
REMARK  status: ('A' for Active; 'I' for Inactive)
REMARK    1  A    between atoms: N_2  and  C1_3 
ROOT
ATOM      1  C1  UNL d   1      -0.629   0.993   2.320  0.00  0.00     0.143 A 
ATOM      2  C2  UNL d   1      -1.874   1.463   1.890  0.00  0.00    -0.057 A 
ATOM      3  C3  UNL d   1      -2.099   1.798   0.549  0.00  0.00     0.033 A 
ATOM      4  C4  UNL d   1      -1.071   1.696  -0.382  0.00  0.00    -0.042 A 
ATOM      5  C5  UNL d   1       0.182   1.255   0.028  0.00  0.00     0.033 A 
ATOM      6  C6  UNL d   1       0.399   0.915   1.367  0.00  0.00    -0.057 A 
ENDROOT
BRANCH   1   7
ATOM      7  N   UNL d   1      -0.314   0.737   3.657  0.00  0.00    -0.732 N 
ATOM      8  C   UNL d   1       0.936   0.099   4.011  0.00  0.00     0.284 C 
ATOM      9  H3  UNL d   1      -0.578   1.503   4.272  0.00  0.00     0.395 HD
ENDBRANCH   1   7
TORSDOF 1
ENDMDL
