MODEL 1
REMARK minimizedAffinity 1.0666312
REMARK minimizedRMSD -1
REMARK  1 active torsions:
REMARK  status: ('A' for Active; 'I' for Inactive)
REMARK    1  A    between atoms: N_2  and  C1_3 
ROOT
ATOM      1  C1  UNL d   1       1.276   0.973   0.633  0.00  0.00     0.143 A 
ATOM      2  C2  UNL d   1       0.213   1.552  -0.067  0.00  0.00    -0.057 A 
ATOM      3  C3  UNL d   1      -1.067   1.636   0.495  0.00  0.00     0.033 A 
ATOM      4  C4  UNL d   1      -1.313   1.114   1.760  0.00  0.00    -0.042 A 
ATOM      5  C5  UNL d   1      -0.277   0.511   2.465  0.00  0.00     0.033 A 
ATOM      6  C6  UNL d   1       1.000   0.437   1.901  0.00  0.00    -0.057 A 
ENDROOT
BRANCH   1   7
ATOM      7  N   UNL d   1       2.547   0.771   0.090  0.00  0.00    -0.732 N 
ATOM      8  C   UNL d   1       3.565   1.794   0.196  0.00  0.00     0.284 C 
ATOM      9  H3  UNL d   1       2.890  -0.174   0.245  0.00  0.00     0.395 HD
ENDBRANCH   1   7
TORSDOF 1
ENDMDL
