MODEL 1
REMARK minimizedAffinity 2.17130184
REMARK minimizedRMSD -1
REMARK  1 active torsions:
REMARK  status: ('A' for Active; 'I' for Inactive)
REMARK    1  A    between atoms: N_2  and  C1_3 
ROOT
ATOM      1  C1  UNL d   1       1.516   0.835   0.683  0.00  0.00     0.143 A 
ATOM      2  C2  UNL d   1       0.192   0.899   0.235  0.00  0.00    -0.057 A 
ATOM      3  C3  UNL d   1      -0.882   0.804   1.128  0.00  0.00     0.033 A 
ATOM      4  C4  UNL d   1      -0.650   0.614   2.486  0.00  0.00    -0.042 A 
ATOM      5  C5  UNL d   1       0.657   0.523   2.951  0.00  0.00     0.033 A 
ATOM      6  C6  UNL d   1       1.725   0.625   2.055  0.00  0.00    -0.057 A 
ENDROOT
BRANCH   1   7
ATOM      7  N   UNL d   1       2.625   0.825  -0.166  0.00  0.00    -0.732 N 
ATOM      8  C   UNL d   1       3.756   1.692   0.087  0.00  0.00     0.284 C 
ATOM      9  H3  UNL d   1       2.880  -0.115  -0.461  0.00  0.00     0.395 HD
ENDBRANCH   1   7
TORSDOF 1
ENDMDL
