MODEL 1
REMARK minimizedAffinity 6.39278698
REMARK minimizedRMSD -1
REMARK  1 active torsions:
REMARK  status: ('A' for Active; 'I' for Inactive)
REMARK    1  A    between atoms: N_2  and  C1_3 
ROOT
ATOM      1  C1  UNL d   1       2.524  -0.421   0.337  0.00  0.00     0.143 A 
ATOM      2  C2  UNL d   1       1.914  -1.642   0.027  0.00  0.00    -0.057 A 
ATOM      3  C3  UNL d   1       2.506  -2.543  -0.866  0.00  0.00     0.033 A 
ATOM      4  C4  UNL d   1       3.708  -2.226  -1.490  0.00  0.00    -0.042 A 
ATOM      5  C5  UNL d   1       4.320  -1.007  -1.216  0.00  0.00     0.033 A 
ATOM      6  C6  UNL d   1       3.727  -0.115  -0.318  0.00  0.00    -0.057 A 
ENDROOT
BRANCH   1   7
ATOM      7  N   UNL d   1       1.938   0.559   1.141  0.00  0.00    -0.732 N 
ATOM      8  C   UNL d   1       1.542   0.258   2.500  0.00  0.00     0.284 C 
ATOM      9  H3  UNL d   1       2.380   1.469   1.029  0.00  0.00     0.395 HD
ENDBRANCH   1   7
TORSDOF 1
ENDMDL
