MODEL 1
REMARK minimizedAffinity 3.32453871
REMARK minimizedRMSD -1
REMARK  1 active torsions:
REMARK  status: ('A' for Active; 'I' for Inactive)
REMARK    1  A    between atoms: N_2  and  C1_3 
ROOT
ATOM      1  C1  UNL d   1       1.749   0.083   0.437  0.00  0.00     0.143 A 
ATOM      2  C2  UNL d   1       1.923  -1.305   0.394  0.00  0.00    -0.057 A 
ATOM      3  C3  UNL d   1       3.076  -1.875  -0.158  0.00  0.00     0.033 A 
ATOM      4  C4  UNL d   1       4.067  -1.066  -0.705  0.00  0.00    -0.042 A 
ATOM      5  C5  UNL d   1       3.904   0.314  -0.696  0.00  0.00     0.033 A 
ATOM      6  C6  UNL d   1       2.753   0.879  -0.137  0.00  0.00    -0.057 A 
ENDROOT
BRANCH   1   7
ATOM      7  N   UNL d   1       0.582   0.708   0.883  0.00  0.00    -0.732 N 
ATOM      8  C   UNL d   1       0.193   0.636   2.275  0.00  0.00     0.284 C 
ATOM      9  H3  UNL d   1       0.445   1.623   0.459  0.00  0.00     0.395 HD
ENDBRANCH   1   7
TORSDOF 1
ENDMDL
