MODEL 1
REMARK minimizedAffinity -0.718334258
REMARK minimizedRMSD -1
REMARK  0 active torsions:
REMARK  status: ('A' for Active; 'I' for Inactive)
ROOT
ATOM      1  C   UNL d   1      -0.488   0.368  -5.999  0.00  0.00    -0.002 A 
ATOM      2  C1  UNL d   1      -0.756  -0.953  -5.670  0.00  0.00     0.010 A 
ATOM      3  C2  UNL d   1      -0.154  -1.544  -4.558  0.00  0.00     0.041 A 
ATOM      4  C3  UNL d   1       0.728  -0.776  -3.772  0.00  0.00    -0.075 A 
ATOM      5  S   UNL d   1       1.580  -1.289  -2.363  0.00  0.00     0.015 SA
ATOM      6  C4  UNL d   1       2.318   0.234  -2.164  0.00  0.00     0.022 A 
ATOM      7  C5  UNL d   1       1.936   1.124  -3.140  0.00  0.00     0.026 A 
ATOM      8  C6  UNL d   1       1.013   0.556  -4.083  0.00  0.00    -0.082 A 
ATOM      9  C7  UNL d   1       0.388   1.126  -5.218  0.00  0.00     0.045 A 
ENDROOT
TORSDOF 0
ENDMDL
