MODEL 1
REMARK minimizedAffinity -0.867377877
REMARK minimizedRMSD -1
REMARK  0 active torsions:
REMARK  status: ('A' for Active; 'I' for Inactive)
ROOT
ATOM      1  C   UNL d   1       0.671  -0.692   3.524  0.00  0.00    -0.002 A 
ATOM      2  C1  UNL d   1       1.817  -0.987   2.800  0.00  0.00     0.010 A 
ATOM      3  C2  UNL d   1       1.818  -0.902   1.406  0.00  0.00     0.041 A 
ATOM      4  C3  UNL d   1       0.637  -0.511   0.746  0.00  0.00    -0.075 A 
ATOM      5  S   UNL d   1       0.404  -0.338  -0.954  0.00  0.00     0.015 SA
ATOM      6  C4  UNL d   1      -1.223   0.132  -0.759  0.00  0.00     0.022 A 
ATOM      7  C5  UNL d   1      -1.596   0.161   0.564  0.00  0.00     0.026 A 
ATOM      8  C6  UNL d   1      -0.530  -0.208   1.453  0.00  0.00    -0.082 A 
ATOM      9  C7  UNL d   1      -0.500  -0.304   2.865  0.00  0.00     0.045 A 
ENDROOT
TORSDOF 0
ENDMDL
