MODEL 1
REMARK minimizedAffinity -2.3653729
REMARK minimizedRMSD -1
REMARK  0 active torsions:
REMARK  status: ('A' for Active; 'I' for Inactive)
ROOT
ATOM      1  C   UNL d   1       0.021  -0.603  -5.494  0.00  0.00    -0.002 A 
ATOM      2  C1  UNL d   1       0.951   0.406  -5.288  0.00  0.00     0.010 A 
ATOM      3  C2  UNL d   1       1.187   0.904  -4.005  0.00  0.00     0.041 A 
ATOM      4  C3  UNL d   1       0.467   0.363  -2.921  0.00  0.00    -0.075 A 
ATOM      5  S   UNL d   1       0.591   0.815  -1.262  0.00  0.00     0.015 SA
ATOM      6  C4  UNL d   1      -0.587  -0.321  -0.787  0.00  0.00     0.022 A 
ATOM      7  C5  UNL d   1      -1.073  -1.037  -1.856  0.00  0.00     0.026 A 
ATOM      8  C6  UNL d   1      -0.473  -0.654  -3.103  0.00  0.00    -0.082 A 
ATOM      9  C7  UNL d   1      -0.691  -1.137  -4.417  0.00  0.00     0.045 A 
ENDROOT
TORSDOF 0
ENDMDL
