MODEL 1
REMARK minimizedAffinity -1.77009523
REMARK minimizedRMSD -1
REMARK  0 active torsions:
REMARK  status: ('A' for Active; 'I' for Inactive)
ROOT
ATOM      1  C   UNL d   1      -1.216   0.040  -1.479  0.00  0.00    -0.002 A 
ATOM      2  C1  UNL d   1       0.055  -0.505  -1.592  0.00  0.00     0.010 A 
ATOM      3  C2  UNL d   1       0.879  -0.624  -0.471  0.00  0.00     0.041 A 
ATOM      4  C3  UNL d   1       0.399  -0.183   0.778  0.00  0.00    -0.075 A 
ATOM      5  S   UNL d   1       1.231  -0.231   2.287  0.00  0.00     0.015 SA
ATOM      6  C4  UNL d   1      -0.082   0.470   3.118  0.00  0.00     0.022 A 
ATOM      7  C5  UNL d   1      -1.137   0.741   2.280  0.00  0.00     0.026 A 
ATOM      8  C6  UNL d   1      -0.878   0.368   0.917  0.00  0.00    -0.082 A 
ATOM      9  C7  UNL d   1      -1.689   0.476  -0.238  0.00  0.00     0.045 A 
ENDROOT
TORSDOF 0
ENDMDL
