MODEL 1
REMARK minimizedAffinity 0.0868215337
REMARK minimizedRMSD -1
REMARK  0 active torsions:
REMARK  status: ('A' for Active; 'I' for Inactive)
ROOT
ATOM      1  C   UNL d   1       0.392   0.400  -4.951  0.00  0.00    -0.002 A 
ATOM      2  C1  UNL d   1       1.705   0.193  -4.554  0.00  0.00     0.010 A 
ATOM      3  C2  UNL d   1       2.006  -0.111  -3.225  0.00  0.00     0.041 A 
ATOM      4  C3  UNL d   1       0.954  -0.207  -2.293  0.00  0.00    -0.075 A 
ATOM      5  S   UNL d   1       1.085  -0.569  -0.612  0.00  0.00     0.015 SA
ATOM      6  C4  UNL d   1      -0.600  -0.458  -0.381  0.00  0.00     0.022 A 
ATOM      7  C5  UNL d   1      -1.261  -0.153  -1.547  0.00  0.00     0.026 A 
ATOM      8  C6  UNL d   1      -0.377  -0.003  -2.668  0.00  0.00    -0.082 A 
ATOM      9  C7  UNL d   1      -0.649   0.304  -4.023  0.00  0.00     0.045 A 
ENDROOT
TORSDOF 0
ENDMDL
