MODEL 1
REMARK minimizedAffinity -3.18100977
REMARK minimizedRMSD -1
REMARK  0 active torsions:
REMARK  status: ('A' for Active; 'I' for Inactive)
ROOT
ATOM      1  C   UNL d   1      -1.742   0.998   1.544  0.00  0.00    -0.002 A 
ATOM      2  C1  UNL d   1      -0.526   0.940   2.209  0.00  0.00     0.010 A 
ATOM      3  C2  UNL d   1       0.581   0.332   1.614  0.00  0.00     0.041 A 
ATOM      4  C3  UNL d   1       0.444  -0.220   0.326  0.00  0.00    -0.075 A 
ATOM      5  S   UNL d   1       1.663  -1.014  -0.600  0.00  0.00     0.015 SA
ATOM      6  C4  UNL d   1       0.599  -1.293  -1.901  0.00  0.00     0.022 A 
ATOM      7  C5  UNL d   1      -0.660  -0.800  -1.653  0.00  0.00     0.026 A 
ATOM      8  C6  UNL d   1      -0.770  -0.173  -0.365  0.00  0.00    -0.082 A 
ATOM      9  C7  UNL d   1      -1.874   0.449   0.265  0.00  0.00     0.045 A 
ENDROOT
TORSDOF 0
ENDMDL
