MODEL 1
REMARK minimizedAffinity -2.55305338
REMARK minimizedRMSD -1
REMARK  0 active torsions:
REMARK  status: ('A' for Active; 'I' for Inactive)
ROOT
ATOM      1  C   UNL d   1       1.375  -0.399   3.566  0.00  0.00    -0.002 A 
ATOM      2  C1  UNL d   1       0.109   0.067   3.891  0.00  0.00     0.010 A 
ATOM      3  C2  UNL d   1      -0.860   0.238   2.901  0.00  0.00     0.041 A 
ATOM      4  C3  UNL d   1      -0.533  -0.071   1.566  0.00  0.00    -0.075 A 
ATOM      5  S   UNL d   1      -1.560   0.060   0.187  0.00  0.00     0.015 SA
ATOM      6  C4  UNL d   1      -0.343  -0.500  -0.866  0.00  0.00     0.022 A 
ATOM      7  C5  UNL d   1       0.825  -0.784  -0.199  0.00  0.00     0.026 A 
ATOM      8  C6  UNL d   1       0.735  -0.542   1.214  0.00  0.00    -0.082 A 
ATOM      9  C7  UNL d   1       1.696  -0.704   2.240  0.00  0.00     0.045 A 
ENDROOT
TORSDOF 0
ENDMDL
