MODEL 1
REMARK minimizedAffinity -2.12184024
REMARK minimizedRMSD -1
REMARK  0 active torsions:
REMARK  status: ('A' for Active; 'I' for Inactive)
ROOT
ATOM      1  C   UNL d   1      -2.384   0.876   1.611  0.00  0.00    -0.002 A 
ATOM      2  C1  UNL d   1      -2.575   0.411   0.318  0.00  0.00     0.010 A 
ATOM      3  C2  UNL d   1      -1.525  -0.183  -0.386  0.00  0.00     0.041 A 
ATOM      4  C3  UNL d   1      -0.268  -0.304   0.239  0.00  0.00    -0.075 A 
ATOM      5  S   UNL d   1       1.162  -0.997  -0.429  0.00  0.00     0.015 SA
ATOM      6  C4  UNL d   1       2.061  -0.692   0.987  0.00  0.00     0.022 A 
ATOM      7  C5  UNL d   1       1.303  -0.077   1.956  0.00  0.00     0.026 A 
ATOM      8  C6  UNL d   1      -0.051   0.156   1.541  0.00  0.00    -0.082 A 
ATOM      9  C7  UNL d   1      -1.135   0.754   2.228  0.00  0.00     0.045 A 
ENDROOT
TORSDOF 0
ENDMDL
