MODEL 1
REMARK minimizedAffinity -1.19636011
REMARK minimizedRMSD -1
REMARK  0 active torsions:
REMARK  status: ('A' for Active; 'I' for Inactive)
ROOT
ATOM      1  C   UNL d   1       1.537   1.160  -3.901  0.00  0.00    -0.002 A 
ATOM      2  C1  UNL d   1       0.913   0.005  -4.350  0.00  0.00     0.010 A 
ATOM      3  C2  UNL d   1       0.340  -0.890  -3.444  0.00  0.00     0.041 A 
ATOM      4  C3  UNL d   1       0.404  -0.601  -2.067  0.00  0.00    -0.075 A 
ATOM      5  S   UNL d   1      -0.229  -1.551  -0.775  0.00  0.00     0.015 SA
ATOM      6  C4  UNL d   1       0.315  -0.446   0.403  0.00  0.00     0.022 A 
ATOM      7  C5  UNL d   1       0.965   0.628  -0.158  0.00  0.00     0.026 A 
ATOM      8  C6  UNL d   1       1.027   0.556  -1.591  0.00  0.00    -0.082 A 
ATOM      9  C7  UNL d   1       1.599   1.443  -2.534  0.00  0.00     0.045 A 
ENDROOT
TORSDOF 0
ENDMDL
