MODEL 1
REMARK minimizedAffinity -1.57618248
REMARK minimizedRMSD -1
REMARK  0 active torsions:
REMARK  status: ('A' for Active; 'I' for Inactive)
ROOT
ATOM      1  C   UNL d   1       0.355  -0.031   0.329  0.00  0.00    -0.002 A 
ATOM      2  C1  UNL d   1      -0.896  -0.182  -0.253  0.00  0.00     0.010 A 
ATOM      3  C2  UNL d   1      -1.043  -0.131  -1.641  0.00  0.00     0.041 A 
ATOM      4  C3  UNL d   1       0.098   0.076  -2.441  0.00  0.00    -0.075 A 
ATOM      5  S   UNL d   1       0.158   0.173  -4.161  0.00  0.00     0.015 SA
ATOM      6  C4  UNL d   1       1.845   0.417  -4.163  0.00  0.00     0.022 A 
ATOM      7  C5  UNL d   1       2.366   0.427  -2.890  0.00  0.00     0.026 A 
ATOM      8  C6  UNL d   1       1.368   0.230  -1.877  0.00  0.00    -0.082 A 
ATOM      9  C7  UNL d   1       1.484   0.174  -0.467  0.00  0.00     0.045 A 
ENDROOT
TORSDOF 0
ENDMDL
