MODEL 1
REMARK minimizedAffinity -1.51689374
REMARK minimizedRMSD -1
REMARK  0 active torsions:
REMARK  status: ('A' for Active; 'I' for Inactive)
ROOT
ATOM      1  C   UNL d   1      -2.127   0.849   1.069  0.00  0.00    -0.002 A 
ATOM      2  C1  UNL d   1      -1.328   0.617  -0.041  0.00  0.00     0.010 A 
ATOM      3  C2  UNL d   1      -0.039   0.100   0.106  0.00  0.00     0.041 A 
ATOM      4  C3  UNL d   1       0.437  -0.183   1.401  0.00  0.00    -0.075 A 
ATOM      5  S   UNL d   1       1.982  -0.821   1.824  0.00  0.00     0.015 SA
ATOM      6  C4  UNL d   1       1.618  -0.802   3.489  0.00  0.00     0.022 A 
ATOM      7  C5  UNL d   1       0.353  -0.323   3.734  0.00  0.00     0.026 A 
ATOM      8  C6  UNL d   1      -0.349   0.041   2.535  0.00  0.00    -0.082 A 
ATOM      9  C7  UNL d   1      -1.651   0.566   2.353  0.00  0.00     0.045 A 
ENDROOT
TORSDOF 0
ENDMDL
