MODEL 1
REMARK minimizedAffinity -4.95823956
REMARK minimizedRMSD -1
REMARK  0 active torsions:
REMARK  status: ('A' for Active; 'I' for Inactive)
ROOT
ATOM      1  C   UNL d   1      -1.298  -0.386  -0.348  0.00  0.00     0.077 C 
ATOM      2  C1  UNL d   1      -0.654   0.053   0.933  0.00  0.00    -0.074 A 
ATOM      3  C2  UNL d   1      -1.348   0.848   1.851  0.00  0.00    -0.005 A 
ATOM      4  C3  UNL d   1      -0.740   1.241   3.043  0.00  0.00     0.006 A 
ATOM      5  C4  UNL d   1       0.567   0.844   3.329  0.00  0.00    -0.005 A 
ATOM      6  C5  UNL d   1       1.277   0.048   2.424  0.00  0.00    -0.074 A 
ATOM      7  C6  UNL d   1       2.678  -0.395   2.720  0.00  0.00     0.077 C 
ATOM      8  C7  UNL d   1       0.656  -0.348   1.231  0.00  0.00    -0.001 A 
ENDROOT
TORSDOF 0
ENDMDL
