MODEL 1
REMARK minimizedAffinity -4.49507713
REMARK minimizedRMSD -1
REMARK  0 active torsions:
REMARK  status: ('A' for Active; 'I' for Inactive)
ROOT
ATOM      1  C   UNL d   1      -0.676   1.509   2.722  0.00  0.00     0.077 C 
ATOM      2  C1  UNL d   1       0.147   0.643   1.815  0.00  0.00    -0.074 A 
ATOM      3  C2  UNL d   1       1.361   0.100   2.248  0.00  0.00    -0.005 A 
ATOM      4  C3  UNL d   1       2.111  -0.711   1.396  0.00  0.00     0.006 A 
ATOM      5  C4  UNL d   1       1.656  -0.986   0.106  0.00  0.00    -0.005 A 
ATOM      6  C5  UNL d   1       0.444  -0.452  -0.343  0.00  0.00    -0.074 A 
ATOM      7  C6  UNL d   1      -0.064  -0.746  -1.723  0.00  0.00     0.077 C 
ATOM      8  C7  UNL d   1      -0.307   0.356   0.521  0.00  0.00    -0.001 A 
ENDROOT
TORSDOF 0
ENDMDL
