MODEL 1
REMARK minimizedAffinity -5.81594181
REMARK minimizedRMSD -1
REMARK  0 active torsions:
REMARK  status: ('A' for Active; 'I' for Inactive)
ROOT
ATOM      1  C   UNL d   1      -1.181   0.534  -0.404  0.00  0.00     0.077 C 
ATOM      2  C1  UNL d   1      -0.571   0.518   0.966  0.00  0.00    -0.074 A 
ATOM      3  C2  UNL d   1      -1.309   0.914   2.087  0.00  0.00    -0.005 A 
ATOM      4  C3  UNL d   1      -0.732   0.884   3.356  0.00  0.00     0.006 A 
ATOM      5  C4  UNL d   1       0.588   0.460   3.518  0.00  0.00    -0.005 A 
ATOM      6  C5  UNL d   1       1.341   0.059   2.409  0.00  0.00    -0.074 A 
ATOM      7  C6  UNL d   1       2.757  -0.409   2.567  0.00  0.00     0.077 C 
ATOM      8  C7  UNL d   1       0.751   0.085   1.138  0.00  0.00    -0.001 A 
ENDROOT
TORSDOF 0
ENDMDL
