MODEL 1
REMARK minimizedAffinity -5.3938818
REMARK minimizedRMSD -1
REMARK  0 active torsions:
REMARK  status: ('A' for Active; 'I' for Inactive)
ROOT
ATOM      1  C   UNL d   1      -0.643   1.520   2.972  0.00  0.00     0.077 C 
ATOM      2  C1  UNL d   1      -0.466   0.556   1.837  0.00  0.00    -0.074 A 
ATOM      3  C2  UNL d   1       0.809   0.150   1.430  0.00  0.00    -0.005 A 
ATOM      4  C3  UNL d   1       0.957  -0.755   0.379  0.00  0.00     0.006 A 
ATOM      5  C4  UNL d   1      -0.167  -1.262  -0.274  0.00  0.00    -0.005 A 
ATOM      6  C5  UNL d   1      -1.450  -0.869   0.119  0.00  0.00    -0.074 A 
ATOM      7  C6  UNL d   1      -2.668  -1.413  -0.566  0.00  0.00     0.077 C 
ATOM      8  C7  UNL d   1      -1.590   0.035   1.181  0.00  0.00    -0.001 A 
ENDROOT
TORSDOF 0
ENDMDL
