MODEL 1
REMARK minimizedAffinity -0.879972339
REMARK minimizedRMSD -1
REMARK  0 active torsions:
REMARK  status: ('A' for Active; 'I' for Inactive)
ROOT
ATOM      1  C   UNL d   1       2.354   1.440   1.386  0.00  0.00     0.077 C 
ATOM      2  C1  UNL d   1       0.899   1.132   1.576  0.00  0.00    -0.074 A 
ATOM      3  C2  UNL d   1       0.176   1.699   2.631  0.00  0.00    -0.005 A 
ATOM      4  C3  UNL d   1      -1.179   1.410   2.789  0.00  0.00     0.006 A 
ATOM      5  C4  UNL d   1      -1.825   0.554   1.896  0.00  0.00    -0.005 A 
ATOM      6  C5  UNL d   1      -1.119  -0.021   0.835  0.00  0.00    -0.074 A 
ATOM      7  C6  UNL d   1      -1.799  -0.935  -0.140  0.00  0.00     0.077 C 
ATOM      8  C7  UNL d   1       0.241   0.279   0.678  0.00  0.00    -0.001 A 
ENDROOT
TORSDOF 0
ENDMDL
