MODEL 1
REMARK minimizedAffinity -5.06494856
REMARK minimizedRMSD -1
REMARK  0 active torsions:
REMARK  status: ('A' for Active; 'I' for Inactive)
ROOT
ATOM      1  C   UNL d   1      -0.354   1.763   2.668  0.00  0.00     0.077 C 
ATOM      2  C1  UNL d   1      -0.315   0.637   1.677  0.00  0.00    -0.074 A 
ATOM      3  C2  UNL d   1       0.878  -0.039   1.404  0.00  0.00    -0.005 A 
ATOM      4  C3  UNL d   1       0.896  -1.090   0.487  0.00  0.00     0.006 A 
ATOM      5  C4  UNL d   1      -0.276  -1.474  -0.165  0.00  0.00    -0.005 A 
ATOM      6  C5  UNL d   1      -1.479  -0.810   0.096  0.00  0.00    -0.074 A 
ATOM      7  C6  UNL d   1      -2.750  -1.217  -0.589  0.00  0.00     0.077 C 
ATOM      8  C7  UNL d   1      -1.491   0.240   1.024  0.00  0.00    -0.001 A 
ENDROOT
TORSDOF 0
ENDMDL
