MODEL 1
REMARK minimizedAffinity -4.31612015
REMARK minimizedRMSD -1
REMARK  0 active torsions:
REMARK  status: ('A' for Active; 'I' for Inactive)
ROOT
ATOM      1  C   UNL d   1       0.514  -1.083  -1.252  0.00  0.00     0.077 C 
ATOM      2  C1  UNL d   1       0.366  -0.397  -2.578  0.00  0.00    -0.074 A 
ATOM      3  C2  UNL d   1      -0.314  -1.013  -3.634  0.00  0.00    -0.005 A 
ATOM      4  C3  UNL d   1      -0.451  -0.359  -4.858  0.00  0.00     0.006 A 
ATOM      5  C4  UNL d   1       0.089   0.914  -5.039  0.00  0.00    -0.005 A 
ATOM      6  C5  UNL d   1       0.772   1.546  -3.995  0.00  0.00    -0.074 A 
ATOM      7  C6  UNL d   1       1.350   2.919  -4.169  0.00  0.00     0.077 C 
ATOM      8  C7  UNL d   1       0.899   0.886  -2.765  0.00  0.00    -0.001 A 
ENDROOT
TORSDOF 0
ENDMDL
