MODEL 1
REMARK minimizedAffinity 1.07053316
REMARK minimizedRMSD -1
REMARK  0 active torsions:
REMARK  status: ('A' for Active; 'I' for Inactive)
ROOT
ATOM      1  C   UNL d   1      -2.531  -0.786  -0.373  0.00  0.00     0.077 C 
ATOM      2  C1  UNL d   1      -1.653  -0.236   0.711  0.00  0.00    -0.074 A 
ATOM      3  C2  UNL d   1      -2.142   0.703   1.625  0.00  0.00    -0.005 A 
ATOM      4  C3  UNL d   1      -1.316   1.199   2.634  0.00  0.00     0.006 A 
ATOM      5  C4  UNL d   1       0.005   0.762   2.738  0.00  0.00    -0.005 A 
ATOM      6  C5  UNL d   1       0.511  -0.177   1.834  0.00  0.00    -0.074 A 
ATOM      7  C6  UNL d   1       1.926  -0.665   1.938  0.00  0.00     0.077 C 
ATOM      8  C7  UNL d   1      -0.327  -0.676   0.827  0.00  0.00    -0.001 A 
ENDROOT
TORSDOF 0
ENDMDL
