MODEL 1
REMARK minimizedAffinity 0.266822457
REMARK minimizedRMSD -1
REMARK  0 active torsions:
REMARK  status: ('A' for Active; 'I' for Inactive)
ROOT
ATOM      1  C1  DEN d   1      -0.169   1.234  -0.157  0.00  0.00     0.130 A 
ATOM      2  C2  DEN d   1      -0.503   1.666  -1.512  0.00  0.00    -0.031 A 
ATOM      3  C3  DEN d   1       0.039   3.026  -1.704  0.00  0.00     0.027 A 
ATOM      4  C4  DEN d   1       1.362   4.495  -0.047  0.00  0.00     0.027 A 
ATOM      5  C5  DEN d   1       1.880   4.562   1.227  0.00  0.00    -0.003 A 
ATOM      6  C6  DEN d   1       1.723   3.547   2.134  0.00  0.00     0.001 A 
ATOM      7  C7  DEN d   1       1.070   2.401   1.763  0.00  0.00     0.017 A 
ATOM      8  C8  DEN d   1       0.539   2.329   0.482  0.00  0.00    -0.094 A 
ATOM      9  C9  DEN d   1       0.719   3.361  -0.424  0.00  0.00    -0.072 A 
ENDROOT
TORSDOF 0
ENDMDL
