MODEL 1
REMARK minimizedAffinity 8.61206722
REMARK minimizedRMSD -1
REMARK  0 active torsions:
REMARK  status: ('A' for Active; 'I' for Inactive)
ROOT
ATOM      1  C1  DEN d   1      -0.368   5.844  -2.140  0.00  0.00     0.130 A 
ATOM      2  C2  DEN d   1      -1.734   6.000  -2.633  0.00  0.00    -0.031 A 
ATOM      3  C3  DEN d   1      -2.434   4.712  -2.453  0.00  0.00     0.027 A 
ATOM      4  C4  DEN d   1      -1.542   2.506  -1.458  0.00  0.00     0.027 A 
ATOM      5  C5  DEN d   1      -0.440   1.884  -0.914  0.00  0.00    -0.003 A 
ATOM      6  C6  DEN d   1       0.763   2.524  -0.774  0.00  0.00     0.001 A 
ATOM      7  C7  DEN d   1       0.881   3.838  -1.140  0.00  0.00     0.017 A 
ATOM      8  C8  DEN d   1      -0.225   4.470  -1.696  0.00  0.00    -0.094 A 
ATOM      9  C9  DEN d   1      -1.436   3.810  -1.818  0.00  0.00    -0.072 A 
ENDROOT
TORSDOF 0
ENDMDL
