MODEL 1
REMARK minimizedAffinity -3.32417846
REMARK minimizedRMSD -1
REMARK  0 active torsions:
REMARK  status: ('A' for Active; 'I' for Inactive)
ROOT
ATOM      1  C1  DEN d   1      -0.115   1.112   0.278  0.00  0.00     0.130 A 
ATOM      2  C2  DEN d   1      -1.132   1.050  -0.768  0.00  0.00    -0.031 A 
ATOM      3  C3  DEN d   1      -0.988   2.251  -1.616  0.00  0.00     0.027 A 
ATOM      4  C4  DEN d   1       0.704   4.186  -1.414  0.00  0.00     0.027 A 
ATOM      5  C5  DEN d   1       1.755   4.686  -0.677  0.00  0.00    -0.003 A 
ATOM      6  C6  DEN d   1       2.231   4.052   0.440  0.00  0.00     0.001 A 
ATOM      7  C7  DEN d   1       1.683   2.857   0.827  0.00  0.00     0.017 A 
ATOM      8  C8  DEN d   1       0.618   2.351   0.094  0.00  0.00    -0.094 A 
ATOM      9  C9  DEN d   1       0.160   3.001  -1.039  0.00  0.00    -0.072 A 
ENDROOT
TORSDOF 0
ENDMDL
