MODEL 1
REMARK minimizedAffinity 1.67278719
REMARK minimizedRMSD -1
REMARK  0 active torsions:
REMARK  status: ('A' for Active; 'I' for Inactive)
ROOT
ATOM      1  C1  DEN d   1       1.153   2.342   1.792  0.00  0.00     0.130 A 
ATOM      2  C2  DEN d   1       0.164   1.270   1.725  0.00  0.00    -0.031 A 
ATOM      3  C3  DEN d   1      -0.429   1.281   0.372  0.00  0.00     0.027 A 
ATOM      4  C4  DEN d   1       0.091   2.841  -1.615  0.00  0.00     0.027 A 
ATOM      5  C5  DEN d   1       0.849   3.912  -2.033  0.00  0.00    -0.003 A 
ATOM      6  C6  DEN d   1       1.729   4.552  -1.201  0.00  0.00     0.001 A 
ATOM      7  C7  DEN d   1       1.907   4.097   0.079  0.00  0.00     0.017 A 
ATOM      8  C8  DEN d   1       1.141   3.021   0.509  0.00  0.00    -0.094 A 
ATOM      9  C9  DEN d   1       0.265   2.381  -0.350  0.00  0.00    -0.072 A 
ENDROOT
TORSDOF 0
ENDMDL
