MODEL 1
REMARK minimizedAffinity 9.8241024
REMARK minimizedRMSD -1
REMARK  0 active torsions:
REMARK  status: ('A' for Active; 'I' for Inactive)
ROOT
ATOM      1  C1  DEN d   1       3.727  -2.414  -4.038  0.00  0.00     0.130 A 
ATOM      2  C2  DEN d   1       4.083  -1.505  -2.952  0.00  0.00    -0.031 A 
ATOM      3  C3  DEN d   1       5.038  -2.203  -2.068  0.00  0.00     0.027 A 
ATOM      4  C4  DEN d   1       6.000  -4.587  -2.278  0.00  0.00     0.027 A 
ATOM      5  C5  DEN d   1       5.984  -5.742  -3.029  0.00  0.00    -0.003 A 
ATOM      6  C6  DEN d   1       5.196  -5.879  -4.141  0.00  0.00     0.001 A 
ATOM      7  C7  DEN d   1       4.423  -4.828  -4.559  0.00  0.00     0.017 A 
ATOM      8  C8  DEN d   1       4.429  -3.663  -3.803  0.00  0.00    -0.094 A 
ATOM      9  C9  DEN d   1       5.242  -3.539  -2.689  0.00  0.00    -0.072 A 
ENDROOT
TORSDOF 0
ENDMDL
