MODEL 1
REMARK minimizedAffinity -1.4460907
REMARK minimizedRMSD -1
REMARK  0 active torsions:
REMARK  status: ('A' for Active; 'I' for Inactive)
ROOT
ATOM      1  C1  DEN d   1       3.022  -2.751  -1.108  0.00  0.00     0.130 A 
ATOM      2  C2  DEN d   1       2.550  -1.426  -1.501  0.00  0.00    -0.031 A 
ATOM      3  C3  DEN d   1       3.341  -0.987  -2.668  0.00  0.00     0.027 A 
ATOM      4  C4  DEN d   1       5.239  -2.225  -3.899  0.00  0.00     0.027 A 
ATOM      5  C5  DEN d   1       5.999  -3.374  -3.924  0.00  0.00    -0.003 A 
ATOM      6  C6  DEN d   1       5.845  -4.372  -2.999  0.00  0.00     0.001 A 
ATOM      7  C7  DEN d   1       4.877  -4.260  -2.036  0.00  0.00     0.017 A 
ATOM      8  C8  DEN d   1       4.111  -3.102  -2.000  0.00  0.00    -0.094 A 
ATOM      9  C9  DEN d   1       4.275  -2.110  -2.952  0.00  0.00    -0.072 A 
ENDROOT
TORSDOF 0
ENDMDL
