MODEL 1
REMARK minimizedAffinity 7.25632763
REMARK minimizedRMSD -1
REMARK  0 active torsions:
REMARK  status: ('A' for Active; 'I' for Inactive)
ROOT
ATOM      1  C1  DEN d   1       5.241  -2.858  -1.660  0.00  0.00     0.130 A 
ATOM      2  C2  DEN d   1       4.857  -2.264  -0.382  0.00  0.00    -0.031 A 
ATOM      3  C3  DEN d   1       3.739  -3.055   0.171  0.00  0.00     0.027 A 
ATOM      4  C4  DEN d   1       2.575  -5.133  -0.820  0.00  0.00     0.027 A 
ATOM      5  C5  DEN d   1       2.546  -6.000  -1.890  0.00  0.00    -0.003 A 
ATOM      6  C6  DEN d   1       3.382  -5.861  -2.965  0.00  0.00     0.001 A 
ATOM      7  C7  DEN d   1       4.316  -4.858  -2.974  0.00  0.00     0.017 A 
ATOM      8  C8  DEN d   1       4.347  -3.976  -1.902  0.00  0.00    -0.094 A 
ATOM      9  C9  DEN d   1       3.501  -4.141  -0.818  0.00  0.00    -0.072 A 
ENDROOT
TORSDOF 0
ENDMDL
