MODEL 1
REMARK minimizedAffinity 1.18531036
REMARK minimizedRMSD -1
REMARK  0 active torsions:
REMARK  status: ('A' for Active; 'I' for Inactive)
ROOT
ATOM      1  C1  DEN d   1       3.417  -2.958  -0.010  0.00  0.00     0.130 A 
ATOM      2  C2  DEN d   1       4.720  -2.310   0.114  0.00  0.00    -0.031 A 
ATOM      3  C3  DEN d   1       5.675  -3.037  -0.747  0.00  0.00     0.027 A 
ATOM      4  C4  DEN d   1       5.264  -5.088  -2.255  0.00  0.00     0.027 A 
ATOM      5  C5  DEN d   1       4.321  -5.998  -2.680  0.00  0.00    -0.003 A 
ATOM      6  C6  DEN d   1       3.030  -5.980  -2.223  0.00  0.00     0.001 A 
ATOM      7  C7  DEN d   1       2.635  -5.004  -1.346  0.00  0.00     0.017 A 
ATOM      8  C8  DEN d   1       3.581  -4.088  -0.908  0.00  0.00    -0.094 A 
ATOM      9  C9  DEN d   1       4.878  -4.115  -1.391  0.00  0.00    -0.072 A 
ENDROOT
TORSDOF 0
ENDMDL
