MODEL 1
REMARK minimizedAffinity 6.43964386
REMARK minimizedRMSD -1
REMARK  0 active torsions:
REMARK  status: ('A' for Active; 'I' for Inactive)
ROOT
ATOM      1  C1  DEN d   1       4.368  -5.999  -2.575  0.00  0.00     0.130 A 
ATOM      2  C2  DEN d   1       3.309  -5.682  -3.529  0.00  0.00    -0.031 A 
ATOM      3  C3  DEN d   1       2.861  -4.299  -3.271  0.00  0.00     0.027 A 
ATOM      4  C4  DEN d   1       3.703  -2.624  -1.499  0.00  0.00     0.027 A 
ATOM      5  C5  DEN d   1       4.582  -2.442  -0.455  0.00  0.00    -0.003 A 
ATOM      6  C6  DEN d   1       5.421  -3.436  -0.025  0.00  0.00     0.001 A 
ATOM      7  C7  DEN d   1       5.431  -4.644  -0.672  0.00  0.00     0.017 A 
ATOM      8  C8  DEN d   1       4.542  -4.837  -1.722  0.00  0.00    -0.094 A 
ATOM      9  C9  DEN d   1       3.710  -3.815  -2.149  0.00  0.00    -0.072 A 
ENDROOT
TORSDOF 0
ENDMDL
