MODEL 1
REMARK minimizedAffinity 3.34002185
REMARK minimizedRMSD -1
REMARK  0 active torsions:
REMARK  status: ('A' for Active; 'I' for Inactive)
ROOT
ATOM      1  C1  DEN d   1       1.692   4.143  -0.090  0.00  0.00     0.130 A 
ATOM      2  C2  DEN d   1       0.615   4.118  -1.077  0.00  0.00    -0.031 A 
ATOM      3  C3  DEN d   1      -0.441   3.215  -0.577  0.00  0.00     0.027 A 
ATOM      4  C4  DEN d   1      -0.517   1.865   1.620  0.00  0.00     0.027 A 
ATOM      5  C5  DEN d   1       0.172   1.556   2.772  0.00  0.00    -0.003 A 
ATOM      6  C6  DEN d   1       1.420   2.057   3.033  0.00  0.00     0.001 A 
ATOM      7  C7  DEN d   1       1.999   2.930   2.150  0.00  0.00     0.017 A 
ATOM      8  C8  DEN d   1       1.314   3.241   0.983  0.00  0.00    -0.094 A 
ATOM      9  C9  DEN d   1       0.048   2.734   0.743  0.00  0.00    -0.072 A 
ENDROOT
TORSDOF 0
ENDMDL
