MODEL 1
REMARK minimizedAffinity 4.89612865
REMARK minimizedRMSD -1
REMARK  0 active torsions:
REMARK  status: ('A' for Active; 'I' for Inactive)
ROOT
ATOM      1  C1  DEN d   1       4.738  -4.071  -1.939  0.00  0.00     0.130 A 
ATOM      2  C2  DEN d   1       4.687  -4.887  -3.149  0.00  0.00    -0.031 A 
ATOM      3  C3  DEN d   1       3.387  -5.586  -3.173  0.00  0.00     0.027 A 
ATOM      4  C4  DEN d   1       1.456  -5.482  -1.466  0.00  0.00     0.027 A 
ATOM      5  C5  DEN d   1       1.042  -4.936  -0.271  0.00  0.00    -0.003 A 
ATOM      6  C6  DEN d   1       1.838  -4.096   0.462  0.00  0.00     0.001 A 
ATOM      7  C7  DEN d   1       3.073  -3.742  -0.015  0.00  0.00     0.017 A 
ATOM      8  C8  DEN d   1       3.500  -4.296  -1.215  0.00  0.00    -0.094 A 
ATOM      9  C9  DEN d   1       2.676  -5.133  -1.947  0.00  0.00    -0.072 A 
ENDROOT
TORSDOF 0
ENDMDL
