MODEL 1
REMARK minimizedAffinity -5.18344641
REMARK minimizedRMSD -1
REMARK  0 active torsions:
REMARK  status: ('A' for Active; 'I' for Inactive)
ROOT
ATOM      1  C1  BNZ d   1      -0.288   0.976   0.041  0.00  0.00     0.000 A 
ATOM      2  C2  BNZ d   1      -0.410   2.222  -0.515  0.00  0.00     0.000 A 
ATOM      3  C3  BNZ d   1      -0.726   3.305   0.258  0.00  0.00     0.000 A 
ATOM      4  C4  BNZ d   1      -0.959   3.134   1.575  0.00  0.00     0.000 A 
ATOM      5  C5  BNZ d   1      -0.849   1.883   2.148  0.00  0.00     0.000 A 
ATOM      6  C6  BNZ d   1      -0.493   0.802   1.375  0.00  0.00     0.000 A 
ENDROOT
TORSDOF 0
ENDMDL
