MODEL 1
REMARK minimizedAffinity -3.45325637
REMARK minimizedRMSD -1
REMARK  0 active torsions:
REMARK  status: ('A' for Active; 'I' for Inactive)
ROOT
ATOM      1  C1  BNZ d   1       0.338   0.021  -2.113  0.00  0.00     0.000 A 
ATOM      2  C2  BNZ d   1      -0.354   1.203  -2.110  0.00  0.00     0.000 A 
ATOM      3  C3  BNZ d   1      -1.152   1.544  -1.054  0.00  0.00     0.000 A 
ATOM      4  C4  BNZ d   1      -1.288   0.687  -0.021  0.00  0.00     0.000 A 
ATOM      5  C5  BNZ d   1      -0.604  -0.512  -0.014  0.00  0.00     0.000 A 
ATOM      6  C6  BNZ d   1       0.229  -0.835  -1.061  0.00  0.00     0.000 A 
ENDROOT
TORSDOF 0
ENDMDL
