MODEL 1
REMARK minimizedAffinity -2.60581064
REMARK minimizedRMSD -1
REMARK  0 active torsions:
REMARK  status: ('A' for Active; 'I' for Inactive)
ROOT
ATOM      1  C1  BNZ d   1       1.126  -0.191  -1.916  0.00  0.00     0.000 A 
ATOM      2  C2  BNZ d   1       1.054  -0.555  -0.598  0.00  0.00     0.000 A 
ATOM      3  C3  BNZ d   1       0.243   0.119   0.272  0.00  0.00     0.000 A 
ATOM      4  C4  BNZ d   1      -0.463   1.180  -0.168  0.00  0.00     0.000 A 
ATOM      5  C5  BNZ d   1      -0.394   1.566  -1.492  0.00  0.00     0.000 A 
ATOM      6  C6  BNZ d   1       0.393   0.860  -2.373  0.00  0.00     0.000 A 
ENDROOT
TORSDOF 0
ENDMDL
