MODEL 1
REMARK minimizedAffinity -1.71430576
REMARK minimizedRMSD -1
REMARK  0 active torsions:
REMARK  status: ('A' for Active; 'I' for Inactive)
ROOT
ATOM      1  C1  BNZ d   1      -0.640   0.491   0.526  0.00  0.00     0.000 A 
ATOM      2  C2  BNZ d   1      -1.444   1.463   1.059  0.00  0.00     0.000 A 
ATOM      3  C3  BNZ d   1      -0.943   2.379   1.942  0.00  0.00     0.000 A 
ATOM      4  C4  BNZ d   1       0.349   2.296   2.321  0.00  0.00     0.000 A 
ATOM      5  C5  BNZ d   1       1.169   1.316   1.800  0.00  0.00     0.000 A 
ATOM      6  C6  BNZ d   1       0.672   0.420   0.881  0.00  0.00     0.000 A 
ENDROOT
TORSDOF 0
ENDMDL
