MODEL 1
REMARK minimizedAffinity -4.92962313
REMARK minimizedRMSD -1
REMARK  0 active torsions:
REMARK  status: ('A' for Active; 'I' for Inactive)
ROOT
ATOM      1  C1  BNZ d   1       0.234   0.763   1.485  0.00  0.00     0.000 A 
ATOM      2  C2  BNZ d   1      -0.111   1.909   2.149  0.00  0.00     0.000 A 
ATOM      3  C3  BNZ d   1      -0.779   2.915   1.509  0.00  0.00     0.000 A 
ATOM      4  C4  BNZ d   1      -1.066   2.791   0.197  0.00  0.00     0.000 A 
ATOM      5  C5  BNZ d   1      -0.716   1.645  -0.489  0.00  0.00     0.000 A 
ATOM      6  C6  BNZ d   1      -0.079   0.618   0.168  0.00  0.00     0.000 A 
ENDROOT
TORSDOF 0
ENDMDL
