MODEL 1
REMARK minimizedAffinity -3.06011891
REMARK minimizedRMSD -1
REMARK  0 active torsions:
REMARK  status: ('A' for Active; 'I' for Inactive)
ROOT
ATOM      1  C1  BNZ d   1       0.492   0.089  -0.052  0.00  0.00     0.000 A 
ATOM      2  C2  BNZ d   1       0.825   0.568   1.187  0.00  0.00     0.000 A 
ATOM      3  C3  BNZ d   1       0.002   1.436   1.847  0.00  0.00     0.000 A 
ATOM      4  C4  BNZ d   1      -1.134   1.855   1.252  0.00  0.00     0.000 A 
ATOM      5  C5  BNZ d   1      -1.479   1.389  -0.001  0.00  0.00     0.000 A 
ATOM      6  C6  BNZ d   1      -0.667   0.486  -0.646  0.00  0.00     0.000 A 
ENDROOT
TORSDOF 0
ENDMDL
