MODEL 1
REMARK minimizedAffinity -3.84439683
REMARK minimizedRMSD -1
REMARK  0 active torsions:
REMARK  status: ('A' for Active; 'I' for Inactive)
ROOT
ATOM      1  C1  BNZ d   1      -0.102   1.744  -1.491  0.00  0.00     0.000 A 
ATOM      2  C2  BNZ d   1      -0.972   2.027  -0.472  0.00  0.00     0.000 A 
ATOM      3  C3  BNZ d   1      -1.025   1.238   0.643  0.00  0.00     0.000 A 
ATOM      4  C4  BNZ d   1      -0.239   0.146   0.720  0.00  0.00     0.000 A 
ATOM      5  C5  BNZ d   1       0.637  -0.159  -0.303  0.00  0.00     0.000 A 
ATOM      6  C6  BNZ d   1       0.716   0.659  -1.406  0.00  0.00     0.000 A 
ENDROOT
TORSDOF 0
ENDMDL
