MODEL 1
REMARK minimizedAffinity 0.581251442
REMARK minimizedRMSD -1
REMARK  0 active torsions:
REMARK  status: ('A' for Active; 'I' for Inactive)
ROOT
ATOM      1  C1  BNZ d   1       0.670   0.414   0.175  0.00  0.00     0.000 A 
ATOM      2  C2  BNZ d   1       0.675   0.559   1.537  0.00  0.00     0.000 A 
ATOM      3  C3  BNZ d   1       0.443   1.777   2.112  0.00  0.00     0.000 A 
ATOM      4  C4  BNZ d   1       0.247   2.855   1.326  0.00  0.00     0.000 A 
ATOM      5  C5  BNZ d   1       0.248   2.727  -0.049  0.00  0.00     0.000 A 
ATOM      6  C6  BNZ d   1       0.444   1.493  -0.624  0.00  0.00     0.000 A 
ENDROOT
TORSDOF 0
ENDMDL
