MODEL 1
REMARK minimizedAffinity -4.24278784
REMARK minimizedRMSD -1
REMARK  0 active torsions:
REMARK  status: ('A' for Active; 'I' for Inactive)
ROOT
ATOM      1  C1  BNZ d   1       0.064   1.870   2.140  0.00  0.00     0.000 A 
ATOM      2  C2  BNZ d   1      -0.825   2.701   1.511  0.00  0.00     0.000 A 
ATOM      3  C3  BNZ d   1      -1.519   2.279   0.412  0.00  0.00     0.000 A 
ATOM      4  C4  BNZ d   1      -1.295   1.044  -0.081  0.00  0.00     0.000 A 
ATOM      5  C5  BNZ d   1      -0.395   0.199   0.536  0.00  0.00     0.000 A 
ATOM      6  C6  BNZ d   1       0.274   0.612   1.665  0.00  0.00     0.000 A 
ENDROOT
TORSDOF 0
ENDMDL
