MODEL 1
REMARK minimizedAffinity -5.26582623
REMARK minimizedRMSD -1
REMARK  2 active torsions:
REMARK  status: ('A' for Active; 'I' for Inactive)
REMARK    1  A    between atoms: C2'_3  and  C1'_4 
REMARK    2  A    between atoms: C1'_4  and  C1_5 
ROOT
ATOM      1  C1  I4B d   1      -0.133   0.007  -0.249  0.00  0.00    -0.075 A 
ATOM      2  C2  I4B d   1       0.308  -1.091  -0.944  0.00  0.00     0.003 A 
ATOM      3  C3  I4B d   1      -0.035  -2.395  -0.510  0.00  0.00     0.002 A 
ATOM      4  C4  I4B d   1      -0.774  -2.553   0.645  0.00  0.00    -0.004 A 
ATOM      5  C5  I4B d   1      -1.240  -1.438   1.335  0.00  0.00     0.002 A 
ATOM      6  C6  I4B d   1      -0.927  -0.149   0.879  0.00  0.00     0.003 A 
ENDROOT
BRANCH   1   7
ATOM      7  C1' I4B d   1       0.276   1.368  -0.717  0.00  0.00     0.060 C 
BRANCH   7   8
ATOM      8  C2' I4B d   1       1.077   2.022   0.391  0.00  0.00    -0.013 C 
ATOM      9  C4' I4B d   1       2.405   2.518  -0.116  0.00  0.00     0.013 C 
ATOM     10  C3' I4B d   1       0.257   3.145   0.953  0.00  0.00     0.013 C 
ENDBRANCH   7   8
ENDBRANCH   1   7
TORSDOF 2
ENDMDL
