MODEL 1
REMARK minimizedAffinity -5.43695974
REMARK minimizedRMSD -1
REMARK  2 active torsions:
REMARK  status: ('A' for Active; 'I' for Inactive)
REMARK    1  A    between atoms: C2'_3  and  C1'_4 
REMARK    2  A    between atoms: C1'_4  and  C1_5 
ROOT
ATOM      1  C1  I4B d   1       0.495   0.954   0.521  0.00  0.00    -0.075 A 
ATOM      2  C2  I4B d   1       0.507   2.261   0.104  0.00  0.00     0.003 A 
ATOM      3  C3  I4B d   1       1.607   3.098   0.412  0.00  0.00     0.002 A 
ATOM      4  C4  I4B d   1       2.643   2.604   1.178  0.00  0.00    -0.004 A 
ATOM      5  C5  I4B d   1       2.640   1.271   1.580  0.00  0.00     0.002 A 
ATOM      6  C6  I4B d   1       1.565   0.437   1.239  0.00  0.00     0.003 A 
ENDROOT
BRANCH   1   7
ATOM      7  C1' I4B d   1      -0.697   0.108   0.206  0.00  0.00     0.060 C 
BRANCH   7   8
ATOM      8  C2' I4B d   1      -0.939  -0.815   1.383  0.00  0.00    -0.013 C 
ATOM      9  C4' I4B d   1      -1.952  -0.234   2.333  0.00  0.00     0.013 C 
ATOM     10  C3' I4B d   1      -1.397  -2.139   0.847  0.00  0.00     0.013 C 
ENDBRANCH   7   8
ENDBRANCH   1   7
TORSDOF 2
ENDMDL
