MODEL 1
REMARK minimizedAffinity -4.33994055
REMARK minimizedRMSD -1
REMARK  2 active torsions:
REMARK  status: ('A' for Active; 'I' for Inactive)
REMARK    1  A    between atoms: C2'_3  and  C1'_4 
REMARK    2  A    between atoms: C1'_4  and  C1_5 
ROOT
ATOM      1  C1  I4B d   1      -0.019  -1.660   0.260  0.00  0.00    -0.075 A 
ATOM      2  C2  I4B d   1      -0.136  -0.360   0.687  0.00  0.00     0.003 A 
ATOM      3  C3  I4B d   1      -1.217   0.023   1.517  0.00  0.00     0.002 A 
ATOM      4  C4  I4B d   1      -2.180  -0.908   1.853  0.00  0.00    -0.004 A 
ATOM      5  C5  I4B d   1      -2.047  -2.230   1.438  0.00  0.00     0.002 A 
ATOM      6  C6  I4B d   1      -0.954  -2.612   0.647  0.00  0.00     0.003 A 
ENDROOT
BRANCH   1   7
ATOM      7  C1' I4B d   1       1.117  -2.022  -0.642  0.00  0.00     0.060 C 
BRANCH   7   8
ATOM      8  C2' I4B d   1       0.644  -1.868  -2.073  0.00  0.00    -0.013 C 
ATOM      9  C4' I4B d   1       0.441  -0.418  -2.427  0.00  0.00     0.013 C 
ATOM     10  C3' I4B d   1       1.663  -2.507  -2.969  0.00  0.00     0.013 C 
ENDBRANCH   7   8
ENDBRANCH   1   7
TORSDOF 2
ENDMDL
