MODEL 1
REMARK minimizedAffinity -3.14712787
REMARK minimizedRMSD -1
REMARK  2 active torsions:
REMARK  status: ('A' for Active; 'I' for Inactive)
REMARK    1  A    between atoms: C2'_3  and  C1'_4 
REMARK    2  A    between atoms: C1'_4  and  C1_5 
ROOT
ATOM      1  C1  I4B d   1      -0.559   0.139  -0.352  0.00  0.00    -0.075 A 
ATOM      2  C2  I4B d   1      -1.285  -0.078   0.793  0.00  0.00     0.003 A 
ATOM      3  C3  I4B d   1      -1.541  -1.398   1.235  0.00  0.00     0.002 A 
ATOM      4  C4  I4B d   1      -1.099  -2.466   0.481  0.00  0.00    -0.004 A 
ATOM      5  C5  I4B d   1      -0.344  -2.244  -0.667  0.00  0.00     0.002 A 
ATOM      6  C6  I4B d   1      -0.062  -0.934  -1.081  0.00  0.00     0.003 A 
ENDROOT
BRANCH   1   7
ATOM      7  C1' I4B d   1      -0.336   1.545  -0.809  0.00  0.00     0.060 C 
BRANCH   7   8
ATOM      8  C2' I4B d   1       0.293   2.313   0.336  0.00  0.00    -0.013 C 
ATOM      9  C4' I4B d   1       1.796   2.281   0.254  0.00  0.00     0.013 C 
ATOM     10  C3' I4B d   1      -0.222   3.721   0.287  0.00  0.00     0.013 C 
ENDBRANCH   7   8
ENDBRANCH   1   7
TORSDOF 2
ENDMDL
