MODEL 1
REMARK minimizedAffinity -4.22630787
REMARK minimizedRMSD -1
REMARK  2 active torsions:
REMARK  status: ('A' for Active; 'I' for Inactive)
REMARK    1  A    between atoms: C2'_3  and  C1'_4 
REMARK    2  A    between atoms: C1'_4  and  C1_5 
ROOT
ATOM      1  C1  I4B d   1       0.434   1.998   0.304  0.00  0.00    -0.075 A 
ATOM      2  C2  I4B d   1       1.758   1.941  -0.054  0.00  0.00     0.003 A 
ATOM      3  C3  I4B d   1       2.674   2.899   0.444  0.00  0.00     0.002 A 
ATOM      4  C4  I4B d   1       2.217   3.920   1.252  0.00  0.00    -0.004 A 
ATOM      5  C5  I4B d   1       0.878   3.963   1.632  0.00  0.00     0.002 A 
ATOM      6  C6  I4B d   1      -0.016   2.990   1.166  0.00  0.00     0.003 A 
ENDROOT
BRANCH   1   7
ATOM      7  C1' I4B d   1      -0.511   0.990  -0.267  0.00  0.00     0.060 C 
BRANCH   7   8
ATOM      8  C2' I4B d   1       0.251  -0.305  -0.466  0.00  0.00    -0.013 C 
ATOM      9  C4' I4B d   1      -0.203  -1.360   0.509  0.00  0.00     0.013 C 
ATOM     10  C3' I4B d   1       0.043  -0.751  -1.882  0.00  0.00     0.013 C 
ENDBRANCH   7   8
ENDBRANCH   1   7
TORSDOF 2
ENDMDL
