MODEL 1
REMARK minimizedAffinity -5.19892168
REMARK minimizedRMSD -1
REMARK  2 active torsions:
REMARK  status: ('A' for Active; 'I' for Inactive)
REMARK    1  A    between atoms: C2'_3  and  C1'_4 
REMARK    2  A    between atoms: C1'_4  and  C1_5 
ROOT
ATOM      1  C1  I4B d   1      -0.419   0.138  -0.132  0.00  0.00    -0.075 A 
ATOM      2  C2  I4B d   1      -0.270  -1.010  -0.870  0.00  0.00     0.003 A 
ATOM      3  C3  I4B d   1      -0.622  -2.264  -0.316  0.00  0.00     0.002 A 
ATOM      4  C4  I4B d   1      -1.069  -2.330   0.988  0.00  0.00    -0.004 A 
ATOM      5  C5  I4B d   1      -1.240  -1.163   1.727  0.00  0.00     0.002 A 
ATOM      6  C6  I4B d   1      -0.925   0.080   1.160  0.00  0.00     0.003 A 
ENDROOT
BRANCH   1   7
ATOM      7  C1' I4B d   1      -0.006   1.442  -0.736  0.00  0.00     0.060 C 
BRANCH   7   8
ATOM      8  C2' I4B d   1       0.642   2.276   0.351  0.00  0.00    -0.013 C 
ATOM      9  C4' I4B d   1       2.144   2.192   0.280  0.00  0.00     0.013 C 
ATOM     10  C3' I4B d   1       0.170   3.691   0.191  0.00  0.00     0.013 C 
ENDBRANCH   7   8
ENDBRANCH   1   7
TORSDOF 2
ENDMDL
