MODEL 1
REMARK minimizedAffinity -3.10769534
REMARK minimizedRMSD -1
REMARK  2 active torsions:
REMARK  status: ('A' for Active; 'I' for Inactive)
REMARK    1  A    between atoms: C2'_3  and  C1'_4 
REMARK    2  A    between atoms: C1'_4  and  C1_5 
ROOT
ATOM      1  C1  I4B d   1      -0.539  -1.778  -0.878  0.00  0.00    -0.075 A 
ATOM      2  C2  I4B d   1      -0.401  -2.723  -1.864  0.00  0.00     0.003 A 
ATOM      3  C3  I4B d   1       0.141  -2.366  -3.122  0.00  0.00     0.002 A 
ATOM      4  C4  I4B d   1       0.482  -1.052  -3.367  0.00  0.00    -0.004 A 
ATOM      5  C5  I4B d   1       0.362  -0.100  -2.359  0.00  0.00     0.002 A 
ATOM      6  C6  I4B d   1      -0.140  -0.467  -1.102  0.00  0.00     0.003 A 
ENDROOT
BRANCH   1   7
ATOM      7  C1' I4B d   1      -1.146  -2.183   0.428  0.00  0.00     0.060 C 
BRANCH   7   8
ATOM      8  C2' I4B d   1      -0.993  -1.024   1.393  0.00  0.00    -0.013 C 
ATOM      9  C4' I4B d   1      -2.034  -1.079   2.480  0.00  0.00     0.013 C 
ATOM     10  C3' I4B d   1       0.392  -1.079   1.966  0.00  0.00     0.013 C 
ENDBRANCH   7   8
ENDBRANCH   1   7
TORSDOF 2
ENDMDL
