MODEL 1
REMARK minimizedAffinity -2.41975331
REMARK minimizedRMSD -1
REMARK  2 active torsions:
REMARK  status: ('A' for Active; 'I' for Inactive)
REMARK    1  A    between atoms: C2'_3  and  C1'_4 
REMARK    2  A    between atoms: C1'_4  and  C1_5 
ROOT
ATOM      1  C1  I4B d   1      -0.207   1.319   0.027  0.00  0.00    -0.075 A 
ATOM      2  C2  I4B d   1       0.125   0.533  -1.048  0.00  0.00     0.003 A 
ATOM      3  C3  I4B d   1      -0.220  -0.841  -1.060  0.00  0.00     0.002 A 
ATOM      4  C4  I4B d   1      -0.847  -1.394   0.038  0.00  0.00    -0.004 A 
ATOM      5  C5  I4B d   1      -1.203  -0.591   1.117  0.00  0.00     0.002 A 
ATOM      6  C6  I4B d   1      -0.892   0.777   1.107  0.00  0.00     0.003 A 
ENDROOT
BRANCH   1   7
ATOM      7  C1' I4B d   1       0.201   2.758   0.021  0.00  0.00     0.060 C 
BRANCH   7   8
ATOM      8  C2' I4B d   1       1.337   2.925   1.011  0.00  0.00    -0.013 C 
ATOM      9  C4' I4B d   1       2.601   3.364   0.320  0.00  0.00     0.013 C 
ATOM     10  C3' I4B d   1       0.908   3.924   2.043  0.00  0.00     0.013 C 
ENDBRANCH   7   8
ENDBRANCH   1   7
TORSDOF 2
ENDMDL
