MODEL 1
REMARK minimizedAffinity -2.64576983
REMARK minimizedRMSD -1
REMARK  2 active torsions:
REMARK  status: ('A' for Active; 'I' for Inactive)
REMARK    1  A    between atoms: C2'_3  and  C1'_4 
REMARK    2  A    between atoms: C1'_4  and  C1_5 
ROOT
ATOM      1  C1  I4B d   1       0.035   0.755  -0.048  0.00  0.00    -0.075 A 
ATOM      2  C2  I4B d   1       0.539  -0.218  -0.875  0.00  0.00     0.003 A 
ATOM      3  C3  I4B d   1       0.122  -1.563  -0.729  0.00  0.00     0.002 A 
ATOM      4  C4  I4B d   1      -0.756  -1.897   0.282  0.00  0.00    -0.004 A 
ATOM      5  C5  I4B d   1      -1.283  -0.905   1.105  0.00  0.00     0.002 A 
ATOM      6  C6  I4B d   1      -0.895   0.431   0.932  0.00  0.00     0.003 A 
ENDROOT
BRANCH   1   7
ATOM      7  C1' I4B d   1       0.522   2.161  -0.208  0.00  0.00     0.060 C 
BRANCH   7   8
ATOM      8  C2' I4B d   1       1.851   2.279   0.510  0.00  0.00    -0.013 C 
ATOM      9  C4' I4B d   1       2.968   2.572  -0.457  0.00  0.00     0.013 C 
ATOM     10  C3' I4B d   1       1.727   3.362   1.539  0.00  0.00     0.013 C 
ENDBRANCH   7   8
ENDBRANCH   1   7
TORSDOF 2
ENDMDL
