MODEL 1
REMARK minimizedAffinity -1.84258568
REMARK minimizedRMSD -1
REMARK  2 active torsions:
REMARK  status: ('A' for Active; 'I' for Inactive)
REMARK    1  A    between atoms: C2'_3  and  C1'_4 
REMARK    2  A    between atoms: C1'_4  and  C1_5 
ROOT
ATOM      1  C1  I4B d   1      -0.447   0.860  -0.146  0.00  0.00    -0.075 A 
ATOM      2  C2  I4B d   1       0.160  -0.112  -0.902  0.00  0.00     0.003 A 
ATOM      3  C3  I4B d   1      -0.041  -1.480  -0.598  0.00  0.00     0.002 A 
ATOM      4  C4  I4B d   1      -0.810  -1.828   0.493  0.00  0.00    -0.004 A 
ATOM      5  C5  I4B d   1      -1.443  -0.842   1.244  0.00  0.00     0.002 A 
ATOM      6  C6  I4B d   1      -1.271   0.510   0.916  0.00  0.00     0.003 A 
ENDROOT
BRANCH   1   7
ATOM      7  C1' I4B d   1      -0.186   2.296  -0.474  0.00  0.00     0.060 C 
BRANCH   7   8
ATOM      8  C2' I4B d   1       0.602   2.901   0.669  0.00  0.00    -0.013 C 
ATOM      9  C4' I4B d   1       1.911   3.470   0.188  0.00  0.00     0.013 C 
ATOM     10  C3' I4B d   1      -0.246   3.959   1.308  0.00  0.00     0.013 C 
ENDBRANCH   7   8
ENDBRANCH   1   7
TORSDOF 2
ENDMDL
