MODEL 1
REMARK minimizedAffinity -4.57995844
REMARK minimizedRMSD -1
REMARK  2 active torsions:
REMARK  status: ('A' for Active; 'I' for Inactive)
REMARK    1  A    between atoms: C2'_3  and  C1'_4 
REMARK    2  A    between atoms: C1'_4  and  C1_5 
ROOT
ATOM      1  C1  I4B d   1       0.694  -1.206  -0.665  0.00  0.00    -0.075 A 
ATOM      2  C2  I4B d   1       0.960  -1.772  -1.887  0.00  0.00     0.003 A 
ATOM      3  C3  I4B d   1       0.572  -1.111  -3.078  0.00  0.00     0.002 A 
ATOM      4  C4  I4B d   1      -0.121   0.079  -3.000  0.00  0.00    -0.004 A 
ATOM      5  C5  I4B d   1      -0.370   0.662  -1.760  0.00  0.00     0.002 A 
ATOM      6  C6  I4B d   1       0.050   0.022  -0.586  0.00  0.00     0.003 A 
ENDROOT
BRANCH   1   7
ATOM      7  C1' I4B d   1       1.089  -1.947   0.573  0.00  0.00     0.060 C 
BRANCH   7   8
ATOM      8  C2' I4B d   1       0.018  -2.979   0.862  0.00  0.00    -0.013 C 
ATOM      9  C4' I4B d   1      -1.334  -2.333   1.015  0.00  0.00     0.013 C 
ATOM     10  C3' I4B d   1       0.019  -3.974  -0.260  0.00  0.00     0.013 C 
ENDBRANCH   7   8
ENDBRANCH   1   7
TORSDOF 2
ENDMDL
