MODEL 1
REMARK minimizedAffinity -2.96064758
REMARK minimizedRMSD -1
REMARK  0 active torsions:
REMARK  status: ('A' for Active; 'I' for Inactive)
ROOT
ATOM      1  C   UNL d   1       2.381   1.505   1.136  0.00  0.00     0.078 C 
ATOM      2  C1  UNL d   1       0.912   1.728   1.339  0.00  0.00    -0.077 A 
ATOM      3  C2  UNL d   1       0.152   2.430   0.396  0.00  0.00    -0.001 A 
ATOM      4  C3  UNL d   1      -1.212   2.639   0.603  0.00  0.00     0.003 A 
ATOM      5  C4  UNL d   1      -1.829   2.149   1.752  0.00  0.00    -0.005 A 
ATOM      6  C5  UNL d   1      -1.080   1.451   2.698  0.00  0.00     0.003 A 
ATOM      7  C6  UNL d   1       0.284   1.241   2.493  0.00  0.00    -0.001 A 
ENDROOT
TORSDOF 0
ENDMDL
