MODEL 1
REMARK minimizedAffinity 1.49320602
REMARK minimizedRMSD -1
REMARK  0 active torsions:
REMARK  status: ('A' for Active; 'I' for Inactive)
ROOT
ATOM      1  C   UNL d   1       0.066   0.240   3.447  0.00  0.00     0.078 C 
ATOM      2  C1  UNL d   1      -0.099   1.266   2.366  0.00  0.00    -0.077 A 
ATOM      3  C2  UNL d   1       0.809   1.347   1.303  0.00  0.00    -0.001 A 
ATOM      4  C3  UNL d   1       0.649   2.313   0.309  0.00  0.00     0.003 A 
ATOM      5  C4  UNL d   1      -0.419   3.207   0.368  0.00  0.00    -0.005 A 
ATOM      6  C5  UNL d   1      -1.326   3.136   1.423  0.00  0.00     0.003 A 
ATOM      7  C6  UNL d   1      -1.167   2.171   2.418  0.00  0.00    -0.001 A 
ENDROOT
TORSDOF 0
ENDMDL
