MODEL 1
REMARK minimizedAffinity 2.33929586
REMARK minimizedRMSD -1
REMARK  0 active torsions:
REMARK  status: ('A' for Active; 'I' for Inactive)
ROOT
ATOM      1  C   UNL d   1      -0.166  -4.016  -0.880  0.00  0.00     0.078 C 
ATOM      2  C1  UNL d   1       0.833  -3.214  -0.101  0.00  0.00    -0.077 A 
ATOM      3  C2  UNL d   1       0.775  -3.149   1.296  0.00  0.00    -0.001 A 
ATOM      4  C3  UNL d   1       1.706  -2.390   2.007  0.00  0.00     0.003 A 
ATOM      5  C4  UNL d   1       2.701  -1.689   1.330  0.00  0.00    -0.005 A 
ATOM      6  C5  UNL d   1       2.765  -1.745  -0.061  0.00  0.00     0.003 A 
ATOM      7  C6  UNL d   1       1.835  -2.503  -0.774  0.00  0.00    -0.001 A 
ENDROOT
TORSDOF 0
ENDMDL
