MODEL 1
REMARK minimizedAffinity 4.05799866
REMARK minimizedRMSD -1
REMARK  0 active torsions:
REMARK  status: ('A' for Active; 'I' for Inactive)
ROOT
ATOM      1  C   UNL d   1       1.606   1.911   0.232  0.00  0.00     0.078 C 
ATOM      2  C1  UNL d   1       1.726   0.430   0.026  0.00  0.00    -0.077 A 
ATOM      3  C2  UNL d   1       0.587  -0.377  -0.082  0.00  0.00    -0.001 A 
ATOM      4  C3  UNL d   1       0.713  -1.755  -0.264  0.00  0.00     0.003 A 
ATOM      5  C4  UNL d   1       1.977  -2.338  -0.338  0.00  0.00    -0.005 A 
ATOM      6  C5  UNL d   1       3.116  -1.543  -0.229  0.00  0.00     0.003 A 
ATOM      7  C6  UNL d   1       2.991  -0.165  -0.048  0.00  0.00    -0.001 A 
ENDROOT
TORSDOF 0
ENDMDL
