MODEL 1
REMARK minimizedAffinity 3.70372701
REMARK minimizedRMSD -1
REMARK  0 active torsions:
REMARK  status: ('A' for Active; 'I' for Inactive)
ROOT
ATOM      1  C   UNL d   1       1.135   0.612  -2.231  0.00  0.00    -0.002 A 
ATOM      2  C1  UNL d   1       1.547   0.258  -0.955  0.00  0.00     0.010 A 
ATOM      3  C2  UNL d   1       1.799   1.237   0.008  0.00  0.00     0.041 A 
ATOM      4  C3  UNL d   1       1.626   2.592  -0.337  0.00  0.00    -0.075 A 
ATOM      5  S   UNL d   1       1.874   3.963   0.678  0.00  0.00     0.015 SA
ATOM      6  C4  UNL d   1       1.438   5.052  -0.559  0.00  0.00     0.022 A 
ATOM      7  C5  UNL d   1       1.108   4.402  -1.725  0.00  0.00     0.026 A 
ATOM      8  C6  UNL d   1       1.211   2.974  -1.616  0.00  0.00    -0.082 A 
ATOM      9  C7  UNL d   1       0.964   1.957  -2.570  0.00  0.00     0.045 A 
ENDROOT
TORSDOF 0
ENDMDL
