MODEL 1
REMARK minimizedAffinity -0.140218168
REMARK minimizedRMSD -1
REMARK  0 active torsions:
REMARK  status: ('A' for Active; 'I' for Inactive)
ROOT
ATOM      1  C   UNL d   1       1.174   4.583  -0.173  0.00  0.00    -0.002 A 
ATOM      2  C1  UNL d   1       1.437   3.972   1.045  0.00  0.00     0.010 A 
ATOM      3  C2  UNL d   1       1.628   2.591   1.120  0.00  0.00     0.041 A 
ATOM      4  C3  UNL d   1       1.551   1.827  -0.061  0.00  0.00    -0.075 A 
ATOM      5  S   UNL d   1       1.751   0.121  -0.211  0.00  0.00     0.015 SA
ATOM      6  C4  UNL d   1       1.492   0.164  -1.895  0.00  0.00     0.022 A 
ATOM      7  C5  UNL d   1       1.257   1.440  -2.349  0.00  0.00     0.026 A 
ATOM      8  C6  UNL d   1       1.287   2.420  -1.299  0.00  0.00    -0.082 A 
ATOM      9  C7  UNL d   1       1.098   3.822  -1.342  0.00  0.00     0.045 A 
ENDROOT
TORSDOF 0
ENDMDL
