MODEL 1
REMARK minimizedAffinity 6.1988163
REMARK minimizedRMSD -1
REMARK  0 active torsions:
REMARK  status: ('A' for Active; 'I' for Inactive)
ROOT
ATOM      1  C   UNL d   1      -0.489  -1.524   4.942  0.00  0.00    -0.002 A 
ATOM      2  C1  UNL d   1      -1.246  -2.298   4.074  0.00  0.00     0.010 A 
ATOM      3  C2  UNL d   1      -2.214  -1.708   3.258  0.00  0.00     0.041 A 
ATOM      4  C3  UNL d   1      -2.407  -0.315   3.328  0.00  0.00    -0.075 A 
ATOM      5  S   UNL d   1      -3.534   0.625   2.422  0.00  0.00     0.015 SA
ATOM      6  C4  UNL d   1      -3.036   2.075   3.166  0.00  0.00     0.022 A 
ATOM      7  C5  UNL d   1      -2.035   1.866   4.085  0.00  0.00     0.026 A 
ATOM      8  C6  UNL d   1      -1.656   0.485   4.194  0.00  0.00    -0.082 A 
ATOM      9  C7  UNL d   1      -0.684  -0.142   5.009  0.00  0.00     0.045 A 
ENDROOT
TORSDOF 0
ENDMDL
