MODEL 1
REMARK minimizedAffinity 4.76167011
REMARK minimizedRMSD -1
REMARK  0 active torsions:
REMARK  status: ('A' for Active; 'I' for Inactive)
ROOT
ATOM      1  C   UNL d   1      -0.589  -1.680   3.907  0.00  0.00    -0.002 A 
ATOM      2  C1  UNL d   1      -0.457  -2.601   2.877  0.00  0.00     0.010 A 
ATOM      3  C2  UNL d   1      -1.251  -3.749   2.845  0.00  0.00     0.041 A 
ATOM      4  C3  UNL d   1      -2.191  -3.957   3.874  0.00  0.00    -0.075 A 
ATOM      5  S   UNL d   1      -3.272  -5.289   4.041  0.00  0.00     0.015 SA
ATOM      6  C4  UNL d   1      -3.935  -4.667   5.482  0.00  0.00     0.022 A 
ATOM      7  C5  UNL d   1      -3.357  -3.472   5.842  0.00  0.00     0.026 A 
ATOM      8  C6  UNL d   1      -2.343  -3.043   4.921  0.00  0.00    -0.082 A 
ATOM      9  C7  UNL d   1      -1.522  -1.889   4.926  0.00  0.00     0.045 A 
ENDROOT
TORSDOF 0
ENDMDL
