MODEL 1
REMARK minimizedAffinity -1.62508607
REMARK minimizedRMSD -1
REMARK  0 active torsions:
REMARK  status: ('A' for Active; 'I' for Inactive)
ROOT
ATOM      1  C   UNL d   1       1.145   2.397  -1.975  0.00  0.00    -0.002 A 
ATOM      2  C1  UNL d   1       1.205   3.762  -1.735  0.00  0.00     0.010 A 
ATOM      3  C2  UNL d   1       1.423   4.247  -0.444  0.00  0.00     0.041 A 
ATOM      4  C3  UNL d   1       1.582   3.328   0.612  0.00  0.00    -0.075 A 
ATOM      5  S   UNL d   1       1.859   3.691   2.274  0.00  0.00     0.015 SA
ATOM      6  C4  UNL d   1       1.905   2.043   2.704  0.00  0.00     0.022 A 
ATOM      7  C5  UNL d   1       1.715   1.221   1.619  0.00  0.00     0.026 A 
ATOM      8  C6  UNL d   1       1.526   1.948   0.395  0.00  0.00    -0.082 A 
ATOM      9  C7  UNL d   1       1.303   1.488  -0.926  0.00  0.00     0.045 A 
ENDROOT
TORSDOF 0
ENDMDL
