MODEL 1
REMARK minimizedAffinity 8.20562744
REMARK minimizedRMSD -1
REMARK  0 active torsions:
REMARK  status: ('A' for Active; 'I' for Inactive)
ROOT
ATOM      1  C   UNL d   1      -0.733  -2.907  -2.668  0.00  0.00    -0.002 A 
ATOM      2  C1  UNL d   1      -1.242  -3.868  -1.806  0.00  0.00     0.010 A 
ATOM      3  C2  UNL d   1      -0.578  -4.180  -0.618  0.00  0.00     0.041 A 
ATOM      4  C3  UNL d   1       0.617  -3.502  -0.307  0.00  0.00    -0.075 A 
ATOM      5  S   UNL d   1       1.600  -3.718   1.093  0.00  0.00     0.015 SA
ATOM      6  C4  UNL d   1       2.719  -2.539   0.580  0.00  0.00     0.022 A 
ATOM      7  C5  UNL d   1       2.367  -1.985  -0.627  0.00  0.00     0.026 A 
ATOM      8  C6  UNL d   1       1.149  -2.530  -1.158  0.00  0.00    -0.082 A 
ATOM      9  C7  UNL d   1       0.453  -2.237  -2.355  0.00  0.00     0.045 A 
ENDROOT
TORSDOF 0
ENDMDL
