MODEL 1
REMARK minimizedAffinity 6.34079933
REMARK minimizedRMSD -1
REMARK  0 active torsions:
REMARK  status: ('A' for Active; 'I' for Inactive)
ROOT
ATOM      1  C   UNL d   1       1.536  -0.173  -2.511  0.00  0.00    -0.002 A 
ATOM      2  C1  UNL d   1       1.600   1.204  -2.667  0.00  0.00     0.010 A 
ATOM      3  C2  UNL d   1       1.555   2.048  -1.555  0.00  0.00     0.041 A 
ATOM      4  C3  UNL d   1       1.446   1.478  -0.271  0.00  0.00    -0.075 A 
ATOM      5  S   UNL d   1       1.375   2.315   1.234  0.00  0.00     0.015 SA
ATOM      6  C4  UNL d   1       1.259   0.863   2.120  0.00  0.00     0.022 A 
ATOM      7  C5  UNL d   1       1.272  -0.242   1.303  0.00  0.00     0.026 A 
ATOM      8  C6  UNL d   1       1.381   0.094  -0.089  0.00  0.00    -0.082 A 
ATOM      9  C7  UNL d   1       1.427  -0.735  -1.236  0.00  0.00     0.045 A 
ENDROOT
TORSDOF 0
ENDMDL
