MODEL 1
REMARK minimizedAffinity -0.684651911
REMARK minimizedRMSD -1
REMARK  0 active torsions:
REMARK  status: ('A' for Active; 'I' for Inactive)
ROOT
ATOM      1  C   UNL d   1       1.223   3.261  -0.736  0.00  0.00    -0.002 A 
ATOM      2  C1  UNL d   1       1.087   2.935   0.605  0.00  0.00     0.010 A 
ATOM      3  C2  UNL d   1       1.105   1.601   1.018  0.00  0.00     0.041 A 
ATOM      4  C3  UNL d   1       1.266   0.591   0.050  0.00  0.00    -0.075 A 
ATOM      5  S   UNL d   1       1.320  -1.111   0.322  0.00  0.00     0.015 SA
ATOM      6  C4  UNL d   1       1.526  -1.445  -1.336  0.00  0.00     0.022 A 
ATOM      7  C5  UNL d   1       1.555  -0.298  -2.094  0.00  0.00     0.026 A 
ATOM      8  C6  UNL d   1       1.407   0.894  -1.308  0.00  0.00    -0.082 A 
ATOM      9  C7  UNL d   1       1.383   2.256  -1.694  0.00  0.00     0.045 A 
ENDROOT
TORSDOF 0
ENDMDL
