MODEL 1
REMARK minimizedAffinity -5.73314428
REMARK minimizedRMSD -1
REMARK  0 active torsions:
REMARK  status: ('A' for Active; 'I' for Inactive)
ROOT
ATOM      1  C   UNL d   1       1.328  -0.715  -1.473  0.00  0.00    -0.002 A 
ATOM      2  C1  UNL d   1       1.256   0.156  -2.551  0.00  0.00     0.010 A 
ATOM      3  C2  UNL d   1       1.195   1.536  -2.346  0.00  0.00     0.041 A 
ATOM      4  C3  UNL d   1       1.210   2.030  -1.027  0.00  0.00    -0.075 A 
ATOM      5  S   UNL d   1       1.145   3.682  -0.535  0.00  0.00     0.015 SA
ATOM      6  C4  UNL d   1       1.212   3.270   1.117  0.00  0.00     0.022 A 
ATOM      7  C5  UNL d   1       1.282   1.910   1.307  0.00  0.00     0.026 A 
ATOM      8  C6  UNL d   1       1.283   1.173   0.074  0.00  0.00    -0.082 A 
ATOM      9  C7  UNL d   1       1.342  -0.221  -0.166  0.00  0.00     0.045 A 
ENDROOT
TORSDOF 0
ENDMDL
