MODEL 1
REMARK minimizedAffinity -0.371182919
REMARK minimizedRMSD -1
REMARK  0 active torsions:
REMARK  status: ('A' for Active; 'I' for Inactive)
ROOT
ATOM      1  C   UNL d   1       1.094   1.744  -2.089  0.00  0.00    -0.002 A 
ATOM      2  C1  UNL d   1       1.109   1.204  -0.811  0.00  0.00     0.010 A 
ATOM      3  C2  UNL d   1       1.261   2.029   0.306  0.00  0.00     0.041 A 
ATOM      4  C3  UNL d   1       1.396   3.418   0.115  0.00  0.00    -0.075 A 
ATOM      5  S   UNL d   1       1.593   4.621   1.334  0.00  0.00     0.015 SA
ATOM      6  C4  UNL d   1       1.660   5.879   0.186  0.00  0.00     0.022 A 
ATOM      7  C5  UNL d   1       1.538   5.411  -1.100  0.00  0.00     0.026 A 
ATOM      8  C6  UNL d   1       1.383   3.984  -1.163  0.00  0.00    -0.082 A 
ATOM      9  C7  UNL d   1       1.229   3.122  -2.275  0.00  0.00     0.045 A 
ENDROOT
TORSDOF 0
ENDMDL
