MODEL 1
REMARK minimizedAffinity -2.08703637
REMARK minimizedRMSD -1
REMARK  0 active torsions:
REMARK  status: ('A' for Active; 'I' for Inactive)
ROOT
ATOM      1  C   UNL d   1       0.924   0.331  -1.339  0.00  0.00    -0.002 A 
ATOM      2  C1  UNL d   1       0.785   0.230   0.038  0.00  0.00     0.010 A 
ATOM      3  C2  UNL d   1       0.915   1.358   0.850  0.00  0.00     0.041 A 
ATOM      4  C3  UNL d   1       1.187   2.603   0.248  0.00  0.00    -0.075 A 
ATOM      5  S   UNL d   1       1.387   4.120   1.043  0.00  0.00     0.015 SA
ATOM      6  C4  UNL d   1       1.659   4.938  -0.427  0.00  0.00     0.022 A 
ATOM      7  C5  UNL d   1       1.604   4.090  -1.508  0.00  0.00     0.026 A 
ATOM      8  C6  UNL d   1       1.330   2.730  -1.136  0.00  0.00    -0.082 A 
ATOM      9  C7  UNL d   1       1.194   1.567  -1.932  0.00  0.00     0.045 A 
ENDROOT
TORSDOF 0
ENDMDL
