MODEL 1
REMARK minimizedAffinity -1.37969518
REMARK minimizedRMSD -1
REMARK  0 active torsions:
REMARK  status: ('A' for Active; 'I' for Inactive)
ROOT
ATOM      1  C   UNL d   1       1.214   0.055  -1.132  0.00  0.00    -0.002 A 
ATOM      2  C1  UNL d   1       1.270  -0.018   0.252  0.00  0.00     0.010 A 
ATOM      3  C2  UNL d   1       1.409   1.140   1.019  0.00  0.00     0.041 A 
ATOM      4  C3  UNL d   1       1.490   2.385   0.365  0.00  0.00    -0.075 A 
ATOM      5  S   UNL d   1       1.661   3.936   1.099  0.00  0.00     0.015 SA
ATOM      6  C4  UNL d   1       1.664   4.732  -0.408  0.00  0.00     0.022 A 
ATOM      7  C5  UNL d   1       1.538   3.851  -1.456  0.00  0.00     0.026 A 
ATOM      8  C6  UNL d   1       1.435   2.484  -1.028  0.00  0.00    -0.082 A 
ATOM      9  C7  UNL d   1       1.295   1.292  -1.778  0.00  0.00     0.045 A 
ENDROOT
TORSDOF 0
ENDMDL
