MODEL 1
REMARK minimizedAffinity 1.59643209
REMARK minimizedRMSD -1
REMARK  0 active torsions:
REMARK  status: ('A' for Active; 'I' for Inactive)
ROOT
ATOM      1  C   UNL d   1      -0.750   1.499   5.227  0.00  0.00    -0.002 A 
ATOM      2  C1  UNL d   1      -1.898   1.603   6.000  0.00  0.00     0.010 A 
ATOM      3  C2  UNL d   1      -3.146   1.776   5.398  0.00  0.00     0.041 A 
ATOM      4  C3  UNL d   1      -3.222   1.843   3.993  0.00  0.00    -0.075 A 
ATOM      5  S   UNL d   1      -4.642   2.051   3.038  0.00  0.00     0.015 SA
ATOM      6  C4  UNL d   1      -3.758   2.007   1.581  0.00  0.00     0.022 A 
ATOM      7  C5  UNL d   1      -2.411   1.839   1.800  0.00  0.00     0.026 A 
ATOM      8  C6  UNL d   1      -2.080   1.741   3.194  0.00  0.00    -0.082 A 
ATOM      9  C7  UNL d   1      -0.830   1.566   3.834  0.00  0.00     0.045 A 
ENDROOT
TORSDOF 0
ENDMDL
