MODEL 1
REMARK minimizedAffinity 5.98301601
REMARK minimizedRMSD -1
REMARK  0 active torsions:
REMARK  status: ('A' for Active; 'I' for Inactive)
ROOT
ATOM      1  C   UNL d   1      -4.905   1.277   2.928  0.00  0.00    -0.002 A 
ATOM      2  C1  UNL d   1      -5.619   1.296   4.117  0.00  0.00     0.010 A 
ATOM      3  C2  UNL d   1      -5.999   0.104   4.737  0.00  0.00     0.041 A 
ATOM      4  C3  UNL d   1      -5.644  -1.120   4.135  0.00  0.00    -0.075 A 
ATOM      5  S   UNL d   1      -6.000  -2.705   4.714  0.00  0.00     0.015 SA
ATOM      6  C4  UNL d   1      -5.211  -3.444   3.396  0.00  0.00     0.022 A 
ATOM      7  C5  UNL d   1      -4.684  -2.519   2.526  0.00  0.00     0.026 A 
ATOM      8  C6  UNL d   1      -4.924  -1.164   2.938  0.00  0.00    -0.082 A 
ATOM      9  C7  UNL d   1      -4.554   0.062   2.334  0.00  0.00     0.045 A 
ENDROOT
TORSDOF 0
ENDMDL
