MODEL 1
REMARK minimizedAffinity 13.0209904
REMARK minimizedRMSD -1
REMARK  0 active torsions:
REMARK  status: ('A' for Active; 'I' for Inactive)
ROOT
ATOM      1  C   UNL d   1       1.150   1.503  -2.229  0.00  0.00    -0.002 A 
ATOM      2  C1  UNL d   1       1.134   0.999  -0.937  0.00  0.00     0.010 A 
ATOM      3  C2  UNL d   1       1.320   1.844   0.159  0.00  0.00     0.041 A 
ATOM      4  C3  UNL d   1       1.522   3.220  -0.069  0.00  0.00    -0.075 A 
ATOM      5  S   UNL d   1       1.771   4.445   1.119  0.00  0.00     0.015 SA
ATOM      6  C4  UNL d   1       1.903   5.667  -0.062  0.00  0.00     0.022 A 
ATOM      7  C5  UNL d   1       1.764   5.170  -1.336  0.00  0.00     0.026 A 
ATOM      8  C6  UNL d   1       1.542   3.752  -1.361  0.00  0.00    -0.082 A 
ATOM      9  C7  UNL d   1       1.351   2.868  -2.451  0.00  0.00     0.045 A 
ENDROOT
TORSDOF 0
ENDMDL
