MODEL 1
REMARK minimizedAffinity -1.26835012
REMARK minimizedRMSD -1
REMARK  0 active torsions:
REMARK  status: ('A' for Active; 'I' for Inactive)
ROOT
ATOM      1  C   UNL d   1       3.492  -0.192  -1.561  0.00  0.00     0.023 A 
ATOM      2  C1  UNL d   1       3.248  -1.477  -1.075  0.00  0.00     0.003 A 
ATOM      3  C2  UNL d   1       2.294  -1.676  -0.075  0.00  0.00     0.048 A 
ATOM      4  C3  UNL d   1       1.587  -0.587   0.433  0.00  0.00     0.023 A 
ATOM      5  C4  UNL d   1       1.827   0.699  -0.051  0.00  0.00     0.048 A 
ATOM      6  C5  UNL d   1       2.782   0.894  -1.050  0.00  0.00     0.003 A 
ATOM      7  I   UNL d   1       0.166  -0.882   1.921  0.00  0.00    -0.146 I 
ENDROOT
TORSDOF 0
ENDMDL
