MODEL 1
REMARK minimizedAffinity -4.99384022
REMARK minimizedRMSD -1
REMARK  0 active torsions:
REMARK  status: ('A' for Active; 'I' for Inactive)
ROOT
ATOM      1  C   UNL d   1       3.669  -0.001  -1.438  0.00  0.00     0.023 A 
ATOM      2  C1  UNL d   1       2.842   1.085  -1.151  0.00  0.00     0.003 A 
ATOM      3  C2  UNL d   1       1.728   0.917  -0.327  0.00  0.00     0.048 A 
ATOM      4  C3  UNL d   1       1.447  -0.340   0.209  0.00  0.00     0.023 A 
ATOM      5  C4  UNL d   1       2.272  -1.429  -0.075  0.00  0.00     0.048 A 
ATOM      6  C5  UNL d   1       3.384  -1.257  -0.901  0.00  0.00     0.003 A 
ATOM      7  I   UNL d   1      -0.211  -0.592   1.437  0.00  0.00    -0.146 I 
ENDROOT
TORSDOF 0
ENDMDL
