MODEL 1
REMARK minimizedAffinity 5.51017141
REMARK minimizedRMSD -1
REMARK  0 active torsions:
REMARK  status: ('A' for Active; 'I' for Inactive)
ROOT
ATOM      1  C   UNL d   1       2.187   0.915   0.198  0.00  0.00     0.023 A 
ATOM      2  C1  UNL d   1       1.401   1.330   1.273  0.00  0.00     0.003 A 
ATOM      3  C2  UNL d   1       0.311   0.558   1.681  0.00  0.00     0.048 A 
ATOM      4  C3  UNL d   1       0.014  -0.628   1.011  0.00  0.00     0.023 A 
ATOM      5  C4  UNL d   1       0.799  -1.048  -0.065  0.00  0.00     0.048 A 
ATOM      6  C5  UNL d   1       1.887  -0.272  -0.470  0.00  0.00     0.003 A 
ATOM      7  I   UNL d   1      -1.607  -1.779   1.617  0.00  0.00    -0.146 I 
ENDROOT
TORSDOF 0
ENDMDL
