MODEL 1
REMARK minimizedAffinity 1.045344
REMARK minimizedRMSD -1
REMARK  0 active torsions:
REMARK  status: ('A' for Active; 'I' for Inactive)
ROOT
ATOM      1  C   UNL d   1       1.170  -0.285   0.196  0.00  0.00     0.023 A 
ATOM      2  C1  UNL d   1       1.524   0.858  -0.521  0.00  0.00     0.003 A 
ATOM      3  C2  UNL d   1       2.675   0.859  -1.311  0.00  0.00     0.048 A 
ATOM      4  C3  UNL d   1       3.468  -0.286  -1.380  0.00  0.00     0.023 A 
ATOM      5  C4  UNL d   1       3.118  -1.432  -0.664  0.00  0.00     0.048 A 
ATOM      6  C5  UNL d   1       1.966  -1.428   0.125  0.00  0.00     0.003 A 
ATOM      7  I   UNL d   1       5.182  -0.286  -2.555  0.00  0.00    -0.146 I 
ENDROOT
TORSDOF 0
ENDMDL
