MODEL 1
REMARK minimizedAffinity 1.87612629
REMARK minimizedRMSD -1
REMARK  0 active torsions:
REMARK  status: ('A' for Active; 'I' for Inactive)
ROOT
ATOM      1  C   UNL d   1       1.127   0.350   0.391  0.00  0.00     0.023 A 
ATOM      2  C1  UNL d   1       1.495  -0.981   0.198  0.00  0.00     0.003 A 
ATOM      3  C2  UNL d   1       2.620  -1.291  -0.569  0.00  0.00     0.048 A 
ATOM      4  C3  UNL d   1       3.372  -0.265  -1.140  0.00  0.00     0.023 A 
ATOM      5  C4  UNL d   1       3.008   1.069  -0.949  0.00  0.00     0.048 A 
ATOM      6  C5  UNL d   1       1.882   1.374  -0.182  0.00  0.00     0.003 A 
ATOM      7  I   UNL d   1       5.047  -0.724  -2.282  0.00  0.00    -0.146 I 
ENDROOT
TORSDOF 0
ENDMDL
