MODEL 1
REMARK minimizedAffinity -5.43820953
REMARK minimizedRMSD -1
REMARK  0 active torsions:
REMARK  status: ('A' for Active; 'I' for Inactive)
ROOT
ATOM      1  C   UNL d   1       0.598  -0.472   0.492  0.00  0.00     0.023 A 
ATOM      2  C1  UNL d   1       1.215  -1.655   0.085  0.00  0.00     0.003 A 
ATOM      3  C2  UNL d   1       2.370  -1.608  -0.698  0.00  0.00     0.048 A 
ATOM      4  C3  UNL d   1       2.904  -0.374  -1.069  0.00  0.00     0.023 A 
ATOM      5  C4  UNL d   1       2.291   0.812  -0.663  0.00  0.00     0.048 A 
ATOM      6  C5  UNL d   1       1.135   0.760   0.119  0.00  0.00     0.003 A 
ATOM      7  I   UNL d   1       4.623  -0.301  -2.235  0.00  0.00    -0.146 I 
ENDROOT
TORSDOF 0
ENDMDL
