MODEL 1
REMARK minimizedAffinity 4.41587162
REMARK minimizedRMSD -1
REMARK  0 active torsions:
REMARK  status: ('A' for Active; 'I' for Inactive)
ROOT
ATOM      1  C   UNL d   1       1.929   0.220  -0.378  0.00  0.00     0.023 A 
ATOM      2  C1  UNL d   1       0.650  -0.062   0.102  0.00  0.00     0.003 A 
ATOM      3  C2  UNL d   1       0.396  -1.273   0.747  0.00  0.00     0.048 A 
ATOM      4  C3  UNL d   1       1.426  -2.199   0.911  0.00  0.00     0.023 A 
ATOM      5  C4  UNL d   1       2.708  -1.921   0.433  0.00  0.00     0.048 A 
ATOM      6  C5  UNL d   1       2.957  -0.709  -0.213  0.00  0.00     0.003 A 
ATOM      7  I   UNL d   1       1.051  -4.003   1.872  0.00  0.00    -0.146 I 
ENDROOT
TORSDOF 0
ENDMDL
