MODEL 1
REMARK minimizedAffinity 6.09351778
REMARK minimizedRMSD -1
REMARK  0 active torsions:
REMARK  status: ('A' for Active; 'I' for Inactive)
ROOT
ATOM      1  C   UNL d   1       1.778  -2.247   0.285  0.00  0.00     0.023 A 
ATOM      2  C1  UNL d   1       2.941  -1.635  -0.184  0.00  0.00     0.003 A 
ATOM      3  C2  UNL d   1       3.077  -0.247  -0.116  0.00  0.00     0.048 A 
ATOM      4  C3  UNL d   1       2.048   0.523   0.425  0.00  0.00     0.023 A 
ATOM      5  C4  UNL d   1       0.884  -0.084   0.896  0.00  0.00     0.048 A 
ATOM      6  C5  UNL d   1       0.751  -1.472   0.825  0.00  0.00     0.003 A 
ATOM      7  I   UNL d   1       2.249   2.589   0.528  0.00  0.00    -0.146 I 
ENDROOT
TORSDOF 0
ENDMDL
