MODEL 1
REMARK minimizedAffinity 6.62281942
REMARK minimizedRMSD -1
REMARK  0 active torsions:
REMARK  status: ('A' for Active; 'I' for Inactive)
ROOT
ATOM      1  C   UNL d   1      -0.764   2.211  -4.313  0.00  0.00     0.023 A 
ATOM      2  C1  UNL d   1       0.373   2.846  -3.813  0.00  0.00     0.003 A 
ATOM      3  C2  UNL d   1       0.243   3.934  -2.947  0.00  0.00     0.048 A 
ATOM      4  C3  UNL d   1      -1.026   4.381  -2.584  0.00  0.00     0.023 A 
ATOM      5  C4  UNL d   1      -2.167   3.748  -3.080  0.00  0.00     0.048 A 
ATOM      6  C5  UNL d   1      -2.033   2.662  -3.947  0.00  0.00     0.003 A 
ATOM      7  I   UNL d   1      -1.222   5.999  -1.294  0.00  0.00    -0.146 I 
ENDROOT
TORSDOF 0
ENDMDL
