MODEL 1
REMARK minimizedAffinity -3.68421555
REMARK minimizedRMSD -1
REMARK  0 active torsions:
REMARK  status: ('A' for Active; 'I' for Inactive)
ROOT
ATOM      1  C   UNL d   1       1.092  -0.761   0.162  0.00  0.00     0.023 A 
ATOM      2  C1  UNL d   1       1.954  -1.841  -0.027  0.00  0.00     0.003 A 
ATOM      3  C2  UNL d   1       3.081  -1.703  -0.841  0.00  0.00     0.048 A 
ATOM      4  C3  UNL d   1       3.340  -0.482  -1.461  0.00  0.00     0.023 A 
ATOM      5  C4  UNL d   1       2.481   0.602  -1.275  0.00  0.00     0.048 A 
ATOM      6  C5  UNL d   1       1.356   0.459  -0.461  0.00  0.00     0.003 A 
ATOM      7  I   UNL d   1       5.017  -0.274  -2.672  0.00  0.00    -0.146 I 
ENDROOT
TORSDOF 0
ENDMDL
