MODEL 1
REMARK minimizedAffinity 4.79044628
REMARK minimizedRMSD -1
REMARK  0 active torsions:
REMARK  status: ('A' for Active; 'I' for Inactive)
ROOT
ATOM      1  C   UNL d   1       1.454  -0.279  -1.297  0.00  0.00     0.023 A 
ATOM      2  C1  UNL d   1       1.046  -1.155  -0.292  0.00  0.00     0.003 A 
ATOM      3  C2  UNL d   1       1.102  -0.761   1.046  0.00  0.00     0.048 A 
ATOM      4  C3  UNL d   1       1.567   0.513   1.372  0.00  0.00     0.023 A 
ATOM      5  C4  UNL d   1       1.976   1.394   0.370  0.00  0.00     0.048 A 
ATOM      6  C5  UNL d   1       1.919   0.994  -0.966  0.00  0.00     0.003 A 
ATOM      7  I   UNL d   1       1.652   1.103   3.364  0.00  0.00    -0.146 I 
ENDROOT
TORSDOF 0
ENDMDL
