MODEL 1
REMARK minimizedAffinity -0.639886975
REMARK minimizedRMSD -1
REMARK  0 active torsions:
REMARK  status: ('A' for Active; 'I' for Inactive)
ROOT
ATOM      1  C   UNL d   1       0.868   0.028   0.484  0.00  0.00     0.023 A 
ATOM      2  C1  UNL d   1       1.253  -1.277   0.175  0.00  0.00     0.003 A 
ATOM      3  C2  UNL d   1       2.403  -1.505  -0.585  0.00  0.00     0.048 A 
ATOM      4  C3  UNL d   1       3.163  -0.424  -1.030  0.00  0.00     0.023 A 
ATOM      5  C4  UNL d   1       2.781   0.883  -0.722  0.00  0.00     0.048 A 
ATOM      6  C5  UNL d   1       1.631   1.106   0.037  0.00  0.00     0.003 A 
ATOM      7  I   UNL d   1       4.874  -0.761  -2.160  0.00  0.00    -0.146 I 
ENDROOT
TORSDOF 0
ENDMDL
