MODEL 1
REMARK minimizedAffinity -2.03260708
REMARK minimizedRMSD -1
REMARK  0 active torsions:
REMARK  status: ('A' for Active; 'I' for Inactive)
ROOT
ATOM      1  C   UNL d   1      -0.975   1.709   1.512  0.00  0.00     0.023 A 
ATOM      2  C1  UNL d   1      -0.996   0.381   1.937  0.00  0.00     0.003 A 
ATOM      3  C2  UNL d   1      -0.371  -0.608   1.174  0.00  0.00     0.048 A 
ATOM      4  C3  UNL d   1       0.274  -0.262  -0.012  0.00  0.00     0.023 A 
ATOM      5  C4  UNL d   1       0.298   1.066  -0.442  0.00  0.00     0.048 A 
ATOM      6  C5  UNL d   1      -0.329   2.051   0.324  0.00  0.00     0.003 A 
ATOM      7  I   UNL d   1       1.204  -1.732  -1.149  0.00  0.00    -0.146 I 
ENDROOT
TORSDOF 0
ENDMDL
