MODEL 1
REMARK minimizedAffinity -1.0035373
REMARK minimizedRMSD -1
REMARK  0 active torsions:
REMARK  status: ('A' for Active; 'I' for Inactive)
ROOT
ATOM      1  C   UNL d   1      -0.815   1.471   1.280  0.00  0.00     0.023 A 
ATOM      2  C1  UNL d   1      -0.822   0.221   1.899  0.00  0.00     0.003 A 
ATOM      3  C2  UNL d   1      -0.352  -0.902   1.214  0.00  0.00     0.048 A 
ATOM      4  C3  UNL d   1       0.124  -0.767  -0.089  0.00  0.00     0.023 A 
ATOM      5  C4  UNL d   1       0.134   0.482  -0.713  0.00  0.00     0.048 A 
ATOM      6  C5  UNL d   1      -0.338   1.601  -0.024  0.00  0.00     0.003 A 
ATOM      7  I   UNL d   1       0.824  -2.436  -1.111  0.00  0.00    -0.146 I 
ENDROOT
TORSDOF 0
ENDMDL
