MODEL 1
REMARK minimizedAffinity -0.491171151
REMARK minimizedRMSD -1
REMARK  0 active torsions:
REMARK  status: ('A' for Active; 'I' for Inactive)
ROOT
ATOM      1  C   UNL d   1       0.065  -3.546  -2.796  0.00  0.00     0.023 A 
ATOM      2  C1  UNL d   1       0.849  -3.575  -1.642  0.00  0.00     0.003 A 
ATOM      3  C2  UNL d   1       0.684  -2.598  -0.659  0.00  0.00     0.048 A 
ATOM      4  C3  UNL d   1      -0.269  -1.595  -0.834  0.00  0.00     0.023 A 
ATOM      5  C4  UNL d   1      -1.056  -1.562  -1.986  0.00  0.00     0.048 A 
ATOM      6  C5  UNL d   1      -0.887  -2.540  -2.967  0.00  0.00     0.003 A 
ATOM      7  I   UNL d   1      -0.517  -0.140   0.629  0.00  0.00    -0.146 I 
ENDROOT
TORSDOF 0
ENDMDL
