MODEL 1
REMARK minimizedAffinity -2.84969449
REMARK minimizedRMSD -1
REMARK  0 active torsions:
REMARK  status: ('A' for Active; 'I' for Inactive)
ROOT
ATOM      1  C   UNL d   1      -0.896   2.210   1.424  0.00  0.00     0.023 A 
ATOM      2  C1  UNL d   1      -0.223   2.475   0.231  0.00  0.00     0.003 A 
ATOM      3  C2  UNL d   1       0.322   1.426  -0.512  0.00  0.00     0.048 A 
ATOM      4  C3  UNL d   1       0.191   0.114  -0.057  0.00  0.00     0.023 A 
ATOM      5  C4  UNL d   1      -0.482  -0.155   1.136  0.00  0.00     0.048 A 
ATOM      6  C5  UNL d   1      -1.025   0.896   1.876  0.00  0.00     0.003 A 
ATOM      7  I   UNL d   1       1.002  -1.448  -1.161  0.00  0.00    -0.146 I 
ENDROOT
TORSDOF 0
ENDMDL
