MODEL 1
REMARK minimizedAffinity 0.0442404971
REMARK minimizedRMSD -1
REMARK  0 active torsions:
REMARK  status: ('A' for Active; 'I' for Inactive)
ROOT
ATOM      1  C   UNL d   1      -1.166   2.246   1.816  0.00  0.00     0.023 A 
ATOM      2  C1  UNL d   1      -0.641   2.590   0.571  0.00  0.00     0.003 A 
ATOM      3  C2  UNL d   1      -0.081   1.608  -0.249  0.00  0.00     0.048 A 
ATOM      4  C3  UNL d   1      -0.052   0.282   0.183  0.00  0.00     0.023 A 
ATOM      5  C4  UNL d   1      -0.577  -0.068   1.428  0.00  0.00     0.048 A 
ATOM      6  C5  UNL d   1      -1.134   0.918   2.244  0.00  0.00     0.003 A 
ATOM      7  I   UNL d   1       0.780  -1.182  -1.035  0.00  0.00    -0.146 I 
ENDROOT
TORSDOF 0
ENDMDL
