MODEL 1
REMARK minimizedAffinity -2.43954897
REMARK minimizedRMSD -1
REMARK  0 active torsions:
REMARK  status: ('A' for Active; 'I' for Inactive)
ROOT
ATOM      1  C   UNL d   1       0.235  -3.592  -2.625  0.00  0.00     0.023 A 
ATOM      2  C1  UNL d   1       1.354  -2.957  -2.084  0.00  0.00     0.003 A 
ATOM      3  C2  UNL d   1       1.193  -1.932  -1.150  0.00  0.00     0.048 A 
ATOM      4  C3  UNL d   1      -0.089  -1.547  -0.760  0.00  0.00     0.023 A 
ATOM      5  C4  UNL d   1      -1.211  -2.179  -1.297  0.00  0.00     0.048 A 
ATOM      6  C5  UNL d   1      -1.046  -3.203  -2.231  0.00  0.00     0.003 A 
ATOM      7  I   UNL d   1      -0.330  -0.021   0.631  0.00  0.00    -0.146 I 
ENDROOT
TORSDOF 0
ENDMDL
