MODEL 1
REMARK minimizedAffinity -1.51432455
REMARK minimizedRMSD -1
REMARK  0 active torsions:
REMARK  status: ('A' for Active; 'I' for Inactive)
ROOT
ATOM      1  C   UNL d   1       0.332   1.506  -1.881  0.00  0.00     0.023 A 
ATOM      2  C1  UNL d   1       1.086   0.366  -1.602  0.00  0.00     0.003 A 
ATOM      3  C2  UNL d   1       0.857  -0.354  -0.427  0.00  0.00     0.048 A 
ATOM      4  C3  UNL d   1      -0.128   0.072   0.464  0.00  0.00     0.023 A 
ATOM      5  C4  UNL d   1      -0.885   1.212   0.188  0.00  0.00     0.048 A 
ATOM      6  C5  UNL d   1      -0.652   1.929  -0.987  0.00  0.00     0.003 A 
ATOM      7  I   UNL d   1      -0.470  -0.996   2.213  0.00  0.00    -0.146 I 
ENDROOT
TORSDOF 0
ENDMDL
