MODEL 1
REMARK minimizedAffinity 2.52401567
REMARK minimizedRMSD -1
REMARK  0 active torsions:
REMARK  status: ('A' for Active; 'I' for Inactive)
ROOT
ATOM      1  C   UNL d   1      -1.557   1.319   2.534  0.00  0.00     0.023 A 
ATOM      2  C1  UNL d   1      -1.312   2.176   1.461  0.00  0.00     0.003 A 
ATOM      3  C2  UNL d   1      -0.585   1.725   0.358  0.00  0.00     0.048 A 
ATOM      4  C3  UNL d   1      -0.105   0.416   0.334  0.00  0.00     0.023 A 
ATOM      5  C4  UNL d   1      -0.348  -0.445   1.405  0.00  0.00     0.048 A 
ATOM      6  C5  UNL d   1      -1.075   0.010   2.506  0.00  0.00     0.003 A 
ATOM      7  I   UNL d   1       0.978  -0.257  -1.307  0.00  0.00    -0.146 I 
ENDROOT
TORSDOF 0
ENDMDL
