MODEL 1
REMARK minimizedAffinity -2.96153784
REMARK minimizedRMSD -1
REMARK  0 active torsions:
REMARK  status: ('A' for Active; 'I' for Inactive)
ROOT
ATOM      1  C   UNL d   1      -1.963   1.887   1.253  0.00  0.00     0.023 A 
ATOM      2  C1  UNL d   1      -1.353   0.886   2.009  0.00  0.00     0.003 A 
ATOM      3  C2  UNL d   1      -0.600  -0.107   1.378  0.00  0.00     0.048 A 
ATOM      4  C3  UNL d   1      -0.461  -0.093  -0.009  0.00  0.00     0.023 A 
ATOM      5  C4  UNL d   1      -1.069   0.907  -0.770  0.00  0.00     0.048 A 
ATOM      6  C5  UNL d   1      -1.822   1.897  -0.135  0.00  0.00     0.003 A 
ATOM      7  I   UNL d   1       0.659  -1.569  -0.950  0.00  0.00    -0.146 I 
ENDROOT
TORSDOF 0
ENDMDL
