MODEL 1
REMARK minimizedAffinity -3.55148077
REMARK minimizedRMSD -1
REMARK  0 active torsions:
REMARK  status: ('A' for Active; 'I' for Inactive)
ROOT
ATOM      1  C   UNL d   1       0.541  -0.351  -3.225  0.00  0.00     0.023 A 
ATOM      2  C1  UNL d   1       0.535   0.788  -2.420  0.00  0.00     0.003 A 
ATOM      3  C2  UNL d   1       0.395   0.666  -1.036  0.00  0.00     0.048 A 
ATOM      4  C3  UNL d   1       0.263  -0.599  -0.464  0.00  0.00     0.023 A 
ATOM      5  C4  UNL d   1       0.269  -1.742  -1.266  0.00  0.00     0.048 A 
ATOM      6  C5  UNL d   1       0.408  -1.614  -2.649  0.00  0.00     0.003 A 
ATOM      7  I   UNL d   1       0.055  -0.784   1.596  0.00  0.00    -0.146 I 
ENDROOT
TORSDOF 0
ENDMDL
