MODEL 1
REMARK minimizedAffinity -3.60494328
REMARK minimizedRMSD -1
REMARK  0 active torsions:
REMARK  status: ('A' for Active; 'I' for Inactive)
ROOT
ATOM      1  C   UNL d   1       0.364   3.263  -0.489  0.00  0.00     0.023 A 
ATOM      2  C1  UNL d   1      -0.363   3.178   0.698  0.00  0.00     0.003 A 
ATOM      3  C2  UNL d   1      -0.458   1.960   1.375  0.00  0.00     0.048 A 
ATOM      4  C3  UNL d   1       0.178   0.831   0.859  0.00  0.00     0.023 A 
ATOM      5  C4  UNL d   1       0.907   0.911  -0.329  0.00  0.00     0.048 A 
ATOM      6  C5  UNL d   1       0.999   2.131  -1.002  0.00  0.00     0.003 A 
ATOM      7  I   UNL d   1       0.038  -0.982   1.864  0.00  0.00    -0.146 I 
ENDROOT
TORSDOF 0
ENDMDL
