MODEL 1
REMARK minimizedAffinity -2.54387736
REMARK minimizedRMSD -1
REMARK  0 active torsions:
REMARK  status: ('A' for Active; 'I' for Inactive)
ROOT
ATOM      1  C   UNL d   1       0.507  -3.967  -2.738  0.00  0.00     0.023 A 
ATOM      2  C1  UNL d   1       1.418  -3.771  -1.699  0.00  0.00     0.003 A 
ATOM      3  C2  UNL d   1       1.366  -2.604  -0.934  0.00  0.00     0.048 A 
ATOM      4  C3  UNL d   1       0.399  -1.638  -1.212  0.00  0.00     0.023 A 
ATOM      5  C4  UNL d   1      -0.515  -1.830  -2.249  0.00  0.00     0.048 A 
ATOM      6  C5  UNL d   1      -0.458  -2.998  -3.012  0.00  0.00     0.003 A 
ATOM      7  I   UNL d   1       0.319   0.100  -0.075  0.00  0.00    -0.146 I 
ENDROOT
TORSDOF 0
ENDMDL
