MODEL 1
REMARK minimizedAffinity -2.82891583
REMARK minimizedRMSD -1
REMARK  0 active torsions:
REMARK  status: ('A' for Active; 'I' for Inactive)
ROOT
ATOM      1  C   UNL d   1       0.517  -2.352  -1.537  0.00  0.00     0.023 A 
ATOM      2  C1  UNL d   1       1.425  -1.717  -0.689  0.00  0.00     0.003 A 
ATOM      3  C2  UNL d   1       0.995  -0.688   0.152  0.00  0.00     0.048 A 
ATOM      4  C3  UNL d   1      -0.344  -0.299   0.139  0.00  0.00     0.023 A 
ATOM      5  C4  UNL d   1      -1.256  -0.932  -0.707  0.00  0.00     0.048 A 
ATOM      6  C5  UNL d   1      -0.822  -1.960  -1.546  0.00  0.00     0.003 A 
ATOM      7  I   UNL d   1      -0.987   1.232   1.389  0.00  0.00    -0.146 I 
ENDROOT
TORSDOF 0
ENDMDL
