MODEL 1
REMARK minimizedAffinity -4.83659554
REMARK minimizedRMSD -1
REMARK  0 active torsions:
REMARK  status: ('A' for Active; 'I' for Inactive)
ROOT
ATOM      1  C   UNL d   1      -1.015   3.756   1.062  0.00  0.00     0.023 A 
ATOM      2  C1  UNL d   1      -0.143   3.696  -0.025  0.00  0.00     0.003 A 
ATOM      3  C2  UNL d   1       0.276   2.459  -0.518  0.00  0.00     0.048 A 
ATOM      4  C3  UNL d   1      -0.180   1.286   0.081  0.00  0.00     0.023 A 
ATOM      5  C4  UNL d   1      -1.053   1.340   1.169  0.00  0.00     0.048 A 
ATOM      6  C5  UNL d   1      -1.469   2.580   1.658  0.00  0.00     0.003 A 
ATOM      7  I   UNL d   1       0.443  -0.557  -0.651  0.00  0.00    -0.146 I 
ENDROOT
TORSDOF 0
ENDMDL
