MODEL 1
REMARK minimizedAffinity -3.49881244
REMARK minimizedRMSD -1
REMARK  0 active torsions:
REMARK  status: ('A' for Active; 'I' for Inactive)
ROOT
ATOM      1  C   UNL d   1       0.078   3.430  -1.041  0.00  0.00     0.023 A 
ATOM      2  C1  UNL d   1      -0.578   3.753   0.147  0.00  0.00     0.003 A 
ATOM      3  C2  UNL d   1      -0.859   2.757   1.084  0.00  0.00     0.048 A 
ATOM      4  C3  UNL d   1      -0.480   1.440   0.828  0.00  0.00     0.023 A 
ATOM      5  C4  UNL d   1       0.178   1.112  -0.358  0.00  0.00     0.048 A 
ATOM      6  C5  UNL d   1       0.456   2.111  -1.293  0.00  0.00     0.003 A 
ATOM      7  I   UNL d   1      -0.896  -0.044   2.223  0.00  0.00    -0.146 I 
ENDROOT
TORSDOF 0
ENDMDL
