MODEL 1
REMARK minimizedAffinity -2.60271883
REMARK minimizedRMSD -1
REMARK  0 active torsions:
REMARK  status: ('A' for Active; 'I' for Inactive)
ROOT
ATOM      1  C   UNL d   1      -0.734   1.843   1.524  0.00  0.00     0.023 A 
ATOM      2  C1  UNL d   1      -1.028   0.513   1.825  0.00  0.00     0.003 A 
ATOM      3  C2  UNL d   1      -0.602  -0.508   0.973  0.00  0.00     0.048 A 
ATOM      4  C3  UNL d   1       0.119  -0.192  -0.178  0.00  0.00     0.023 A 
ATOM      5  C4  UNL d   1       0.416   1.137  -0.483  0.00  0.00     0.048 A 
ATOM      6  C5  UNL d   1      -0.013   2.155   0.372  0.00  0.00     0.003 A 
ATOM      7  I   UNL d   1       0.754  -1.709  -1.448  0.00  0.00    -0.146 I 
ENDROOT
TORSDOF 0
ENDMDL
