MODEL 1
REMARK minimizedAffinity 6.76610184
REMARK minimizedRMSD -1
REMARK  0 active torsions:
REMARK  status: ('A' for Active; 'I' for Inactive)
ROOT
ATOM      1  C   UNL d   1      -0.494  -4.255  -0.210  0.00  0.00    -0.002 A 
ATOM      2  C1  UNL d   1      -0.339  -5.398   0.561  0.00  0.00     0.010 A 
ATOM      3  C2  UNL d   1      -0.699  -5.399   1.910  0.00  0.00     0.041 A 
ATOM      4  C3  UNL d   1      -1.225  -4.221   2.476  0.00  0.00    -0.075 A 
ATOM      5  S   UNL d   1      -1.735  -3.989   4.106  0.00  0.00     0.015 SA
ATOM      6  C4  UNL d   1      -2.172  -2.367   3.817  0.00  0.00     0.022 A 
ATOM      7  C5  UNL d   1      -1.940  -1.995   2.514  0.00  0.00     0.026 A 
ATOM      8  C6  UNL d   1      -1.391  -3.057   1.719  0.00  0.00    -0.082 A 
ATOM      9  C7  UNL d   1      -1.016  -3.088   0.355  0.00  0.00     0.045 A 
ENDROOT
TORSDOF 0
ENDMDL
