MODEL 1
REMARK minimizedAffinity 21.9645042
REMARK minimizedRMSD -1
REMARK  0 active torsions:
REMARK  status: ('A' for Active; 'I' for Inactive)
ROOT
ATOM      1  C   UNL d   1      -2.859  -2.204   2.032  0.00  0.00    -0.002 A 
ATOM      2  C1  UNL d   1      -2.825  -2.673   3.338  0.00  0.00     0.010 A 
ATOM      3  C2  UNL d   1      -2.121  -3.836   3.657  0.00  0.00     0.041 A 
ATOM      4  C3  UNL d   1      -1.443  -4.525   2.632  0.00  0.00    -0.075 A 
ATOM      5  S   UNL d   1      -0.515  -5.970   2.788  0.00  0.00     0.015 SA
ATOM      6  C4  UNL d   1      -0.141  -5.998   1.126  0.00  0.00     0.022 A 
ATOM      7  C5  UNL d   1      -0.702  -4.938   0.453  0.00  0.00     0.026 A 
ATOM      8  C6  UNL d   1      -1.461  -4.072   1.310  0.00  0.00    -0.082 A 
ATOM      9  C7  UNL d   1      -2.185  -2.890   1.019  0.00  0.00     0.045 A 
ENDROOT
TORSDOF 0
ENDMDL
