MODEL 1
REMARK minimizedAffinity 18.2415829
REMARK minimizedRMSD -1
REMARK  0 active torsions:
REMARK  status: ('A' for Active; 'I' for Inactive)
ROOT
ATOM      1  C   UNL d   1      -1.870  -1.603  -0.135  0.00  0.00    -0.002 A 
ATOM      2  C1  UNL d   1      -2.476  -1.362   1.090  0.00  0.00     0.010 A 
ATOM      3  C2  UNL d   1      -2.349  -2.276   2.137  0.00  0.00     0.041 A 
ATOM      4  C3  UNL d   1      -1.595  -3.448   1.931  0.00  0.00    -0.075 A 
ATOM      5  S   UNL d   1      -1.302  -4.710   3.069  0.00  0.00     0.015 SA
ATOM      6  C4  UNL d   1      -0.366  -5.598   1.957  0.00  0.00     0.022 A 
ATOM      7  C5  UNL d   1      -0.269  -4.963   0.741  0.00  0.00     0.026 A 
ATOM      8  C6  UNL d   1      -0.975  -3.713   0.707  0.00  0.00    -0.082 A 
ATOM      9  C7  UNL d   1      -1.123  -2.767  -0.336  0.00  0.00     0.045 A 
ENDROOT
TORSDOF 0
ENDMDL
