MODEL 1
REMARK minimizedAffinity 10.4488354
REMARK minimizedRMSD -1
REMARK  0 active torsions:
REMARK  status: ('A' for Active; 'I' for Inactive)
ROOT
ATOM      1  C   UNL d   1      -1.728  -3.002   1.456  0.00  0.00    -0.002 A 
ATOM      2  C1  UNL d   1      -1.039  -3.988   0.764  0.00  0.00     0.010 A 
ATOM      3  C2  UNL d   1      -0.932  -3.936  -0.628  0.00  0.00     0.041 A 
ATOM      4  C3  UNL d   1      -1.533  -2.866  -1.318  0.00  0.00    -0.075 A 
ATOM      5  S   UNL d   1      -1.531  -2.595  -3.021  0.00  0.00     0.015 SA
ATOM      6  C4  UNL d   1      -2.445  -1.165  -2.870  0.00  0.00     0.022 A 
ATOM      7  C5  UNL d   1      -2.753  -0.885  -1.559  0.00  0.00     0.026 A 
ATOM      8  C6  UNL d   1      -2.232  -1.861  -0.643  0.00  0.00    -0.082 A 
ATOM      9  C7  UNL d   1      -2.324  -1.942   0.767  0.00  0.00     0.045 A 
ENDROOT
TORSDOF 0
ENDMDL
