MODEL 1
REMARK minimizedAffinity 79.0340958
REMARK minimizedRMSD -1
REMARK  0 active torsions:
REMARK  status: ('A' for Active; 'I' for Inactive)
ROOT
ATOM      1  C   UNL d   1      -2.542  -2.158  -4.798  0.00  0.00    -0.002 A 
ATOM      2  C1  UNL d   1      -1.231  -1.805  -4.511  0.00  0.00     0.010 A 
ATOM      3  C2  UNL d   1      -0.430  -2.632  -3.721  0.00  0.00     0.041 A 
ATOM      4  C3  UNL d   1      -0.973  -3.832  -3.222  0.00  0.00    -0.075 A 
ATOM      5  S   UNL d   1      -0.178  -5.001  -2.235  0.00  0.00     0.015 SA
ATOM      6  C4  UNL d   1      -1.560  -5.997  -2.172  0.00  0.00     0.022 A 
ATOM      7  C5  UNL d   1      -2.611  -5.466  -2.881  0.00  0.00     0.026 A 
ATOM      8  C6  UNL d   1      -2.290  -4.210  -3.498  0.00  0.00    -0.082 A 
ATOM      9  C7  UNL d   1      -3.077  -3.350  -4.301  0.00  0.00     0.045 A 
ENDROOT
TORSDOF 0
ENDMDL
