MODEL 1
REMARK minimizedAffinity 17.230957
REMARK minimizedRMSD -1
REMARK  0 active torsions:
REMARK  status: ('A' for Active; 'I' for Inactive)
ROOT
ATOM      1  C   UNL d   1      -0.818  -2.036  -3.751  0.00  0.00    -0.002 A 
ATOM      2  C1  UNL d   1      -0.519  -1.395  -2.557  0.00  0.00     0.010 A 
ATOM      3  C2  UNL d   1      -0.350  -2.128  -1.381  0.00  0.00     0.041 A 
ATOM      4  C3  UNL d   1      -0.486  -3.529  -1.425  0.00  0.00    -0.075 A 
ATOM      5  S   UNL d   1      -0.321  -4.632  -0.110  0.00  0.00     0.015 SA
ATOM      6  C4  UNL d   1      -0.643  -5.980  -1.102  0.00  0.00     0.022 A 
ATOM      7  C5  UNL d   1      -0.873  -5.616  -2.408  0.00  0.00     0.026 A 
ATOM      8  C6  UNL d   1      -0.786  -4.198  -2.616  0.00  0.00    -0.082 A 
ATOM      9  C7  UNL d   1      -0.952  -3.426  -3.791  0.00  0.00     0.045 A 
ENDROOT
TORSDOF 0
ENDMDL
