MODEL 1
REMARK minimizedAffinity 21.7570457
REMARK minimizedRMSD -1
REMARK  0 active torsions:
REMARK  status: ('A' for Active; 'I' for Inactive)
ROOT
ATOM      1  C   UNL d   1      -4.908   0.203   5.996  0.00  0.00    -0.002 A 
ATOM      2  C1  UNL d   1      -3.760   0.862   5.580  0.00  0.00     0.010 A 
ATOM      3  C2  UNL d   1      -2.641   0.142   5.158  0.00  0.00     0.041 A 
ATOM      4  C3  UNL d   1      -2.697  -1.266   5.158  0.00  0.00    -0.075 A 
ATOM      5  S   UNL d   1      -1.449  -2.356   4.683  0.00  0.00     0.015 SA
ATOM      6  C4  UNL d   1      -2.411  -3.722   5.019  0.00  0.00     0.022 A 
ATOM      7  C5  UNL d   1      -3.657  -3.374   5.484  0.00  0.00     0.026 A 
ATOM      8  C6  UNL d   1      -3.842  -1.952   5.572  0.00  0.00    -0.082 A 
ATOM      9  C7  UNL d   1      -4.960  -1.193   5.995  0.00  0.00     0.045 A 
ENDROOT
TORSDOF 0
ENDMDL
