MODEL 1
REMARK minimizedAffinity 16.1838284
REMARK minimizedRMSD -1
REMARK  0 active torsions:
REMARK  status: ('A' for Active; 'I' for Inactive)
ROOT
ATOM      1  C   UNL d   1      -0.535  -4.886   1.513  0.00  0.00    -0.002 A 
ATOM      2  C1  UNL d   1      -0.432  -5.633   0.348  0.00  0.00     0.010 A 
ATOM      3  C2  UNL d   1      -0.600  -5.031  -0.900  0.00  0.00     0.041 A 
ATOM      4  C3  UNL d   1      -0.875  -3.650  -0.959  0.00  0.00    -0.075 A 
ATOM      5  S   UNL d   1      -1.117  -2.698  -2.376  0.00  0.00     0.015 SA
ATOM      6  C4  UNL d   1      -1.363  -1.276  -1.469  0.00  0.00     0.022 A 
ATOM      7  C5  UNL d   1      -1.266  -1.504  -0.117  0.00  0.00     0.026 A 
ATOM      8  C6  UNL d   1      -0.982  -2.876   0.200  0.00  0.00    -0.082 A 
ATOM      9  C7  UNL d   1      -0.808  -3.516   1.450  0.00  0.00     0.045 A 
ENDROOT
TORSDOF 0
ENDMDL
