MODEL 1
REMARK minimizedAffinity 10.0826035
REMARK minimizedRMSD -1
REMARK  0 active torsions:
REMARK  status: ('A' for Active; 'I' for Inactive)
ROOT
ATOM      1  C   UNL d   1      -2.266   1.499   5.949  0.00  0.00    -0.002 A 
ATOM      2  C1  UNL d   1      -3.651   1.416   5.956  0.00  0.00     0.010 A 
ATOM      3  C2  UNL d   1      -4.288   0.173   5.969  0.00  0.00     0.041 A 
ATOM      4  C3  UNL d   1      -3.502  -0.996   5.976  0.00  0.00    -0.075 A 
ATOM      5  S   UNL d   1      -4.063  -2.626   5.993  0.00  0.00     0.015 SA
ATOM      6  C4  UNL d   1      -2.477  -3.250   5.992  0.00  0.00     0.022 A 
ATOM      7  C5  UNL d   1      -1.530  -2.253   5.980  0.00  0.00     0.026 A 
ATOM      8  C6  UNL d   1      -2.105  -0.938   5.971  0.00  0.00    -0.082 A 
ATOM      9  C7  UNL d   1      -1.489   0.337   5.957  0.00  0.00     0.045 A 
ENDROOT
TORSDOF 0
ENDMDL
