MODEL 1
REMARK minimizedAffinity 12.8824377
REMARK minimizedRMSD -1
REMARK  0 active torsions:
REMARK  status: ('A' for Active; 'I' for Inactive)
ROOT
ATOM      1  C   UNL d   1      -5.311   4.143   1.471  0.00  0.00    -0.002 A 
ATOM      2  C1  UNL d   1      -6.000   5.324   1.233  0.00  0.00     0.010 A 
ATOM      3  C2  UNL d   1      -5.905   5.965  -0.004  0.00  0.00     0.041 A 
ATOM      4  C3  UNL d   1      -5.100   5.392  -1.008  0.00  0.00    -0.075 A 
ATOM      5  S   UNL d   1      -4.835   6.000  -2.600  0.00  0.00     0.015 SA
ATOM      6  C4  UNL d   1      -3.801   4.706  -3.002  0.00  0.00     0.022 A 
ATOM      7  C5  UNL d   1      -3.651   3.823  -1.959  0.00  0.00     0.026 A 
ATOM      8  C6  UNL d   1      -4.397   4.204  -0.793  0.00  0.00    -0.082 A 
ATOM      9  C7  UNL d   1      -4.513   3.578   0.472  0.00  0.00     0.045 A 
ENDROOT
TORSDOF 0
ENDMDL
