MODEL 1
REMARK minimizedAffinity 16.4665318
REMARK minimizedRMSD -1
REMARK  0 active torsions:
REMARK  status: ('A' for Active; 'I' for Inactive)
ROOT
ATOM      1  C   UNL d   1       5.251   3.153  -0.494  0.00  0.00    -0.002 A 
ATOM      2  C1  UNL d   1       3.972   3.513  -0.093  0.00  0.00     0.010 A 
ATOM      3  C2  UNL d   1       3.405   2.959   1.056  0.00  0.00     0.041 A 
ATOM      4  C3  UNL d   1       4.154   2.029   1.805  0.00  0.00    -0.075 A 
ATOM      5  S   UNL d   1       3.665   1.222   3.248  0.00  0.00     0.015 SA
ATOM      6  C4  UNL d   1       5.143   0.382   3.368  0.00  0.00     0.022 A 
ATOM      7  C5  UNL d   1       6.000   0.697   2.340  0.00  0.00     0.026 A 
ATOM      8  C6  UNL d   1       5.444   1.652   1.423  0.00  0.00    -0.082 A 
ATOM      9  C7  UNL d   1       5.991   2.231   0.252  0.00  0.00     0.045 A 
ENDROOT
TORSDOF 0
ENDMDL
