MODEL 1
REMARK minimizedAffinity 8.90223217
REMARK minimizedRMSD -1
REMARK  1 active torsions:
REMARK  status: ('A' for Active; 'I' for Inactive)
REMARK    1  A    between atoms: C3_4  and  O_7 
ROOT
ATOM      1  C   UNL d   1      -1.418  -2.365  -0.742  0.00  0.00    -0.033 A 
ATOM      2  C1  UNL d   1      -2.347  -1.479  -0.190  0.00  0.00     0.039 A 
ATOM      3  C2  UNL d   1      -2.870  -0.442  -0.965  0.00  0.00    -0.080 A 
ATOM      4  C3  UNL d   1      -2.458  -0.302  -2.287  0.00  0.00     0.150 A 
ATOM      5  C4  UNL d   1      -1.537  -1.182  -2.844  0.00  0.00    -0.007 A 
ATOM      6  C5  UNL d   1      -1.014  -2.217  -2.069  0.00  0.00     0.039 A 
ENDROOT
BRANCH   4   7
ATOM      7  O   UNL d   1      -2.938   0.698  -3.080  0.00  0.00    -0.526 OA
ATOM      8  H5  UNL d   1      -3.544   1.245  -2.553  0.00  0.00     0.418 HD
ENDBRANCH   4   7
TORSDOF 1
ENDMDL
