MODEL 1
REMARK minimizedAffinity 13.8346834
REMARK minimizedRMSD -1
REMARK  1 active torsions:
REMARK  status: ('A' for Active; 'I' for Inactive)
REMARK    1  A    between atoms: C3_4  and  O_7 
ROOT
ATOM      1  C   UNL d   1       0.374   1.320  -3.660  0.00  0.00    -0.033 A 
ATOM      2  C1  UNL d   1      -0.853   0.855  -3.183  0.00  0.00     0.039 A 
ATOM      3  C2  UNL d   1      -2.020   1.581  -3.429  0.00  0.00    -0.080 A 
ATOM      4  C3  UNL d   1      -1.947   2.767  -4.153  0.00  0.00     0.150 A 
ATOM      5  C4  UNL d   1      -0.728   3.235  -4.635  0.00  0.00    -0.007 A 
ATOM      6  C5  UNL d   1       0.436   2.509  -4.387  0.00  0.00     0.039 A 
ENDROOT
BRANCH   4   7
ATOM      7  O   UNL d   1      -3.058   3.512  -4.414  0.00  0.00    -0.526 OA
ATOM      8  H5  UNL d   1      -3.822   3.082  -3.996  0.00  0.00     0.418 HD
ENDBRANCH   4   7
TORSDOF 1
ENDMDL
