MODEL 1
REMARK minimizedAffinity 15.1088886
REMARK minimizedRMSD -1
REMARK  1 active torsions:
REMARK  status: ('A' for Active; 'I' for Inactive)
REMARK    1  A    between atoms: C3_4  and  O_7 
ROOT
ATOM      1  C   UNL d   1      -5.620   5.741  -5.175  0.00  0.00    -0.033 A 
ATOM      2  C1  UNL d   1      -5.548   4.563  -5.921  0.00  0.00     0.039 A 
ATOM      3  C2  UNL d   1      -4.524   3.644  -5.682  0.00  0.00    -0.080 A 
ATOM      4  C3  UNL d   1      -3.581   3.914  -4.694  0.00  0.00     0.150 A 
ATOM      5  C4  UNL d   1      -3.649   5.083  -3.944  0.00  0.00    -0.007 A 
ATOM      6  C5  UNL d   1      -4.672   6.000  -4.185  0.00  0.00     0.039 A 
ENDROOT
BRANCH   4   7
ATOM      7  O   UNL d   1      -2.561   3.049  -4.428  0.00  0.00    -0.526 OA
ATOM      8  H5  UNL d   1      -2.624   2.300  -5.043  0.00  0.00     0.418 HD
ENDBRANCH   4   7
TORSDOF 1
ENDMDL
