MODEL 1
REMARK minimizedAffinity 5.45266438
REMARK minimizedRMSD -1
REMARK  1 active torsions:
REMARK  status: ('A' for Active; 'I' for Inactive)
REMARK    1  A    between atoms: C3_4  and  O_7 
ROOT
ATOM      1  C   UNL d   1      -1.854  -4.549   2.920  0.00  0.00    -0.033 A 
ATOM      2  C1  UNL d   1      -1.180  -5.744   2.661  0.00  0.00     0.039 A 
ATOM      3  C2  UNL d   1      -0.673  -5.999   1.385  0.00  0.00    -0.080 A 
ATOM      4  C3  UNL d   1      -0.846  -5.053   0.379  0.00  0.00     0.150 A 
ATOM      5  C4  UNL d   1      -1.513  -3.858   0.632  0.00  0.00    -0.007 A 
ATOM      6  C5  UNL d   1      -2.019  -3.606   1.906  0.00  0.00     0.039 A 
ENDROOT
BRANCH   4   7
ATOM      7  O   UNL d   1      -0.374  -5.259  -0.883  0.00  0.00    -0.526 OA
ATOM      8  H5  UNL d   1       0.039  -6.138  -0.917  0.00  0.00     0.418 HD
ENDBRANCH   4   7
TORSDOF 1
ENDMDL
