MODEL 1
REMARK minimizedAffinity 9.65500259
REMARK minimizedRMSD -1
REMARK  1 active torsions:
REMARK  status: ('A' for Active; 'I' for Inactive)
REMARK    1  A    between atoms: C3_4  and  O_7 
ROOT
ATOM      1  C   UNL d   1      -5.908   5.995  -5.059  0.00  0.00    -0.033 A 
ATOM      2  C1  UNL d   1      -5.999   4.934  -5.963  0.00  0.00     0.039 A 
ATOM      3  C2  UNL d   1      -5.089   3.877  -5.895  0.00  0.00    -0.080 A 
ATOM      4  C3  UNL d   1      -4.095   3.892  -4.920  0.00  0.00     0.150 A 
ATOM      5  C4  UNL d   1      -4.001   4.944  -4.015  0.00  0.00    -0.007 A 
ATOM      6  C5  UNL d   1      -4.910   5.999  -4.085  0.00  0.00     0.039 A 
ENDROOT
BRANCH   4   7
ATOM      7  O   UNL d   1      -3.182   2.885  -4.818  0.00  0.00    -0.526 OA
ATOM      8  H5  UNL d   1      -3.352   2.242  -5.527  0.00  0.00     0.418 HD
ENDBRANCH   4   7
TORSDOF 1
ENDMDL
