MODEL 1
REMARK minimizedAffinity 12.7394409
REMARK minimizedRMSD -1
REMARK  1 active torsions:
REMARK  status: ('A' for Active; 'I' for Inactive)
REMARK    1  A    between atoms: C3_4  and  O_7 
ROOT
ATOM      1  C   UNL d   1      -2.231   1.139  -3.145  0.00  0.00    -0.033 A 
ATOM      2  C1  UNL d   1      -0.872   0.901  -3.356  0.00  0.00     0.039 A 
ATOM      3  C2  UNL d   1      -0.117   1.790  -4.125  0.00  0.00    -0.080 A 
ATOM      4  C3  UNL d   1      -0.732   2.911  -4.675  0.00  0.00     0.150 A 
ATOM      5  C4  UNL d   1      -2.086   3.156  -4.465  0.00  0.00    -0.007 A 
ATOM      6  C5  UNL d   1      -2.838   2.267  -3.699  0.00  0.00     0.039 A 
ENDROOT
BRANCH   4   7
ATOM      7  O   UNL d   1      -0.038   3.803  -5.436  0.00  0.00    -0.526 OA
ATOM      8  H5  UNL d   1       0.878   3.490  -5.518  0.00  0.00     0.418 HD
ENDBRANCH   4   7
TORSDOF 1
ENDMDL
