MODEL 1
REMARK minimizedAffinity 8.24380589
REMARK minimizedRMSD -1
REMARK  1 active torsions:
REMARK  status: ('A' for Active; 'I' for Inactive)
REMARK    1  A    between atoms: C3_4  and  O_7 
ROOT
ATOM      1  C   UNL d   1      -1.426   0.451  -3.375  0.00  0.00    -0.033 A 
ATOM      2  C1  UNL d   1      -0.060   0.483  -3.661  0.00  0.00     0.039 A 
ATOM      3  C2  UNL d   1       0.504   1.615  -4.252  0.00  0.00    -0.080 A 
ATOM      4  C3  UNL d   1      -0.307   2.707  -4.550  0.00  0.00     0.150 A 
ATOM      5  C4  UNL d   1      -1.668   2.683  -4.264  0.00  0.00    -0.007 A 
ATOM      6  C5  UNL d   1      -2.230   1.551  -3.675  0.00  0.00     0.039 A 
ENDROOT
BRANCH   4   7
ATOM      7  O   UNL d   1       0.198   3.832  -5.131  0.00  0.00    -0.526 OA
ATOM      8  H5  UNL d   1       1.146   3.694  -5.297  0.00  0.00     0.418 HD
ENDBRANCH   4   7
TORSDOF 1
ENDMDL
