MODEL 1
REMARK minimizedAffinity 12.3886976
REMARK minimizedRMSD -1
REMARK  1 active torsions:
REMARK  status: ('A' for Active; 'I' for Inactive)
REMARK    1  A    between atoms: C3_4  and  O_7 
ROOT
ATOM      1  C   UNL d   1      -2.283   1.158  -3.727  0.00  0.00    -0.033 A 
ATOM      2  C1  UNL d   1      -0.927   0.841  -3.825  0.00  0.00     0.039 A 
ATOM      3  C2  UNL d   1      -0.045   1.726  -4.448  0.00  0.00    -0.080 A 
ATOM      4  C3  UNL d   1      -0.530   2.924  -4.965  0.00  0.00     0.150 A 
ATOM      5  C4  UNL d   1      -1.879   3.248  -4.867  0.00  0.00    -0.007 A 
ATOM      6  C5  UNL d   1      -2.759   2.363  -4.247  0.00  0.00     0.039 A 
ENDROOT
BRANCH   4   7
ATOM      7  O   UNL d   1       0.292   3.817  -5.585  0.00  0.00    -0.526 OA
ATOM      8  H5  UNL d   1       1.190   3.447  -5.605  0.00  0.00     0.418 HD
ENDBRANCH   4   7
TORSDOF 1
ENDMDL
