MODEL 1
REMARK minimizedAffinity 11.7599506
REMARK minimizedRMSD -1
REMARK  1 active torsions:
REMARK  status: ('A' for Active; 'I' for Inactive)
REMARK    1  A    between atoms: C3_4  and  O_7 
ROOT
ATOM      1  C   UNL d   1      -2.591  -0.839  -1.371  0.00  0.00    -0.033 A 
ATOM      2  C1  UNL d   1      -1.518  -1.449  -2.024  0.00  0.00     0.039 A 
ATOM      3  C2  UNL d   1      -0.886  -2.554  -1.451  0.00  0.00    -0.080 A 
ATOM      4  C3  UNL d   1      -1.338  -3.041  -0.227  0.00  0.00     0.150 A 
ATOM      5  C4  UNL d   1      -2.409  -2.441   0.427  0.00  0.00    -0.007 A 
ATOM      6  C5  UNL d   1      -3.038  -1.337  -0.146  0.00  0.00     0.039 A 
ENDROOT
BRANCH   4   7
ATOM      7  O   UNL d   1      -0.750  -4.114   0.374  0.00  0.00    -0.526 OA
ATOM      8  H5  UNL d   1      -0.006  -4.407  -0.179  0.00  0.00     0.418 HD
ENDBRANCH   4   7
TORSDOF 1
ENDMDL
