MODEL 1
REMARK minimizedAffinity -2.12669182
REMARK minimizedRMSD -1
REMARK  1 active torsions:
REMARK  status: ('A' for Active; 'I' for Inactive)
REMARK    1  A    between atoms: C3_4  and  O_7 
ROOT
ATOM      1  C   UNL d   1      -0.012   2.776  -4.489  0.00  0.00    -0.033 A 
ATOM      2  C1  UNL d   1      -0.177   3.705  -5.518  0.00  0.00     0.039 A 
ATOM      3  C2  UNL d   1      -1.455   3.999  -5.997  0.00  0.00    -0.080 A 
ATOM      4  C3  UNL d   1      -2.558   3.358  -5.439  0.00  0.00     0.150 A 
ATOM      5  C4  UNL d   1      -2.401   2.434  -4.411  0.00  0.00    -0.007 A 
ATOM      6  C5  UNL d   1      -1.124   2.141  -3.935  0.00  0.00     0.039 A 
ENDROOT
BRANCH   4   7
ATOM      7  O   UNL d   1      -3.824   3.609  -5.877  0.00  0.00    -0.526 OA
ATOM      8  H5  UNL d   1      -3.777   4.247  -6.609  0.00  0.00     0.418 HD
ENDBRANCH   4   7
TORSDOF 1
ENDMDL
