MODEL 1
REMARK minimizedAffinity -0.084298037
REMARK minimizedRMSD -1
REMARK  1 active torsions:
REMARK  status: ('A' for Active; 'I' for Inactive)
REMARK    1  A    between atoms: C3_4  and  O_7 
ROOT
ATOM      1  C   UNL d   1      -5.996   5.730  -5.112  0.00  0.00    -0.033 A 
ATOM      2  C1  UNL d   1      -5.808   4.655  -5.982  0.00  0.00     0.039 A 
ATOM      3  C2  UNL d   1      -4.674   3.849  -5.865  0.00  0.00    -0.080 A 
ATOM      4  C3  UNL d   1      -3.737   4.128  -4.874  0.00  0.00     0.150 A 
ATOM      5  C4  UNL d   1      -3.920   5.196  -4.001  0.00  0.00    -0.007 A 
ATOM      6  C5  UNL d   1      -5.052   6.000  -4.120  0.00  0.00     0.039 A 
ENDROOT
BRANCH   4   7
ATOM      7  O   UNL d   1      -2.612   3.373  -4.724  0.00  0.00    -0.526 OA
ATOM      8  H5  UNL d   1      -2.606   2.689  -5.414  0.00  0.00     0.418 HD
ENDBRANCH   4   7
TORSDOF 1
ENDMDL
