MODEL 1
REMARK minimizedAffinity 4.34390879
REMARK minimizedRMSD -1
REMARK  1 active torsions:
REMARK  status: ('A' for Active; 'I' for Inactive)
REMARK    1  A    between atoms: C3_4  and  O_7 
ROOT
ATOM      1  C   UNL d   1      -2.340  -1.811   1.112  0.00  0.00    -0.033 A 
ATOM      2  C1  UNL d   1      -2.272  -2.817   2.078  0.00  0.00     0.039 A 
ATOM      3  C2  UNL d   1      -1.557  -3.988   1.820  0.00  0.00    -0.080 A 
ATOM      4  C3  UNL d   1      -0.915  -4.140   0.594  0.00  0.00     0.150 A 
ATOM      5  C4  UNL d   1      -0.975  -3.141  -0.371  0.00  0.00    -0.007 A 
ATOM      6  C5  UNL d   1      -1.690  -1.972  -0.112  0.00  0.00     0.039 A 
ENDROOT
BRANCH   4   7
ATOM      7  O   UNL d   1      -0.209  -5.268   0.294  0.00  0.00    -0.526 OA
ATOM      8  H5  UNL d   1      -0.279  -5.883   1.044  0.00  0.00     0.418 HD
ENDBRANCH   4   7
TORSDOF 1
ENDMDL
