MODEL 1
REMARK minimizedAffinity 9.43766212
REMARK minimizedRMSD -1
REMARK  1 active torsions:
REMARK  status: ('A' for Active; 'I' for Inactive)
REMARK    1  A    between atoms: C3_4  and  O_7 
ROOT
ATOM      1  C   UNL d   1      -5.395   0.255   5.735  0.00  0.00    -0.033 A 
ATOM      2  C1  UNL d   1      -4.005   0.158   5.652  0.00  0.00     0.039 A 
ATOM      3  C2  UNL d   1      -3.216   1.307   5.738  0.00  0.00    -0.080 A 
ATOM      4  C3  UNL d   1      -3.830   2.546   5.907  0.00  0.00     0.150 A 
ATOM      5  C4  UNL d   1      -5.214   2.649   5.994  0.00  0.00    -0.007 A 
ATOM      6  C5  UNL d   1      -6.000   1.501   5.908  0.00  0.00     0.039 A 
ENDROOT
BRANCH   4   7
ATOM      7  O   UNL d   1      -3.103   3.696   5.991  0.00  0.00    -0.526 OA
ATOM      8  H5  UNL d   1      -2.162   3.473   5.886  0.00  0.00     0.418 HD
ENDBRANCH   4   7
TORSDOF 1
ENDMDL
