MODEL 1
REMARK minimizedAffinity 15.2778006
REMARK minimizedRMSD -1
REMARK  1 active torsions:
REMARK  status: ('A' for Active; 'I' for Inactive)
REMARK    1  A    between atoms: C3_4  and  O_7 
ROOT
ATOM      1  C   UNL d   1       0.096   3.029  -4.967  0.00  0.00    -0.033 A 
ATOM      2  C1  UNL d   1      -1.133   3.658  -5.171  0.00  0.00     0.039 A 
ATOM      3  C2  UNL d   1      -2.278   3.183  -4.527  0.00  0.00    -0.080 A 
ATOM      4  C3  UNL d   1      -2.179   2.081  -3.682  0.00  0.00     0.150 A 
ATOM      5  C4  UNL d   1      -0.956   1.452  -3.472  0.00  0.00    -0.007 A 
ATOM      6  C5  UNL d   1       0.185   1.927  -4.116  0.00  0.00     0.039 A 
ENDROOT
BRANCH   4   7
ATOM      7  O   UNL d   1      -3.269   1.579  -3.036  0.00  0.00    -0.526 OA
ATOM      8  H5  UNL d   1      -4.048   2.096  -3.299  0.00  0.00     0.418 HD
ENDBRANCH   4   7
TORSDOF 1
ENDMDL
