MODEL 1
REMARK minimizedAffinity 1.58302391
REMARK minimizedRMSD -1
REMARK  1 active torsions:
REMARK  status: ('A' for Active; 'I' for Inactive)
REMARK    1  A    between atoms: C3_4  and  O_7 
ROOT
ATOM      1  C   UNL d   1       0.587  -6.000   4.127  0.00  0.00    -0.033 A 
ATOM      2  C1  UNL d   1      -0.651  -5.433   3.819  0.00  0.00     0.039 A 
ATOM      3  C2  UNL d   1      -0.866  -4.861   2.563  0.00  0.00    -0.080 A 
ATOM      4  C3  UNL d   1       0.163  -4.864   1.626  0.00  0.00     0.150 A 
ATOM      5  C4  UNL d   1       1.397  -5.430   1.925  0.00  0.00    -0.007 A 
ATOM      6  C5  UNL d   1       1.611  -6.000   3.179  0.00  0.00     0.039 A 
ENDROOT
BRANCH   4   7
ATOM      7  O   UNL d   1       0.002  -4.313   0.389  0.00  0.00    -0.526 OA
ATOM      8  H5  UNL d   1      -0.892  -3.934   0.335  0.00  0.00     0.418 HD
ENDBRANCH   4   7
TORSDOF 1
ENDMDL
