MODEL 1
REMARK minimizedAffinity -0.216826245
REMARK minimizedRMSD -1
REMARK  1 active torsions:
REMARK  status: ('A' for Active; 'I' for Inactive)
REMARK    1  A    between atoms: C3_4  and  O_7 
ROOT
ATOM      1  C   UNL d   1      -5.998   5.344  -5.383  0.00  0.00    -0.033 A 
ATOM      2  C1  UNL d   1      -5.678   4.132  -5.999  0.00  0.00     0.039 A 
ATOM      3  C2  UNL d   1      -4.408   3.576  -5.833  0.00  0.00    -0.080 A 
ATOM      4  C3  UNL d   1      -3.469   4.241  -5.050  0.00  0.00     0.150 A 
ATOM      5  C4  UNL d   1      -3.782   5.446  -4.430  0.00  0.00    -0.007 A 
ATOM      6  C5  UNL d   1      -5.050   6.000  -4.598  0.00  0.00     0.039 A 
ENDROOT
BRANCH   4   7
ATOM      7  O   UNL d   1      -2.214   3.740  -4.863  0.00  0.00    -0.526 OA
ATOM      8  H5  UNL d   1      -2.132   2.918  -5.374  0.00  0.00     0.418 HD
ENDBRANCH   4   7
TORSDOF 1
ENDMDL
