MODEL 1
REMARK minimizedAffinity 7.71698332
REMARK minimizedRMSD -1
REMARK  1 active torsions:
REMARK  status: ('A' for Active; 'I' for Inactive)
REMARK    1  A    between atoms: C3_4  and  O_7 
ROOT
ATOM      1  C   UNL d   1      -2.697  -2.140   1.149  0.00  0.00    -0.033 A 
ATOM      2  C1  UNL d   1      -1.830  -2.309   0.068  0.00  0.00     0.039 A 
ATOM      3  C2  UNL d   1      -0.935  -3.381   0.049  0.00  0.00    -0.080 A 
ATOM      4  C3  UNL d   1      -0.918  -4.275   1.116  0.00  0.00     0.150 A 
ATOM      5  C4  UNL d   1      -1.781  -4.114   2.195  0.00  0.00    -0.007 A 
ATOM      6  C5  UNL d   1      -2.673  -3.043   2.212  0.00  0.00     0.039 A 
ENDROOT
BRANCH   4   7
ATOM      7  O   UNL d   1      -0.058  -5.333   1.146  0.00  0.00    -0.526 OA
ATOM      8  H5  UNL d   1       0.497  -5.301   0.349  0.00  0.00     0.418 HD
ENDBRANCH   4   7
TORSDOF 1
ENDMDL
