MODEL 1
REMARK minimizedAffinity 6.70432138
REMARK minimizedRMSD -1
REMARK  1 active torsions:
REMARK  status: ('A' for Active; 'I' for Inactive)
REMARK    1  A    between atoms: C3_4  and  O_7 
ROOT
ATOM      1  C   UNL d   1      -0.998  -3.211  -0.332  0.00  0.00    -0.033 A 
ATOM      2  C1  UNL d   1      -1.977  -2.237  -0.123  0.00  0.00     0.039 A 
ATOM      3  C2  UNL d   1      -2.580  -2.109   1.130  0.00  0.00    -0.080 A 
ATOM      4  C3  UNL d   1      -2.196  -2.959   2.163  0.00  0.00     0.150 A 
ATOM      5  C4  UNL d   1      -1.219  -3.929   1.963  0.00  0.00    -0.007 A 
ATOM      6  C5  UNL d   1      -0.618  -4.056   0.711  0.00  0.00     0.039 A 
ENDROOT
BRANCH   4   7
ATOM      7  O   UNL d   1      -2.760  -2.876   3.402  0.00  0.00    -0.526 OA
ATOM      8  H5  UNL d   1      -3.439  -2.181   3.384  0.00  0.00     0.418 HD
ENDBRANCH   4   7
TORSDOF 1
ENDMDL
