MODEL 1
REMARK minimizedAffinity -2.20738316
REMARK minimizedRMSD -1
REMARK  0 active torsions:
REMARK  status: ('A' for Active; 'I' for Inactive)
ROOT
ATOM      1  C   UNL d   1      -0.080  -0.662   2.943  0.00  0.00     0.020 A 
ATOM      2  C1  UNL d   1      -1.176  -0.106   2.285  0.00  0.00     0.020 A 
ATOM      3  C2  UNL d   1      -1.207  -0.069   0.889  0.00  0.00     0.034 A 
ATOM      4  C3  UNL d   1      -0.139  -0.588   0.147  0.00  0.00     0.017 A 
ATOM      5  C4  UNL d   1       0.960  -1.146   0.809  0.00  0.00     0.017 A 
ATOM      6  C5  UNL d   1       0.986  -1.181   2.207  0.00  0.00     0.034 A 
ATOM      7 Cl   UNL d   1       2.315  -1.806  -0.038  0.00  0.00    -0.070 Cl
ATOM      8 Cl1  UNL d   1      -0.245  -0.509  -1.576  0.00  0.00    -0.070 Cl
ENDROOT
TORSDOF 0
ENDMDL
