MODEL 1
REMARK minimizedAffinity -1.57729769
REMARK minimizedRMSD -1
REMARK  0 active torsions:
REMARK  status: ('A' for Active; 'I' for Inactive)
ROOT
ATOM      1  C   UNL d   1      -2.361   3.186  -2.918  0.00  0.00     0.020 A 
ATOM      2  C1  UNL d   1      -1.380   4.136  -3.203  0.00  0.00     0.020 A 
ATOM      3  C2  UNL d   1      -0.088   3.977  -2.699  0.00  0.00     0.034 A 
ATOM      4  C3  UNL d   1       0.228   2.866  -1.908  0.00  0.00     0.017 A 
ATOM      5  C4  UNL d   1      -0.757   1.914  -1.623  0.00  0.00     0.017 A 
ATOM      6  C5  UNL d   1      -2.050   2.078  -2.130  0.00  0.00     0.034 A 
ATOM      7 Cl   UNL d   1      -0.443   0.517  -0.654  0.00  0.00    -0.070 Cl
ATOM      8 Cl1  UNL d   1       1.847   2.733  -1.319  0.00  0.00    -0.070 Cl
ENDROOT
TORSDOF 0
ENDMDL
