MODEL 1
REMARK minimizedAffinity -0.662354887
REMARK minimizedRMSD -1
REMARK  0 active torsions:
REMARK  status: ('A' for Active; 'I' for Inactive)
ROOT
ATOM      1  C   UNL d   1       0.484   3.046  -2.528  0.00  0.00     0.020 A 
ATOM      2  C1  UNL d   1       1.292   2.241  -1.726  0.00  0.00     0.020 A 
ATOM      3  C2  UNL d   1       0.737   1.156  -1.044  0.00  0.00     0.034 A 
ATOM      4  C3  UNL d   1      -0.628   0.873  -1.163  0.00  0.00     0.017 A 
ATOM      5  C4  UNL d   1      -1.438   1.681  -1.969  0.00  0.00     0.017 A 
ATOM      6  C5  UNL d   1      -0.877   2.766  -2.650  0.00  0.00     0.034 A 
ATOM      7 Cl   UNL d   1      -3.131   1.395  -2.165  0.00  0.00    -0.070 Cl
ATOM      8 Cl1  UNL d   1      -1.246  -0.485  -0.291  0.00  0.00    -0.070 Cl
ENDROOT
TORSDOF 0
ENDMDL
