MODEL 1
REMARK minimizedAffinity -1.93709195
REMARK minimizedRMSD -1
REMARK  0 active torsions:
REMARK  status: ('A' for Active; 'I' for Inactive)
ROOT
ATOM      1  C   UNL d   1      -1.226   0.432   1.090  0.00  0.00     0.020 A 
ATOM      2  C1  UNL d   1      -0.639  -0.138   2.218  0.00  0.00     0.020 A 
ATOM      3  C2  UNL d   1       0.469  -0.977   2.080  0.00  0.00     0.034 A 
ATOM      4  C3  UNL d   1       0.993  -1.249   0.811  0.00  0.00     0.017 A 
ATOM      5  C4  UNL d   1       0.402  -0.676  -0.321  0.00  0.00     0.017 A 
ATOM      6  C5  UNL d   1      -0.707   0.164  -0.177  0.00  0.00     0.034 A 
ATOM      7 Cl   UNL d   1       0.992  -0.963  -1.920  0.00  0.00    -0.070 Cl
ATOM      8 Cl1  UNL d   1       2.364  -2.295   0.715  0.00  0.00    -0.070 Cl
ENDROOT
TORSDOF 0
ENDMDL
