MODEL 1
REMARK minimizedAffinity -5.97439909
REMARK minimizedRMSD -1
REMARK  0 active torsions:
REMARK  status: ('A' for Active; 'I' for Inactive)
ROOT
ATOM      1  C   UNL d   1       1.154  -0.560   3.009  0.00  0.00     0.020 A 
ATOM      2  C1  UNL d   1       2.176  -1.507   3.053  0.00  0.00     0.020 A 
ATOM      3  C2  UNL d   1       2.701  -2.024   1.867  0.00  0.00     0.034 A 
ATOM      4  C3  UNL d   1       2.203  -1.595   0.631  0.00  0.00     0.017 A 
ATOM      5  C4  UNL d   1       1.176  -0.644   0.588  0.00  0.00     0.017 A 
ATOM      6  C5  UNL d   1       0.655  -0.130   1.779  0.00  0.00     0.034 A 
ATOM      7 Cl   UNL d   1       0.511  -0.066  -0.899  0.00  0.00    -0.070 Cl
ATOM      8 Cl1  UNL d   1       2.898  -2.276  -0.796  0.00  0.00    -0.070 Cl
ENDROOT
TORSDOF 0
ENDMDL
