MODEL 1
REMARK minimizedAffinity -3.90705585
REMARK minimizedRMSD -1
REMARK  0 active torsions:
REMARK  status: ('A' for Active; 'I' for Inactive)
ROOT
ATOM      1  C   UNL d   1       3.541  -0.772   2.863  0.00  0.00     0.020 A 
ATOM      2  C1  UNL d   1       3.685  -0.127   1.635  0.00  0.00     0.020 A 
ATOM      3  C2  UNL d   1       2.660  -0.191   0.689  0.00  0.00     0.034 A 
ATOM      4  C3  UNL d   1       1.487  -0.901   0.968  0.00  0.00     0.017 A 
ATOM      5  C4  UNL d   1       1.343  -1.548   2.201  0.00  0.00     0.017 A 
ATOM      6  C5  UNL d   1       2.372  -1.481   3.145  0.00  0.00     0.034 A 
ATOM      7 Cl   UNL d   1      -0.075  -2.444   2.618  0.00  0.00    -0.070 Cl
ATOM      8 Cl1  UNL d   1       0.261  -0.938  -0.249  0.00  0.00    -0.070 Cl
ENDROOT
TORSDOF 0
ENDMDL
