MODEL 1
REMARK minimizedAffinity -4.10088634
REMARK minimizedRMSD -1
REMARK  0 active torsions:
REMARK  status: ('A' for Active; 'I' for Inactive)
ROOT
ATOM      1  C   UNL d   1      -1.311   0.293   0.998  0.00  0.00     0.020 A 
ATOM      2  C1  UNL d   1      -0.774  -0.179   2.194  0.00  0.00     0.020 A 
ATOM      3  C2  UNL d   1       0.357  -0.998   2.177  0.00  0.00     0.034 A 
ATOM      4  C3  UNL d   1       0.955  -1.346   0.960  0.00  0.00     0.017 A 
ATOM      5  C4  UNL d   1       0.415  -0.872  -0.241  0.00  0.00     0.017 A 
ATOM      6  C5  UNL d   1      -0.718  -0.053  -0.217  0.00  0.00     0.034 A 
ATOM      7 Cl   UNL d   1       1.096  -1.259  -1.781  0.00  0.00    -0.070 Cl
ATOM      8 Cl1  UNL d   1       2.352  -2.362   1.013  0.00  0.00    -0.070 Cl
ENDROOT
TORSDOF 0
ENDMDL
