MODEL 1
REMARK minimizedAffinity 8.70817375
REMARK minimizedRMSD -1
REMARK  0 active torsions:
REMARK  status: ('A' for Active; 'I' for Inactive)
ROOT
ATOM      1  C   UNL d   1      -1.054  -0.438   0.227  0.00  0.00     0.020 A 
ATOM      2  C1  UNL d   1      -0.450  -0.729   1.450  0.00  0.00     0.020 A 
ATOM      3  C2  UNL d   1       0.726  -0.074   1.821  0.00  0.00     0.034 A 
ATOM      4  C3  UNL d   1       1.303   0.875   0.968  0.00  0.00     0.017 A 
ATOM      5  C4  UNL d   1       0.696   1.165  -0.260  0.00  0.00     0.017 A 
ATOM      6  C5  UNL d   1      -0.482   0.507  -0.626  0.00  0.00     0.034 A 
ATOM      7 Cl   UNL d   1       1.348   2.323  -1.365  0.00  0.00    -0.070 Cl
ATOM      8 Cl1  UNL d   1       2.758   1.646   1.491  0.00  0.00    -0.070 Cl
ENDROOT
TORSDOF 0
ENDMDL
