MODEL 1
REMARK minimizedAffinity 1.51259315
REMARK minimizedRMSD -1
REMARK  0 active torsions:
REMARK  status: ('A' for Active; 'I' for Inactive)
ROOT
ATOM      1  C   UNL d   1      -1.071  -5.999   2.674  0.00  0.00     0.020 A 
ATOM      2  C1  UNL d   1      -0.266  -5.998   1.535  0.00  0.00     0.020 A 
ATOM      3  C2  UNL d   1       1.124  -5.992   1.664  0.00  0.00     0.034 A 
ATOM      4  C3  UNL d   1       1.714  -5.986   2.933  0.00  0.00     0.017 A 
ATOM      5  C4  UNL d   1       0.905  -5.987   4.075  0.00  0.00     0.017 A 
ATOM      6  C5  UNL d   1      -0.487  -5.994   3.941  0.00  0.00     0.034 A 
ATOM      7 Cl   UNL d   1       1.559  -5.980   5.675  0.00  0.00    -0.070 Cl
ATOM      8 Cl1  UNL d   1       3.440  -5.978   3.017  0.00  0.00    -0.070 Cl
ENDROOT
TORSDOF 0
ENDMDL
