MODEL 1
REMARK minimizedAffinity -1.13844931
REMARK minimizedRMSD -1
REMARK  0 active torsions:
REMARK  status: ('A' for Active; 'I' for Inactive)
ROOT
ATOM      1  C   UNL d   1      -0.509  -6.000   2.508  0.00  0.00     0.020 A 
ATOM      2  C1  UNL d   1       0.499  -6.000   1.545  0.00  0.00     0.020 A 
ATOM      3  C2  UNL d   1       1.839  -6.000   1.936  0.00  0.00     0.034 A 
ATOM      4  C3  UNL d   1       2.176  -6.000   3.295  0.00  0.00     0.017 A 
ATOM      5  C4  UNL d   1       1.164  -6.000   4.261  0.00  0.00     0.017 A 
ATOM      6  C5  UNL d   1      -0.177  -6.000   3.864  0.00  0.00     0.034 A 
ATOM      7 Cl   UNL d   1       1.501  -5.999   5.956  0.00  0.00    -0.070 Cl
ATOM      8 Cl1  UNL d   1       3.854  -6.000   3.706  0.00  0.00    -0.070 Cl
ENDROOT
TORSDOF 0
ENDMDL
