MODEL 1
REMARK minimizedAffinity 5.30060244
REMARK minimizedRMSD -1
REMARK  0 active torsions:
REMARK  status: ('A' for Active; 'I' for Inactive)
ROOT
ATOM      1  C   UNL d   1      -1.736  -0.047  -2.672  0.00  0.00     0.020 A 
ATOM      2  C1  UNL d   1      -2.873  -0.746  -2.268  0.00  0.00     0.020 A 
ATOM      3  C2  UNL d   1      -3.073  -2.060  -2.695  0.00  0.00     0.034 A 
ATOM      4  C3  UNL d   1      -2.134  -2.680  -3.528  0.00  0.00     0.017 A 
ATOM      5  C4  UNL d   1      -0.993  -1.977  -3.933  0.00  0.00     0.017 A 
ATOM      6  C5  UNL d   1      -0.798  -0.661  -3.502  0.00  0.00     0.034 A 
ATOM      7 Cl   UNL d   1       0.210  -2.675  -4.959  0.00  0.00    -0.070 Cl
ATOM      8 Cl1  UNL d   1      -2.444  -4.308  -4.018  0.00  0.00    -0.070 Cl
ENDROOT
TORSDOF 0
ENDMDL
