MODEL 1
REMARK minimizedAffinity 8.05535126
REMARK minimizedRMSD -1
REMARK  0 active torsions:
REMARK  status: ('A' for Active; 'I' for Inactive)
ROOT
ATOM      1  C   UNL d   1      -2.544  -2.182  -2.414  0.00  0.00     0.020 A 
ATOM      2  C1  UNL d   1      -3.004  -3.079  -3.377  0.00  0.00     0.020 A 
ATOM      3  C2  UNL d   1      -2.203  -3.395  -4.476  0.00  0.00     0.034 A 
ATOM      4  C3  UNL d   1      -0.938  -2.813  -4.616  0.00  0.00     0.017 A 
ATOM      5  C4  UNL d   1      -0.477  -1.912  -3.649  0.00  0.00     0.017 A 
ATOM      6  C5  UNL d   1      -1.283  -1.599  -2.550  0.00  0.00     0.034 A 
ATOM      7 Cl   UNL d   1       1.073  -1.153  -3.752  0.00  0.00    -0.070 Cl
ATOM      8 Cl1  UNL d   1      -0.000  -3.249  -6.000  0.00  0.00    -0.070 Cl
ENDROOT
TORSDOF 0
ENDMDL
