MODEL 1
REMARK minimizedAffinity -0.346083999
REMARK minimizedRMSD -1
REMARK  0 active torsions:
REMARK  status: ('A' for Active; 'I' for Inactive)
ROOT
ATOM      1  C   UNL d   1      -0.861  -6.000   2.593  0.00  0.00     0.020 A 
ATOM      2  C1  UNL d   1      -0.044  -6.000   1.463  0.00  0.00     0.020 A 
ATOM      3  C2  UNL d   1       1.345  -5.999   1.606  0.00  0.00     0.034 A 
ATOM      4  C3  UNL d   1       1.922  -5.998   2.882  0.00  0.00     0.017 A 
ATOM      5  C4  UNL d   1       1.101  -5.998   4.015  0.00  0.00     0.017 A 
ATOM      6  C5  UNL d   1      -0.290  -5.999   3.866  0.00  0.00     0.034 A 
ATOM      7 Cl   UNL d   1       1.739  -5.997   5.621  0.00  0.00    -0.070 Cl
ATOM      8 Cl1  UNL d   1       3.646  -5.997   2.984  0.00  0.00    -0.070 Cl
ENDROOT
TORSDOF 0
ENDMDL
