MODEL 1
REMARK minimizedAffinity 2.98556828
REMARK minimizedRMSD -1
REMARK  0 active torsions:
REMARK  status: ('A' for Active; 'I' for Inactive)
ROOT
ATOM      1  C   UNL d   1      -1.711  -5.980   2.887  0.00  0.00     0.020 A 
ATOM      2  C1  UNL d   1      -1.171  -5.976   1.601  0.00  0.00     0.020 A 
ATOM      3  C2  UNL d   1       0.214  -5.979   1.425  0.00  0.00     0.034 A 
ATOM      4  C3  UNL d   1       1.064  -5.986   2.537  0.00  0.00     0.017 A 
ATOM      5  C4  UNL d   1       0.522  -5.991   3.827  0.00  0.00     0.017 A 
ATOM      6  C5  UNL d   1      -0.866  -5.987   3.997  0.00  0.00     0.034 A 
ATOM      7 Cl   UNL d   1       1.507  -6.000   5.247  0.00  0.00    -0.070 Cl
ATOM      8 Cl1  UNL d   1       2.768  -5.991   2.245  0.00  0.00    -0.070 Cl
ENDROOT
TORSDOF 0
ENDMDL
