MODEL 1
REMARK minimizedAffinity 6.71951532
REMARK minimizedRMSD -1
REMARK  0 active torsions:
REMARK  status: ('A' for Active; 'I' for Inactive)
ROOT
ATOM      1  C   UNL d   1       0.120   0.367   1.325  0.00  0.00     0.020 A 
ATOM      2  C1  UNL d   1       0.274   1.183   0.205  0.00  0.00     0.020 A 
ATOM      3  C2  UNL d   1      -0.527   0.981  -0.921  0.00  0.00     0.034 A 
ATOM      4  C3  UNL d   1      -1.486  -0.038  -0.930  0.00  0.00     0.017 A 
ATOM      5  C4  UNL d   1      -1.640  -0.857   0.195  0.00  0.00     0.017 A 
ATOM      6  C5  UNL d   1      -0.835  -0.651   1.320  0.00  0.00     0.034 A 
ATOM      7 Cl   UNL d   1      -2.802  -2.135   0.260  0.00  0.00    -0.070 Cl
ATOM      8 Cl1  UNL d   1      -2.443  -0.230  -2.356  0.00  0.00    -0.070 Cl
ENDROOT
TORSDOF 0
ENDMDL
