MODEL 1
REMARK minimizedAffinity 5.25367594
REMARK minimizedRMSD -1
REMARK  0 active torsions:
REMARK  status: ('A' for Active; 'I' for Inactive)
ROOT
ATOM      1  C   UNL d   1       0.076  -5.954   1.731  0.00  0.00     0.020 A 
ATOM      2  C1  UNL d   1      -0.742  -5.958   2.860  0.00  0.00     0.020 A 
ATOM      3  C2  UNL d   1      -0.173  -5.971   4.135  0.00  0.00     0.034 A 
ATOM      4  C3  UNL d   1       1.219  -5.981   4.284  0.00  0.00     0.017 A 
ATOM      5  C4  UNL d   1       2.039  -5.976   3.151  0.00  0.00     0.017 A 
ATOM      6  C5  UNL d   1       1.464  -5.963   1.876  0.00  0.00     0.034 A 
ATOM      7 Cl   UNL d   1       3.765  -5.987   3.255  0.00  0.00    -0.070 Cl
ATOM      8 Cl1  UNL d   1       1.854  -5.996   5.891  0.00  0.00    -0.070 Cl
ENDROOT
TORSDOF 0
ENDMDL
