MODEL 1
REMARK minimizedAffinity 4.96265697
REMARK minimizedRMSD -1
REMARK  0 active torsions:
REMARK  status: ('A' for Active; 'I' for Inactive)
ROOT
ATOM      1  C   UNL d   1      -1.526  -5.999   3.667  0.00  0.00     0.020 A 
ATOM      2  C1  UNL d   1      -0.301  -5.999   4.333  0.00  0.00     0.020 A 
ATOM      3  C2  UNL d   1       0.890  -5.999   3.604  0.00  0.00     0.034 A 
ATOM      4  C3  UNL d   1       0.859  -6.000   2.205  0.00  0.00     0.017 A 
ATOM      5  C4  UNL d   1      -0.371  -6.000   1.537  0.00  0.00     0.017 A 
ATOM      6  C5  UNL d   1      -1.561  -5.999   2.272  0.00  0.00     0.034 A 
ATOM      7 Cl   UNL d   1      -0.489  -6.000  -0.187  0.00  0.00    -0.070 Cl
ATOM      8 Cl1  UNL d   1       2.371  -6.000   1.368  0.00  0.00    -0.070 Cl
ENDROOT
TORSDOF 0
ENDMDL
