MODEL 1
REMARK minimizedAffinity 0.362079501
REMARK minimizedRMSD -1
REMARK  0 active torsions:
REMARK  status: ('A' for Active; 'I' for Inactive)
ROOT
ATOM      1  C   UNL d   1       0.049   1.336   2.016  0.00  0.00     0.020 A 
ATOM      2  C1  UNL d   1       0.690   0.257   1.409  0.00  0.00     0.020 A 
ATOM      3  C2  UNL d   1       0.099  -1.008   1.430  0.00  0.00     0.034 A 
ATOM      4  C3  UNL d   1      -1.137  -1.197   2.059  0.00  0.00     0.017 A 
ATOM      5  C4  UNL d   1      -1.779  -0.113   2.668  0.00  0.00     0.017 A 
ATOM      6  C5  UNL d   1      -1.183   1.151   2.644  0.00  0.00     0.034 A 
ATOM      7 Cl   UNL d   1      -3.306  -0.269   3.464  0.00  0.00    -0.070 Cl
ATOM      8 Cl1  UNL d   1      -1.810  -2.789   2.046  0.00  0.00    -0.070 Cl
ENDROOT
TORSDOF 0
ENDMDL
