MODEL 1
REMARK minimizedAffinity 1.68825603
REMARK minimizedRMSD -1
REMARK  0 active torsions:
REMARK  status: ('A' for Active; 'I' for Inactive)
ROOT
ATOM      1  C   UNL d   1      -4.588  -5.602  -0.180  0.00  0.00     0.020 A 
ATOM      2  C1  UNL d   1      -5.859  -5.601   0.394  0.00  0.00     0.020 A 
ATOM      3  C2  UNL d   1      -6.000  -5.725   1.778  0.00  0.00     0.034 A 
ATOM      4  C3  UNL d   1      -4.869  -5.850   2.592  0.00  0.00     0.017 A 
ATOM      5  C4  UNL d   1      -3.594  -5.850   2.015  0.00  0.00     0.017 A 
ATOM      6  C5  UNL d   1      -3.458  -5.725   0.629  0.00  0.00     0.034 A 
ATOM      7 Cl   UNL d   1      -2.151  -6.000   2.955  0.00  0.00    -0.070 Cl
ATOM      8 Cl1  UNL d   1      -5.118  -5.999   4.296  0.00  0.00    -0.070 Cl
ENDROOT
TORSDOF 0
ENDMDL
