MODEL 1
REMARK minimizedAffinity 4.70999622
REMARK minimizedRMSD -1
REMARK  0 active torsions:
REMARK  status: ('A' for Active; 'I' for Inactive)
ROOT
ATOM      1  C   UNL d   1      -5.232  -0.981   4.208  0.00  0.00     0.020 A 
ATOM      2  C1  UNL d   1      -4.938  -0.699   5.541  0.00  0.00     0.020 A 
ATOM      3  C2  UNL d   1      -4.963   0.620   5.999  0.00  0.00     0.034 A 
ATOM      4  C3  UNL d   1      -5.282   1.663   5.121  0.00  0.00     0.017 A 
ATOM      5  C4  UNL d   1      -5.577   1.379   3.783  0.00  0.00     0.017 A 
ATOM      6  C5  UNL d   1      -5.551   0.057   3.331  0.00  0.00     0.034 A 
ATOM      7 Cl   UNL d   1      -5.980   2.613   2.641  0.00  0.00    -0.070 Cl
ATOM      8 Cl1  UNL d   1      -5.294   3.270   5.755  0.00  0.00    -0.070 Cl
ENDROOT
TORSDOF 0
ENDMDL
