MODEL 1
REMARK minimizedAffinity -0.0754055083
REMARK minimizedRMSD -1
REMARK  0 active torsions:
REMARK  status: ('A' for Active; 'I' for Inactive)
ROOT
ATOM      1  C   UNL d   1      -5.203   2.813   4.461  0.00  0.00     0.020 A 
ATOM      2  C1  UNL d   1      -6.000   2.441   5.543  0.00  0.00     0.020 A 
ATOM      3  C2  UNL d   1      -5.988   1.121   5.998  0.00  0.00     0.034 A 
ATOM      4  C3  UNL d   1      -5.178   0.168   5.371  0.00  0.00     0.017 A 
ATOM      5  C4  UNL d   1      -4.379   0.542   4.284  0.00  0.00     0.017 A 
ATOM      6  C5  UNL d   1      -4.395   1.865   3.833  0.00  0.00     0.034 A 
ATOM      7 Cl   UNL d   1      -3.353  -0.578   3.459  0.00  0.00    -0.070 Cl
ATOM      8 Cl1  UNL d   1      -5.212  -1.446   5.987  0.00  0.00    -0.070 Cl
ENDROOT
TORSDOF 0
ENDMDL
