MODEL 1
REMARK minimizedAffinity 6.87851715
REMARK minimizedRMSD -1
REMARK  0 active torsions:
REMARK  status: ('A' for Active; 'I' for Inactive)
ROOT
ATOM      1  C   UNL d   1      -1.831  -0.081  -2.515  0.00  0.00     0.020 A 
ATOM      2  C1  UNL d   1      -3.033  -0.780  -2.411  0.00  0.00     0.020 A 
ATOM      3  C2  UNL d   1      -3.160  -2.042  -2.996  0.00  0.00     0.034 A 
ATOM      4  C3  UNL d   1      -2.084  -2.608  -3.689  0.00  0.00     0.017 A 
ATOM      5  C4  UNL d   1      -0.878  -1.905  -3.794  0.00  0.00     0.017 A 
ATOM      6  C5  UNL d   1      -0.756  -0.642  -3.205  0.00  0.00     0.034 A 
ATOM      7 Cl   UNL d   1       0.494  -2.538  -4.633  0.00  0.00    -0.070 Cl
ATOM      8 Cl1  UNL d   1      -2.311  -4.171  -4.388  0.00  0.00    -0.070 Cl
ENDROOT
TORSDOF 0
ENDMDL
