MODEL 1
REMARK minimizedAffinity 0.744696498
REMARK minimizedRMSD -1
REMARK  0 active torsions:
REMARK  status: ('A' for Active; 'I' for Inactive)
ROOT
ATOM      1  C   UNL d   1       0.435  -5.447   4.132  0.00  0.00     0.020 A 
ATOM      2  C1  UNL d   1       0.752  -4.139   3.770  0.00  0.00     0.020 A 
ATOM      3  C2  UNL d   1      -0.153  -3.382   3.023  0.00  0.00     0.034 A 
ATOM      4  C3  UNL d   1      -1.380  -3.934   2.636  0.00  0.00     0.017 A 
ATOM      5  C4  UNL d   1      -1.698  -5.247   3.001  0.00  0.00     0.017 A 
ATOM      6  C5  UNL d   1      -0.787  -6.000   3.749  0.00  0.00     0.034 A 
ATOM      7 Cl   UNL d   1      -3.192  -5.996   2.560  0.00  0.00    -0.070 Cl
ATOM      8 Cl1  UNL d   1      -2.452  -2.941   1.714  0.00  0.00    -0.070 Cl
ENDROOT
TORSDOF 0
ENDMDL
