MODEL 1
REMARK minimizedAffinity 3.88636184
REMARK minimizedRMSD -1
REMARK  0 active torsions:
REMARK  status: ('A' for Active; 'I' for Inactive)
ROOT
ATOM      1  C   UNL d   1      -1.113  -0.041   3.573  0.00  0.00     0.020 A 
ATOM      2  C1  UNL d   1      -1.182   1.179   2.901  0.00  0.00     0.020 A 
ATOM      3  C2  UNL d   1      -2.379   1.899   2.881  0.00  0.00     0.034 A 
ATOM      4  C3  UNL d   1      -3.511   1.399   3.535  0.00  0.00     0.017 A 
ATOM      5  C4  UNL d   1      -3.441   0.175   4.209  0.00  0.00     0.017 A 
ATOM      6  C5  UNL d   1      -2.240  -0.542   4.225  0.00  0.00     0.034 A 
ATOM      7 Cl   UNL d   1      -4.796  -0.506   5.038  0.00  0.00    -0.070 Cl
ATOM      8 Cl1  UNL d   1      -4.958   2.342   3.470  0.00  0.00    -0.070 Cl
ENDROOT
TORSDOF 0
ENDMDL
