MODEL 1
REMARK minimizedAffinity 7.79918718
REMARK minimizedRMSD -1
REMARK  2 active torsions:
REMARK  status: ('A' for Active; 'I' for Inactive)
REMARK    1  A    between atoms: C1_2  and  C2_3 
REMARK    2  A    between atoms: C2_3  and  C3_4 
ROOT
ATOM      1  C3  UNL d   1      -1.974  -1.434  -0.765  0.00  0.00    -0.075 A 
ATOM      2  C4  UNL d   1      -2.823  -1.033   0.276  0.00  0.00     0.002 A 
ATOM      3  C5  UNL d   1      -2.383  -1.060   1.600  0.00  0.00     0.002 A 
ATOM      4  C6  UNL d   1      -1.094  -1.496   1.900  0.00  0.00    -0.004 A 
ATOM      5  C7  UNL d   1      -0.247  -1.912   0.875  0.00  0.00     0.002 A 
ATOM      6  C8  UNL d   1      -0.684  -1.882  -0.451  0.00  0.00     0.002 A 
ENDROOT
BRANCH   1   7
ATOM      7  C2  UNL d   1      -2.434  -1.380  -2.202  0.00  0.00     0.056 C 
BRANCH   7   8
ATOM      8  C1  UNL d   1      -2.104  -2.639  -3.011  0.00  0.00     0.007 C 
ATOM      9  C   UNL d   1      -2.037  -2.388  -4.512  0.00  0.00     0.009 C 
ENDBRANCH   7   8
ENDBRANCH   1   7
TORSDOF 2
ENDMDL
