MODEL 1
REMARK minimizedAffinity -1.55242586
REMARK minimizedRMSD -1
REMARK  2 active torsions:
REMARK  status: ('A' for Active; 'I' for Inactive)
REMARK    1  A    between atoms: C1_2  and  C2_3 
REMARK    2  A    between atoms: C2_3  and  C3_4 
ROOT
ATOM      1  C3  UNL d   1       4.125   2.474  -0.377  0.00  0.00    -0.075 A 
ATOM      2  C4  UNL d   1       2.984   3.196   0.003  0.00  0.00     0.002 A 
ATOM      3  C5  UNL d   1       2.243   2.813   1.121  0.00  0.00     0.002 A 
ATOM      4  C6  UNL d   1       2.625   1.699   1.865  0.00  0.00    -0.004 A 
ATOM      5  C7  UNL d   1       3.747   0.965   1.487  0.00  0.00     0.002 A 
ATOM      6  C8  UNL d   1       4.493   1.348   0.372  0.00  0.00     0.002 A 
ENDROOT
BRANCH   1   7
ATOM      7  C2  UNL d   1       4.948   2.901  -1.569  0.00  0.00     0.056 C 
BRANCH   7   8
ATOM      8  C1  UNL d   1       6.000   1.874  -2.001  0.00  0.00     0.007 C 
ATOM      9  C   UNL d   1       5.619   1.122  -3.269  0.00  0.00     0.009 C 
ENDBRANCH   7   8
ENDBRANCH   1   7
TORSDOF 2
ENDMDL
