MODEL 1
REMARK minimizedAffinity 12.2759237
REMARK minimizedRMSD -1
REMARK  2 active torsions:
REMARK  status: ('A' for Active; 'I' for Inactive)
REMARK    1  A    between atoms: C1_2  and  C2_3 
REMARK    2  A    between atoms: C2_3  and  C3_4 
ROOT
ATOM      1  C3  UNL d   1       1.003   4.252  -3.922  0.00  0.00    -0.075 A 
ATOM      2  C4  UNL d   1       1.356   3.386  -4.967  0.00  0.00     0.002 A 
ATOM      3  C5  UNL d   1       2.194   3.820  -5.995  0.00  0.00     0.002 A 
ATOM      4  C6  UNL d   1       2.680   5.126  -5.996  0.00  0.00    -0.004 A 
ATOM      5  C7  UNL d   1       2.322   6.000  -4.972  0.00  0.00     0.002 A 
ATOM      6  C8  UNL d   1       1.488   5.567  -3.940  0.00  0.00     0.002 A 
ENDROOT
BRANCH   1   7
ATOM      7  C2  UNL d   1       0.120   3.780  -2.792  0.00  0.00     0.056 C 
BRANCH   7   8
ATOM      8  C1  UNL d   1      -0.374   4.904  -1.875  0.00  0.00     0.007 C 
ATOM      9  C   UNL d   1      -1.465   4.456  -0.911  0.00  0.00     0.009 C 
ENDBRANCH   7   8
ENDBRANCH   1   7
TORSDOF 2
ENDMDL
