MODEL 1
REMARK minimizedAffinity 9.18317413
REMARK minimizedRMSD -1
REMARK  2 active torsions:
REMARK  status: ('A' for Active; 'I' for Inactive)
REMARK    1  A    between atoms: C1_2  and  C2_3 
REMARK    2  A    between atoms: C2_3  and  C3_4 
ROOT
ATOM      1  C3  UNL d   1       4.324   5.017   3.385  0.00  0.00    -0.075 A 
ATOM      2  C4  UNL d   1       4.112   5.999   4.363  0.00  0.00     0.002 A 
ATOM      3  C5  UNL d   1       4.844   5.986   5.551  0.00  0.00     0.002 A 
ATOM      4  C6  UNL d   1       5.787   4.987   5.780  0.00  0.00    -0.004 A 
ATOM      5  C7  UNL d   1       5.995   3.997   4.823  0.00  0.00     0.002 A 
ATOM      6  C8  UNL d   1       5.267   4.010   3.631  0.00  0.00     0.002 A 
ENDROOT
BRANCH   1   7
ATOM      7  C2  UNL d   1       3.556   5.042   2.085  0.00  0.00     0.056 C 
BRANCH   7   8
ATOM      8  C1  UNL d   1       2.046   5.235   2.256  0.00  0.00     0.007 C 
ATOM      9  C   UNL d   1       1.223   4.127   1.614  0.00  0.00     0.009 C 
ENDBRANCH   7   8
ENDBRANCH   1   7
TORSDOF 2
ENDMDL
