MODEL 1
REMARK minimizedAffinity 5.67815256
REMARK minimizedRMSD -1
REMARK  2 active torsions:
REMARK  status: ('A' for Active; 'I' for Inactive)
REMARK    1  A    between atoms: C1_2  and  C2_3 
REMARK    2  A    between atoms: C2_3  and  C3_4 
ROOT
ATOM      1  C3  UNL d   1       1.975   0.041   2.679  0.00  0.00    -0.075 A 
ATOM      2  C4  UNL d   1       2.994  -0.525   3.459  0.00  0.00     0.002 A 
ATOM      3  C5  UNL d   1       4.162  -1.001   2.863  0.00  0.00     0.002 A 
ATOM      4  C6  UNL d   1       4.321  -0.928   1.481  0.00  0.00    -0.004 A 
ATOM      5  C7  UNL d   1       3.309  -0.383   0.694  0.00  0.00     0.002 A 
ATOM      6  C8  UNL d   1       2.141   0.098   1.289  0.00  0.00     0.002 A 
ENDROOT
BRANCH   1   7
ATOM      7  C2  UNL d   1       0.722   0.585   3.321  0.00  0.00     0.056 C 
BRANCH   7   8
ATOM      8  C1  UNL d   1      -0.105  -0.468   4.066  0.00  0.00     0.007 C 
ATOM      9  C   UNL d   1      -1.165  -1.127   3.193  0.00  0.00     0.009 C 
ENDBRANCH   7   8
ENDBRANCH   1   7
TORSDOF 2
ENDMDL
