MODEL 1
REMARK minimizedAffinity 2.4882834
REMARK minimizedRMSD -1
REMARK  2 active torsions:
REMARK  status: ('A' for Active; 'I' for Inactive)
REMARK    1  A    between atoms: C1_2  and  C2_3 
REMARK    2  A    between atoms: C2_3  and  C3_4 
ROOT
ATOM      1  C3  UNL d   1       0.272  -1.285  -0.519  0.00  0.00    -0.075 A 
ATOM      2  C4  UNL d   1      -0.178  -0.901  -1.791  0.00  0.00     0.002 A 
ATOM      3  C5  UNL d   1      -1.504  -1.119  -2.168  0.00  0.00     0.002 A 
ATOM      4  C6  UNL d   1      -2.391  -1.730  -1.286  0.00  0.00    -0.004 A 
ATOM      5  C7  UNL d   1      -1.951  -2.130  -0.026  0.00  0.00     0.002 A 
ATOM      6  C8  UNL d   1      -0.627  -1.910   0.356  0.00  0.00     0.002 A 
ENDROOT
BRANCH   1   7
ATOM      7  C2  UNL d   1       1.697  -1.026  -0.093  0.00  0.00     0.056 C 
BRANCH   7   8
ATOM      8  C1  UNL d   1       1.886   0.275   0.695  0.00  0.00     0.007 C 
ATOM      9  C   UNL d   1       3.061   0.225   1.663  0.00  0.00     0.009 C 
ENDBRANCH   7   8
ENDBRANCH   1   7
TORSDOF 2
ENDMDL
