MODEL 1
REMARK minimizedAffinity 8.46416855
REMARK minimizedRMSD -1
REMARK  2 active torsions:
REMARK  status: ('A' for Active; 'I' for Inactive)
REMARK    1  A    between atoms: C1_2  and  C2_3 
REMARK    2  A    between atoms: C2_3  and  C3_4 
ROOT
ATOM      1  C3  UNL d   1      -0.930  -1.668   0.812  0.00  0.00    -0.075 A 
ATOM      2  C4  UNL d   1      -2.149  -1.601   0.122  0.00  0.00     0.002 A 
ATOM      3  C5  UNL d   1      -2.380  -2.415  -0.988  0.00  0.00     0.002 A 
ATOM      4  C6  UNL d   1      -1.395  -3.297  -1.427  0.00  0.00    -0.004 A 
ATOM      5  C7  UNL d   1      -0.174  -3.359  -0.758  0.00  0.00     0.002 A 
ATOM      6  C8  UNL d   1       0.059  -2.550   0.355  0.00  0.00     0.002 A 
ENDROOT
BRANCH   1   7
ATOM      7  C2  UNL d   1      -0.685  -0.812   2.031  0.00  0.00     0.056 C 
BRANCH   7   8
ATOM      8  C1  UNL d   1       0.543   0.098   1.918  0.00  0.00     0.007 C 
ATOM      9  C   UNL d   1       0.491   1.297   2.855  0.00  0.00     0.009 C 
ENDBRANCH   7   8
ENDBRANCH   1   7
TORSDOF 2
ENDMDL
