MODEL 1
REMARK minimizedAffinity 7.25575447
REMARK minimizedRMSD -1
REMARK  2 active torsions:
REMARK  status: ('A' for Active; 'I' for Inactive)
REMARK    1  A    between atoms: C1_2  and  C2_3 
REMARK    2  A    between atoms: C2_3  and  C3_4 
ROOT
ATOM      1  C3  UNL d   1      -1.900  -2.460  -1.901  0.00  0.00    -0.075 A 
ATOM      2  C4  UNL d   1      -2.629  -3.485  -2.521  0.00  0.00     0.002 A 
ATOM      3  C5  UNL d   1      -2.507  -3.712  -3.892  0.00  0.00     0.002 A 
ATOM      4  C6  UNL d   1      -1.664  -2.913  -4.661  0.00  0.00    -0.004 A 
ATOM      5  C7  UNL d   1      -0.948  -1.881  -4.059  0.00  0.00     0.002 A 
ATOM      6  C8  UNL d   1      -1.065  -1.654  -2.686  0.00  0.00     0.002 A 
ENDROOT
BRANCH   1   7
ATOM      7  C2  UNL d   1      -2.006  -2.228  -0.413  0.00  0.00     0.056 C 
BRANCH   7   8
ATOM      8  C1  UNL d   1      -0.865  -2.852   0.398  0.00  0.00     0.007 C 
ATOM      9  C   UNL d   1      -1.163  -2.934   1.889  0.00  0.00     0.009 C 
ENDBRANCH   7   8
ENDBRANCH   1   7
TORSDOF 2
ENDMDL
