MODEL 1
REMARK minimizedAffinity 2.71759009
REMARK minimizedRMSD -1
REMARK  2 active torsions:
REMARK  status: ('A' for Active; 'I' for Inactive)
REMARK    1  A    between atoms: C1_2  and  C2_3 
REMARK    2  A    between atoms: C2_3  and  C3_4 
ROOT
ATOM      1  C3  UNL d   1       3.066   3.446  -4.564  0.00  0.00    -0.075 A 
ATOM      2  C4  UNL d   1       1.864   3.349  -5.280  0.00  0.00     0.002 A 
ATOM      3  C5  UNL d   1       1.377   4.442  -5.998  0.00  0.00     0.002 A 
ATOM      4  C6  UNL d   1       2.078   5.646  -6.000  0.00  0.00    -0.004 A 
ATOM      5  C7  UNL d   1       3.265   5.759  -5.279  0.00  0.00     0.002 A 
ATOM      6  C8  UNL d   1       3.757   4.665  -4.564  0.00  0.00     0.002 A 
ENDROOT
BRANCH   1   7
ATOM      7  C2  UNL d   1       3.614   2.258  -3.810  0.00  0.00     0.056 C 
BRANCH   7   8
ATOM      8  C1  UNL d   1       4.440   2.630  -2.575  0.00  0.00     0.007 C 
ATOM      9  C   UNL d   1       3.767   2.245  -1.264  0.00  0.00     0.009 C 
ENDBRANCH   7   8
ENDBRANCH   1   7
TORSDOF 2
ENDMDL
