MODEL 1
REMARK minimizedAffinity 0.995444
REMARK minimizedRMSD -1
REMARK  2 active torsions:
REMARK  status: ('A' for Active; 'I' for Inactive)
REMARK    1  A    between atoms: C1_2  and  C2_3 
REMARK    2  A    between atoms: C2_3  and  C3_4 
ROOT
ATOM      1  C3  UNL d   1      -3.355  -3.909  -1.386  0.00  0.00    -0.075 A 
ATOM      2  C4  UNL d   1      -3.964  -5.078  -1.864  0.00  0.00     0.002 A 
ATOM      3  C5  UNL d   1      -5.217  -5.468  -1.392  0.00  0.00     0.002 A 
ATOM      4  C6  UNL d   1      -5.872  -4.701  -0.430  0.00  0.00    -0.004 A 
ATOM      5  C7  UNL d   1      -5.269  -3.547   0.064  0.00  0.00     0.002 A 
ATOM      6  C8  UNL d   1      -4.016  -3.152  -0.410  0.00  0.00     0.002 A 
ENDROOT
BRANCH   1   7
ATOM      7  C2  UNL d   1      -2.011  -3.466  -1.915  0.00  0.00     0.056 C 
BRANCH   7   8
ATOM      8  C1  UNL d   1      -1.404  -2.279  -1.159  0.00  0.00     0.007 C 
ATOM      9  C   UNL d   1      -0.102  -2.623  -0.448  0.00  0.00     0.009 C 
ENDBRANCH   7   8
ENDBRANCH   1   7
TORSDOF 2
ENDMDL
