MODEL 1
REMARK minimizedAffinity 19.0001488
REMARK minimizedRMSD -1
REMARK  2 active torsions:
REMARK  status: ('A' for Active; 'I' for Inactive)
REMARK    1  A    between atoms: C1_2  and  C2_3 
REMARK    2  A    between atoms: C2_3  and  C3_4 
ROOT
ATOM      1  C3  UNL d   1      -3.006  -1.492   3.901  0.00  0.00    -0.075 A 
ATOM      2  C4  UNL d   1      -3.203  -2.879   3.975  0.00  0.00     0.002 A 
ATOM      3  C5  UNL d   1      -2.297  -3.755   3.377  0.00  0.00     0.002 A 
ATOM      4  C6  UNL d   1      -1.191  -3.258   2.690  0.00  0.00    -0.004 A 
ATOM      5  C7  UNL d   1      -0.995  -1.881   2.597  0.00  0.00     0.002 A 
ATOM      6  C8  UNL d   1      -1.897  -1.002   3.198  0.00  0.00     0.002 A 
ENDROOT
BRANCH   1   7
ATOM      7  C2  UNL d   1      -3.967  -0.539   4.572  0.00  0.00     0.056 C 
BRANCH   7   8
ATOM      8  C1  UNL d   1      -4.481  -1.025   5.931  0.00  0.00     0.007 C 
ATOM      9  C   UNL d   1      -6.000  -1.117   6.000  0.00  0.00     0.009 C 
ENDBRANCH   7   8
ENDBRANCH   1   7
TORSDOF 2
ENDMDL
