MODEL 1
REMARK minimizedAffinity 12.1319923
REMARK minimizedRMSD -1
REMARK  2 active torsions:
REMARK  status: ('A' for Active; 'I' for Inactive)
REMARK    1  A    between atoms: C1_2  and  C2_3 
REMARK    2  A    between atoms: C2_3  and  C3_4 
ROOT
ATOM      1  C3  UNL d   1       0.842   3.240   0.575  0.00  0.00    -0.075 A 
ATOM      2  C4  UNL d   1       0.540   2.901  -0.752  0.00  0.00     0.002 A 
ATOM      3  C5  UNL d   1      -0.545   3.488  -1.404  0.00  0.00     0.002 A 
ATOM      4  C6  UNL d   1      -1.345   4.412  -0.736  0.00  0.00    -0.004 A 
ATOM      5  C7  UNL d   1      -1.064   4.744   0.587  0.00  0.00     0.002 A 
ATOM      6  C8  UNL d   1       0.023   4.161   1.241  0.00  0.00     0.002 A 
ENDROOT
BRANCH   1   7
ATOM      7  C2  UNL d   1       2.032   2.630   1.276  0.00  0.00     0.056 C 
BRANCH   7   8
ATOM      8  C1  UNL d   1       1.963   1.105   1.411  0.00  0.00     0.007 C 
ATOM      9  C   UNL d   1       3.319   0.427   1.272  0.00  0.00     0.009 C 
ENDBRANCH   7   8
ENDBRANCH   1   7
TORSDOF 2
ENDMDL
