MODEL 1
REMARK minimizedAffinity 5.20077705
REMARK minimizedRMSD -1
REMARK  2 active torsions:
REMARK  status: ('A' for Active; 'I' for Inactive)
REMARK    1  A    between atoms: C1_2  and  C2_3 
REMARK    2  A    between atoms: C2_3  and  C3_4 
ROOT
ATOM      1  C3  UNL d   1      -2.582  -2.532  -2.963  0.00  0.00    -0.075 A 
ATOM      2  C4  UNL d   1      -2.319  -1.866  -1.758  0.00  0.00     0.002 A 
ATOM      3  C5  UNL d   1      -3.319  -1.722  -0.796  0.00  0.00     0.002 A 
ATOM      4  C6  UNL d   1      -4.595  -2.231  -1.030  0.00  0.00    -0.004 A 
ATOM      5  C7  UNL d   1      -4.872  -2.879  -2.232  0.00  0.00     0.002 A 
ATOM      6  C8  UNL d   1      -3.872  -3.030  -3.194  0.00  0.00     0.002 A 
ENDROOT
BRANCH   1   7
ATOM      7  C2  UNL d   1      -1.497  -2.718  -3.996  0.00  0.00     0.056 C 
BRANCH   7   8
ATOM      8  C1  UNL d   1      -1.906  -2.303  -5.413  0.00  0.00     0.007 C 
ATOM      9  C   UNL d   1      -3.008  -3.175  -6.000  0.00  0.00     0.009 C 
ENDBRANCH   7   8
ENDBRANCH   1   7
TORSDOF 2
ENDMDL
