MODEL 1
REMARK minimizedAffinity 2.82440209
REMARK minimizedRMSD -1
REMARK  2 active torsions:
REMARK  status: ('A' for Active; 'I' for Inactive)
REMARK    1  A    between atoms: C1_2  and  C2_3 
REMARK    2  A    between atoms: C2_3  and  C3_4 
ROOT
ATOM      1  C3  UNL d   1       4.419   4.668  -4.153  0.00  0.00    -0.075 A 
ATOM      2  C4  UNL d   1       3.649   5.840  -4.148  0.00  0.00     0.002 A 
ATOM      3  C5  UNL d   1       2.596   6.000  -5.048  0.00  0.00     0.002 A 
ATOM      4  C6  UNL d   1       2.305   4.997  -5.971  0.00  0.00    -0.004 A 
ATOM      5  C7  UNL d   1       3.074   3.835  -5.996  0.00  0.00     0.002 A 
ATOM      6  C8  UNL d   1       4.126   3.671  -5.093  0.00  0.00     0.002 A 
ENDROOT
BRANCH   1   7
ATOM      7  C2  UNL d   1       5.541   4.476  -3.162  0.00  0.00     0.056 C 
BRANCH   7   8
ATOM      8  C1  UNL d   1       5.155   3.642  -1.936  0.00  0.00     0.007 C 
ATOM      9  C   UNL d   1       5.699   2.220  -1.982  0.00  0.00     0.009 C 
ENDBRANCH   7   8
ENDBRANCH   1   7
TORSDOF 2
ENDMDL
