MODEL 1
REMARK minimizedAffinity -2.51049066
REMARK minimizedRMSD -1
REMARK  0 active torsions:
REMARK  status: ('A' for Active; 'I' for Inactive)
ROOT
ATOM      1  C4' PXY d   1      -4.306   3.364  -5.974  0.00  0.00     0.077 C 
ATOM      2  C1' PXY d   1       1.427   4.106  -6.000  0.00  0.00     0.077 C 
ATOM      3  C1  PXY d   1      -0.075   3.900  -5.998  0.00  0.00    -0.082 A 
ATOM      4  C2  PXY d   1      -0.880   4.950  -5.995  0.00  0.00     0.003 A 
ATOM      5  C3  PXY d   1      -2.240   4.782  -5.961  0.00  0.00     0.003 A 
ATOM      6  C4  PXY d   1      -2.783   3.525  -5.985  0.00  0.00    -0.082 A 
ATOM      7  C5  PXY d   1      -1.969   2.448  -5.999  0.00  0.00     0.003 A 
ATOM      8  C6  PXY d   1      -0.591   2.640  -5.992  0.00  0.00     0.003 A 
ENDROOT
TORSDOF 0
ENDMDL
