MODEL 1
REMARK minimizedAffinity 0.0275444556
REMARK minimizedRMSD -1
REMARK  0 active torsions:
REMARK  status: ('A' for Active; 'I' for Inactive)
ROOT
ATOM      1  C4' PXY d   1       1.804   5.447  -5.980  0.00  0.00     0.077 C 
ATOM      2  C1' PXY d   1      -3.536   3.234  -5.995  0.00  0.00     0.077 C 
ATOM      3  C1  PXY d   1      -2.140   3.826  -5.996  0.00  0.00    -0.082 A 
ATOM      4  C2  PXY d   1      -1.089   3.022  -5.998  0.00  0.00     0.003 A 
ATOM      5  C3  PXY d   1       0.180   3.540  -5.967  0.00  0.00     0.003 A 
ATOM      6  C4  PXY d   1       0.377   4.895  -5.988  0.00  0.00    -0.082 A 
ATOM      7  C5  PXY d   1      -0.691   5.721  -5.996  0.00  0.00     0.003 A 
ATOM      8  C6  PXY d   1      -1.971   5.176  -5.986  0.00  0.00     0.003 A 
ENDROOT
TORSDOF 0
ENDMDL
