MODEL 1
REMARK minimizedAffinity -1.09046543
REMARK minimizedRMSD -1
REMARK  0 active torsions:
REMARK  status: ('A' for Active; 'I' for Inactive)
ROOT
ATOM      1  C4' PXY d   1      -3.750   3.730  -5.949  0.00  0.00     0.077 C 
ATOM      2  C1' PXY d   1       1.921   4.854  -5.990  0.00  0.00     0.077 C 
ATOM      3  C1  PXY d   1       0.436   4.548  -5.985  0.00  0.00    -0.082 A 
ATOM      4  C2  PXY d   1      -0.437   5.542  -5.983  0.00  0.00     0.003 A 
ATOM      5  C3  PXY d   1      -1.783   5.283  -5.946  0.00  0.00     0.003 A 
ATOM      6  C4  PXY d   1      -2.241   3.993  -5.964  0.00  0.00    -0.082 A 
ATOM      7  C5  PXY d   1      -1.357   2.973  -5.977  0.00  0.00     0.003 A 
ATOM      8  C6  PXY d   1       0.006   3.257  -5.973  0.00  0.00     0.003 A 
ENDROOT
TORSDOF 0
ENDMDL
