MODEL 1
REMARK minimizedAffinity 2.11195111
REMARK minimizedRMSD -1
REMARK  0 active torsions:
REMARK  status: ('A' for Active; 'I' for Inactive)
ROOT
ATOM      1  C4' PXY d   1       4.779   5.504   1.153  0.00  0.00     0.077 C 
ATOM      2  C1' PXY d   1       2.392   2.166  -2.918  0.00  0.00     0.077 C 
ATOM      3  C1  PXY d   1       3.007   3.049  -1.850  0.00  0.00    -0.082 A 
ATOM      4  C2  PXY d   1       4.323   3.105  -1.727  0.00  0.00     0.003 A 
ATOM      5  C3  PXY d   1       4.895   3.873  -0.746  0.00  0.00     0.003 A 
ATOM      6  C4  PXY d   1       4.114   4.633   0.083  0.00  0.00    -0.082 A 
ATOM      7  C5  PXY d   1       2.771   4.589  -0.044  0.00  0.00     0.003 A 
ATOM      8  C6  PXY d   1       2.208   3.771  -1.019  0.00  0.00     0.003 A 
ENDROOT
TORSDOF 0
ENDMDL
