MODEL 1
REMARK minimizedAffinity -1.35551822
REMARK minimizedRMSD -1
REMARK  0 active torsions:
REMARK  status: ('A' for Active; 'I' for Inactive)
ROOT
ATOM      1  C4' PXY d   1       5.968   5.204  -5.950  0.00  0.00     0.077 C 
ATOM      2  C1' PXY d   1       0.311   4.016  -5.993  0.00  0.00     0.077 C 
ATOM      3  C1  PXY d   1       1.792   4.339  -5.987  0.00  0.00    -0.082 A 
ATOM      4  C2  PXY d   1       2.676   3.355  -5.965  0.00  0.00     0.003 A 
ATOM      5  C3  PXY d   1       4.019   3.630  -5.927  0.00  0.00     0.003 A 
ATOM      6  C4  PXY d   1       4.463   4.924  -5.966  0.00  0.00    -0.082 A 
ATOM      7  C5  PXY d   1       3.568   5.934  -5.999  0.00  0.00     0.003 A 
ATOM      8  C6  PXY d   1       2.208   5.635  -5.995  0.00  0.00     0.003 A 
ENDROOT
TORSDOF 0
ENDMDL
