MODEL 1
REMARK minimizedAffinity -2.08401632
REMARK minimizedRMSD -1
REMARK  0 active torsions:
REMARK  status: ('A' for Active; 'I' for Inactive)
ROOT
ATOM      1  C4' PXY d   1       0.072   4.796  -5.999  0.00  0.00     0.077 C 
ATOM      2  C1' PXY d   1       5.846   4.530  -5.948  0.00  0.00     0.077 C 
ATOM      3  C1  PXY d   1       4.331   4.588  -5.966  0.00  0.00    -0.082 A 
ATOM      4  C2  PXY d   1       3.722   5.762  -5.998  0.00  0.00     0.003 A 
ATOM      5  C3  PXY d   1       2.352   5.833  -5.983  0.00  0.00     0.003 A 
ATOM      6  C4  PXY d   1       1.599   4.689  -5.989  0.00  0.00    -0.082 A 
ATOM      7  C5  PXY d   1       2.214   3.488  -5.967  0.00  0.00     0.003 A 
ATOM      8  C6  PXY d   1       3.604   3.438  -5.941  0.00  0.00     0.003 A 
ENDROOT
TORSDOF 0
ENDMDL
