MODEL 1
REMARK minimizedAffinity 2.98321342
REMARK minimizedRMSD -1
REMARK  0 active torsions:
REMARK  status: ('A' for Active; 'I' for Inactive)
ROOT
ATOM      1  C4' PXY d   1      -2.695  -3.892  -0.992  0.00  0.00     0.077 C 
ATOM      2  C1' PXY d   1       1.310  -1.790  -4.592  0.00  0.00     0.077 C 
ATOM      3  C1  PXY d   1       0.262  -2.332  -3.639  0.00  0.00    -0.082 A 
ATOM      4  C2  PXY d   1      -0.066  -3.612  -3.687  0.00  0.00     0.003 A 
ATOM      5  C3  PXY d   1      -1.035  -4.112  -2.855  0.00  0.00     0.003 A 
ATOM      6  C4  PXY d   1      -1.636  -3.304  -1.928  0.00  0.00    -0.082 A 
ATOM      7  C5  PXY d   1      -1.299  -1.998  -1.866  0.00  0.00     0.003 A 
ATOM      8  C6  PXY d   1      -0.343  -1.501  -2.747  0.00  0.00     0.003 A 
ENDROOT
TORSDOF 0
ENDMDL
