MODEL 1
REMARK minimizedAffinity -3.43291092
REMARK minimizedRMSD -1
REMARK  0 active torsions:
REMARK  status: ('A' for Active; 'I' for Inactive)
ROOT
ATOM      1  C4' PXY d   1       0.205   4.658  -5.959  0.00  0.00     0.077 C 
ATOM      2  C1' PXY d   1       5.982   4.857  -5.999  0.00  0.00     0.077 C 
ATOM      3  C1  PXY d   1       4.466   4.817  -5.983  0.00  0.00    -0.082 A 
ATOM      4  C2  PXY d   1       3.843   3.650  -5.982  0.00  0.00     0.003 A 
ATOM      5  C3  PXY d   1       2.473   3.595  -6.000  0.00  0.00     0.003 A 
ATOM      6  C4  PXY d   1       1.733   4.747  -5.965  0.00  0.00    -0.082 A 
ATOM      7  C5  PXY d   1       2.362   5.941  -5.956  0.00  0.00     0.003 A 
ATOM      8  C6  PXY d   1       3.753   5.976  -5.980  0.00  0.00     0.003 A 
ENDROOT
TORSDOF 0
ENDMDL
