MODEL 1
REMARK minimizedAffinity -3.80663443
REMARK minimizedRMSD -1
REMARK  0 active torsions:
REMARK  status: ('A' for Active; 'I' for Inactive)
ROOT
ATOM      1  C4' PXY d   1      -3.405   3.400  -5.969  0.00  0.00     0.077 C 
ATOM      2  C1' PXY d   1       2.357   3.856  -5.993  0.00  0.00     0.077 C 
ATOM      3  C1  PXY d   1       0.845   3.748  -5.982  0.00  0.00    -0.082 A 
ATOM      4  C2  PXY d   1       0.274   2.555  -5.973  0.00  0.00     0.003 A 
ATOM      5  C3  PXY d   1      -1.092   2.439  -5.995  0.00  0.00     0.003 A 
ATOM      6  C4  PXY d   1      -1.882   3.556  -5.971  0.00  0.00    -0.082 A 
ATOM      7  C5  PXY d   1      -1.308   4.778  -5.969  0.00  0.00     0.003 A 
ATOM      8  C6  PXY d   1       0.081   4.874  -5.989  0.00  0.00     0.003 A 
ENDROOT
TORSDOF 0
ENDMDL
