MODEL 1
REMARK minimizedAffinity -2.74050212
REMARK minimizedRMSD -1
REMARK  0 active torsions:
REMARK  status: ('A' for Active; 'I' for Inactive)
ROOT
ATOM      1  C4' PXY d   1       1.368   4.144  -5.992  0.00  0.00     0.077 C 
ATOM      2  C1' PXY d   1      -4.412   4.108  -5.988  0.00  0.00     0.077 C 
ATOM      3  C1  PXY d   1      -2.897   4.130  -5.994  0.00  0.00    -0.082 A 
ATOM      4  C2  PXY d   1      -2.226   2.989  -6.000  0.00  0.00     0.003 A 
ATOM      5  C3  PXY d   1      -0.856   2.990  -5.973  0.00  0.00     0.003 A 
ATOM      6  C4  PXY d   1      -0.163   4.171  -5.995  0.00  0.00    -0.082 A 
ATOM      7  C5  PXY d   1      -0.840   5.339  -6.000  0.00  0.00     0.003 A 
ATOM      8  C6  PXY d   1      -2.231   5.317  -5.985  0.00  0.00     0.003 A 
ENDROOT
TORSDOF 0
ENDMDL
