MODEL 1
REMARK minimizedAffinity -3.08134031
REMARK minimizedRMSD -1
REMARK  0 active torsions:
REMARK  status: ('A' for Active; 'I' for Inactive)
ROOT
ATOM      1  C4' PXY d   1      -2.440   3.326  -5.975  0.00  0.00     0.077 C 
ATOM      2  C1' PXY d   1       3.258   4.296  -5.999  0.00  0.00     0.077 C 
ATOM      3  C1  PXY d   1       1.766   4.030  -5.998  0.00  0.00    -0.082 A 
ATOM      4  C2  PXY d   1       0.920   5.047  -5.997  0.00  0.00     0.003 A 
ATOM      5  C3  PXY d   1      -0.433   4.825  -5.964  0.00  0.00     0.003 A 
ATOM      6  C4  PXY d   1      -0.925   3.547  -5.985  0.00  0.00    -0.082 A 
ATOM      7  C5  PXY d   1      -0.068   2.504  -5.997  0.00  0.00     0.003 A 
ATOM      8  C6  PXY d   1       1.301   2.751  -5.989  0.00  0.00     0.003 A 
ENDROOT
TORSDOF 0
ENDMDL
