MODEL 1
REMARK minimizedAffinity -2.50411892
REMARK minimizedRMSD -1
REMARK  0 active torsions:
REMARK  status: ('A' for Active; 'I' for Inactive)
ROOT
ATOM      1  C4' PXY d   1       3.715   3.573  -5.988  0.00  0.00     0.077 C 
ATOM      2  C1' PXY d   1      -2.060   3.316  -5.991  0.00  0.00     0.077 C 
ATOM      3  C1  PXY d   1      -0.545   3.371  -5.985  0.00  0.00    -0.082 A 
ATOM      4  C2  PXY d   1       0.067   4.544  -5.973  0.00  0.00     0.003 A 
ATOM      5  C3  PXY d   1       1.436   4.613  -6.000  0.00  0.00     0.003 A 
ATOM      6  C4  PXY d   1       2.187   3.469  -5.985  0.00  0.00    -0.082 A 
ATOM      7  C5  PXY d   1       1.571   2.268  -5.986  0.00  0.00     0.003 A 
ATOM      8  C6  PXY d   1       0.180   2.220  -6.000  0.00  0.00     0.003 A 
ENDROOT
TORSDOF 0
ENDMDL
