MODEL 1
REMARK minimizedAffinity -3.43042064
REMARK minimizedRMSD -1
REMARK  0 active torsions:
REMARK  status: ('A' for Active; 'I' for Inactive)
ROOT
ATOM      1  C4' PXY d   1       2.749   3.557  -5.968  0.00  0.00     0.077 C 
ATOM      2  C1' PXY d   1      -3.004   2.988  -6.000  0.00  0.00     0.077 C 
ATOM      3  C1  PXY d   1      -1.494   3.125  -5.986  0.00  0.00    -0.082 A 
ATOM      4  C2  PXY d   1      -0.947   4.330  -5.978  0.00  0.00     0.003 A 
ATOM      5  C3  PXY d   1       0.417   4.472  -5.998  0.00  0.00     0.003 A 
ATOM      6  C4  PXY d   1       1.229   3.370  -5.973  0.00  0.00    -0.082 A 
ATOM      7  C5  PXY d   1       0.678   2.138  -5.970  0.00  0.00     0.003 A 
ATOM      8  C6  PXY d   1      -0.708   2.015  -5.992  0.00  0.00     0.003 A 
ENDROOT
TORSDOF 0
ENDMDL
