MODEL 1
REMARK minimizedAffinity 1.63863289
REMARK minimizedRMSD -1
REMARK  0 active torsions:
REMARK  status: ('A' for Active; 'I' for Inactive)
ROOT
ATOM      1  C4' PXY d   1      -1.623   3.789  -5.907  0.00  0.00     0.077 C 
ATOM      2  C1' PXY d   1       3.983   5.198  -5.999  0.00  0.00     0.077 C 
ATOM      3  C1  PXY d   1       2.516   4.817  -5.980  0.00  0.00    -0.082 A 
ATOM      4  C2  PXY d   1       1.593   5.765  -5.999  0.00  0.00     0.003 A 
ATOM      5  C3  PXY d   1       0.262   5.439  -5.949  0.00  0.00     0.003 A 
ATOM      6  C4  PXY d   1      -0.130   4.127  -5.935  0.00  0.00    -0.082 A 
ATOM      7  C5  PXY d   1       0.806   3.154  -5.927  0.00  0.00     0.003 A 
ATOM      8  C6  PXY d   1       2.152   3.507  -5.935  0.00  0.00     0.003 A 
ENDROOT
TORSDOF 0
ENDMDL
