MODEL 1
REMARK minimizedAffinity -1.57409799
REMARK minimizedRMSD -1
REMARK  0 active torsions:
REMARK  status: ('A' for Active; 'I' for Inactive)
ROOT
ATOM      1  C4' PXY d   1      -0.480   3.638  -5.979  0.00  0.00     0.077 C 
ATOM      2  C1' PXY d   1       5.133   5.018  -5.999  0.00  0.00     0.077 C 
ATOM      3  C1  PXY d   1       3.664   4.644  -5.999  0.00  0.00    -0.082 A 
ATOM      4  C2  PXY d   1       2.746   5.598  -6.000  0.00  0.00     0.003 A 
ATOM      5  C3  PXY d   1       1.413   5.278  -5.968  0.00  0.00     0.003 A 
ATOM      6  C4  PXY d   1       1.015   3.968  -5.989  0.00  0.00    -0.082 A 
ATOM      7  C5  PXY d   1       1.944   2.990  -5.998  0.00  0.00     0.003 A 
ATOM      8  C6  PXY d   1       3.293   3.335  -5.989  0.00  0.00     0.003 A 
ENDROOT
TORSDOF 0
ENDMDL
