MODEL 1
REMARK minimizedAffinity 3.22088027
REMARK minimizedRMSD -1
REMARK  0 active torsions:
REMARK  status: ('A' for Active; 'I' for Inactive)
ROOT
ATOM      1  C4' PXY d   1       4.440   3.286  -5.967  0.00  0.00     0.077 C 
ATOM      2  C1' PXY d   1      -1.133   4.822  -5.985  0.00  0.00     0.077 C 
ATOM      3  C1  PXY d   1       0.332   4.431  -5.986  0.00  0.00    -0.082 A 
ATOM      4  C2  PXY d   1       0.667   3.151  -5.999  0.00  0.00     0.003 A 
ATOM      5  C3  PXY d   1       1.986   2.779  -5.967  0.00  0.00     0.003 A 
ATOM      6  C4  PXY d   1       2.974   3.727  -5.976  0.00  0.00    -0.082 A 
ATOM      7  C5  PXY d   1       2.640   5.035  -5.973  0.00  0.00     0.003 A 
ATOM      8  C6  PXY d   1       1.295   5.392  -5.964  0.00  0.00     0.003 A 
ENDROOT
TORSDOF 0
ENDMDL
