MODEL 1
REMARK minimizedAffinity -2.3855989
REMARK minimizedRMSD -1
REMARK  0 active torsions:
REMARK  status: ('A' for Active; 'I' for Inactive)
ROOT
ATOM      1  C4' PXY d   1      -0.023   4.600  -5.972  0.00  0.00     0.077 C 
ATOM      2  C1' PXY d   1       5.750   4.907  -6.000  0.00  0.00     0.077 C 
ATOM      3  C1  PXY d   1       4.235   4.838  -5.987  0.00  0.00    -0.082 A 
ATOM      4  C2  PXY d   1       3.634   3.660  -5.979  0.00  0.00     0.003 A 
ATOM      5  C3  PXY d   1       2.265   3.579  -6.000  0.00  0.00     0.003 A 
ATOM      6  C4  PXY d   1       1.504   4.717  -5.975  0.00  0.00    -0.082 A 
ATOM      7  C5  PXY d   1       2.110   5.923  -5.972  0.00  0.00     0.003 A 
ATOM      8  C6  PXY d   1       3.500   5.984  -5.993  0.00  0.00     0.003 A 
ENDROOT
TORSDOF 0
ENDMDL
