MODEL 1
REMARK minimizedAffinity 0.573670685
REMARK minimizedRMSD -1
REMARK  0 active torsions:
REMARK  status: ('A' for Active; 'I' for Inactive)
ROOT
ATOM      1  C4' PXY d   1      -0.362   3.312  -5.973  0.00  0.00     0.077 C 
ATOM      2  C1' PXY d   1      -5.485   5.990  -5.997  0.00  0.00     0.077 C 
ATOM      3  C1  PXY d   1      -4.147   5.277  -5.986  0.00  0.00    -0.082 A 
ATOM      4  C2  PXY d   1      -3.029   5.985  -5.978  0.00  0.00     0.003 A 
ATOM      5  C3  PXY d   1      -1.810   5.356  -6.000  0.00  0.00     0.003 A 
ATOM      6  C4  PXY d   1      -1.735   3.989  -5.975  0.00  0.00    -0.082 A 
ATOM      7  C5  PXY d   1      -2.871   3.260  -5.972  0.00  0.00     0.003 A 
ATOM      8  C6  PXY d   1      -4.098   3.917  -5.992  0.00  0.00     0.003 A 
ENDROOT
TORSDOF 0
ENDMDL
