MODEL 1
REMARK minimizedAffinity -2.8978076
REMARK minimizedRMSD -1
REMARK  0 active torsions:
REMARK  status: ('A' for Active; 'I' for Inactive)
ROOT
ATOM      1  C4' PXY d   1       4.097   3.914  -6.000  0.00  0.00     0.077 C 
ATOM      2  C1' PXY d   1      -1.549   2.675  -5.973  0.00  0.00     0.077 C 
ATOM      3  C1  PXY d   1      -0.066   2.988  -5.975  0.00  0.00    -0.082 A 
ATOM      4  C2  PXY d   1       0.336   4.249  -5.963  0.00  0.00     0.003 A 
ATOM      5  C3  PXY d   1       1.673   4.550  -5.997  0.00  0.00     0.003 A 
ATOM      6  C4  PXY d   1       2.609   3.551  -5.989  0.00  0.00    -0.082 A 
ATOM      7  C5  PXY d   1       2.207   2.262  -5.990  0.00  0.00     0.003 A 
ATOM      8  C6  PXY d   1       0.845   1.977  -5.997  0.00  0.00     0.003 A 
ENDROOT
TORSDOF 0
ENDMDL
