MODEL 1
REMARK minimizedAffinity 3.9472928
REMARK minimizedRMSD -1
REMARK  0 active torsions:
REMARK  status: ('A' for Active; 'I' for Inactive)
ROOT
ATOM      1  C   UNL d   1       2.646   0.643  -0.022  0.00  0.00     0.020 A 
ATOM      2  C1  UNL d   1       2.504   1.117   1.282  0.00  0.00     0.020 A 
ATOM      3  C2  UNL d   1       1.271   1.609   1.715  0.00  0.00     0.034 A 
ATOM      4  C3  UNL d   1       0.175   1.627   0.845  0.00  0.00     0.017 A 
ATOM      5  C4  UNL d   1       0.318   1.150  -0.463  0.00  0.00     0.017 A 
ATOM      6  C5  UNL d   1       1.555   0.660  -0.892  0.00  0.00     0.034 A 
ATOM      7 Cl   UNL d   1      -0.988   1.141  -1.594  0.00  0.00    -0.070 Cl
ATOM      8 Cl1  UNL d   1      -1.320   2.248   1.449  0.00  0.00    -0.070 Cl
ENDROOT
TORSDOF 0
ENDMDL
