MODEL 1
REMARK minimizedAffinity 9.6574955
REMARK minimizedRMSD -1
REMARK  0 active torsions:
REMARK  status: ('A' for Active; 'I' for Inactive)
ROOT
ATOM      1  C   UNL d   1      -4.421   0.872  -5.005  0.00  0.00     0.020 A 
ATOM      2  C1  UNL d   1      -3.170   1.395  -5.328  0.00  0.00     0.020 A 
ATOM      3  C2  UNL d   1      -2.042   1.006  -4.603  0.00  0.00     0.034 A 
ATOM      4  C3  UNL d   1      -2.162   0.091  -3.551  0.00  0.00     0.017 A 
ATOM      5  C4  UNL d   1      -3.419  -0.434  -3.227  0.00  0.00     0.017 A 
ATOM      6  C5  UNL d   1      -4.545  -0.041  -3.957  0.00  0.00     0.034 A 
ATOM      7 Cl   UNL d   1      -3.647  -1.567  -1.943  0.00  0.00    -0.070 Cl
ATOM      8 Cl1  UNL d   1      -0.725  -0.346  -2.698  0.00  0.00    -0.070 Cl
ENDROOT
TORSDOF 0
ENDMDL
