MODEL 1
REMARK minimizedAffinity 12.8082352
REMARK minimizedRMSD -1
REMARK  0 active torsions:
REMARK  status: ('A' for Active; 'I' for Inactive)
ROOT
ATOM      1  C   UNL d   1      -4.664   1.178  -5.031  0.00  0.00     0.020 A 
ATOM      2  C1  UNL d   1      -5.627   0.727  -4.129  0.00  0.00     0.020 A 
ATOM      3  C2  UNL d   1      -5.998   1.526  -3.045  0.00  0.00     0.034 A 
ATOM      4  C3  UNL d   1      -5.406   2.781  -2.861  0.00  0.00     0.017 A 
ATOM      5  C4  UNL d   1      -4.440   3.233  -3.768  0.00  0.00     0.017 A 
ATOM      6  C5  UNL d   1      -4.072   2.429  -4.851  0.00  0.00     0.034 A 
ATOM      7 Cl   UNL d   1      -3.665   4.770  -3.607  0.00  0.00    -0.070 Cl
ATOM      8 Cl1  UNL d   1      -5.912   3.717  -1.500  0.00  0.00    -0.070 Cl
ENDROOT
TORSDOF 0
ENDMDL
