MODEL 1
REMARK minimizedAffinity 12.1149406
REMARK minimizedRMSD -1
REMARK  0 active torsions:
REMARK  status: ('A' for Active; 'I' for Inactive)
ROOT
ATOM      1  C   UNL d   1       1.266  -1.626  -0.085  0.00  0.00     0.020 A 
ATOM      2  C1  UNL d   1       1.085  -2.963  -0.438  0.00  0.00     0.020 A 
ATOM      3  C2  UNL d   1       1.927  -3.556  -1.381  0.00  0.00     0.034 A 
ATOM      4  C3  UNL d   1       2.953  -2.812  -1.975  0.00  0.00     0.017 A 
ATOM      5  C4  UNL d   1       3.134  -1.470  -1.620  0.00  0.00     0.017 A 
ATOM      6  C5  UNL d   1       2.288  -0.881  -0.675  0.00  0.00     0.034 A 
ATOM      7 Cl   UNL d   1       4.378  -0.488  -2.309  0.00  0.00    -0.070 Cl
ATOM      8 Cl1  UNL d   1       3.957  -3.609  -3.133  0.00  0.00    -0.070 Cl
ENDROOT
TORSDOF 0
ENDMDL
