MODEL 1
REMARK minimizedAffinity 5.5962615
REMARK minimizedRMSD -1
REMARK  0 active torsions:
REMARK  status: ('A' for Active; 'I' for Inactive)
ROOT
ATOM      1  C   UNL d   1      -5.985   3.034  -3.385  0.00  0.00     0.020 A 
ATOM      2  C1  UNL d   1      -4.952   3.866  -3.815  0.00  0.00     0.020 A 
ATOM      3  C2  UNL d   1      -3.933   3.354  -4.621  0.00  0.00     0.034 A 
ATOM      4  C3  UNL d   1      -3.945   2.007  -5.000  0.00  0.00     0.017 A 
ATOM      5  C4  UNL d   1      -4.982   1.172  -4.567  0.00  0.00     0.017 A 
ATOM      6  C5  UNL d   1      -6.000   1.690  -3.760  0.00  0.00     0.034 A 
ATOM      7 Cl   UNL d   1      -5.065  -0.501  -4.993  0.00  0.00    -0.070 Cl
ATOM      8 Cl1  UNL d   1      -2.653   1.441  -5.998  0.00  0.00    -0.070 Cl
ENDROOT
TORSDOF 0
ENDMDL
