MODEL 1
REMARK minimizedAffinity 2.69575286
REMARK minimizedRMSD -1
REMARK  0 active torsions:
REMARK  status: ('A' for Active; 'I' for Inactive)
ROOT
ATOM      1  C   UNL d   1      -2.780  -0.861  -2.256  0.00  0.00     0.020 A 
ATOM      2  C1  UNL d   1      -1.773   0.023  -2.641  0.00  0.00     0.020 A 
ATOM      3  C2  UNL d   1      -1.922   0.789  -3.800  0.00  0.00     0.034 A 
ATOM      4  C3  UNL d   1      -3.080   0.672  -4.577  0.00  0.00     0.017 A 
ATOM      5  C4  UNL d   1      -4.090  -0.216  -4.190  0.00  0.00     0.017 A 
ATOM      6  C5  UNL d   1      -3.936  -0.980  -3.029  0.00  0.00     0.034 A 
ATOM      7 Cl   UNL d   1      -5.547  -0.415  -5.097  0.00  0.00    -0.070 Cl
ATOM      8 Cl1  UNL d   1      -3.196   1.649  -5.997  0.00  0.00    -0.070 Cl
ENDROOT
TORSDOF 0
ENDMDL
