MODEL 1
REMARK minimizedAffinity 6.75680351
REMARK minimizedRMSD -1
REMARK  0 active torsions:
REMARK  status: ('A' for Active; 'I' for Inactive)
ROOT
ATOM      1  C   UNL d   1      -0.288  -3.904  -1.183  0.00  0.00     0.020 A 
ATOM      2  C1  UNL d   1       0.192  -3.031  -2.158  0.00  0.00     0.020 A 
ATOM      3  C2  UNL d   1       1.300  -2.224  -1.889  0.00  0.00     0.034 A 
ATOM      4  C3  UNL d   1       1.931  -2.289  -0.642  0.00  0.00     0.017 A 
ATOM      5  C4  UNL d   1       1.449  -3.166   0.337  0.00  0.00     0.017 A 
ATOM      6  C5  UNL d   1       0.340  -3.972   0.062  0.00  0.00     0.034 A 
ATOM      7 Cl   UNL d   1       2.176  -3.303   1.899  0.00  0.00    -0.070 Cl
ATOM      8 Cl1  UNL d   1       3.297  -1.264  -0.378  0.00  0.00    -0.070 Cl
ENDROOT
TORSDOF 0
ENDMDL
