MODEL 1
REMARK minimizedAffinity 10.4787436
REMARK minimizedRMSD -1
REMARK  0 active torsions:
REMARK  status: ('A' for Active; 'I' for Inactive)
ROOT
ATOM      1  C   UNL d   1      -0.266  -3.913  -0.931  0.00  0.00     0.020 A 
ATOM      2  C1  UNL d   1      -0.070  -3.028  -1.991  0.00  0.00     0.020 A 
ATOM      3  C2  UNL d   1       0.920  -2.046  -1.908  0.00  0.00     0.034 A 
ATOM      4  C3  UNL d   1       1.718  -1.947  -0.762  0.00  0.00     0.017 A 
ATOM      5  C4  UNL d   1       1.521  -2.836   0.301  0.00  0.00     0.017 A 
ATOM      6  C5  UNL d   1       0.528  -3.817   0.212  0.00  0.00     0.034 A 
ATOM      7 Cl   UNL d   1       2.466  -2.776   1.747  0.00  0.00    -0.070 Cl
ATOM      8 Cl1  UNL d   1       2.923  -0.710  -0.727  0.00  0.00    -0.070 Cl
ENDROOT
TORSDOF 0
ENDMDL
