MODEL 1
REMARK minimizedAffinity 7.36656713
REMARK minimizedRMSD -1
REMARK  0 active torsions:
REMARK  status: ('A' for Active; 'I' for Inactive)
ROOT
ATOM      1  C   UNL d   1       4.804  -0.037  -0.018  0.00  0.00     0.020 A 
ATOM      2  C1  UNL d   1       4.506   0.209  -1.358  0.00  0.00     0.020 A 
ATOM      3  C2  UNL d   1       4.667   1.493  -1.885  0.00  0.00     0.034 A 
ATOM      4  C3  UNL d   1       5.127   2.535  -1.071  0.00  0.00     0.017 A 
ATOM      5  C4  UNL d   1       5.426   2.287   0.273  0.00  0.00     0.017 A 
ATOM      6  C5  UNL d   1       5.263   1.000   0.796  0.00  0.00     0.034 A 
ATOM      7 Cl   UNL d   1       5.999   3.521   1.339  0.00  0.00    -0.070 Cl
ATOM      8 Cl1  UNL d   1       5.303   4.096  -1.789  0.00  0.00    -0.070 Cl
ENDROOT
TORSDOF 0
ENDMDL
