MODEL 1
REMARK minimizedAffinity 9.38495541
REMARK minimizedRMSD -1
REMARK  0 active torsions:
REMARK  status: ('A' for Active; 'I' for Inactive)
ROOT
ATOM      1  C   UNL d   1       3.736  -0.177  -0.117  0.00  0.00     0.020 A 
ATOM      2  C1  UNL d   1       3.891   0.032  -1.487  0.00  0.00     0.020 A 
ATOM      3  C2  UNL d   1       4.592   1.149  -1.948  0.00  0.00     0.034 A 
ATOM      4  C3  UNL d   1       5.140   2.060  -1.038  0.00  0.00     0.017 A 
ATOM      5  C4  UNL d   1       4.984   1.850   0.337  0.00  0.00     0.017 A 
ATOM      6  C5  UNL d   1       4.281   0.730   0.793  0.00  0.00     0.034 A 
ATOM      7 Cl   UNL d   1       5.632   2.930   1.520  0.00  0.00    -0.070 Cl
ATOM      8 Cl1  UNL d   1       5.995   3.419  -1.678  0.00  0.00    -0.070 Cl
ENDROOT
TORSDOF 0
ENDMDL
