MODEL 1
REMARK minimizedAffinity 9.08394241
REMARK minimizedRMSD -1
REMARK  0 active torsions:
REMARK  status: ('A' for Active; 'I' for Inactive)
ROOT
ATOM      1  C   UNL d   1      -0.028   1.860   1.285  0.00  0.00     0.020 A 
ATOM      2  C1  UNL d   1      -0.747   3.054   1.232  0.00  0.00     0.020 A 
ATOM      3  C2  UNL d   1      -0.246   4.199   1.856  0.00  0.00     0.034 A 
ATOM      4  C3  UNL d   1       0.977   4.152   2.535  0.00  0.00     0.017 A 
ATOM      5  C4  UNL d   1       1.697   2.953   2.588  0.00  0.00     0.017 A 
ATOM      6  C5  UNL d   1       1.191   1.810   1.962  0.00  0.00     0.034 A 
ATOM      7 Cl   UNL d   1       3.213   2.818   3.408  0.00  0.00    -0.070 Cl
ATOM      8 Cl1  UNL d   1       1.537   5.606   3.283  0.00  0.00    -0.070 Cl
ENDROOT
TORSDOF 0
ENDMDL
