MODEL 1
REMARK minimizedAffinity 5.65454102
REMARK minimizedRMSD -1
REMARK  0 active torsions:
REMARK  status: ('A' for Active; 'I' for Inactive)
ROOT
ATOM      1  C   UNL d   1       1.438  -3.853  -0.889  0.00  0.00     0.020 A 
ATOM      2  C1  UNL d   1       1.818  -3.093   0.216  0.00  0.00     0.020 A 
ATOM      3  C2  UNL d   1       2.754  -2.068   0.071  0.00  0.00     0.034 A 
ATOM      4  C3  UNL d   1       3.315  -1.799  -1.183  0.00  0.00     0.017 A 
ATOM      5  C4  UNL d   1       2.934  -2.563  -2.293  0.00  0.00     0.017 A 
ATOM      6  C5  UNL d   1       1.995  -3.588  -2.141  0.00  0.00     0.034 A 
ATOM      7 Cl   UNL d   1       3.582  -2.291  -3.872  0.00  0.00    -0.070 Cl
ATOM      8 Cl1  UNL d   1       4.467  -0.516  -1.290  0.00  0.00    -0.070 Cl
ENDROOT
TORSDOF 0
ENDMDL
