MODEL 1
REMARK minimizedAffinity 2.37980914
REMARK minimizedRMSD -1
REMARK  2 active torsions:
REMARK  status: ('A' for Active; 'I' for Inactive)
REMARK    1  A    between atoms: C1_2  and  C2_3 
REMARK    2  A    between atoms: C2_3  and  C3_4 
ROOT
ATOM      1  C3  UNL d   1       3.415   0.976  -1.634  0.00  0.00    -0.075 A 
ATOM      2  C4  UNL d   1       3.494   0.246  -2.829  0.00  0.00     0.002 A 
ATOM      3  C5  UNL d   1       2.842  -0.981  -2.954  0.00  0.00     0.002 A 
ATOM      4  C6  UNL d   1       2.111  -1.496  -1.885  0.00  0.00    -0.004 A 
ATOM      5  C7  UNL d   1       2.038  -0.787  -0.689  0.00  0.00     0.002 A 
ATOM      6  C8  UNL d   1       2.687   0.443  -0.562  0.00  0.00     0.002 A 
ENDROOT
BRANCH   1   7
ATOM      7  C2  UNL d   1       4.094   2.318  -1.503  0.00  0.00     0.056 C 
BRANCH   7   8
ATOM      8  C1  UNL d   1       5.590   2.231  -1.179  0.00  0.00     0.007 C 
ATOM      9  C   UNL d   1       5.975   2.989   0.084  0.00  0.00     0.009 C 
ENDBRANCH   7   8
ENDBRANCH   1   7
TORSDOF 2
ENDMDL
