MODEL 1
REMARK minimizedAffinity 2.63584948
REMARK minimizedRMSD -1
REMARK  2 active torsions:
REMARK  status: ('A' for Active; 'I' for Inactive)
REMARK    1  A    between atoms: C1_2  and  C2_3 
REMARK    2  A    between atoms: C2_3  and  C3_4 
ROOT
ATOM      1  C3  UNL d   1       3.552   1.522  -1.034  0.00  0.00    -0.075 A 
ATOM      2  C4  UNL d   1       4.240   1.507   0.188  0.00  0.00     0.002 A 
ATOM      3  C5  UNL d   1       5.454   2.180   0.327  0.00  0.00     0.002 A 
ATOM      4  C6  UNL d   1       6.000   2.868  -0.755  0.00  0.00    -0.004 A 
ATOM      5  C7  UNL d   1       5.333   2.876  -1.978  0.00  0.00     0.002 A 
ATOM      6  C8  UNL d   1       4.116   2.207  -2.118  0.00  0.00     0.002 A 
ENDROOT
BRANCH   1   7
ATOM      7  C2  UNL d   1       2.223   0.820  -1.181  0.00  0.00     0.056 C 
BRANCH   7   8
ATOM      8  C1  UNL d   1       1.846  -0.059   0.016  0.00  0.00     0.007 C 
ATOM      9  C   UNL d   1       0.766  -1.083  -0.308  0.00  0.00     0.009 C 
ENDBRANCH   7   8
ENDBRANCH   1   7
TORSDOF 2
ENDMDL
