MODEL 1
REMARK minimizedAffinity 1.08218455
REMARK minimizedRMSD -1
REMARK  2 active torsions:
REMARK  status: ('A' for Active; 'I' for Inactive)
REMARK    1  A    between atoms: C1_2  and  C2_3 
REMARK    2  A    between atoms: C2_3  and  C3_4 
ROOT
ATOM      1  C3  UNL d   1       1.470   0.932   0.152  0.00  0.00    -0.075 A 
ATOM      2  C4  UNL d   1       1.387  -0.416  -0.223  0.00  0.00     0.002 A 
ATOM      3  C5  UNL d   1       2.409  -1.010  -0.964  0.00  0.00     0.002 A 
ATOM      4  C6  UNL d   1       3.521  -0.262  -1.347  0.00  0.00    -0.004 A 
ATOM      5  C7  UNL d   1       3.606   1.083  -0.994  0.00  0.00     0.002 A 
ATOM      6  C8  UNL d   1       2.587   1.678  -0.249  0.00  0.00     0.002 A 
ENDROOT
BRANCH   1   7
ATOM      7  C2  UNL d   1       0.381   1.573   0.979  0.00  0.00     0.056 C 
BRANCH   7   8
ATOM      8  C1  UNL d   1       0.824   1.978   2.388  0.00  0.00     0.007 C 
ATOM      9  C   UNL d   1       0.770   0.830   3.388  0.00  0.00     0.009 C 
ENDBRANCH   7   8
ENDBRANCH   1   7
TORSDOF 2
ENDMDL
