MODEL 1
REMARK minimizedAffinity -0.799178183
REMARK minimizedRMSD -1
REMARK  2 active torsions:
REMARK  status: ('A' for Active; 'I' for Inactive)
REMARK    1  A    between atoms: C1_2  and  C2_3 
REMARK    2  A    between atoms: C2_3  and  C3_4 
ROOT
ATOM      1  C3  UNL d   1       3.055   0.543  -1.134  0.00  0.00    -0.075 A 
ATOM      2  C4  UNL d   1       3.284  -0.163  -2.323  0.00  0.00     0.002 A 
ATOM      3  C5  UNL d   1       2.706  -1.417  -2.525  0.00  0.00     0.002 A 
ATOM      4  C6  UNL d   1       1.903  -1.984  -1.539  0.00  0.00    -0.004 A 
ATOM      5  C7  UNL d   1       1.682  -1.299  -0.346  0.00  0.00     0.002 A 
ATOM      6  C8  UNL d   1       2.255  -0.042  -0.143  0.00  0.00     0.002 A 
ENDROOT
BRANCH   1   7
ATOM      7  C2  UNL d   1       3.653   1.913  -0.921  0.00  0.00     0.056 C 
BRANCH   7   8
ATOM      8  C1  UNL d   1       4.889   2.195  -1.782  0.00  0.00     0.007 C 
ATOM      9  C   UNL d   1       5.998   2.911  -1.024  0.00  0.00     0.009 C 
ENDBRANCH   7   8
ENDBRANCH   1   7
TORSDOF 2
ENDMDL
