MODEL 1
REMARK minimizedAffinity 3.44522119
REMARK minimizedRMSD -1
REMARK  2 active torsions:
REMARK  status: ('A' for Active; 'I' for Inactive)
REMARK    1  A    between atoms: C1_2  and  C2_3 
REMARK    2  A    between atoms: C2_3  and  C3_4 
ROOT
ATOM      1  C3  UNL d   1       2.804   0.710   0.067  0.00  0.00    -0.075 A 
ATOM      2  C4  UNL d   1       2.081   1.716   0.725  0.00  0.00     0.002 A 
ATOM      3  C5  UNL d   1       1.756   1.587   2.075  0.00  0.00     0.002 A 
ATOM      4  C6  UNL d   1       2.139   0.449   2.782  0.00  0.00    -0.004 A 
ATOM      5  C7  UNL d   1       2.843  -0.564   2.134  0.00  0.00     0.002 A 
ATOM      6  C8  UNL d   1       3.174  -0.435   0.784  0.00  0.00     0.002 A 
ENDROOT
BRANCH   1   7
ATOM      7  C2  UNL d   1       3.185   0.857  -1.387  0.00  0.00     0.056 C 
BRANCH   7   8
ATOM      8  C1  UNL d   1       4.352   1.819  -1.631  0.00  0.00     0.007 C 
ATOM      9  C   UNL d   1       5.516   1.608  -0.672  0.00  0.00     0.009 C 
ENDBRANCH   7   8
ENDBRANCH   1   7
TORSDOF 2
ENDMDL
