MODEL 1
REMARK minimizedAffinity -1.32381535
REMARK minimizedRMSD -1
REMARK  2 active torsions:
REMARK  status: ('A' for Active; 'I' for Inactive)
REMARK    1  A    between atoms: C1_2  and  C2_3 
REMARK    2  A    between atoms: C2_3  and  C3_4 
ROOT
ATOM      1  C3  UNL d   1       2.994   0.887  -0.749  0.00  0.00    -0.075 A 
ATOM      2  C4  UNL d   1       2.059   1.056   0.283  0.00  0.00     0.002 A 
ATOM      3  C5  UNL d   1       1.190   0.020   0.627  0.00  0.00     0.002 A 
ATOM      4  C6  UNL d   1       1.236  -1.190  -0.061  0.00  0.00    -0.004 A 
ATOM      5  C7  UNL d   1       2.149  -1.363  -1.099  0.00  0.00     0.002 A 
ATOM      6  C8  UNL d   1       3.024  -0.330  -1.442  0.00  0.00     0.002 A 
ENDROOT
BRANCH   1   7
ATOM      7  C2  UNL d   1       3.958   1.993  -1.106  0.00  0.00     0.056 C 
BRANCH   7   8
ATOM      8  C1  UNL d   1       5.362   1.811  -0.520  0.00  0.00     0.007 C 
ATOM      9  C   UNL d   1       5.994   3.118  -0.060  0.00  0.00     0.009 C 
ENDBRANCH   7   8
ENDBRANCH   1   7
TORSDOF 2
ENDMDL
