MODEL 1
REMARK minimizedAffinity 3.05182958
REMARK minimizedRMSD -1
REMARK  2 active torsions:
REMARK  status: ('A' for Active; 'I' for Inactive)
REMARK    1  A    between atoms: C1_2  and  C2_3 
REMARK    2  A    between atoms: C2_3  and  C3_4 
ROOT
ATOM      1  C3  UNL d   1       1.741   0.620  -0.085  0.00  0.00    -0.075 A 
ATOM      2  C4  UNL d   1       2.712   1.209  -0.907  0.00  0.00     0.002 A 
ATOM      3  C5  UNL d   1       3.423   0.439  -1.828  0.00  0.00     0.002 A 
ATOM      4  C6  UNL d   1       3.181  -0.929  -1.931  0.00  0.00    -0.004 A 
ATOM      5  C7  UNL d   1       2.230  -1.528  -1.108  0.00  0.00     0.002 A 
ATOM      6  C8  UNL d   1       1.513  -0.759  -0.189  0.00  0.00     0.002 A 
ENDROOT
BRANCH   1   7
ATOM      7  C2  UNL d   1       0.947   1.453   0.892  0.00  0.00     0.056 C 
BRANCH   7   8
ATOM      8  C1  UNL d   1       1.668   1.715   2.218  0.00  0.00     0.007 C 
ATOM      9  C   UNL d   1       1.405   0.642   3.267  0.00  0.00     0.009 C 
ENDBRANCH   7   8
ENDBRANCH   1   7
TORSDOF 2
ENDMDL
