MODEL 1
REMARK minimizedAffinity 12.2901926
REMARK minimizedRMSD -1
REMARK  2 active torsions:
REMARK  status: ('A' for Active; 'I' for Inactive)
REMARK    1  A    between atoms: C1_2  and  C2_3 
REMARK    2  A    between atoms: C2_3  and  C3_4 
ROOT
ATOM      1  C3  UNL d   1       3.693   2.245  -0.367  0.00  0.00    -0.075 A 
ATOM      2  C4  UNL d   1       3.700   2.940  -1.586  0.00  0.00     0.002 A 
ATOM      3  C5  UNL d   1       4.849   3.605  -2.015  0.00  0.00     0.002 A 
ATOM      4  C6  UNL d   1       6.000   3.592  -1.229  0.00  0.00    -0.004 A 
ATOM      5  C7  UNL d   1       5.998   2.919  -0.009  0.00  0.00     0.002 A 
ATOM      6  C8  UNL d   1       4.851   2.250   0.421  0.00  0.00     0.002 A 
ENDROOT
BRANCH   1   7
ATOM      7  C2  UNL d   1       2.462   1.499   0.089  0.00  0.00     0.056 C 
BRANCH   7   8
ATOM      8  C1  UNL d   1       1.764   0.709  -1.023  0.00  0.00     0.007 C 
ATOM      9  C   UNL d   1       1.475  -0.737  -0.641  0.00  0.00     0.009 C 
ENDBRANCH   7   8
ENDBRANCH   1   7
TORSDOF 2
ENDMDL
