MODEL 1
REMARK minimizedAffinity 4.177495
REMARK minimizedRMSD -1
REMARK  2 active torsions:
REMARK  status: ('A' for Active; 'I' for Inactive)
REMARK    1  A    between atoms: C1_2  and  C2_3 
REMARK    2  A    between atoms: C2_3  and  C3_4 
ROOT
ATOM      1  C3  UNL d   1      -5.251   1.623  -4.054  0.00  0.00    -0.075 A 
ATOM      2  C4  UNL d   1      -3.856   1.764  -4.055  0.00  0.00     0.002 A 
ATOM      3  C5  UNL d   1      -3.226   2.568  -5.005  0.00  0.00     0.002 A 
ATOM      4  C6  UNL d   1      -3.980   3.232  -5.971  0.00  0.00    -0.004 A 
ATOM      5  C7  UNL d   1      -5.365   3.085  -5.990  0.00  0.00     0.002 A 
ATOM      6  C8  UNL d   1      -5.999   2.285  -5.037  0.00  0.00     0.002 A 
ENDROOT
BRANCH   1   7
ATOM      7  C2  UNL d   1      -5.941   0.778  -3.010  0.00  0.00     0.056 C 
BRANCH   7   8
ATOM      8  C1  UNL d   1      -5.046   0.393  -1.827  0.00  0.00     0.007 C 
ATOM      9  C   UNL d   1      -5.425  -0.940  -1.196  0.00  0.00     0.009 C 
ENDBRANCH   7   8
ENDBRANCH   1   7
TORSDOF 2
ENDMDL
