MODEL 1
REMARK minimizedAffinity -0.205644757
REMARK minimizedRMSD -1
REMARK  1 active torsions:
REMARK  status: ('A' for Active; 'I' for Inactive)
REMARK    1  A    between atoms: C1_2  and  C2_3 
ROOT
ATOM      1  C2  UNL d   1       0.386   0.464  -2.217  0.00  0.00    -0.073 A 
ATOM      2  C3  UNL d   1       1.251  -0.390  -1.524  0.00  0.00    -0.002 A 
ATOM      3  C4  UNL d   1       1.623  -0.103  -0.210  0.00  0.00     0.004 A 
ATOM      4  C5  UNL d   1       1.129   1.035   0.427  0.00  0.00    -0.004 A 
ATOM      5  C6  UNL d   1       0.254   1.895  -0.245  0.00  0.00    -0.075 A 
ATOM      6  C7  UNL d   1      -0.285   3.125   0.425  0.00  0.00     0.076 C 
ATOM      7  C8  UNL d   1      -0.113   1.602  -1.565  0.00  0.00     0.001 A 
ENDROOT
BRANCH   1   8
ATOM      8  C1  UNL d   1      -0.023   0.155  -3.634  0.00  0.00     0.053 C 
ATOM      9  C   UNL d   1      -1.097  -0.920  -3.695  0.00  0.00     0.018 C 
ENDBRANCH   1   8
TORSDOF 1
ENDMDL
