MODEL 1
REMARK minimizedAffinity 11.0338888
REMARK minimizedRMSD -1
REMARK  1 active torsions:
REMARK  status: ('A' for Active; 'I' for Inactive)
REMARK    1  A    between atoms: C1_2  and  C2_3 
ROOT
ATOM      1  C2  UNL d   1       1.055   3.638  -0.118  0.00  0.00    -0.073 A 
ATOM      2  C3  UNL d   1      -0.118   3.286  -0.796  0.00  0.00    -0.002 A 
ATOM      3  C4  UNL d   1      -0.653   2.005  -0.660  0.00  0.00     0.004 A 
ATOM      4  C5  UNL d   1      -0.027   1.065   0.159  0.00  0.00    -0.004 A 
ATOM      5  C6  UNL d   1       1.140   1.401   0.853  0.00  0.00    -0.075 A 
ATOM      6  C7  UNL d   1       1.827   0.401   1.736  0.00  0.00     0.076 C 
ATOM      7  C8  UNL d   1       1.673   2.689   0.710  0.00  0.00     0.001 A 
ENDROOT
BRANCH   1   8
ATOM      8  C1  UNL d   1       1.634   5.022  -0.257  0.00  0.00     0.053 C 
ATOM      9  C   UNL d   1       0.933   5.826  -1.340  0.00  0.00     0.018 C 
ENDBRANCH   1   8
TORSDOF 1
ENDMDL
