MODEL 1
REMARK minimizedAffinity 13.5830917
REMARK minimizedRMSD -1
REMARK  1 active torsions:
REMARK  status: ('A' for Active; 'I' for Inactive)
REMARK    1  A    between atoms: C1_2  and  C2_3 
ROOT
ATOM      1  C2  UNL d   1       0.731   1.893   0.007  0.00  0.00    -0.073 A 
ATOM      2  C3  UNL d   1       0.847   1.246  -1.229  0.00  0.00    -0.002 A 
ATOM      3  C4  UNL d   1       1.577   0.062  -1.339  0.00  0.00     0.004 A 
ATOM      4  C5  UNL d   1       2.190  -0.492  -0.215  0.00  0.00    -0.004 A 
ATOM      5  C6  UNL d   1       2.076   0.133   1.031  0.00  0.00    -0.075 A 
ATOM      6  C7  UNL d   1       2.732  -0.448   2.249  0.00  0.00     0.076 C 
ATOM      7  C8  UNL d   1       1.344   1.324   1.133  0.00  0.00     0.001 A 
ENDROOT
BRANCH   1   8
ATOM      8  C1  UNL d   1      -0.061   3.169   0.132  0.00  0.00     0.053 C 
ATOM      9  C   UNL d   1      -1.541   2.902   0.354  0.00  0.00     0.018 C 
ENDBRANCH   1   8
TORSDOF 1
ENDMDL
