MODEL 1
REMARK minimizedAffinity -2.91127419
REMARK minimizedRMSD -1
REMARK  2 active torsions:
REMARK  status: ('A' for Active; 'I' for Inactive)
REMARK    1  A    between atoms: C2'_3  and  C1'_4 
REMARK    2  A    between atoms: C1'_4  and  C1_5 
ROOT
ATOM      1  C1  I4B d   1       0.203  -0.818  -0.794  0.00  0.00    -0.075 A 
ATOM      2  C2  I4B d   1       0.082   0.247  -1.652  0.00  0.00     0.003 A 
ATOM      3  C3  I4B d   1      -0.352   1.505  -1.169  0.00  0.00     0.002 A 
ATOM      4  C4  I4B d   1      -0.701   1.640   0.159  0.00  0.00    -0.004 A 
ATOM      5  C5  I4B d   1      -0.556   0.566   1.032  0.00  0.00     0.002 A 
ATOM      6  C6  I4B d   1      -0.089  -0.668   0.555  0.00  0.00     0.003 A 
ENDROOT
BRANCH   1   7
ATOM      7  C1' I4B d   1       0.632  -2.141  -1.344  0.00  0.00     0.060 C 
BRANCH   7   8
ATOM      8  C2' I4B d   1      -0.580  -3.049  -1.378  0.00  0.00    -0.013 C 
ATOM      9  C4' I4B d   1      -1.093  -3.222  -2.783  0.00  0.00     0.013 C 
ATOM     10  C3' I4B d   1      -0.190  -4.367  -0.778  0.00  0.00     0.013 C 
ENDBRANCH   7   8
ENDBRANCH   1   7
TORSDOF 2
ENDMDL
