MODEL 1
REMARK minimizedAffinity -4.13482904
REMARK minimizedRMSD -1
REMARK  2 active torsions:
REMARK  status: ('A' for Active; 'I' for Inactive)
REMARK    1  A    between atoms: C2'_3  and  C1'_4 
REMARK    2  A    between atoms: C1'_4  and  C1_5 
ROOT
ATOM      1  C1  I4B d   1       0.211  -0.613  -0.219  0.00  0.00    -0.075 A 
ATOM      2  C2  I4B d   1      -0.063   0.529  -0.930  0.00  0.00     0.003 A 
ATOM      3  C3  I4B d   1      -0.245   1.762  -0.256  0.00  0.00     0.002 A 
ATOM      4  C4  I4B d   1      -0.193   1.797   1.122  0.00  0.00    -0.004 A 
ATOM      5  C5  I4B d   1       0.107   0.643   1.839  0.00  0.00     0.002 A 
ATOM      6  C6  I4B d   1       0.323  -0.568   1.164  0.00  0.00     0.003 A 
ENDROOT
BRANCH   1   7
ATOM      7  C1' I4B d   1       0.364  -1.903  -0.960  0.00  0.00     0.060 C 
BRANCH   7   8
ATOM      8  C2' I4B d   1      -0.857  -2.753  -0.674  0.00  0.00    -0.013 C 
ATOM      9  C4' I4B d   1      -1.756  -2.839  -1.879  0.00  0.00     0.013 C 
ATOM     10  C3' I4B d   1      -0.387  -4.113  -0.251  0.00  0.00     0.013 C 
ENDBRANCH   7   8
ENDBRANCH   1   7
TORSDOF 2
ENDMDL
