MODEL 1
REMARK minimizedAffinity -4.68622398
REMARK minimizedRMSD -1
REMARK  2 active torsions:
REMARK  status: ('A' for Active; 'I' for Inactive)
REMARK    1  A    between atoms: C2'_3  and  C1'_4 
REMARK    2  A    between atoms: C1'_4  and  C1_5 
ROOT
ATOM      1  C1  I4B d   1       0.058  -0.093  -0.255  0.00  0.00    -0.075 A 
ATOM      2  C2  I4B d   1       0.148  -0.041   1.114  0.00  0.00     0.003 A 
ATOM      3  C3  I4B d   1      -0.436   1.035   1.826  0.00  0.00     0.002 A 
ATOM      4  C4  I4B d   1      -1.053   2.055   1.131  0.00  0.00    -0.004 A 
ATOM      5  C5  I4B d   1      -1.163   1.988  -0.255  0.00  0.00     0.002 A 
ATOM      6  C6  I4B d   1      -0.615   0.901  -0.952  0.00  0.00     0.003 A 
ENDROOT
BRANCH   1   7
ATOM      7  C1' I4B d   1       0.714  -1.227  -0.977  0.00  0.00     0.060 C 
BRANCH   7   8
ATOM      8  C2' I4B d   1      -0.066  -2.489  -0.673  0.00  0.00    -0.013 C 
ATOM      9  C4' I4B d   1      -1.201  -2.676  -1.645  0.00  0.00     0.013 C 
ATOM     10  C3' I4B d   1       0.886  -3.646  -0.724  0.00  0.00     0.013 C 
ENDBRANCH   7   8
ENDBRANCH   1   7
TORSDOF 2
ENDMDL
