MODEL 1
REMARK minimizedAffinity -0.117373236
REMARK minimizedRMSD -1
REMARK  2 active torsions:
REMARK  status: ('A' for Active; 'I' for Inactive)
REMARK    1  A    between atoms: C2'_3  and  C1'_4 
REMARK    2  A    between atoms: C1'_4  and  C1_5 
ROOT
ATOM      1  C1  I4B d   1       0.107   1.097  -0.094  0.00  0.00    -0.075 A 
ATOM      2  C2  I4B d   1      -1.136   1.556  -0.451  0.00  0.00     0.003 A 
ATOM      3  C3  I4B d   1      -1.798   2.518   0.349  0.00  0.00     0.002 A 
ATOM      4  C4  I4B d   1      -1.206   2.953   1.518  0.00  0.00    -0.004 A 
ATOM      5  C5  I4B d   1       0.064   2.504   1.866  0.00  0.00     0.002 A 
ATOM      6  C6  I4B d   1       0.731   1.579   1.049  0.00  0.00     0.003 A 
ENDROOT
BRANCH   1   7
ATOM      7  C1' I4B d   1       0.763   0.057  -0.945  0.00  0.00     0.060 C 
BRANCH   7   8
ATOM      8  C2' I4B d   1       1.200  -1.078  -0.041  0.00  0.00    -0.013 C 
ATOM      9  C4' I4B d   1       0.583  -0.954   1.327  0.00  0.00     0.013 C 
ATOM     10  C3' I4B d   1       0.808  -2.369  -0.697  0.00  0.00     0.013 C 
ENDBRANCH   7   8
ENDBRANCH   1   7
TORSDOF 2
ENDMDL
