MODEL 1
REMARK minimizedAffinity -0.715140522
REMARK minimizedRMSD -1
REMARK  2 active torsions:
REMARK  status: ('A' for Active; 'I' for Inactive)
REMARK    1  A    between atoms: C2'_3  and  C1'_4 
REMARK    2  A    between atoms: C1'_4  and  C1_5 
ROOT
ATOM      1  C1  I4B d   1       0.092  -0.450  -0.616  0.00  0.00    -0.075 A 
ATOM      2  C2  I4B d   1       0.239  -0.863   0.685  0.00  0.00     0.003 A 
ATOM      3  C3  I4B d   1      -0.085   0.012   1.750  0.00  0.00     0.002 A 
ATOM      4  C4  I4B d   1      -0.502   1.297   1.472  0.00  0.00    -0.004 A 
ATOM      5  C5  I4B d   1      -0.672   1.706   0.153  0.00  0.00     0.002 A 
ATOM      6  C6  I4B d   1      -0.386   0.823  -0.898  0.00  0.00     0.003 A 
ENDROOT
BRANCH   1   7
ATOM      7  C1' I4B d   1       0.474  -1.388  -1.717  0.00  0.00     0.060 C 
BRANCH   7   8
ATOM      8  C2' I4B d   1      -0.245  -2.700  -1.484  0.00  0.00    -0.013 C 
ATOM      9  C4' I4B d   1      -1.231  -2.986  -2.586  0.00  0.00     0.013 C 
ATOM     10  C3' I4B d   1       0.787  -3.783  -1.387  0.00  0.00     0.013 C 
ENDBRANCH   7   8
ENDBRANCH   1   7
TORSDOF 2
ENDMDL
