MODEL 1
REMARK minimizedAffinity -2.36335969
REMARK minimizedRMSD -1
REMARK  2 active torsions:
REMARK  status: ('A' for Active; 'I' for Inactive)
REMARK    1  A    between atoms: C2'_3  and  C1'_4 
REMARK    2  A    between atoms: C1'_4  and  C1_5 
ROOT
ATOM      1  C1  I4B d   1       0.620  -0.594  -0.293  0.00  0.00    -0.075 A 
ATOM      2  C2  I4B d   1      -0.076   0.567  -0.518  0.00  0.00     0.003 A 
ATOM      3  C3  I4B d   1      -0.383   1.435   0.558  0.00  0.00     0.002 A 
ATOM      4  C4  I4B d   1      -0.020   1.080   1.841  0.00  0.00    -0.004 A 
ATOM      5  C5  I4B d   1       0.706  -0.087   2.065  0.00  0.00     0.002 A 
ATOM      6  C6  I4B d   1       1.039  -0.923   0.989  0.00  0.00     0.003 A 
ENDROOT
BRANCH   1   7
ATOM      7  C1' I4B d   1       0.898  -1.503  -1.448  0.00  0.00     0.060 C 
BRANCH   7   8
ATOM      8  C2' I4B d   1       0.245  -2.839  -1.158  0.00  0.00    -0.013 C 
ATOM      9  C4' I4B d   1      -0.593  -3.301  -2.321  0.00  0.00     0.013 C 
ATOM     10  C3' I4B d   1       1.330  -3.827  -0.846  0.00  0.00     0.013 C 
ENDBRANCH   7   8
ENDBRANCH   1   7
TORSDOF 2
ENDMDL
