MODEL 1
REMARK minimizedAffinity -4.91394043
REMARK minimizedRMSD -1
REMARK  2 active torsions:
REMARK  status: ('A' for Active; 'I' for Inactive)
REMARK    1  A    between atoms: C2'_3  and  C1'_4 
REMARK    2  A    between atoms: C1'_4  and  C1_5 
ROOT
ATOM      1  C1  I4B d   1       0.131  -0.548   0.061  0.00  0.00    -0.075 A 
ATOM      2  C2  I4B d   1       0.721  -0.311   1.277  0.00  0.00     0.003 A 
ATOM      3  C3  I4B d   1       0.405   0.861   2.006  0.00  0.00     0.002 A 
ATOM      4  C4  I4B d   1      -0.462   1.787   1.462  0.00  0.00    -0.004 A 
ATOM      5  C5  I4B d   1      -1.077   1.533   0.239  0.00  0.00     0.002 A 
ATOM      6  C6  I4B d   1      -0.788   0.353  -0.460  0.00  0.00     0.003 A 
ENDROOT
BRANCH   1   7
ATOM      7  C1' I4B d   1       0.512  -1.780  -0.697  0.00  0.00     0.060 C 
BRANCH   7   8
ATOM      8  C2' I4B d   1      -0.680  -2.715  -0.699  0.00  0.00    -0.013 C 
ATOM      9  C4' I4B d   1      -1.058  -3.113  -2.102  0.00  0.00     0.013 C 
ATOM     10  C3' I4B d   1      -0.328  -3.915   0.128  0.00  0.00     0.013 C 
ENDBRANCH   7   8
ENDBRANCH   1   7
TORSDOF 2
ENDMDL
