MODEL 1
REMARK minimizedAffinity -3.06039667
REMARK minimizedRMSD -1
REMARK  0 active torsions:
REMARK  status: ('A' for Active; 'I' for Inactive)
ROOT
ATOM      1  C1  BNZ d   1       1.810   1.843   0.651  0.00  0.00     0.000 A 
ATOM      2  C2  BNZ d   1       1.757   0.733   1.452  0.00  0.00     0.000 A 
ATOM      3  C3  BNZ d   1       0.567   0.112   1.709  0.00  0.00     0.000 A 
ATOM      4  C4  BNZ d   1      -0.572   0.625   1.200  0.00  0.00     0.000 A 
ATOM      5  C5  BNZ d   1      -0.536   1.748   0.399  0.00  0.00     0.000 A 
ATOM      6  C6  BNZ d   1       0.669   2.348   0.110  0.00  0.00     0.000 A 
ENDROOT
TORSDOF 0
ENDMDL
