MODEL 1
REMARK minimizedAffinity -3.2580905
REMARK minimizedRMSD -1
REMARK  0 active torsions:
REMARK  status: ('A' for Active; 'I' for Inactive)
ROOT
ATOM      1  C1  BNZ d   1       4.747  -1.517  -3.756  0.00  0.00     0.000 A 
ATOM      2  C2  BNZ d   1       4.506  -2.865  -3.768  0.00  0.00     0.000 A 
ATOM      3  C3  BNZ d   1       4.049  -3.483  -4.898  0.00  0.00     0.000 A 
ATOM      4  C4  BNZ d   1       3.795  -2.748  -6.000  0.00  0.00     0.000 A 
ATOM      5  C5  BNZ d   1       4.024  -1.386  -6.000  0.00  0.00     0.000 A 
ATOM      6  C6  BNZ d   1       4.522  -0.773  -4.873  0.00  0.00     0.000 A 
ENDROOT
TORSDOF 0
ENDMDL
