MODEL 1
REMARK minimizedAffinity -3.94134474
REMARK minimizedRMSD -1
REMARK  0 active torsions:
REMARK  status: ('A' for Active; 'I' for Inactive)
ROOT
ATOM      1  C1  BNZ d   1       4.557  -1.910  -3.609  0.00  0.00     0.000 A 
ATOM      2  C2  BNZ d   1       4.183  -0.956  -4.517  0.00  0.00     0.000 A 
ATOM      3  C3  BNZ d   1       3.594  -1.308  -5.700  0.00  0.00     0.000 A 
ATOM      4  C4  BNZ d   1       3.418  -2.613  -5.989  0.00  0.00     0.000 A 
ATOM      5  C5  BNZ d   1       3.799  -3.587  -5.088  0.00  0.00     0.000 A 
ATOM      6  C6  BNZ d   1       4.355  -3.227  -3.882  0.00  0.00     0.000 A 
ENDROOT
TORSDOF 0
ENDMDL
