MODEL 1
REMARK minimizedAffinity 4.2255621
REMARK minimizedRMSD -1
REMARK  0 active torsions:
REMARK  status: ('A' for Active; 'I' for Inactive)
ROOT
ATOM      1  C1  BNZ d   1       1.502  -0.102   1.822  0.00  0.00     0.000 A 
ATOM      2  C2  BNZ d   1       0.420   0.014   0.991  0.00  0.00     0.000 A 
ATOM      3  C3  BNZ d   1       0.186   1.171   0.303  0.00  0.00     0.000 A 
ATOM      4  C4  BNZ d   1       1.011   2.224   0.477  0.00  0.00     0.000 A 
ATOM      5  C5  BNZ d   1       2.101   2.127   1.318  0.00  0.00     0.000 A 
ATOM      6  C6  BNZ d   1       2.355   0.947   1.979  0.00  0.00     0.000 A 
ENDROOT
TORSDOF 0
ENDMDL
