MODEL 1
REMARK minimizedAffinity -2.66247296
REMARK minimizedRMSD -1
REMARK  0 active torsions:
REMARK  status: ('A' for Active; 'I' for Inactive)
ROOT
ATOM      1  C2' OXE d   1      -0.010   2.637   0.212  0.00  0.00     0.078 C 
ATOM      2  C1' OXE d   1      -0.519   0.442   1.887  0.00  0.00     0.078 C 
ATOM      3  C1  OXE d   1      -0.111   0.161   0.462  0.00  0.00    -0.078 A 
ATOM      4  C2  OXE d   1       0.090   1.241  -0.363  0.00  0.00    -0.078 A 
ATOM      5  C3  OXE d   1       0.521   1.038  -1.671  0.00  0.00     0.003 A 
ATOM      6  C4  OXE d   1       0.602  -0.257  -2.198  0.00  0.00    -0.002 A 
ATOM      7  C5  OXE d   1       0.363  -1.370  -1.386  0.00  0.00    -0.002 A 
ATOM      8  C6  OXE d   1       0.047  -1.180  -0.045  0.00  0.00     0.003 A 
ENDROOT
TORSDOF 0
ENDMDL
