MODEL 1
REMARK minimizedAffinity -3.66305423
REMARK minimizedRMSD -1
REMARK  0 active torsions:
REMARK  status: ('A' for Active; 'I' for Inactive)
ROOT
ATOM      1  C2' OXE d   1      -1.666  -0.116   2.060  0.00  0.00     0.078 C 
ATOM      2  C1' OXE d   1      -0.138   1.048   0.014  0.00  0.00     0.078 C 
ATOM      3  C1  OXE d   1      -0.085  -0.451   0.165  0.00  0.00    -0.078 A 
ATOM      4  C2  OXE d   1      -0.799  -1.008   1.198  0.00  0.00    -0.078 A 
ATOM      5  C3  OXE d   1      -0.828  -2.392   1.349  0.00  0.00     0.003 A 
ATOM      6  C4  OXE d   1      -0.016  -3.209   0.554  0.00  0.00    -0.002 A 
ATOM      7  C5  OXE d   1       0.750  -2.658  -0.479  0.00  0.00    -0.002 A 
ATOM      8  C6  OXE d   1       0.694  -1.289  -0.714  0.00  0.00     0.003 A 
ENDROOT
TORSDOF 0
ENDMDL
