MODEL 1
REMARK minimizedAffinity -4.26173973
REMARK minimizedRMSD -1
REMARK  0 active torsions:
REMARK  status: ('A' for Active; 'I' for Inactive)
ROOT
ATOM      1  C2' OXE d   1       0.587  -1.894  -2.175  0.00  0.00     0.078 C 
ATOM      2  C1' OXE d   1       0.243  -3.051   0.360  0.00  0.00     0.078 C 
ATOM      3  C1  OXE d   1       0.126  -1.551   0.249  0.00  0.00    -0.078 A 
ATOM      4  C2  OXE d   1       0.342  -0.990  -0.986  0.00  0.00    -0.078 A 
ATOM      5  C3  OXE d   1       0.193   0.384  -1.154  0.00  0.00     0.003 A 
ATOM      6  C4  OXE d   1      -0.024   1.214  -0.048  0.00  0.00    -0.002 A 
ATOM      7  C5  OXE d   1      -0.207   0.666   1.226  0.00  0.00    -0.002 A 
ATOM      8  C6  OXE d   1      -0.178  -0.715   1.384  0.00  0.00     0.003 A 
ENDROOT
TORSDOF 0
ENDMDL
