MODEL 1
REMARK minimizedAffinity -1.88100803
REMARK minimizedRMSD -1
REMARK  0 active torsions:
REMARK  status: ('A' for Active; 'I' for Inactive)
ROOT
ATOM      1  C2' OXE d   1       1.148  -2.263  -0.950  0.00  0.00     0.078 C 
ATOM      2  C1' OXE d   1      -1.220  -2.661   0.504  0.00  0.00     0.078 C 
ATOM      3  C1  OXE d   1      -0.675  -1.258   0.418  0.00  0.00    -0.078 A 
ATOM      4  C2  OXE d   1       0.509  -1.079  -0.256  0.00  0.00    -0.078 A 
ATOM      5  C3  OXE d   1       1.027   0.203  -0.412  0.00  0.00     0.003 A 
ATOM      6  C4  OXE d   1       0.436   1.291   0.241  0.00  0.00    -0.002 A 
ATOM      7  C5  OXE d   1      -0.749   1.125   0.966  0.00  0.00    -0.002 A 
ATOM      8  C6  OXE d   1      -1.339  -0.133   1.029  0.00  0.00     0.003 A 
ENDROOT
TORSDOF 0
ENDMDL
