MODEL 1
REMARK minimizedAffinity -4.37940359
REMARK minimizedRMSD -1
REMARK  0 active torsions:
REMARK  status: ('A' for Active; 'I' for Inactive)
ROOT
ATOM      1  C2' OXE d   1      -2.013   0.523   0.577  0.00  0.00     0.078 C 
ATOM      2  C1' OXE d   1       0.679   0.919  -0.114  0.00  0.00     0.078 C 
ATOM      3  C1  OXE d   1       0.237  -0.485   0.217  0.00  0.00    -0.078 A 
ATOM      4  C2  OXE d   1      -1.071  -0.662   0.600  0.00  0.00    -0.078 A 
ATOM      5  C3  OXE d   1      -1.544  -1.944   0.863  0.00  0.00     0.003 A 
ATOM      6  C4  OXE d   1      -0.664  -3.033   0.892  0.00  0.00    -0.002 A 
ATOM      7  C5  OXE d   1       0.681  -2.868   0.544  0.00  0.00    -0.002 A 
ATOM      8  C6  OXE d   1       1.137  -1.610   0.164  0.00  0.00     0.003 A 
ENDROOT
TORSDOF 0
ENDMDL
