MODEL 1
REMARK minimizedAffinity -5.36579132
REMARK minimizedRMSD -1
REMARK  0 active torsions:
REMARK  status: ('A' for Active; 'I' for Inactive)
ROOT
ATOM      1  C2' OXE d   1      -1.129   0.131   1.730  0.00  0.00     0.078 C 
ATOM      2  C1' OXE d   1       0.321   1.009  -0.507  0.00  0.00     0.078 C 
ATOM      3  C1  OXE d   1       0.171  -0.478  -0.306  0.00  0.00    -0.078 A 
ATOM      4  C2  OXE d   1      -0.501  -0.899   0.817  0.00  0.00    -0.078 A 
ATOM      5  C3  OXE d   1      -0.716  -2.259   1.022  0.00  0.00     0.003 A 
ATOM      6  C4  OXE d   1      -0.123  -3.206   0.178  0.00  0.00    -0.002 A 
ATOM      7  C5  OXE d   1       0.599  -2.798  -0.949  0.00  0.00    -0.002 A 
ATOM      8  C6  OXE d   1       0.718  -1.441  -1.228  0.00  0.00     0.003 A 
ENDROOT
TORSDOF 0
ENDMDL
