MODEL 1
REMARK minimizedAffinity -5.11437416
REMARK minimizedRMSD -1
REMARK  0 active torsions:
REMARK  status: ('A' for Active; 'I' for Inactive)
ROOT
ATOM      1  C2' OXE d   1      -1.058  -1.098   1.850  0.00  0.00     0.078 C 
ATOM      2  C1' OXE d   1       0.522  -2.962   0.469  0.00  0.00     0.078 C 
ATOM      3  C1  OXE d   1       0.279  -1.625  -0.185  0.00  0.00    -0.078 A 
ATOM      4  C2  OXE d   1      -0.533  -0.736   0.477  0.00  0.00    -0.078 A 
ATOM      5  C3  OXE d   1      -0.746   0.532  -0.056  0.00  0.00     0.003 A 
ATOM      6  C4  OXE d   1      -0.266   0.855  -1.331  0.00  0.00    -0.002 A 
ATOM      7  C5  OXE d   1       0.531  -0.051  -2.040  0.00  0.00    -0.002 A 
ATOM      8  C6  OXE d   1       0.847  -1.276  -1.464  0.00  0.00     0.003 A 
ENDROOT
TORSDOF 0
ENDMDL
