MODEL 1
REMARK minimizedAffinity -4.75218964
REMARK minimizedRMSD -1
REMARK  0 active torsions:
REMARK  status: ('A' for Active; 'I' for Inactive)
ROOT
ATOM      1  C2' OXE d   1      -0.130   1.299  -0.976  0.00  0.00     0.078 C 
ATOM      2  C1' OXE d   1       0.569  -1.094  -2.267  0.00  0.00     0.078 C 
ATOM      3  C1  OXE d   1      -0.122  -1.192  -0.930  0.00  0.00    -0.078 A 
ATOM      4  C2  OXE d   1      -0.419  -0.016  -0.284  0.00  0.00    -0.078 A 
ATOM      5  C3  OXE d   1      -1.106  -0.048   0.926  0.00  0.00     0.003 A 
ATOM      6  C4  OXE d   1      -1.360  -1.269   1.564  0.00  0.00    -0.002 A 
ATOM      7  C5  OXE d   1      -1.030  -2.477   0.942  0.00  0.00    -0.002 A 
ATOM      8  C6  OXE d   1      -0.451  -2.457  -0.322  0.00  0.00     0.003 A 
ENDROOT
TORSDOF 0
ENDMDL
