MODEL 1
REMARK minimizedAffinity 0.53558743
REMARK minimizedRMSD -1
REMARK  0 active torsions:
REMARK  status: ('A' for Active; 'I' for Inactive)
ROOT
ATOM      1  C2' OXE d   1       0.624  -1.483  -2.537  0.00  0.00     0.078 C 
ATOM      2  C1' OXE d   1       0.015  -2.225   0.100  0.00  0.00     0.078 C 
ATOM      3  C1  OXE d   1       0.047  -0.753  -0.226  0.00  0.00    -0.078 A 
ATOM      4  C2  OXE d   1       0.392  -0.397  -1.508  0.00  0.00    -0.078 A 
ATOM      5  C3  OXE d   1       0.383   0.945  -1.877  0.00  0.00     0.003 A 
ATOM      6  C4  OXE d   1       0.177   1.942  -0.917  0.00  0.00    -0.002 A 
ATOM      7  C5  OXE d   1      -0.136   1.603   0.404  0.00  0.00    -0.002 A 
ATOM      8  C6  OXE d   1      -0.247   0.262   0.755  0.00  0.00     0.003 A 
ENDROOT
TORSDOF 0
ENDMDL
