MODEL 1
REMARK minimizedAffinity -3.67771697
REMARK minimizedRMSD -1
REMARK  0 active torsions:
REMARK  status: ('A' for Active; 'I' for Inactive)
ROOT
ATOM      1  C2' OXE d   1      -1.918   0.060   1.661  0.00  0.00     0.078 C 
ATOM      2  C1' OXE d   1      -0.106   1.321  -0.073  0.00  0.00     0.078 C 
ATOM      3  C1  OXE d   1      -0.072  -0.185   0.007  0.00  0.00    -0.078 A 
ATOM      4  C2  OXE d   1      -0.930  -0.791   0.892  0.00  0.00    -0.078 A 
ATOM      5  C3  OXE d   1      -0.977  -2.180   0.965  0.00  0.00     0.003 A 
ATOM      6  C4  OXE d   1      -0.053  -2.959   0.258  0.00  0.00    -0.002 A 
ATOM      7  C5  OXE d   1       0.856  -2.360  -0.620  0.00  0.00    -0.002 A 
ATOM      8  C6  OXE d   1       0.831  -0.980  -0.789  0.00  0.00     0.003 A 
ENDROOT
TORSDOF 0
ENDMDL
