MODEL 1
REMARK minimizedAffinity -4.70698118
REMARK minimizedRMSD -1
REMARK  0 active torsions:
REMARK  status: ('A' for Active; 'I' for Inactive)
ROOT
ATOM      1  C2' OXE d   1       0.013   1.664  -1.273  0.00  0.00     0.078 C 
ATOM      2  C1' OXE d   1       0.511  -0.868  -2.377  0.00  0.00     0.078 C 
ATOM      3  C1  OXE d   1       0.091  -0.802  -0.930  0.00  0.00    -0.078 A 
ATOM      4  C2  OXE d   1      -0.105   0.444  -0.385  0.00  0.00    -0.078 A 
ATOM      5  C3  OXE d   1      -0.546   0.560   0.930  0.00  0.00     0.003 A 
ATOM      6  C4  OXE d   1      -0.643  -0.573   1.747  0.00  0.00    -0.002 A 
ATOM      7  C5  OXE d   1      -0.410  -1.849   1.223  0.00  0.00    -0.002 A 
ATOM      8  C6  OXE d   1      -0.084  -1.984  -0.122  0.00  0.00     0.003 A 
ENDROOT
TORSDOF 0
ENDMDL
