MODEL 1
REMARK minimizedAffinity -6.23537874
REMARK minimizedRMSD -1
REMARK  0 active torsions:
REMARK  status: ('A' for Active; 'I' for Inactive)
ROOT
ATOM      1  C2' OXE d   1      -1.912  -0.032   1.519  0.00  0.00     0.078 C 
ATOM      2  C1' OXE d   1      -0.307   0.770  -0.639  0.00  0.00     0.078 C 
ATOM      3  C1  OXE d   1      -0.200  -0.661  -0.177  0.00  0.00    -0.078 A 
ATOM      4  C2  OXE d   1      -0.954  -1.033   0.910  0.00  0.00    -0.078 A 
ATOM      5  C3  OXE d   1      -0.934  -2.355   1.344  0.00  0.00     0.003 A 
ATOM      6  C4  OXE d   1      -0.038  -3.272   0.781  0.00  0.00    -0.002 A 
ATOM      7  C5  OXE d   1       0.768  -2.904  -0.301  0.00  0.00    -0.002 A 
ATOM      8  C6  OXE d   1       0.669  -1.617  -0.818  0.00  0.00     0.003 A 
ENDROOT
TORSDOF 0
ENDMDL
