MODEL 1
REMARK minimizedAffinity -6.73666906
REMARK minimizedRMSD -1
REMARK  0 active torsions:
REMARK  status: ('A' for Active; 'I' for Inactive)
ROOT
ATOM      1  C2' OXE d   1      -0.888  -0.598   1.602  0.00  0.00     0.078 C 
ATOM      2  C1' OXE d   1      -0.053   0.842  -0.659  0.00  0.00     0.078 C 
ATOM      3  C1  OXE d   1      -0.054  -0.664  -0.744  0.00  0.00    -0.078 A 
ATOM      4  C2  OXE d   1      -0.419  -1.361   0.382  0.00  0.00    -0.078 A 
ATOM      5  C3  OXE d   1      -0.490  -2.750   0.340  0.00  0.00     0.003 A 
ATOM      6  C4  OXE d   1      -0.045  -3.449  -0.789  0.00  0.00    -0.002 A 
ATOM      7  C5  OXE d   1       0.368  -2.759  -1.934  0.00  0.00    -0.002 A 
ATOM      8  C6  OXE d   1       0.329  -1.369  -1.942  0.00  0.00     0.003 A 
ENDROOT
TORSDOF 0
ENDMDL
