MODEL 1
REMARK minimizedAffinity -5.43227291
REMARK minimizedRMSD -1
REMARK  0 active torsions:
REMARK  status: ('A' for Active; 'I' for Inactive)
ROOT
ATOM      1  C2' OXE d   1      -1.104  -0.012   1.505  0.00  0.00     0.078 C 
ATOM      2  C1' OXE d   1      -0.042   1.063  -0.861  0.00  0.00     0.078 C 
ATOM      3  C1  OXE d   1       0.094  -0.423  -0.641  0.00  0.00    -0.078 A 
ATOM      4  C2  OXE d   1      -0.387  -0.934   0.541  0.00  0.00    -0.078 A 
ATOM      5  C3  OXE d   1      -0.336  -2.305   0.771  0.00  0.00     0.003 A 
ATOM      6  C4  OXE d   1       0.337  -3.149  -0.121  0.00  0.00    -0.002 A 
ATOM      7  C5  OXE d   1       0.869  -2.644  -1.312  0.00  0.00    -0.002 A 
ATOM      8  C6  OXE d   1       0.718  -1.293  -1.606  0.00  0.00     0.003 A 
ENDROOT
TORSDOF 0
ENDMDL
