MODEL 1
REMARK minimizedAffinity -2.42512584
REMARK minimizedRMSD -1
REMARK  0 active torsions:
REMARK  status: ('A' for Active; 'I' for Inactive)
ROOT
ATOM      1  C2' OXE d   1       0.801   1.934  -0.044  0.00  0.00     0.078 C 
ATOM      2  C1' OXE d   1      -0.180   0.463  -2.224  0.00  0.00     0.078 C 
ATOM      3  C1  OXE d   1      -0.443  -0.073  -0.839  0.00  0.00    -0.078 A 
ATOM      4  C2  OXE d   1       0.081   0.629   0.220  0.00  0.00    -0.078 A 
ATOM      5  C3  OXE d   1      -0.178   0.209   1.522  0.00  0.00     0.003 A 
ATOM      6  C4  OXE d   1      -0.836  -1.004   1.757  0.00  0.00    -0.002 A 
ATOM      7  C5  OXE d   1      -1.343  -1.755   0.691  0.00  0.00    -0.002 A 
ATOM      8  C6  OXE d   1      -1.193  -1.283  -0.608  0.00  0.00     0.003 A 
ENDROOT
TORSDOF 0
ENDMDL
