MODEL 1
REMARK minimizedAffinity -4.30904436
REMARK minimizedRMSD -1
REMARK  0 active torsions:
REMARK  status: ('A' for Active; 'I' for Inactive)
ROOT
ATOM      1  C2' OXE d   1      -1.869   0.144   1.170  0.00  0.00     0.078 C 
ATOM      2  C1' OXE d   1       0.060   1.201  -0.574  0.00  0.00     0.078 C 
ATOM      3  C1  OXE d   1       0.223  -0.231  -0.129  0.00  0.00    -0.078 A 
ATOM      4  C2  OXE d   1      -0.699  -0.725   0.761  0.00  0.00    -0.078 A 
ATOM      5  C3  OXE d   1      -0.626  -2.057   1.161  0.00  0.00     0.003 A 
ATOM      6  C4  OXE d   1       0.464  -2.851   0.787  0.00  0.00    -0.002 A 
ATOM      7  C5  OXE d   1       1.436  -2.354  -0.088  0.00  0.00    -0.002 A 
ATOM      8  C6  OXE d   1       1.308  -1.063  -0.587  0.00  0.00     0.003 A 
ENDROOT
TORSDOF 0
ENDMDL
