MODEL 1
REMARK minimizedAffinity -4.29728889
REMARK minimizedRMSD -1
REMARK  0 active torsions:
REMARK  status: ('A' for Active; 'I' for Inactive)
ROOT
ATOM      1  C2' OXE d   1      -0.072   1.545  -0.107  0.00  0.00     0.078 C 
ATOM      2  C1' OXE d   1       0.915   0.097  -2.300  0.00  0.00     0.078 C 
ATOM      3  C1  OXE d   1       0.439  -0.682  -1.099  0.00  0.00    -0.078 A 
ATOM      4  C2  OXE d   1       0.002   0.037  -0.013  0.00  0.00    -0.078 A 
ATOM      5  C3  OXE d   1      -0.499  -0.633   1.100  0.00  0.00     0.003 A 
ATOM      6  C4  OXE d   1      -0.419  -2.028   1.183  0.00  0.00    -0.002 A 
ATOM      7  C5  OXE d   1       0.060  -2.778   0.103  0.00  0.00    -0.002 A 
ATOM      8  C6  OXE d   1       0.452  -2.123  -1.059  0.00  0.00     0.003 A 
ENDROOT
TORSDOF 0
ENDMDL
