MODEL 1
REMARK minimizedAffinity -5.21795034
REMARK minimizedRMSD -1
REMARK  0 active torsions:
REMARK  status: ('A' for Active; 'I' for Inactive)
ROOT
ATOM      1  C2' OXE d   1      -0.840  -0.666   1.941  0.00  0.00     0.078 C 
ATOM      2  C1' OXE d   1       0.316  -2.850   0.609  0.00  0.00     0.078 C 
ATOM      3  C1  OXE d   1       0.180  -1.554  -0.151  0.00  0.00    -0.078 A 
ATOM      4  C2  OXE d   1      -0.429  -0.504   0.493  0.00  0.00    -0.078 A 
ATOM      5  C3  OXE d   1      -0.530   0.730  -0.142  0.00  0.00     0.003 A 
ATOM      6  C4  OXE d   1      -0.156   0.869  -1.485  0.00  0.00    -0.002 A 
ATOM      7  C5  OXE d   1       0.430  -0.200  -2.172  0.00  0.00    -0.002 A 
ATOM      8  C6  OXE d   1       0.644  -1.402  -1.508  0.00  0.00     0.003 A 
ENDROOT
TORSDOF 0
ENDMDL
