MODEL 1
REMARK minimizedAffinity -3.67593098
REMARK minimizedRMSD -1
REMARK  0 active torsions:
REMARK  status: ('A' for Active; 'I' for Inactive)
ROOT
ATOM      1  C2' OXE d   1      -1.612   0.241   2.267  0.00  0.00     0.078 C 
ATOM      2  C1' OXE d   1       0.433   1.354   0.699  0.00  0.00     0.078 C 
ATOM      3  C1  OXE d   1       0.192  -0.131   0.590  0.00  0.00    -0.078 A 
ATOM      4  C2  OXE d   1      -0.779  -0.675   1.396  0.00  0.00    -0.078 A 
ATOM      5  C3  OXE d   1      -1.079  -2.030   1.296  0.00  0.00     0.003 A 
ATOM      6  C4  OXE d   1      -0.297  -2.872   0.496  0.00  0.00    -0.002 A 
ATOM      7  C5  OXE d   1       0.723  -2.345  -0.303  0.00  0.00    -0.002 A 
ATOM      8  C6  OXE d   1       0.952  -0.974  -0.300  0.00  0.00     0.003 A 
ENDROOT
TORSDOF 0
ENDMDL
