MODEL 1
REMARK minimizedAffinity 11.4948273
REMARK minimizedRMSD -1
REMARK  2 active torsions:
REMARK  status: ('A' for Active; 'I' for Inactive)
REMARK    1  A    between atoms: C2'_3  and  C1'_4 
REMARK    2  A    between atoms: C1'_4  and  C1_5 
ROOT
ATOM      1  C1  I4B d   1       2.579   2.740  -3.371  0.00  0.00    -0.075 A 
ATOM      2  C2  I4B d   1       3.064   3.773  -4.134  0.00  0.00     0.003 A 
ATOM      3  C3  I4B d   1       2.193   4.793  -4.588  0.00  0.00     0.002 A 
ATOM      4  C4  I4B d   1       0.846   4.714  -4.302  0.00  0.00    -0.004 A 
ATOM      5  C5  I4B d   1       0.360   3.678  -3.509  0.00  0.00     0.002 A 
ATOM      6  C6  I4B d   1       1.234   2.691  -3.030  0.00  0.00     0.003 A 
ENDROOT
BRANCH   1   7
ATOM      7  C1' I4B d   1       3.521   1.662  -2.936  0.00  0.00     0.060 C 
BRANCH   7   8
ATOM      8  C2' I4B d   1       4.819   1.840  -3.697  0.00  0.00    -0.013 C 
ATOM      9  C4' I4B d   1       6.000   1.869  -2.763  0.00  0.00     0.013 C 
ATOM     10  C3' I4B d   1       4.935   0.716  -4.683  0.00  0.00     0.013 C 
ENDBRANCH   7   8
ENDBRANCH   1   7
TORSDOF 2
ENDMDL
