MODEL 1
REMARK minimizedAffinity 9.32268429
REMARK minimizedRMSD -1
REMARK  2 active torsions:
REMARK  status: ('A' for Active; 'I' for Inactive)
REMARK    1  A    between atoms: C2'_3  and  C1'_4 
REMARK    2  A    between atoms: C1'_4  and  C1_5 
ROOT
ATOM      1  C1  I4B d   1       2.116   1.848   2.489  0.00  0.00    -0.075 A 
ATOM      2  C2  I4B d   1       2.247   1.828   3.855  0.00  0.00     0.003 A 
ATOM      3  C3  I4B d   1       3.120   2.736   4.501  0.00  0.00     0.002 A 
ATOM      4  C4  I4B d   1       3.877   3.607   3.744  0.00  0.00    -0.004 A 
ATOM      5  C5  I4B d   1       3.726   3.641   2.360  0.00  0.00     0.002 A 
ATOM      6  C6  I4B d   1       2.831   2.765   1.730  0.00  0.00     0.003 A 
ENDROOT
BRANCH   1   7
ATOM      7  C1' I4B d   1       1.210   0.853   1.837  0.00  0.00     0.060 C 
BRANCH   7   8
ATOM      8  C2' I4B d   1       1.856  -0.513   1.951  0.00  0.00    -0.013 C 
ATOM      9  C4' I4B d   1       0.820  -1.599   2.062  0.00  0.00     0.013 C 
ATOM     10  C3' I4B d   1       2.726  -0.715   0.747  0.00  0.00     0.013 C 
ENDBRANCH   7   8
ENDBRANCH   1   7
TORSDOF 2
ENDMDL
