MODEL 1
REMARK minimizedAffinity 9.77787495
REMARK minimizedRMSD -1
REMARK  2 active torsions:
REMARK  status: ('A' for Active; 'I' for Inactive)
REMARK    1  A    between atoms: C2'_3  and  C1'_4 
REMARK    2  A    between atoms: C1'_4  and  C1_5 
ROOT
ATOM      1  C1  I4B d   1      -2.152   1.115   1.950  0.00  0.00    -0.075 A 
ATOM      2  C2  I4B d   1      -1.984  -0.238   2.108  0.00  0.00     0.003 A 
ATOM      3  C3  I4B d   1      -3.033  -1.130   1.777  0.00  0.00     0.002 A 
ATOM      4  C4  I4B d   1      -4.242  -0.626   1.342  0.00  0.00    -0.004 A 
ATOM      5  C5  I4B d   1      -4.402   0.745   1.160  0.00  0.00     0.002 A 
ATOM      6  C6  I4B d   1      -3.347   1.620   1.454  0.00  0.00     0.003 A 
ENDROOT
BRANCH   1   7
ATOM      7  C1' I4B d   1      -1.035   2.030   2.340  0.00  0.00     0.060 C 
BRANCH   7   8
ATOM      8  C2' I4B d   1       0.197   1.624   1.558  0.00  0.00    -0.013 C 
ATOM      9  C4' I4B d   1       0.540   2.649   0.510  0.00  0.00     0.013 C 
ATOM     10  C3' I4B d   1       1.325   1.445   2.530  0.00  0.00     0.013 C 
ENDBRANCH   7   8
ENDBRANCH   1   7
TORSDOF 2
ENDMDL
