MODEL 1
REMARK minimizedAffinity 5.0047965
REMARK minimizedRMSD -1
REMARK  2 active torsions:
REMARK  status: ('A' for Active; 'I' for Inactive)
REMARK    1  A    between atoms: C2'_3  and  C1'_4 
REMARK    2  A    between atoms: C1'_4  and  C1_5 
ROOT
ATOM      1  C1  I4B d   1      -2.476  -0.934   2.075  0.00  0.00    -0.075 A 
ATOM      2  C2  I4B d   1      -3.659  -0.302   2.363  0.00  0.00     0.003 A 
ATOM      3  C3  I4B d   1      -4.567  -0.875   3.286  0.00  0.00     0.002 A 
ATOM      4  C4  I4B d   1      -4.276  -2.098   3.856  0.00  0.00    -0.004 A 
ATOM      5  C5  I4B d   1      -3.065  -2.726   3.580  0.00  0.00     0.002 A 
ATOM      6  C6  I4B d   1      -2.153  -2.135   2.694  0.00  0.00     0.003 A 
ENDROOT
BRANCH   1   7
ATOM      7  C1' I4B d   1      -1.555  -0.317   1.070  0.00  0.00     0.060 C 
BRANCH   7   8
ATOM      8  C2' I4B d   1      -0.151  -0.356   1.638  0.00  0.00    -0.013 C 
ATOM      9  C4' I4B d   1       0.759  -1.202   0.787  0.00  0.00     0.013 C 
ATOM     10  C3' I4B d   1       0.351   1.055   1.729  0.00  0.00     0.013 C 
ENDBRANCH   7   8
ENDBRANCH   1   7
TORSDOF 2
ENDMDL
