MODEL 1
REMARK minimizedAffinity 11.0182352
REMARK minimizedRMSD -1
REMARK  2 active torsions:
REMARK  status: ('A' for Active; 'I' for Inactive)
REMARK    1  A    between atoms: C2'_3  and  C1'_4 
REMARK    2  A    between atoms: C1'_4  and  C1_5 
ROOT
ATOM      1  C1  I4B d   1       2.219   3.060   3.318  0.00  0.00    -0.075 A 
ATOM      2  C2  I4B d   1       3.306   2.227   3.237  0.00  0.00     0.003 A 
ATOM      3  C3  I4B d   1       4.551   2.625   3.781  0.00  0.00     0.002 A 
ATOM      4  C4  I4B d   1       4.676   3.876   4.350  0.00  0.00    -0.004 A 
ATOM      5  C5  I4B d   1       3.567   4.711   4.452  0.00  0.00     0.002 A 
ATOM      6  C6  I4B d   1       2.327   4.296   3.944  0.00  0.00     0.003 A 
ENDROOT
BRANCH   1   7
ATOM      7  C1' I4B d   1       0.927   2.622   2.704  0.00  0.00     0.060 C 
BRANCH   7   8
ATOM      8  C2' I4B d   1       1.244   1.602   1.629  0.00  0.00    -0.013 C 
ATOM      9  C4' I4B d   1       0.150   0.574   1.514  0.00  0.00     0.013 C 
ATOM     10  C3' I4B d   1       1.436   2.337   0.336  0.00  0.00     0.013 C 
ENDBRANCH   7   8
ENDBRANCH   1   7
TORSDOF 2
ENDMDL
