MODEL 1
REMARK minimizedAffinity 5.23955727
REMARK minimizedRMSD -1
REMARK  2 active torsions:
REMARK  status: ('A' for Active; 'I' for Inactive)
REMARK    1  A    between atoms: C2'_3  and  C1'_4 
REMARK    2  A    between atoms: C1'_4  and  C1_5 
ROOT
ATOM      1  C1  I4B d   1      -3.045   4.561  -3.765  0.00  0.00    -0.075 A 
ATOM      2  C2  I4B d   1      -2.863   4.486  -5.123  0.00  0.00     0.003 A 
ATOM      3  C3  I4B d   1      -3.734   5.178  -5.999  0.00  0.00     0.002 A 
ATOM      4  C4  I4B d   1      -4.799   5.886  -5.479  0.00  0.00    -0.004 A 
ATOM      5  C5  I4B d   1      -4.969   5.980  -4.101  0.00  0.00     0.002 A 
ATOM      6  C6  I4B d   1      -4.080   5.323  -3.237  0.00  0.00     0.003 A 
ENDROOT
BRANCH   1   7
ATOM      7  C1' I4B d   1      -2.126   3.791  -2.871  0.00  0.00     0.060 C 
BRANCH   7   8
ATOM      8  C2' I4B d   1      -0.703   4.166  -3.230  0.00  0.00    -0.013 C 
ATOM      9  C4' I4B d   1       0.170   4.232  -2.005  0.00  0.00     0.013 C 
ATOM     10  C3' I4B d   1      -0.189   3.151  -4.207  0.00  0.00     0.013 C 
ENDBRANCH   7   8
ENDBRANCH   1   7
TORSDOF 2
ENDMDL
