MODEL 1
REMARK minimizedAffinity 10.531004
REMARK minimizedRMSD -1
REMARK  2 active torsions:
REMARK  status: ('A' for Active; 'I' for Inactive)
REMARK    1  A    between atoms: C2'_3  and  C1'_4 
REMARK    2  A    between atoms: C1'_4  and  C1_5 
ROOT
ATOM      1  C1  I4B d   1       3.665   3.767   3.030  0.00  0.00    -0.075 A 
ATOM      2  C2  I4B d   1       3.534   3.879   1.668  0.00  0.00     0.003 A 
ATOM      3  C3  I4B d   1       2.532   3.149   0.985  0.00  0.00     0.002 A 
ATOM      4  C4  I4B d   1       1.720   2.285   1.692  0.00  0.00    -0.004 A 
ATOM      5  C5  I4B d   1       1.838   2.190   3.076  0.00  0.00     0.002 A 
ATOM      6  C6  I4B d   1       2.809   2.945   3.751  0.00  0.00     0.003 A 
ENDROOT
BRANCH   1   7
ATOM      7  C1' I4B d   1       4.756   4.528   3.714  0.00  0.00     0.060 C 
BRANCH   7   8
ATOM      8  C2' I4B d   1       4.754   4.132   5.177  0.00  0.00    -0.013 C 
ATOM      9  C4' I4B d   1       5.939   3.265   5.509  0.00  0.00     0.013 C 
ATOM     10  C3' I4B d   1       4.756   5.388   5.997  0.00  0.00     0.013 C 
ENDBRANCH   7   8
ENDBRANCH   1   7
TORSDOF 2
ENDMDL
