MODEL 1
REMARK minimizedAffinity 4.58163977
REMARK minimizedRMSD -1
REMARK  2 active torsions:
REMARK  status: ('A' for Active; 'I' for Inactive)
REMARK    1  A    between atoms: C2'_3  and  C1'_4 
REMARK    2  A    between atoms: C1'_4  and  C1_5 
ROOT
ATOM      1  C1  I4B d   1      -3.921   0.222   1.953  0.00  0.00    -0.075 A 
ATOM      2  C2  I4B d   1      -2.640  -0.142   2.286  0.00  0.00     0.003 A 
ATOM      3  C3  I4B d   1      -1.538   0.419   1.597  0.00  0.00     0.002 A 
ATOM      4  C4  I4B d   1      -1.762   1.296   0.555  0.00  0.00    -0.004 A 
ATOM      5  C5  I4B d   1      -3.060   1.682   0.234  0.00  0.00     0.002 A 
ATOM      6  C6  I4B d   1      -4.146   1.151   0.946  0.00  0.00     0.003 A 
ENDROOT
BRANCH   1   7
ATOM      7  C1' I4B d   1      -5.063  -0.414   2.680  0.00  0.00     0.060 C 
BRANCH   7   8
ATOM      8  C2' I4B d   1      -4.488  -1.331   3.741  0.00  0.00    -0.013 C 
ATOM      9  C4' I4B d   1      -5.521  -1.675   4.781  0.00  0.00     0.013 C 
ATOM     10  C3' I4B d   1      -3.975  -2.564   3.059  0.00  0.00     0.013 C 
ENDBRANCH   7   8
ENDBRANCH   1   7
TORSDOF 2
ENDMDL
