MODEL 1
REMARK minimizedAffinity 14.3775206
REMARK minimizedRMSD -1
REMARK  2 active torsions:
REMARK  status: ('A' for Active; 'I' for Inactive)
REMARK    1  A    between atoms: C2'_3  and  C1'_4 
REMARK    2  A    between atoms: C1'_4  and  C1_5 
ROOT
ATOM      1  C1  I4B d   1       3.656   3.637   4.708  0.00  0.00    -0.075 A 
ATOM      2  C2  I4B d   1       3.652   4.872   5.308  0.00  0.00     0.003 A 
ATOM      3  C3  I4B d   1       4.842   5.395   5.869  0.00  0.00     0.002 A 
ATOM      4  C4  I4B d   1       5.993   4.633   5.854  0.00  0.00    -0.004 A 
ATOM      5  C5  I4B d   1       6.000   3.391   5.226  0.00  0.00     0.002 A 
ATOM      6  C6  I4B d   1       4.827   2.895   4.638  0.00  0.00     0.003 A 
ENDROOT
BRANCH   1   7
ATOM      7  C1' I4B d   1       2.373   3.102   4.154  0.00  0.00     0.060 C 
BRANCH   7   8
ATOM      8  C2' I4B d   1       2.637   2.631   2.739  0.00  0.00    -0.013 C 
ATOM      9  C4' I4B d   1       1.384   2.091   2.101  0.00  0.00     0.013 C 
ATOM     10  C3' I4B d   1       3.185   3.789   1.960  0.00  0.00     0.013 C 
ENDBRANCH   7   8
ENDBRANCH   1   7
TORSDOF 2
ENDMDL
