MODEL 1
REMARK minimizedAffinity -5.47569799
REMARK minimizedRMSD -1
REMARK  3 active torsions:
REMARK  status: ('A' for Active; 'I' for Inactive)
REMARK    1  A    between atoms: C3'_2  and  C2'_3 
REMARK    2  A    between atoms: C2'_3  and  C1'_4 
REMARK    3  A    between atoms: C1'_4  and  C1_5 
ROOT
ATOM      1  C1  N4B d   1       0.407  -0.426  -0.373  0.00  0.00    -0.075 A 
ATOM      2  C2  N4B d   1       1.639  -1.063  -0.106  0.00  0.00     0.002 A 
ATOM      3  C3  N4B d   1       2.272  -0.858   1.096  0.00  0.00     0.002 A 
ATOM      4  C4  N4B d   1       1.704  -0.008   2.034  0.00  0.00    -0.004 A 
ATOM      5  C5  N4B d   1       0.501   0.583   1.778  0.00  0.00     0.002 A 
ATOM      6  C6  N4B d   1      -0.148   0.382   0.576  0.00  0.00     0.002 A 
ENDROOT
BRANCH   1   7
ATOM      7  C1' N4B d   1      -0.279  -0.553  -1.705  0.00  0.00     0.057 C 
BRANCH   7   8
ATOM      8  C2' N4B d   1       0.762  -0.857  -2.778  0.00  0.00     0.009 C 
BRANCH   8   9
ATOM      9  C3' N4B d   1       1.324   0.410  -3.401  0.00  0.00     0.004 C 
ATOM     10  C4' N4B d   1       1.185   0.434  -4.894  0.00  0.00     0.003 C 
ENDBRANCH   8   9
ENDBRANCH   7   8
ENDBRANCH   1   7
TORSDOF 3
ENDMDL
