MODEL 1
REMARK minimizedAffinity -5.17096901
REMARK minimizedRMSD -1
REMARK  3 active torsions:
REMARK  status: ('A' for Active; 'I' for Inactive)
REMARK    1  A    between atoms: C3'_2  and  C2'_3 
REMARK    2  A    between atoms: C2'_3  and  C1'_4 
REMARK    3  A    between atoms: C1'_4  and  C1_5 
ROOT
ATOM      1  C1  N4B d   1       0.458  -0.136   1.217  0.00  0.00    -0.075 A 
ATOM      2  C2  N4B d   1      -0.823   0.454   1.143  0.00  0.00     0.002 A 
ATOM      3  C3  N4B d   1      -1.461   0.854   2.291  0.00  0.00     0.002 A 
ATOM      4  C4  N4B d   1      -0.849   0.659   3.520  0.00  0.00    -0.004 A 
ATOM      5  C5  N4B d   1       0.399   0.111   3.581  0.00  0.00     0.002 A 
ATOM      6  C6  N4B d   1       1.054  -0.292   2.434  0.00  0.00     0.002 A 
ENDROOT
BRANCH   1   7
ATOM      7  C1' N4B d   1       1.158  -0.668  -0.004  0.00  0.00     0.057 C 
BRANCH   7   8
ATOM      8  C2' N4B d   1       0.117  -1.168  -1.001  0.00  0.00     0.009 C 
BRANCH   8   9
ATOM      9  C3' N4B d   1       0.653  -1.184  -2.422  0.00  0.00     0.004 C 
ATOM     10  C4' N4B d   1       1.631  -0.079  -2.687  0.00  0.00     0.003 C 
ENDBRANCH   8   9
ENDBRANCH   7   8
ENDBRANCH   1   7
TORSDOF 3
ENDMDL
