MODEL 1
REMARK minimizedAffinity -5.57345343
REMARK minimizedRMSD -1
REMARK  2 active torsions:
REMARK  status: ('A' for Active; 'I' for Inactive)
REMARK    1  A    between atoms: C1_2  and  C2_3 
REMARK    2  A    between atoms: C2_3  and  C3_4 
ROOT
ATOM      1  C3  UNL d   1       0.967   1.168   0.764  0.00  0.00    -0.075 A 
ATOM      2  C4  UNL d   1       0.566   2.225   1.594  0.00  0.00     0.002 A 
ATOM      3  C5  UNL d   1       1.356   3.369   1.715  0.00  0.00     0.002 A 
ATOM      4  C6  UNL d   1       2.558   3.466   1.018  0.00  0.00    -0.004 A 
ATOM      5  C7  UNL d   1       2.974   2.415   0.203  0.00  0.00     0.002 A 
ATOM      6  C8  UNL d   1       2.184   1.271   0.077  0.00  0.00     0.002 A 
ENDROOT
BRANCH   1   7
ATOM      7  C2  UNL d   1       0.102  -0.060   0.606  0.00  0.00     0.056 C 
BRANCH   7   8
ATOM      8  C1  UNL d   1      -1.194   0.186  -0.173  0.00  0.00     0.007 C 
ATOM      9  C   UNL d   1      -0.956   0.585  -1.624  0.00  0.00     0.009 C 
ENDBRANCH   7   8
ENDBRANCH   1   7
TORSDOF 2
ENDMDL
