MODEL 1
REMARK minimizedAffinity -3.19205475
REMARK minimizedRMSD -1
REMARK  2 active torsions:
REMARK  status: ('A' for Active; 'I' for Inactive)
REMARK    1  A    between atoms: C1_2  and  C2_3 
REMARK    2  A    between atoms: C2_3  and  C3_4 
ROOT
ATOM      1  C3  UNL d   1       0.320   0.502   0.539  0.00  0.00    -0.075 A 
ATOM      2  C4  UNL d   1       0.951  -0.705   0.873  0.00  0.00     0.002 A 
ATOM      3  C5  UNL d   1       0.229  -1.739   1.470  0.00  0.00     0.002 A 
ATOM      4  C6  UNL d   1      -1.126  -1.577   1.748  0.00  0.00    -0.004 A 
ATOM      5  C7  UNL d   1      -1.759  -0.376   1.436  0.00  0.00     0.002 A 
ATOM      6  C8  UNL d   1      -1.041   0.659   0.835  0.00  0.00     0.002 A 
ENDROOT
BRANCH   1   7
ATOM      7  C2  UNL d   1       1.088   1.615  -0.134  0.00  0.00     0.056 C 
BRANCH   7   8
ATOM      8  C1  UNL d   1       2.288   2.122   0.674  0.00  0.00     0.007 C 
ATOM      9  C   UNL d   1       2.586   3.597   0.445  0.00  0.00     0.009 C 
ENDBRANCH   7   8
ENDBRANCH   1   7
TORSDOF 2
ENDMDL
