MODEL 1
REMARK minimizedAffinity -4.7797718
REMARK minimizedRMSD -1
REMARK  2 active torsions:
REMARK  status: ('A' for Active; 'I' for Inactive)
REMARK    1  A    between atoms: C1_2  and  C2_3 
REMARK    2  A    between atoms: C2_3  and  C3_4 
ROOT
ATOM      1  C3  UNL d   1      -0.350  -0.168  -0.100  0.00  0.00    -0.075 A 
ATOM      2  C4  UNL d   1      -1.145  -1.258   0.284  0.00  0.00     0.002 A 
ATOM      3  C5  UNL d   1      -2.127  -1.756  -0.572  0.00  0.00     0.002 A 
ATOM      4  C6  UNL d   1      -2.334  -1.166  -1.817  0.00  0.00    -0.004 A 
ATOM      5  C7  UNL d   1      -1.562  -0.072  -2.203  0.00  0.00     0.002 A 
ATOM      6  C8  UNL d   1      -0.576   0.426  -1.350  0.00  0.00     0.002 A 
ENDROOT
BRANCH   1   7
ATOM      7  C2  UNL d   1       0.734   0.357   0.810  0.00  0.00     0.056 C 
BRANCH   7   8
ATOM      8  C1  UNL d   1       0.668   1.869   1.050  0.00  0.00     0.007 C 
ATOM      9  C   UNL d   1       1.869   2.408   1.817  0.00  0.00     0.009 C 
ENDBRANCH   7   8
ENDBRANCH   1   7
TORSDOF 2
ENDMDL
