MODEL 1
REMARK minimizedAffinity -1.55030489
REMARK minimizedRMSD -1
REMARK  2 active torsions:
REMARK  status: ('A' for Active; 'I' for Inactive)
REMARK    1  A    between atoms: C1_2  and  C2_3 
REMARK    2  A    between atoms: C2_3  and  C3_4 
ROOT
ATOM      1  C3  UNL d   1      -1.049  -0.151  -1.123  0.00  0.00    -0.075 A 
ATOM      2  C4  UNL d   1       0.320  -0.156  -0.817  0.00  0.00     0.002 A 
ATOM      3  C5  UNL d   1       0.761   0.180   0.463  0.00  0.00     0.002 A 
ATOM      4  C6  UNL d   1      -0.157   0.534   1.449  0.00  0.00    -0.004 A 
ATOM      5  C7  UNL d   1      -1.518   0.559   1.151  0.00  0.00     0.002 A 
ATOM      6  C8  UNL d   1      -1.963   0.219  -0.127  0.00  0.00     0.002 A 
ENDROOT
BRANCH   1   7
ATOM      7  C2  UNL d   1      -1.535  -0.542  -2.498  0.00  0.00     0.056 C 
BRANCH   7   8
ATOM      8  C1  UNL d   1      -2.605  -1.639  -2.493  0.00  0.00     0.007 C 
ATOM      9  C   UNL d   1      -2.103  -2.971  -3.034  0.00  0.00     0.009 C 
ENDBRANCH   7   8
ENDBRANCH   1   7
TORSDOF 2
ENDMDL
