MODEL 1
REMARK minimizedAffinity -4.84543228
REMARK minimizedRMSD -1
REMARK  2 active torsions:
REMARK  status: ('A' for Active; 'I' for Inactive)
REMARK    1  A    between atoms: C1_2  and  C2_3 
REMARK    2  A    between atoms: C2_3  and  C3_4 
ROOT
ATOM      1  C3  UNL d   1      -0.667   0.120  -0.645  0.00  0.00    -0.075 A 
ATOM      2  C4  UNL d   1      -1.347   0.516   0.516  0.00  0.00     0.002 A 
ATOM      3  C5  UNL d   1      -2.661   0.104   0.742  0.00  0.00     0.002 A 
ATOM      4  C6  UNL d   1      -3.314  -0.697  -0.193  0.00  0.00    -0.004 A 
ATOM      5  C7  UNL d   1      -2.653  -1.082  -1.357  0.00  0.00     0.002 A 
ATOM      6  C8  UNL d   1      -1.337  -0.676  -1.584  0.00  0.00     0.002 A 
ENDROOT
BRANCH   1   7
ATOM      7  C2  UNL d   1       0.765   0.538  -0.881  0.00  0.00     0.056 C 
BRANCH   7   8
ATOM      8  C1  UNL d   1       1.703   0.241   0.294  0.00  0.00     0.007 C 
ATOM      9  C   UNL d   1       2.691   1.367   0.572  0.00  0.00     0.009 C 
ENDBRANCH   7   8
ENDBRANCH   1   7
TORSDOF 2
ENDMDL
