MODEL 1
REMARK minimizedAffinity -5.90076017
REMARK minimizedRMSD -1
REMARK  2 active torsions:
REMARK  status: ('A' for Active; 'I' for Inactive)
REMARK    1  A    between atoms: C1_2  and  C2_3 
REMARK    2  A    between atoms: C2_3  and  C3_4 
ROOT
ATOM      1  C3  UNL d   1      -0.938   0.330  -0.140  0.00  0.00    -0.075 A 
ATOM      2  C4  UNL d   1      -1.233   0.581  -1.488  0.00  0.00     0.002 A 
ATOM      3  C5  UNL d   1      -2.386   0.054  -2.070  0.00  0.00     0.002 A 
ATOM      4  C6  UNL d   1      -3.252  -0.736  -1.318  0.00  0.00    -0.004 A 
ATOM      5  C7  UNL d   1      -2.960  -1.005   0.018  0.00  0.00     0.002 A 
ATOM      6  C8  UNL d   1      -1.810  -0.476   0.605  0.00  0.00     0.002 A 
ENDROOT
BRANCH   1   7
ATOM      7  C2  UNL d   1       0.293   0.922   0.504  0.00  0.00     0.056 C 
BRANCH   7   8
ATOM      8  C1  UNL d   1       0.001   2.088   1.455  0.00  0.00     0.007 C 
ATOM      9  C   UNL d   1       1.174   3.046   1.608  0.00  0.00     0.009 C 
ENDBRANCH   7   8
ENDBRANCH   1   7
TORSDOF 2
ENDMDL
