MODEL 1
REMARK minimizedAffinity -6.01606464
REMARK minimizedRMSD -1
REMARK  2 active torsions:
REMARK  status: ('A' for Active; 'I' for Inactive)
REMARK    1  A    between atoms: C1_2  and  C2_3 
REMARK    2  A    between atoms: C2_3  and  C3_4 
ROOT
ATOM      1  C3  UNL d   1      -0.122   0.113  -0.201  0.00  0.00    -0.075 A 
ATOM      2  C4  UNL d   1      -0.109   0.630  -1.505  0.00  0.00     0.002 A 
ATOM      3  C5  UNL d   1      -1.239   0.530  -2.317  0.00  0.00     0.002 A 
ATOM      4  C6  UNL d   1      -2.390  -0.095  -1.842  0.00  0.00    -0.004 A 
ATOM      5  C7  UNL d   1      -2.408  -0.627  -0.554  0.00  0.00     0.002 A 
ATOM      6  C8  UNL d   1      -1.280  -0.524   0.262  0.00  0.00     0.002 A 
ENDROOT
BRANCH   1   7
ATOM      7  C2  UNL d   1       1.088   0.244   0.693  0.00  0.00     0.056 C 
BRANCH   7   8
ATOM      8  C1  UNL d   1       1.387   1.681   1.131  0.00  0.00     0.007 C 
ATOM      9  C   UNL d   1       0.425   2.198   2.193  0.00  0.00     0.009 C 
ENDBRANCH   7   8
ENDBRANCH   1   7
TORSDOF 2
ENDMDL
