MODEL 1
REMARK minimizedAffinity -3.38798666
REMARK minimizedRMSD -1
REMARK  2 active torsions:
REMARK  status: ('A' for Active; 'I' for Inactive)
REMARK    1  A    between atoms: C1_2  and  C2_3 
REMARK    2  A    between atoms: C2_3  and  C3_4 
ROOT
ATOM      1  C3  UNL d   1      -0.638  -0.035  -0.104  0.00  0.00    -0.075 A 
ATOM      2  C4  UNL d   1      -1.022   0.473  -1.353  0.00  0.00     0.002 A 
ATOM      3  C5  UNL d   1      -2.009  -0.166  -2.105  0.00  0.00     0.002 A 
ATOM      4  C6  UNL d   1      -2.617  -1.323  -1.622  0.00  0.00    -0.004 A 
ATOM      5  C7  UNL d   1      -2.231  -1.846  -0.390  0.00  0.00     0.002 A 
ATOM      6  C8  UNL d   1      -1.247  -1.207   0.366  0.00  0.00     0.002 A 
ENDROOT
BRANCH   1   7
ATOM      7  C2  UNL d   1       0.409   0.667   0.727  0.00  0.00     0.056 C 
BRANCH   7   8
ATOM      8  C1  UNL d   1       1.849   0.375   0.293  0.00  0.00     0.007 C 
ATOM      9  C   UNL d   1       2.741   1.610   0.302  0.00  0.00     0.009 C 
ENDBRANCH   7   8
ENDBRANCH   1   7
TORSDOF 2
ENDMDL
