MODEL 1
REMARK minimizedAffinity -6.02947187
REMARK minimizedRMSD -1
REMARK  2 active torsions:
REMARK  status: ('A' for Active; 'I' for Inactive)
REMARK    1  A    between atoms: C1_2  and  C2_3 
REMARK    2  A    between atoms: C2_3  and  C3_4 
ROOT
ATOM      1  C3  UNL d   1      -0.763   0.768   0.062  0.00  0.00    -0.075 A 
ATOM      2  C4  UNL d   1      -0.580   0.173  -1.194  0.00  0.00     0.002 A 
ATOM      3  C5  UNL d   1      -1.588  -0.606  -1.764  0.00  0.00     0.002 A 
ATOM      4  C6  UNL d   1      -2.785  -0.808  -1.081  0.00  0.00    -0.004 A 
ATOM      5  C7  UNL d   1      -2.972  -0.235   0.175  0.00  0.00     0.002 A 
ATOM      6  C8  UNL d   1      -1.967   0.549   0.745  0.00  0.00     0.002 A 
ENDROOT
BRANCH   1   7
ATOM      7  C2  UNL d   1       0.312   1.636   0.670  0.00  0.00     0.056 C 
BRANCH   7   8
ATOM      8  C1  UNL d   1       1.710   1.011   0.639  0.00  0.00     0.007 C 
ATOM      9  C   UNL d   1       2.741   1.805   1.431  0.00  0.00     0.009 C 
ENDBRANCH   7   8
ENDBRANCH   1   7
TORSDOF 2
ENDMDL
