MODEL 1
REMARK minimizedAffinity -4.48004532
REMARK minimizedRMSD -1
REMARK  2 active torsions:
REMARK  status: ('A' for Active; 'I' for Inactive)
REMARK    1  A    between atoms: C1_2  and  C2_3 
REMARK    2  A    between atoms: C2_3  and  C3_4 
ROOT
ATOM      1  C3  UNL d   1       0.911   0.581   0.620  0.00  0.00    -0.075 A 
ATOM      2  C4  UNL d   1       0.461   0.722   1.941  0.00  0.00     0.002 A 
ATOM      3  C5  UNL d   1       1.080   1.624   2.807  0.00  0.00     0.002 A 
ATOM      4  C6  UNL d   1       2.160   2.387   2.368  0.00  0.00    -0.004 A 
ATOM      5  C7  UNL d   1       2.625   2.243   1.063  0.00  0.00     0.002 A 
ATOM      6  C8  UNL d   1       2.005   1.344   0.192  0.00  0.00     0.002 A 
ENDROOT
BRANCH   1   7
ATOM      7  C2  UNL d   1       0.227  -0.372  -0.331  0.00  0.00     0.056 C 
BRANCH   7   8
ATOM      8  C1  UNL d   1      -0.267   0.285  -1.625  0.00  0.00     0.007 C 
ATOM      9  C   UNL d   1      -1.726  -0.023  -1.935  0.00  0.00     0.009 C 
ENDBRANCH   7   8
ENDBRANCH   1   7
TORSDOF 2
ENDMDL
