MODEL 1
REMARK minimizedAffinity -2.73542786
REMARK minimizedRMSD -1
REMARK  2 active torsions:
REMARK  status: ('A' for Active; 'I' for Inactive)
REMARK    1  A    between atoms: C1_2  and  C2_3 
REMARK    2  A    between atoms: C2_3  and  C3_4 
ROOT
ATOM      1  C3  UNL d   1      -1.004  -0.113  -0.640  0.00  0.00    -0.075 A 
ATOM      2  C4  UNL d   1      -1.514   0.833  -1.540  0.00  0.00     0.002 A 
ATOM      3  C5  UNL d   1      -2.360   0.441  -2.578  0.00  0.00     0.002 A 
ATOM      4  C6  UNL d   1      -2.698  -0.902  -2.734  0.00  0.00    -0.004 A 
ATOM      5  C7  UNL d   1      -2.184  -1.853  -1.856  0.00  0.00     0.002 A 
ATOM      6  C8  UNL d   1      -1.341  -1.462  -0.814  0.00  0.00     0.002 A 
ENDROOT
BRANCH   1   7
ATOM      7  C2  UNL d   1      -0.111   0.309   0.503  0.00  0.00     0.056 C 
BRANCH   7   8
ATOM      8  C1  UNL d   1       1.374   0.007   0.279  0.00  0.00     0.007 C 
ATOM      9  C   UNL d   1       2.296   1.087   0.829  0.00  0.00     0.009 C 
ENDBRANCH   7   8
ENDBRANCH   1   7
TORSDOF 2
ENDMDL
