MODEL 1
REMARK minimizedAffinity 8.35349083
REMARK minimizedRMSD -1
REMARK  0 active torsions:
REMARK  status: ('A' for Active; 'I' for Inactive)
ROOT
ATOM      1  C   UNL d   1       2.744  -1.828   0.052  0.00  0.00     0.124 A 
ATOM      2  C1  UNL d   1       3.379  -0.716   0.587  0.00  0.00     0.062 A 
ATOM      3  C2  UNL d   1       2.717   0.507   0.646  0.00  0.00     0.162 A 
ATOM      4  C3  UNL d   1       1.412   0.624   0.168  0.00  0.00    -0.034 A 
ATOM      5  C4  UNL d   1       0.780  -0.499  -0.370  0.00  0.00     0.162 A 
ATOM      6  C5  UNL d   1       1.446  -1.719  -0.426  0.00  0.00     0.062 A 
ATOM      7  F   UNL d   1       0.831  -2.792  -0.943  0.00  0.00    -0.097 F 
ATOM      8  F1  UNL d   1      -0.474  -0.421  -0.838  0.00  0.00    -0.096 F 
ATOM      9  I   UNL d   1       0.419   2.451   0.253  0.00  0.00    -0.060 I 
ATOM     10  F2  UNL d   1       3.355   1.565   1.168  0.00  0.00    -0.096 F 
ATOM     11  F3  UNL d   1       4.633  -0.819   1.049  0.00  0.00    -0.097 F 
ATOM     12  F4  UNL d   1       3.384  -3.004  -0.003  0.00  0.00    -0.092 F 
ENDROOT
TORSDOF 0
ENDMDL
