MODEL 1
REMARK minimizedAffinity 10.3419867
REMARK minimizedRMSD -1
REMARK  0 active torsions:
REMARK  status: ('A' for Active; 'I' for Inactive)
ROOT
ATOM      1  C   UNL d   1       1.799  -0.755  -0.999  0.00  0.00     0.124 A 
ATOM      2  C1  UNL d   1       2.311   0.163  -0.092  0.00  0.00     0.062 A 
ATOM      3  C2  UNL d   1       1.483   1.131   0.467  0.00  0.00     0.162 A 
ATOM      4  C3  UNL d   1       0.132   1.187   0.122  0.00  0.00    -0.034 A 
ATOM      5  C4  UNL d   1      -0.375   0.261  -0.791  0.00  0.00     0.162 A 
ATOM      6  C5  UNL d   1       0.457  -0.705  -1.347  0.00  0.00     0.062 A 
ATOM      7  F   UNL d   1      -0.040  -1.591  -2.223  0.00  0.00    -0.097 F 
ATOM      8  F1  UNL d   1      -1.669   0.285  -1.145  0.00  0.00    -0.096 F 
ATOM      9  I   UNL d   1      -1.110   2.634   0.956  0.00  0.00    -0.060 I 
ATOM     10  F2  UNL d   1       2.005   2.006   1.340  0.00  0.00    -0.096 F 
ATOM     11  F3  UNL d   1       3.608   0.117   0.245  0.00  0.00    -0.097 F 
ATOM     12  F4  UNL d   1       2.599  -1.685  -1.536  0.00  0.00    -0.092 F 
ENDROOT
TORSDOF 0
ENDMDL
