MODEL 1
REMARK minimizedAffinity 28.0660954
REMARK minimizedRMSD -1
REMARK  0 active torsions:
REMARK  status: ('A' for Active; 'I' for Inactive)
ROOT
ATOM      1  C   UNL d   1       2.212  -1.061  -0.985  0.00  0.00     0.124 A 
ATOM      2  C1  UNL d   1       1.109  -0.645  -1.718  0.00  0.00     0.062 A 
ATOM      3  C2  UNL d   1       0.279   0.358  -1.224  0.00  0.00     0.162 A 
ATOM      4  C3  UNL d   1       0.549   0.952   0.008  0.00  0.00    -0.034 A 
ATOM      5  C4  UNL d   1       1.660   0.527   0.740  0.00  0.00     0.162 A 
ATOM      6  C5  UNL d   1       2.486  -0.475   0.242  0.00  0.00     0.062 A 
ATOM      7  F   UNL d   1       3.552  -0.876   0.951  0.00  0.00    -0.097 F 
ATOM      8  F1  UNL d   1       1.949   1.078   1.928  0.00  0.00    -0.096 F 
ATOM      9  I   UNL d   1      -0.689   2.452   0.749  0.00  0.00    -0.060 I 
ATOM     10  F2  UNL d   1      -0.780   0.740  -1.954  0.00  0.00    -0.096 F 
ATOM     11  F3  UNL d   1       0.841  -1.210  -2.904  0.00  0.00    -0.097 F 
ATOM     12  F4  UNL d   1       3.008  -2.027  -1.462  0.00  0.00    -0.092 F 
ENDROOT
TORSDOF 0
ENDMDL
