MODEL 1
REMARK minimizedAffinity 1.67829466
REMARK minimizedRMSD -1
REMARK  0 active torsions:
REMARK  status: ('A' for Active; 'I' for Inactive)
ROOT
ATOM      1  C   UNL d   1       2.703  -0.433   0.500  0.00  0.00     0.124 A 
ATOM      2  C1  UNL d   1       2.008  -1.407  -0.203  0.00  0.00     0.062 A 
ATOM      3  C2  UNL d   1       0.915  -1.057  -0.990  0.00  0.00     0.162 A 
ATOM      4  C3  UNL d   1       0.510   0.275  -1.079  0.00  0.00    -0.034 A 
ATOM      5  C4  UNL d   1       1.212   1.249  -0.368  0.00  0.00     0.162 A 
ATOM      6  C5  UNL d   1       2.304   0.894   0.418  0.00  0.00     0.062 A 
ATOM      7  F   UNL d   1       2.974   1.837   1.097  0.00  0.00    -0.097 F 
ATOM      8  F1  UNL d   1       0.850   2.539  -0.430  0.00  0.00    -0.096 F 
ATOM      9  I   UNL d   1      -1.124   0.803  -2.255  0.00  0.00    -0.060 I 
ATOM     10  F2  UNL d   1       0.263  -2.019  -1.659  0.00  0.00    -0.096 F 
ATOM     11  F3  UNL d   1       2.390  -2.690  -0.124  0.00  0.00    -0.097 F 
ATOM     12  F4  UNL d   1       3.753  -0.773   1.258  0.00  0.00    -0.092 F 
ENDROOT
TORSDOF 0
ENDMDL
