MODEL 1
REMARK minimizedAffinity 22.3198605
REMARK minimizedRMSD -1
REMARK  0 active torsions:
REMARK  status: ('A' for Active; 'I' for Inactive)
ROOT
ATOM      1  C   UNL d   1       2.813  -2.099   1.554  0.00  0.00     0.124 A 
ATOM      2  C1  UNL d   1       2.227  -1.255   2.487  0.00  0.00     0.062 A 
ATOM      3  C2  UNL d   1       1.606  -0.080   2.075  0.00  0.00     0.162 A 
ATOM      4  C3  UNL d   1       1.567   0.259   0.723  0.00  0.00    -0.034 A 
ATOM      5  C4  UNL d   1       2.160  -0.594  -0.210  0.00  0.00     0.162 A 
ATOM      6  C5  UNL d   1       2.780  -1.767   0.207  0.00  0.00     0.062 A 
ATOM      7  F   UNL d   1       3.346  -2.581  -0.696  0.00  0.00    -0.097 F 
ATOM      8  F1  UNL d   1       2.142  -0.298  -1.518  0.00  0.00    -0.096 F 
ATOM      9  I   UNL d   1       0.640   2.016   0.103  0.00  0.00    -0.060 I 
ATOM     10  F2  UNL d   1       1.047   0.716   2.999  0.00  0.00    -0.096 F 
ATOM     11  F3  UNL d   1       2.258  -1.573   3.790  0.00  0.00    -0.097 F 
ATOM     12  F4  UNL d   1       3.411  -3.229   1.953  0.00  0.00    -0.092 F 
ENDROOT
TORSDOF 0
ENDMDL
