MODEL 1
REMARK minimizedAffinity -0.486419857
REMARK minimizedRMSD -1
REMARK  0 active torsions:
REMARK  status: ('A' for Active; 'I' for Inactive)
ROOT
ATOM      1  O1  BZF d   1      -0.619  -3.247   0.496  0.00  0.00    -0.204 OA
ATOM      2  C2  BZF d   1       0.259  -4.250   0.859  0.00  0.00     0.174 A 
ATOM      3  C3  BZF d   1       1.507  -3.971   0.431  0.00  0.00    -0.012 A 
ATOM      4  C3A BZF d   1       1.420  -2.671  -0.160  0.00  0.00    -0.107 A 
ATOM      5  C4  BZF d   1       2.334  -1.844  -0.749  0.00  0.00     0.055 A 
ATOM      6  C5  BZF d   1       1.912  -0.672  -1.290  0.00  0.00    -0.016 A 
ATOM      7  C6  BZF d   1       0.585  -0.297  -1.266  0.00  0.00     0.022 A 
ATOM      8  C7  BZF d   1      -0.358  -1.081  -0.688  0.00  0.00     0.029 A 
ATOM      9  C7A BZF d   1       0.071  -2.251  -0.111  0.00  0.00     0.058 A 
ENDROOT
TORSDOF 0
ENDMDL
