MODEL 1
REMARK minimizedAffinity -5.53776598
REMARK minimizedRMSD -1
REMARK  0 active torsions:
REMARK  status: ('A' for Active; 'I' for Inactive)
ROOT
ATOM      1  O1  BZF d   1      -0.452  -4.369   0.865  0.00  0.00    -0.204 OA
ATOM      2  C2  BZF d   1       0.609  -5.251   0.929  0.00  0.00     0.174 A 
ATOM      3  C3  BZF d   1       1.710  -4.717   0.361  0.00  0.00    -0.012 A 
ATOM      4  C3A BZF d   1       1.336  -3.385  -0.004  0.00  0.00    -0.107 A 
ATOM      5  C4  BZF d   1       2.005  -2.351  -0.595  0.00  0.00     0.055 A 
ATOM      6  C5  BZF d   1       1.332  -1.205  -0.879  0.00  0.00    -0.016 A 
ATOM      7  C6  BZF d   1      -0.010  -1.061  -0.591  0.00  0.00     0.022 A 
ATOM      8  C7  BZF d   1      -0.714  -2.057  -0.000  0.00  0.00     0.029 A 
ATOM      9  C7A BZF d   1      -0.029  -3.204   0.318  0.00  0.00     0.058 A 
ENDROOT
TORSDOF 0
ENDMDL
