MODEL 1
REMARK minimizedAffinity -3.18776989
REMARK minimizedRMSD -1
REMARK  0 active torsions:
REMARK  status: ('A' for Active; 'I' for Inactive)
ROOT
ATOM      1  O1  BZF d   1      -0.466  -3.591   0.016  0.00  0.00    -0.204 OA
ATOM      2  C2  BZF d   1       0.703  -4.314  -0.126  0.00  0.00     0.174 A 
ATOM      3  C3  BZF d   1       1.708  -3.520  -0.546  0.00  0.00    -0.012 A 
ATOM      4  C3A BZF d   1       1.155  -2.201  -0.586  0.00  0.00    -0.107 A 
ATOM      5  C4  BZF d   1       1.668  -0.978  -0.911  0.00  0.00     0.055 A 
ATOM      6  C5  BZF d   1       0.844   0.103  -0.917  0.00  0.00    -0.016 A 
ATOM      7  C6  BZF d   1      -0.497  -0.005  -0.610  0.00  0.00     0.022 A 
ATOM      8  C7  BZF d   1      -1.049  -1.196  -0.276  0.00  0.00     0.029 A 
ATOM      9  C7A BZF d   1      -0.212  -2.284  -0.237  0.00  0.00     0.058 A 
ENDROOT
TORSDOF 0
ENDMDL
