MODEL 1
REMARK minimizedAffinity 8.5361166
REMARK minimizedRMSD -1
REMARK  0 active torsions:
REMARK  status: ('A' for Active; 'I' for Inactive)
ROOT
ATOM      1  O1  BZF d   1       5.424   4.100   1.533  0.00  0.00    -0.204 OA
ATOM      2  C2  BZF d   1       5.999   5.284   1.115  0.00  0.00     0.174 A 
ATOM      3  C3  BZF d   1       5.132   6.000   0.370  0.00  0.00    -0.012 A 
ATOM      4  C3A BZF d   1       3.910   5.256   0.395  0.00  0.00    -0.107 A 
ATOM      5  C4  BZF d   1       2.675   5.461  -0.149  0.00  0.00     0.055 A 
ATOM      6  C5  BZF d   1       1.720   4.506   0.003  0.00  0.00    -0.016 A 
ATOM      7  C6  BZF d   1       1.967   3.334   0.687  0.00  0.00     0.022 A 
ATOM      8  C7  BZF d   1       3.176   3.088   1.248  0.00  0.00     0.029 A 
ATOM      9  C7A BZF d   1       4.133   4.065   1.125  0.00  0.00     0.058 A 
ENDROOT
TORSDOF 0
ENDMDL
