MODEL 1
REMARK minimizedAffinity -1.49849343
REMARK minimizedRMSD -1
REMARK  0 active torsions:
REMARK  status: ('A' for Active; 'I' for Inactive)
ROOT
ATOM      1  O1  BZF d   1       2.351  -3.297  -0.180  0.00  0.00    -0.204 OA
ATOM      2  C2  BZF d   1       1.558  -3.938   0.752  0.00  0.00     0.174 A 
ATOM      3  C3  BZF d   1       0.465  -3.202   1.037  0.00  0.00    -0.012 A 
ATOM      4  C3A BZF d   1       0.535  -2.070   0.165  0.00  0.00    -0.107 A 
ATOM      5  C4  BZF d   1      -0.273  -0.988  -0.036  0.00  0.00     0.055 A 
ATOM      6  C5  BZF d   1       0.119  -0.025  -0.912  0.00  0.00    -0.016 A 
ATOM      7  C6  BZF d   1       1.312  -0.110  -1.599  0.00  0.00     0.022 A 
ATOM      8  C7  BZF d   1       2.144  -1.167  -1.436  0.00  0.00     0.029 A 
ATOM      9  C7A BZF d   1       1.736  -2.158  -0.577  0.00  0.00     0.058 A 
ENDROOT
TORSDOF 0
ENDMDL
