MODEL 1
REMARK minimizedAffinity 8.26219368
REMARK minimizedRMSD -1
REMARK  0 active torsions:
REMARK  status: ('A' for Active; 'I' for Inactive)
ROOT
ATOM      1  O1  BZF d   1       3.161  -1.791   0.277  0.00  0.00    -0.204 OA
ATOM      2  C2  BZF d   1       3.125  -3.171   0.208  0.00  0.00     0.174 A 
ATOM      3  C3  BZF d   1       1.992  -3.590  -0.392  0.00  0.00    -0.012 A 
ATOM      4  C3A BZF d   1       1.319  -2.395  -0.801  0.00  0.00    -0.107 A 
ATOM      5  C4  BZF d   1       0.148  -2.157  -1.462  0.00  0.00     0.055 A 
ATOM      6  C5  BZF d   1      -0.261  -0.873  -1.640  0.00  0.00    -0.016 A 
ATOM      7  C6  BZF d   1       0.473   0.194  -1.166  0.00  0.00     0.022 A 
ATOM      8  C7  BZF d   1       1.643   0.008  -0.508  0.00  0.00     0.029 A 
ATOM      9  C7A BZF d   1       2.075  -1.287  -0.356  0.00  0.00     0.058 A 
ENDROOT
TORSDOF 0
ENDMDL
