MODEL 1
REMARK minimizedAffinity -6.29979086
REMARK minimizedRMSD -1
REMARK  0 active torsions:
REMARK  status: ('A' for Active; 'I' for Inactive)
ROOT
ATOM      1  O1  BZF d   1      -0.103  -4.083  -0.089  0.00  0.00    -0.204 OA
ATOM      2  C2  BZF d   1       1.002  -4.767   0.380  0.00  0.00     0.174 A 
ATOM      3  C3  BZF d   1       2.060  -3.940   0.503  0.00  0.00    -0.012 A 
ATOM      4  C3A BZF d   1       1.562  -2.640   0.173  0.00  0.00    -0.107 A 
ATOM      5  C4  BZF d   1       2.133  -1.400   0.127  0.00  0.00     0.055 A 
ATOM      6  C5  BZF d   1       1.390  -0.348  -0.306  0.00  0.00    -0.016 A 
ATOM      7  C6  BZF d   1       0.078  -0.499  -0.703  0.00  0.00     0.022 A 
ATOM      8  C7  BZF d   1      -0.533  -1.709  -0.670  0.00  0.00     0.029 A 
ATOM      9  C7A BZF d   1       0.205  -2.769  -0.203  0.00  0.00     0.058 A 
ENDROOT
TORSDOF 0
ENDMDL
