MODEL 1
REMARK minimizedAffinity -1.61788988
REMARK minimizedRMSD -1
REMARK  0 active torsions:
REMARK  status: ('A' for Active; 'I' for Inactive)
ROOT
ATOM      1  O1  BZF d   1      -1.704  -3.791  -0.808  0.00  0.00    -0.204 OA
ATOM      2  C2  BZF d   1      -1.459  -4.509   0.346  0.00  0.00     0.174 A 
ATOM      3  C3  BZF d   1      -0.479  -3.932   1.070  0.00  0.00    -0.012 A 
ATOM      4  C3A BZF d   1      -0.150  -2.730   0.368  0.00  0.00    -0.107 A 
ATOM      5  C4  BZF d   1       0.740  -1.721   0.599  0.00  0.00     0.055 A 
ATOM      6  C5  BZF d   1       0.866  -0.727  -0.319  0.00  0.00    -0.016 A 
ATOM      7  C6  BZF d   1       0.123  -0.714  -1.481  0.00  0.00     0.022 A 
ATOM      8  C7  BZF d   1      -0.777  -1.691  -1.753  0.00  0.00     0.029 A 
ATOM      9  C7A BZF d   1      -0.930  -2.679  -0.811  0.00  0.00     0.058 A 
ENDROOT
TORSDOF 0
ENDMDL
