MODEL 1
REMARK minimizedAffinity -2.8007524
REMARK minimizedRMSD -1
REMARK  0 active torsions:
REMARK  status: ('A' for Active; 'I' for Inactive)
ROOT
ATOM      1  O1  BZF d   1       2.166  -3.177   0.848  0.00  0.00    -0.204 OA
ATOM      2  C2  BZF d   1       1.051  -3.990   0.785  0.00  0.00     0.174 A 
ATOM      3  C3  BZF d   1       0.035  -3.361   0.160  0.00  0.00    -0.012 A 
ATOM      4  C3A BZF d   1       0.576  -2.109  -0.271  0.00  0.00    -0.107 A 
ATOM      5  C4  BZF d   1       0.058  -1.050  -0.961  0.00  0.00     0.055 A 
ATOM      6  C5  BZF d   1       0.829   0.052  -1.156  0.00  0.00    -0.016 A 
ATOM      7  C6  BZF d   1       2.118   0.132  -0.670  0.00  0.00     0.022 A 
ATOM      8  C7  BZF d   1       2.676  -0.895   0.016  0.00  0.00     0.029 A 
ATOM      9  C7A BZF d   1       1.911  -2.023   0.186  0.00  0.00     0.058 A 
ENDROOT
TORSDOF 0
ENDMDL
