MODEL 1
REMARK minimizedAffinity 4.38980389
REMARK minimizedRMSD -1
REMARK  0 active torsions:
REMARK  status: ('A' for Active; 'I' for Inactive)
ROOT
ATOM      1  O1  BZF d   1       1.833  -0.880  -1.202  0.00  0.00    -0.204 OA
ATOM      2  C2  BZF d   1       0.694  -0.129  -1.417  0.00  0.00     0.174 A 
ATOM      3  C3  BZF d   1      -0.390  -0.746  -0.904  0.00  0.00    -0.012 A 
ATOM      4  C3A BZF d   1       0.116  -1.915  -0.252  0.00  0.00    -0.107 A 
ATOM      5  C4  BZF d   1      -0.472  -2.925   0.455  0.00  0.00     0.055 A 
ATOM      6  C5  BZF d   1       0.295  -3.956   0.896  0.00  0.00    -0.016 A 
ATOM      7  C6  BZF d   1       1.650  -4.013   0.644  0.00  0.00     0.022 A 
ATOM      8  C7  BZF d   1       2.279  -3.033  -0.049  0.00  0.00     0.029 A 
ATOM      9  C7A BZF d   1       1.512  -1.973  -0.468  0.00  0.00     0.058 A 
ENDROOT
TORSDOF 0
ENDMDL
