MODEL 1
REMARK minimizedAffinity -2.29813266
REMARK minimizedRMSD -1
REMARK  0 active torsions:
REMARK  status: ('A' for Active; 'I' for Inactive)
ROOT
ATOM      1  O1  BZF d   1       0.265  -3.739   0.521  0.00  0.00    -0.204 OA
ATOM      2  C2  BZF d   1       1.628  -3.949   0.617  0.00  0.00     0.174 A 
ATOM      3  C3  BZF d   1       2.309  -2.920   0.073  0.00  0.00    -0.012 A 
ATOM      4  C3A BZF d   1       1.311  -1.968  -0.309  0.00  0.00    -0.107 A 
ATOM      5  C4  BZF d   1       1.365  -0.732  -0.888  0.00  0.00     0.055 A 
ATOM      6  C5  BZF d   1       0.205  -0.095  -1.196  0.00  0.00    -0.016 A 
ATOM      7  C6  BZF d   1      -1.025  -0.666  -0.942  0.00  0.00     0.022 A 
ATOM      8  C7  BZF d   1      -1.130  -1.887  -0.364  0.00  0.00     0.029 A 
ATOM      9  C7A BZF d   1       0.041  -2.519  -0.023  0.00  0.00     0.058 A 
ENDROOT
TORSDOF 0
ENDMDL
