MODEL 1
REMARK minimizedAffinity -6.63248539
REMARK minimizedRMSD -1
REMARK  0 active torsions:
REMARK  status: ('A' for Active; 'I' for Inactive)
ROOT
ATOM      1  O1  BZF d   1      -0.674  -3.530   0.599  0.00  0.00    -0.204 OA
ATOM      2  C2  BZF d   1       0.254  -4.510   0.891  0.00  0.00     0.174 A 
ATOM      3  C3  BZF d   1       1.496  -4.109   0.552  0.00  0.00    -0.012 A 
ATOM      4  C3A BZF d   1       1.346  -2.759   0.101  0.00  0.00    -0.107 A 
ATOM      5  C4  BZF d   1       2.224  -1.818  -0.355  0.00  0.00     0.055 A 
ATOM      6  C5  BZF d   1       1.745  -0.621  -0.785  0.00  0.00    -0.016 A 
ATOM      7  C6  BZF d   1       0.395  -0.335  -0.780  0.00  0.00     0.022 A 
ATOM      8  C7  BZF d   1      -0.514  -1.235  -0.333  0.00  0.00     0.029 A 
ATOM      9  C7A BZF d   1      -0.030  -2.433   0.134  0.00  0.00     0.058 A 
ENDROOT
TORSDOF 0
ENDMDL
