MODEL 1
REMARK minimizedAffinity -2.69758439
REMARK minimizedRMSD -1
REMARK  0 active torsions:
REMARK  status: ('A' for Active; 'I' for Inactive)
ROOT
ATOM      1  O1  BZF d   1       0.246  -4.248   0.663  0.00  0.00    -0.204 OA
ATOM      2  C2  BZF d   1       1.358  -4.893   1.168  0.00  0.00     0.174 A 
ATOM      3  C3  BZF d   1       2.482  -4.207   0.876  0.00  0.00    -0.012 A 
ATOM      4  C3A BZF d   1       2.037  -3.015   0.222  0.00  0.00    -0.107 A 
ATOM      5  C4  BZF d   1       2.684  -1.928  -0.293  0.00  0.00     0.055 A 
ATOM      6  C5  BZF d   1       1.962  -0.970  -0.930  0.00  0.00    -0.016 A 
ATOM      7  C6  BZF d   1       0.594  -1.068  -1.076  0.00  0.00     0.022 A 
ATOM      8  C7  BZF d   1      -0.093  -2.125  -0.577  0.00  0.00     0.029 A 
ATOM      9  C7A BZF d   1       0.629  -3.079   0.097  0.00  0.00     0.058 A 
ENDROOT
TORSDOF 0
ENDMDL
