MODEL 1
REMARK minimizedAffinity -0.67271167
REMARK minimizedRMSD -1
REMARK  0 active torsions:
REMARK  status: ('A' for Active; 'I' for Inactive)
ROOT
ATOM      1  O1  BZF d   1      -0.349  -4.137   0.350  0.00  0.00    -0.204 OA
ATOM      2  C2  BZF d   1       0.723  -4.967   0.620  0.00  0.00     0.174 A 
ATOM      3  C3  BZF d   1       1.887  -4.358   0.317  0.00  0.00    -0.012 A 
ATOM      4  C3A BZF d   1       1.526  -3.033  -0.086  0.00  0.00    -0.107 A 
ATOM      5  C4  BZF d   1       2.245  -1.946  -0.491  0.00  0.00     0.055 A 
ATOM      6  C5  BZF d   1       1.584  -0.825  -0.884  0.00  0.00    -0.016 A 
ATOM      7  C6  BZF d   1       0.207  -0.759  -0.890  0.00  0.00     0.022 A 
ATOM      8  C7  BZF d   1      -0.550  -1.811  -0.492  0.00  0.00     0.029 A 
ATOM      9  C7A BZF d   1       0.115  -2.933  -0.063  0.00  0.00     0.058 A 
ENDROOT
TORSDOF 0
ENDMDL
