MODEL 1
REMARK minimizedAffinity -5.0830946
REMARK minimizedRMSD -1
REMARK  0 active torsions:
REMARK  status: ('A' for Active; 'I' for Inactive)
ROOT
ATOM      1  O1  BZF d   1      -0.104  -3.963   1.011  0.00  0.00    -0.204 OA
ATOM      2  C2  BZF d   1       1.013  -4.773   0.940  0.00  0.00     0.174 A 
ATOM      3  C3  BZF d   1       1.984  -4.185   0.212  0.00  0.00    -0.012 A 
ATOM      4  C3A BZF d   1       1.474  -2.889  -0.119  0.00  0.00    -0.107 A 
ATOM      5  C4  BZF d   1       1.982  -1.830  -0.816  0.00  0.00     0.055 A 
ATOM      6  C5  BZF d   1       1.200  -0.739  -1.022  0.00  0.00    -0.016 A 
ATOM      7  C6  BZF d   1      -0.095  -0.674  -0.550  0.00  0.00     0.022 A 
ATOM      8  C7  BZF d   1      -0.641  -1.697   0.151  0.00  0.00     0.029 A 
ATOM      9  C7A BZF d   1       0.159  -2.789   0.389  0.00  0.00     0.058 A 
ENDROOT
TORSDOF 0
ENDMDL
