MODEL 1
REMARK minimizedAffinity -3.5078373
REMARK minimizedRMSD -1
REMARK  0 active torsions:
REMARK  status: ('A' for Active; 'I' for Inactive)
ROOT
ATOM      1  O1  BZF d   1       0.285  -3.804   0.399  0.00  0.00    -0.204 OA
ATOM      2  C2  BZF d   1      -1.078  -3.610   0.514  0.00  0.00     0.174 A 
ATOM      3  C3  BZF d   1      -1.407  -2.337   0.214  0.00  0.00    -0.012 A 
ATOM      4  C3A BZF d   1      -0.184  -1.719  -0.197  0.00  0.00    -0.107 A 
ATOM      5  C4  BZF d   1       0.133  -0.464  -0.632  0.00  0.00     0.055 A 
ATOM      6  C5  BZF d   1       1.434  -0.162  -0.884  0.00  0.00    -0.016 A 
ATOM      7  C6  BZF d   1       2.442  -1.087  -0.707  0.00  0.00     0.022 A 
ATOM      8  C7  BZF d   1       2.175  -2.346  -0.283  0.00  0.00     0.029 A 
ATOM      9  C7A BZF d   1       0.858  -2.665  -0.059  0.00  0.00     0.058 A 
ENDROOT
TORSDOF 0
ENDMDL
