MODEL 1
REMARK minimizedAffinity -2.83725715
REMARK minimizedRMSD -1
REMARK  0 active torsions:
REMARK  status: ('A' for Active; 'I' for Inactive)
ROOT
ATOM      1  O1  BZF d   1      -0.568  -4.577   1.252  0.00  0.00    -0.204 OA
ATOM      2  C2  BZF d   1       0.542  -5.377   1.445  0.00  0.00     0.174 A 
ATOM      3  C3  BZF d   1       1.654  -4.775   0.976  0.00  0.00    -0.012 A 
ATOM      4  C3A BZF d   1       1.225  -3.481   0.540  0.00  0.00    -0.107 A 
ATOM      5  C4  BZF d   1       1.875  -2.412  -0.008  0.00  0.00     0.055 A 
ATOM      6  C5  BZF d   1       1.154  -1.325  -0.388  0.00  0.00    -0.016 A 
ATOM      7  C6  BZF d   1      -0.216  -1.274  -0.240  0.00  0.00     0.022 A 
ATOM      8  C7  BZF d   1      -0.904  -2.308   0.303  0.00  0.00     0.029 A 
ATOM      9  C7A BZF d   1      -0.175  -3.395   0.719  0.00  0.00     0.058 A 
ENDROOT
TORSDOF 0
ENDMDL
