MODEL 1
REMARK minimizedAffinity 9.14530182
REMARK minimizedRMSD -1
REMARK  2 active torsions:
REMARK  status: ('A' for Active; 'I' for Inactive)
REMARK    1  A    between atoms: C2'_3  and  C1'_4 
REMARK    2  A    between atoms: C1'_4  and  C1_5 
ROOT
ATOM      1  C1  I4B d   1       2.353  -2.207   0.249  0.00  0.00    -0.075 A 
ATOM      2  C2  I4B d   1       3.213  -2.739  -0.679  0.00  0.00     0.003 A 
ATOM      3  C3  I4B d   1       4.025  -3.850  -0.344  0.00  0.00     0.002 A 
ATOM      4  C4  I4B d   1       3.982  -4.361   0.937  0.00  0.00    -0.004 A 
ATOM      5  C5  I4B d   1       3.093  -3.835   1.870  0.00  0.00     0.002 A 
ATOM      6  C6  I4B d   1       2.264  -2.759   1.520  0.00  0.00     0.003 A 
ENDROOT
BRANCH   1   7
ATOM      7  C1' I4B d   1       1.535  -1.013  -0.128  0.00  0.00     0.060 C 
BRANCH   7   8
ATOM      8  C2' I4B d   1       2.179  -0.369  -1.339  0.00  0.00    -0.013 C 
ATOM      9  C4' I4B d   1       1.147   0.269  -2.231  0.00  0.00     0.013 C 
ATOM     10  C3' I4B d   1       3.173   0.642  -0.852  0.00  0.00     0.013 C 
ENDBRANCH   7   8
ENDBRANCH   1   7
TORSDOF 2
ENDMDL
