MODEL 1
REMARK minimizedAffinity 14.1747532
REMARK minimizedRMSD -1
REMARK  2 active torsions:
REMARK  status: ('A' for Active; 'I' for Inactive)
REMARK    1  A    between atoms: C2'_3  and  C1'_4 
REMARK    2  A    between atoms: C1'_4  and  C1_5 
ROOT
ATOM      1  C1  I4B d   1       1.377  -1.528   1.176  0.00  0.00    -0.075 A 
ATOM      2  C2  I4B d   1       2.299  -2.544   1.127  0.00  0.00     0.003 A 
ATOM      3  C3  I4B d   1       3.326  -2.529   0.152  0.00  0.00     0.002 A 
ATOM      4  C4  I4B d   1       3.363  -1.512  -0.779  0.00  0.00    -0.004 A 
ATOM      5  C5  I4B d   1       2.442  -0.471  -0.714  0.00  0.00     0.002 A 
ATOM      6  C6  I4B d   1       1.450  -0.472   0.277  0.00  0.00     0.003 A 
ENDROOT
BRANCH   1   7
ATOM      7  C1' I4B d   1       0.287  -1.592   2.198  0.00  0.00     0.060 C 
BRANCH   7   8
ATOM      8  C2' I4B d   1       0.005  -0.180   2.669  0.00  0.00    -0.013 C 
ATOM      9  C4' I4B d   1      -1.331  -0.093   3.360  0.00  0.00     0.013 C 
ATOM     10  C3' I4B d   1       1.117   0.232   3.587  0.00  0.00     0.013 C 
ENDBRANCH   7   8
ENDBRANCH   1   7
TORSDOF 2
ENDMDL
