MODEL 1
REMARK minimizedAffinity 7.19618464
REMARK minimizedRMSD -1
REMARK  2 active torsions:
REMARK  status: ('A' for Active; 'I' for Inactive)
REMARK    1  A    between atoms: C2'_3  and  C1'_4 
REMARK    2  A    between atoms: C1'_4  and  C1_5 
ROOT
ATOM      1  C1  I4B d   1       4.438  -4.118   2.408  0.00  0.00    -0.075 A 
ATOM      2  C2  I4B d   1       3.142  -3.704   2.584  0.00  0.00     0.003 A 
ATOM      3  C3  I4B d   1       2.383  -3.247   1.480  0.00  0.00     0.002 A 
ATOM      4  C4  I4B d   1       2.972  -3.172   0.234  0.00  0.00    -0.004 A 
ATOM      5  C5  I4B d   1       4.280  -3.614   0.053  0.00  0.00     0.002 A 
ATOM      6  C6  I4B d   1       5.014  -4.102   1.144  0.00  0.00     0.003 A 
ENDROOT
BRANCH   1   7
ATOM      7  C1' I4B d   1       5.221  -4.565   3.601  0.00  0.00     0.060 C 
BRANCH   7   8
ATOM      8  C2' I4B d   1       4.832  -3.684   4.771  0.00  0.00    -0.013 C 
ATOM      9  C4' I4B d   1       4.544  -4.506   6.000  0.00  0.00     0.013 C 
ATOM     10  C3' I4B d   1       5.952  -2.718   5.016  0.00  0.00     0.013 C 
ENDBRANCH   7   8
ENDBRANCH   1   7
TORSDOF 2
ENDMDL
