MODEL 1
REMARK minimizedAffinity 9.67758942
REMARK minimizedRMSD -1
REMARK  2 active torsions:
REMARK  status: ('A' for Active; 'I' for Inactive)
REMARK    1  A    between atoms: C2'_3  and  C1'_4 
REMARK    2  A    between atoms: C1'_4  and  C1_5 
ROOT
ATOM      1  C1  I4B d   1      -5.016   1.781  -4.977  0.00  0.00    -0.075 A 
ATOM      2  C2  I4B d   1      -6.000   2.539  -5.563  0.00  0.00     0.003 A 
ATOM      3  C3  I4B d   1      -5.958   3.951  -5.477  0.00  0.00     0.002 A 
ATOM      4  C4  I4B d   1      -4.948   4.559  -4.759  0.00  0.00    -0.004 A 
ATOM      5  C5  I4B d   1      -3.939   3.791  -4.185  0.00  0.00     0.002 A 
ATOM      6  C6  I4B d   1      -3.966   2.394  -4.306  0.00  0.00     0.003 A 
ENDROOT
BRANCH   1   7
ATOM      7  C1' I4B d   1      -5.109   0.291  -5.059  0.00  0.00     0.060 C 
BRANCH   7   8
ATOM      8  C2' I4B d   1      -5.719  -0.210  -3.766  0.00  0.00    -0.013 C 
ATOM      9  C4' I4B d   1      -5.662  -1.713  -3.682  0.00  0.00     0.013 C 
ATOM     10  C3' I4B d   1      -4.978   0.424  -2.628  0.00  0.00     0.013 C 
ENDBRANCH   7   8
ENDBRANCH   1   7
TORSDOF 2
ENDMDL
