MODEL 1
REMARK minimizedAffinity 1.88603497
REMARK minimizedRMSD -1
REMARK  2 active torsions:
REMARK  status: ('A' for Active; 'I' for Inactive)
REMARK    1  A    between atoms: C2'_3  and  C1'_4 
REMARK    2  A    between atoms: C1'_4  and  C1_5 
ROOT
ATOM      1  C1  I4B d   1       0.082  -1.247   1.670  0.00  0.00    -0.075 A 
ATOM      2  C2  I4B d   1      -1.123  -0.590   1.687  0.00  0.00     0.003 A 
ATOM      3  C3  I4B d   1      -1.503   0.229   0.597  0.00  0.00     0.002 A 
ATOM      4  C4  I4B d   1      -0.632   0.403  -0.460  0.00  0.00    -0.004 A 
ATOM      5  C5  I4B d   1       0.579  -0.282  -0.485  0.00  0.00     0.002 A 
ATOM      6  C6  I4B d   1       0.934  -1.122   0.580  0.00  0.00     0.003 A 
ENDROOT
BRANCH   1   7
ATOM      7  C1' I4B d   1       0.467  -2.078   2.853  0.00  0.00     0.060 C 
BRANCH   7   8
ATOM      8  C2' I4B d   1       1.122  -3.345   2.341  0.00  0.00    -0.013 C 
ATOM      9  C4' I4B d   1       2.367  -3.669   3.123  0.00  0.00     0.013 C 
ATOM     10  C3' I4B d   1       0.119  -4.455   2.434  0.00  0.00     0.013 C 
ENDBRANCH   7   8
ENDBRANCH   1   7
TORSDOF 2
ENDMDL
