MODEL 1
REMARK minimizedAffinity -1.89780724
REMARK minimizedRMSD -1
REMARK  2 active torsions:
REMARK  status: ('A' for Active; 'I' for Inactive)
REMARK    1  A    between atoms: C2'_3  and  C1'_4 
REMARK    2  A    between atoms: C1'_4  and  C1_5 
ROOT
ATOM      1  C1  I4B d   1       2.208  -3.218   1.276  0.00  0.00    -0.075 A 
ATOM      2  C2  I4B d   1       2.852  -2.572   0.251  0.00  0.00     0.003 A 
ATOM      3  C3  I4B d   1       2.407  -1.299  -0.181  0.00  0.00     0.002 A 
ATOM      4  C4  I4B d   1       1.290  -0.736   0.402  0.00  0.00    -0.004 A 
ATOM      5  C5  I4B d   1       0.651  -1.383   1.456  0.00  0.00     0.002 A 
ATOM      6  C6  I4B d   1       1.120  -2.626   1.905  0.00  0.00     0.003 A 
ENDROOT
BRANCH   1   7
ATOM      7  C1' I4B d   1       2.685  -4.576   1.685  0.00  0.00     0.060 C 
BRANCH   7   8
ATOM      8  C2' I4B d   1       4.090  -4.431   2.234  0.00  0.00    -0.013 C 
ATOM      9  C4' I4B d   1       4.071  -4.164   3.716  0.00  0.00     0.013 C 
ATOM     10  C3' I4B d   1       4.841  -5.690   1.921  0.00  0.00     0.013 C 
ENDBRANCH   7   8
ENDBRANCH   1   7
TORSDOF 2
ENDMDL
