MODEL 1
REMARK minimizedAffinity 1.66432905
REMARK minimizedRMSD -1
REMARK  2 active torsions:
REMARK  status: ('A' for Active; 'I' for Inactive)
REMARK    1  A    between atoms: C2'_3  and  C1'_4 
REMARK    2  A    between atoms: C1'_4  and  C1_5 
ROOT
ATOM      1  C1  I4B d   1      -0.617  -0.943   1.591  0.00  0.00    -0.075 A 
ATOM      2  C2  I4B d   1       0.516  -0.928   0.815  0.00  0.00     0.003 A 
ATOM      3  C3  I4B d   1       0.459  -0.461  -0.520  0.00  0.00     0.002 A 
ATOM      4  C4  I4B d   1      -0.752  -0.068  -1.052  0.00  0.00    -0.004 A 
ATOM      5  C5  I4B d   1      -1.895  -0.062  -0.257  0.00  0.00     0.002 A 
ATOM      6  C6  I4B d   1      -1.825  -0.491   1.077  0.00  0.00     0.003 A 
ENDROOT
BRANCH   1   7
ATOM      7  C1' I4B d   1      -0.527  -1.473   2.987  0.00  0.00     0.060 C 
BRANCH   7   8
ATOM      8  C2' I4B d   1      -0.781  -2.966   2.936  0.00  0.00    -0.013 C 
ATOM      9  C4' I4B d   1       0.509  -3.736   2.838  0.00  0.00     0.013 C 
ATOM     10  C3' I4B d   1      -1.548  -3.348   4.167  0.00  0.00     0.013 C 
ENDBRANCH   7   8
ENDBRANCH   1   7
TORSDOF 2
ENDMDL
