MODEL 1
REMARK minimizedAffinity 0.55008322
REMARK minimizedRMSD -1
REMARK  0 active torsions:
REMARK  status: ('A' for Active; 'I' for Inactive)
ROOT
ATOM      1  C   UNL d   1      -5.154   5.605   5.996  0.00  0.00     0.172 C 
ATOM      2  N   UNL d   1      -4.365   4.400   5.896  0.00  0.00    -0.070 N 
ATOM      3  C1  UNL d   1      -3.013   4.346   5.684  0.00  0.00    -0.004 A 
ATOM      4  C2  UNL d   1      -2.644   3.019   5.654  0.00  0.00    -0.047 A 
ATOM      5  C3  UNL d   1      -3.814   2.248   5.853  0.00  0.00    -0.047 A 
ATOM      6  C4  UNL d   1      -4.865   3.129   6.000  0.00  0.00    -0.004 A 
ENDROOT
TORSDOF 0
ENDMDL
