MODEL 1
REMARK minimizedAffinity -1.95636773
REMARK minimizedRMSD -1
REMARK  0 active torsions:
REMARK  status: ('A' for Active; 'I' for Inactive)
ROOT
ATOM      1  C   UNL d   1      -4.670   5.959  -4.270  0.00  0.00     0.172 C 
ATOM      2  N   UNL d   1      -3.664   5.021  -4.709  0.00  0.00    -0.070 N 
ATOM      3  C1  UNL d   1      -3.226   4.864  -5.997  0.00  0.00    -0.004 A 
ATOM      4  C2  UNL d   1      -2.267   3.875  -6.000  0.00  0.00    -0.047 A 
ATOM      5  C3  UNL d   1      -2.125   3.420  -4.668  0.00  0.00    -0.047 A 
ATOM      6  C4  UNL d   1      -3.001   4.146  -3.889  0.00  0.00    -0.004 A 
ENDROOT
TORSDOF 0
ENDMDL
