MODEL 1
REMARK minimizedAffinity 2.17509341
REMARK minimizedRMSD -1
REMARK  0 active torsions:
REMARK  status: ('A' for Active; 'I' for Inactive)
ROOT
ATOM      1  C   UNL d   1      -3.756   2.992   2.993  0.00  0.00     0.172 C 
ATOM      2  N   UNL d   1      -4.615   4.086   3.381  0.00  0.00    -0.070 N 
ATOM      3  C1  UNL d   1      -4.881   5.199   2.628  0.00  0.00    -0.004 A 
ATOM      4  C2  UNL d   1      -5.741   6.000   3.348  0.00  0.00    -0.047 A 
ATOM      5  C3  UNL d   1      -6.000   5.347   4.576  0.00  0.00    -0.047 A 
ATOM      6  C4  UNL d   1      -5.290   4.165   4.571  0.00  0.00    -0.004 A 
ENDROOT
TORSDOF 0
ENDMDL
