MODEL 1
REMARK minimizedAffinity 3.9849813
REMARK minimizedRMSD -1
REMARK  0 active torsions:
REMARK  status: ('A' for Active; 'I' for Inactive)
ROOT
ATOM      1  C   UNL d   1      -2.714  -2.373   2.931  0.00  0.00     0.172 C 
ATOM      2  N   UNL d   1      -2.259  -1.766   1.702  0.00  0.00    -0.070 N 
ATOM      3  C1  UNL d   1      -2.810  -0.665   1.103  0.00  0.00    -0.004 A 
ATOM      4  C2  UNL d   1      -2.091  -0.403  -0.043  0.00  0.00    -0.047 A 
ATOM      5  C3  UNL d   1      -1.073  -1.381  -0.137  0.00  0.00    -0.047 A 
ATOM      6  C4  UNL d   1      -1.200  -2.212   0.957  0.00  0.00    -0.004 A 
ENDROOT
TORSDOF 0
ENDMDL
