MODEL 1
REMARK minimizedAffinity 5.13259792
REMARK minimizedRMSD -1
REMARK  0 active torsions:
REMARK  status: ('A' for Active; 'I' for Inactive)
ROOT
ATOM      1  C   UNL d   1      -0.788  -0.096  -1.753  0.00  0.00     0.172 C 
ATOM      2  N   UNL d   1      -0.916  -0.593  -0.404  0.00  0.00    -0.070 N 
ATOM      3  C1  UNL d   1      -1.826  -0.160   0.523  0.00  0.00    -0.004 A 
ATOM      4  C2  UNL d   1      -1.625  -0.881   1.681  0.00  0.00    -0.047 A 
ATOM      5  C3  UNL d   1      -0.557  -1.777   1.441  0.00  0.00    -0.047 A 
ATOM      6  C4  UNL d   1      -0.136  -1.578   0.143  0.00  0.00    -0.004 A 
ENDROOT
TORSDOF 0
ENDMDL
