MODEL 1
REMARK minimizedAffinity 0.00900969747
REMARK minimizedRMSD -1
REMARK  0 active torsions:
REMARK  status: ('A' for Active; 'I' for Inactive)
ROOT
ATOM      1  C   UNL d   1      -2.629   4.123   3.770  0.00  0.00     0.172 C 
ATOM      2  N   UNL d   1      -3.883   4.239   4.476  0.00  0.00    -0.070 N 
ATOM      3  C1  UNL d   1      -4.125   5.063   5.542  0.00  0.00    -0.004 A 
ATOM      4  C2  UNL d   1      -5.435   4.881   5.928  0.00  0.00    -0.047 A 
ATOM      5  C3  UNL d   1      -6.000   3.912   5.064  0.00  0.00    -0.047 A 
ATOM      6  C4  UNL d   1      -5.017   3.532   4.175  0.00  0.00    -0.004 A 
ENDROOT
TORSDOF 0
ENDMDL
