MODEL 1
REMARK minimizedAffinity 2.38838816
REMARK minimizedRMSD -1
REMARK  0 active torsions:
REMARK  status: ('A' for Active; 'I' for Inactive)
ROOT
ATOM      1  C   UNL d   1       0.008   2.625  -5.008  0.00  0.00     0.172 C 
ATOM      2  N   UNL d   1      -0.231   1.634  -3.986  0.00  0.00    -0.070 N 
ATOM      3  C1  UNL d   1       0.610   1.342  -2.945  0.00  0.00    -0.004 A 
ATOM      4  C2  UNL d   1       0.024   0.345  -2.196  0.00  0.00    -0.047 A 
ATOM      5  C3  UNL d   1      -1.211   0.025  -2.808  0.00  0.00    -0.047 A 
ATOM      6  C4  UNL d   1      -1.344   0.838  -3.914  0.00  0.00    -0.004 A 
ENDROOT
TORSDOF 0
ENDMDL
