MODEL 1
REMARK minimizedAffinity -1.84767067
REMARK minimizedRMSD -1
REMARK  0 active torsions:
REMARK  status: ('A' for Active; 'I' for Inactive)
ROOT
ATOM      1  C   UNL d   1      -5.415   5.611   5.994  0.00  0.00     0.172 C 
ATOM      2  N   UNL d   1      -5.093   4.203   5.995  0.00  0.00    -0.070 N 
ATOM      3  C1  UNL d   1      -6.000   3.177   6.000  0.00  0.00    -0.004 A 
ATOM      4  C2  UNL d   1      -5.296   1.992   5.999  0.00  0.00    -0.047 A 
ATOM      5  C3  UNL d   1      -3.919   2.317   5.994  0.00  0.00    -0.047 A 
ATOM      6  C4  UNL d   1      -3.822   3.693   5.992  0.00  0.00    -0.004 A 
ENDROOT
TORSDOF 0
ENDMDL
