MODEL 1
REMARK minimizedAffinity 0.71153301
REMARK minimizedRMSD -1
REMARK  0 active torsions:
REMARK  status: ('A' for Active; 'I' for Inactive)
ROOT
ATOM      1  C   UNL d   1       5.994   4.705   2.629  0.00  0.00     0.172 C 
ATOM      2  N   UNL d   1       5.576   4.938   3.991  0.00  0.00    -0.070 N 
ATOM      3  C1  UNL d   1       5.958   5.995   4.773  0.00  0.00    -0.004 A 
ATOM      4  C2  UNL d   1       5.345   5.856   6.000  0.00  0.00    -0.047 A 
ATOM      5  C3  UNL d   1       4.569   4.674   5.953  0.00  0.00    -0.047 A 
ATOM      6  C4  UNL d   1       4.730   4.126   4.698  0.00  0.00    -0.004 A 
ENDROOT
TORSDOF 0
ENDMDL
