MODEL 1
REMARK minimizedAffinity 14.9409246
REMARK minimizedRMSD -1
REMARK  0 active torsions:
REMARK  status: ('A' for Active; 'I' for Inactive)
ROOT
ATOM      1  C   UNL d   1       0.493   2.855  -6.000  0.00  0.00     0.172 C 
ATOM      2  N   UNL d   1       1.351   3.949  -5.610  0.00  0.00    -0.070 N 
ATOM      3  C1  UNL d   1       2.452   3.852  -4.802  0.00  0.00    -0.004 A 
ATOM      4  C2  UNL d   1       2.994   5.112  -4.673  0.00  0.00    -0.047 A 
ATOM      5  C3  UNL d   1       2.191   5.998  -5.430  0.00  0.00    -0.047 A 
ATOM      6  C4  UNL d   1       1.181   5.252  -5.999  0.00  0.00    -0.004 A 
ENDROOT
TORSDOF 0
ENDMDL
