MODEL 1
REMARK minimizedAffinity -2.60873413
REMARK minimizedRMSD -1
REMARK  0 active torsions:
REMARK  status: ('A' for Active; 'I' for Inactive)
ROOT
ATOM      1  C   UNL d   1      -2.331   4.043  -5.655  0.00  0.00     0.172 C 
ATOM      2  N   UNL d   1      -3.662   4.343  -5.185  0.00  0.00    -0.070 N 
ATOM      3  C1  UNL d   1      -3.970   5.133  -4.110  0.00  0.00    -0.004 A 
ATOM      4  C2  UNL d   1      -5.343   5.170  -3.992  0.00  0.00    -0.047 A 
ATOM      5  C3  UNL d   1      -5.879   4.373  -5.032  0.00  0.00    -0.047 A 
ATOM      6  C4  UNL d   1      -4.816   3.874  -5.755  0.00  0.00    -0.004 A 
ENDROOT
TORSDOF 0
ENDMDL
