MODEL 1
REMARK minimizedAffinity 3.0618751
REMARK minimizedRMSD -1
REMARK  0 active torsions:
REMARK  status: ('A' for Active; 'I' for Inactive)
ROOT
ATOM      1  C   UNL d   1      -5.173  -3.745   6.000  0.00  0.00     0.172 C 
ATOM      2  N   UNL d   1      -3.928  -3.399   5.357  0.00  0.00    -0.070 N 
ATOM      3  C1  UNL d   1      -3.547  -3.776   4.097  0.00  0.00    -0.004 A 
ATOM      4  C2  UNL d   1      -2.299  -3.245   3.856  0.00  0.00    -0.047 A 
ATOM      5  C3  UNL d   1      -1.915  -2.524   5.011  0.00  0.00    -0.047 A 
ATOM      6  C4  UNL d   1      -2.942  -2.636   5.925  0.00  0.00    -0.004 A 
ENDROOT
TORSDOF 0
ENDMDL
