MODEL 1
REMARK minimizedAffinity -1.75956249
REMARK minimizedRMSD -1
REMARK  0 active torsions:
REMARK  status: ('A' for Active; 'I' for Inactive)
ROOT
ATOM      1  C   UNL d   1      -2.776   4.043  -4.931  0.00  0.00     0.172 C 
ATOM      2  N   UNL d   1      -4.046   4.730  -4.906  0.00  0.00    -0.070 N 
ATOM      3  C1  UNL d   1      -4.584   5.451  -5.939  0.00  0.00    -0.004 A 
ATOM      4  C2  UNL d   1      -5.800   5.946  -5.520  0.00  0.00    -0.047 A 
ATOM      5  C3  UNL d   1      -5.999   5.508  -4.189  0.00  0.00    -0.047 A 
ATOM      6  C4  UNL d   1      -4.898   4.758  -3.834  0.00  0.00    -0.004 A 
ENDROOT
TORSDOF 0
ENDMDL
