MODEL 1
REMARK minimizedAffinity 0.438269049
REMARK minimizedRMSD -1
REMARK  0 active torsions:
REMARK  status: ('A' for Active; 'I' for Inactive)
ROOT
ATOM      1  C   UNL d   1       5.264   5.820   4.465  0.00  0.00     0.172 C 
ATOM      2  N   UNL d   1       5.320   4.431   4.854  0.00  0.00    -0.070 N 
ATOM      3  C1  UNL d   1       4.716   3.393   4.196  0.00  0.00    -0.004 A 
ATOM      4  C2  UNL d   1       5.007   2.233   4.881  0.00  0.00    -0.047 A 
ATOM      5  C3  UNL d   1       5.813   2.586   5.989  0.00  0.00    -0.047 A 
ATOM      6  C4  UNL d   1       5.991   3.953   5.948  0.00  0.00    -0.004 A 
ENDROOT
TORSDOF 0
ENDMDL
