MODEL 1
REMARK minimizedAffinity 7.61827946
REMARK minimizedRMSD -1
REMARK  0 active torsions:
REMARK  status: ('A' for Active; 'I' for Inactive)
ROOT
ATOM      1  C   UNL d   1      -1.290  -4.185   2.064  0.00  0.00     0.172 C 
ATOM      2  N   UNL d   1      -1.115  -2.899   1.432  0.00  0.00    -0.070 N 
ATOM      3  C1  UNL d   1      -1.371  -2.613   0.118  0.00  0.00    -0.004 A 
ATOM      4  C2  UNL d   1      -1.080  -1.283  -0.090  0.00  0.00    -0.047 A 
ATOM      5  C3  UNL d   1      -0.633  -0.750   1.142  0.00  0.00    -0.047 A 
ATOM      6  C4  UNL d   1      -0.665  -1.772   2.067  0.00  0.00    -0.004 A 
ENDROOT
TORSDOF 0
ENDMDL
