MODEL 1
REMARK minimizedAffinity 6.21489429
REMARK minimizedRMSD -1
REMARK  0 active torsions:
REMARK  status: ('A' for Active; 'I' for Inactive)
ROOT
ATOM      1  C   UNL d   1      -5.997   4.284   5.703  0.00  0.00     0.172 C 
ATOM      2  N   UNL d   1      -5.784   4.722   4.344  0.00  0.00    -0.070 N 
ATOM      3  C1  UNL d   1      -5.999   5.988   3.870  0.00  0.00    -0.004 A 
ATOM      4  C2  UNL d   1      -5.679   5.997   2.529  0.00  0.00    -0.047 A 
ATOM      5  C3  UNL d   1      -5.260   4.690   2.185  0.00  0.00    -0.047 A 
ATOM      6  C4  UNL d   1      -5.334   3.921   3.327  0.00  0.00    -0.004 A 
ENDROOT
TORSDOF 0
ENDMDL
