MODEL 1
REMARK minimizedAffinity -2.68628526
REMARK minimizedRMSD -1
REMARK  0 active torsions:
REMARK  status: ('A' for Active; 'I' for Inactive)
ROOT
ATOM      1  C   UNL d   1      -0.904   0.030   0.759  0.00  0.00     0.172 C 
ATOM      2  N   UNL d   1       0.308   0.246   1.513  0.00  0.00    -0.070 N 
ATOM      3  C1  UNL d   1       0.383   0.801   2.763  0.00  0.00    -0.004 A 
ATOM      4  C2  UNL d   1       1.710   0.832   3.132  0.00  0.00    -0.047 A 
ATOM      5  C3  UNL d   1       2.459   0.277   2.067  0.00  0.00    -0.047 A 
ATOM      6  C4  UNL d   1       1.566  -0.077   1.078  0.00  0.00    -0.004 A 
ENDROOT
TORSDOF 0
ENDMDL
