MODEL 1
REMARK minimizedAffinity -1.39466619
REMARK minimizedRMSD -1
REMARK  0 active torsions:
REMARK  status: ('A' for Active; 'I' for Inactive)
ROOT
ATOM      1  C   UNL d   1      -1.220  -3.376  -0.381  0.00  0.00     0.172 C 
ATOM      2  N   UNL d   1      -0.943  -1.968  -0.541  0.00  0.00    -0.070 N 
ATOM      3  C1  UNL d   1      -1.530  -1.138  -1.459  0.00  0.00    -0.004 A 
ATOM      4  C2  UNL d   1      -0.998   0.122  -1.290  0.00  0.00    -0.047 A 
ATOM      5  C3  UNL d   1      -0.058   0.046  -0.235  0.00  0.00    -0.047 A 
ATOM      6  C4  UNL d   1      -0.044  -1.259   0.210  0.00  0.00    -0.004 A 
ENDROOT
TORSDOF 0
ENDMDL
