MODEL 1
REMARK minimizedAffinity 4.87406731
REMARK minimizedRMSD -1
REMARK  2 active torsions:
REMARK  status: ('A' for Active; 'I' for Inactive)
REMARK    1  A    between atoms: C2'_3  and  C1'_4 
REMARK    2  A    between atoms: C1'_4  and  C1_5 
ROOT
ATOM      1  C1  I4B d   1       0.188   1.855   0.107  0.00  0.00    -0.075 A 
ATOM      2  C2  I4B d   1       0.588   1.419  -1.131  0.00  0.00     0.003 A 
ATOM      3  C3  I4B d   1       0.529   0.042  -1.455  0.00  0.00     0.002 A 
ATOM      4  C4  I4B d   1       0.114  -0.864  -0.500  0.00  0.00    -0.004 A 
ATOM      5  C5  I4B d   1      -0.313  -0.417   0.747  0.00  0.00     0.002 A 
ATOM      6  C6  I4B d   1      -0.287   0.952   1.049  0.00  0.00     0.003 A 
ENDROOT
BRANCH   1   7
ATOM      7  C1' I4B d   1       0.295   3.313   0.427  0.00  0.00     0.060 C 
BRANCH   7   8
ATOM      8  C2' I4B d   1       1.117   3.454   1.692  0.00  0.00    -0.013 C 
ATOM      9  C4' I4B d   1       2.440   4.117   1.411  0.00  0.00     0.013 C 
ATOM     10  C3' I4B d   1       0.313   4.245   2.681  0.00  0.00     0.013 C 
ENDBRANCH   7   8
ENDBRANCH   1   7
TORSDOF 2
ENDMDL
