MODEL 1
REMARK minimizedAffinity 1.12830734
REMARK minimizedRMSD -1
REMARK  2 active torsions:
REMARK  status: ('A' for Active; 'I' for Inactive)
REMARK    1  A    between atoms: C2'_3  and  C1'_4 
REMARK    2  A    between atoms: C1'_4  and  C1_5 
ROOT
ATOM      1  C1  I4B d   1       0.645   1.361  -0.314  0.00  0.00    -0.075 A 
ATOM      2  C2  I4B d   1       1.704   0.921  -1.068  0.00  0.00     0.003 A 
ATOM      3  C3  I4B d   1       2.925   1.639  -1.071  0.00  0.00     0.002 A 
ATOM      4  C4  I4B d   1       3.025   2.811  -0.349  0.00  0.00    -0.004 A 
ATOM      5  C5  I4B d   1       1.958   3.243   0.433  0.00  0.00     0.002 A 
ATOM      6  C6  I4B d   1       0.764   2.507   0.460  0.00  0.00     0.003 A 
ENDROOT
BRANCH   1   7
ATOM      7  C1' I4B d   1      -0.640   0.596  -0.361  0.00  0.00     0.060 C 
BRANCH   7   8
ATOM      8  C2' I4B d   1      -0.701  -0.290   0.867  0.00  0.00    -0.013 C 
ATOM      9  C4' I4B d   1      -1.710   0.224   1.860  0.00  0.00     0.013 C 
ATOM     10  C3' I4B d   1      -1.041  -1.680   0.419  0.00  0.00     0.013 C 
ENDBRANCH   7   8
ENDBRANCH   1   7
TORSDOF 2
ENDMDL
