MODEL 1
REMARK minimizedAffinity 1.91051817
REMARK minimizedRMSD -1
REMARK  2 active torsions:
REMARK  status: ('A' for Active; 'I' for Inactive)
REMARK    1  A    between atoms: C2'_3  and  C1'_4 
REMARK    2  A    between atoms: C1'_4  and  C1_5 
ROOT
ATOM      1  C1  I4B d   1      -0.320  -0.648   0.267  0.00  0.00    -0.075 A 
ATOM      2  C2  I4B d   1      -1.111  -0.447   1.370  0.00  0.00     0.003 A 
ATOM      3  C3  I4B d   1      -1.833  -1.526   1.935  0.00  0.00     0.002 A 
ATOM      4  C4  I4B d   1      -1.774  -2.769   1.339  0.00  0.00    -0.004 A 
ATOM      5  C5  I4B d   1      -0.953  -2.976   0.234  0.00  0.00     0.002 A 
ATOM      6  C6  I4B d   1      -0.211  -1.912  -0.298  0.00  0.00     0.003 A 
ENDROOT
BRANCH   1   7
ATOM      7  C1' I4B d   1       0.403   0.521  -0.324  0.00  0.00     0.060 C 
BRANCH   7   8
ATOM      8  C2' I4B d   1       1.404  -0.009  -1.330  0.00  0.00    -0.013 C 
ATOM      9  C4' I4B d   1       0.827  -0.018  -2.721  0.00  0.00     0.013 C 
ATOM     10  C3' I4B d   1       2.632   0.849  -1.259  0.00  0.00     0.013 C 
ENDBRANCH   7   8
ENDBRANCH   1   7
TORSDOF 2
ENDMDL
