MODEL 1
REMARK minimizedAffinity 4.7351346
REMARK minimizedRMSD -1
REMARK  2 active torsions:
REMARK  status: ('A' for Active; 'I' for Inactive)
REMARK    1  A    between atoms: C2'_3  and  C1'_4 
REMARK    2  A    between atoms: C1'_4  and  C1_5 
ROOT
ATOM      1  C1  I4B d   1      -0.211   0.732  -0.260  0.00  0.00    -0.075 A 
ATOM      2  C2  I4B d   1       0.278   1.782   0.476  0.00  0.00     0.003 A 
ATOM      3  C3  I4B d   1       1.566   2.305   0.204  0.00  0.00     0.002 A 
ATOM      4  C4  I4B d   1       2.345   1.718  -0.772  0.00  0.00    -0.004 A 
ATOM      5  C5  I4B d   1       1.838   0.668  -1.532  0.00  0.00     0.002 A 
ATOM      6  C6  I4B d   1       0.547   0.179  -1.283  0.00  0.00     0.003 A 
ENDROOT
BRANCH   1   7
ATOM      7  C1' I4B d   1      -1.562   0.184   0.077  0.00  0.00     0.060 C 
BRANCH   7   8
ATOM      8  C2' I4B d   1      -1.481  -0.444   1.453  0.00  0.00    -0.013 C 
ATOM      9  C4' I4B d   1      -2.559   0.090   2.360  0.00  0.00     0.013 C 
ATOM     10  C3' I4B d   1      -1.598  -1.930   1.291  0.00  0.00     0.013 C 
ENDBRANCH   7   8
ENDBRANCH   1   7
TORSDOF 2
ENDMDL
