MODEL 1
REMARK minimizedAffinity 3.51565957
REMARK minimizedRMSD -1
REMARK  2 active torsions:
REMARK  status: ('A' for Active; 'I' for Inactive)
REMARK    1  A    between atoms: C2'_3  and  C1'_4 
REMARK    2  A    between atoms: C1'_4  and  C1_5 
ROOT
ATOM      1  C1  I4B d   1       0.525   0.487   1.076  0.00  0.00    -0.075 A 
ATOM      2  C2  I4B d   1      -0.190  -0.468   1.754  0.00  0.00     0.003 A 
ATOM      3  C3  I4B d   1      -0.838  -1.510   1.047  0.00  0.00     0.002 A 
ATOM      4  C4  I4B d   1      -0.788  -1.529  -0.332  0.00  0.00    -0.004 A 
ATOM      5  C5  I4B d   1      -0.043  -0.573  -1.017  0.00  0.00     0.002 A 
ATOM      6  C6  I4B d   1       0.628   0.435  -0.308  0.00  0.00     0.003 A 
ENDROOT
BRANCH   1   7
ATOM      7  C1' I4B d   1       1.169   1.592   1.852  0.00  0.00     0.060 C 
BRANCH   7   8
ATOM      8  C2' I4B d   1       1.232   2.814   0.959  0.00  0.00    -0.013 C 
ATOM      9  C4' I4B d   1       0.025   3.694   1.153  0.00  0.00     0.013 C 
ATOM     10  C3' I4B d   1       2.498   3.554   1.275  0.00  0.00     0.013 C 
ENDBRANCH   7   8
ENDBRANCH   1   7
TORSDOF 2
ENDMDL
