MODEL 1
REMARK minimizedAffinity 0.980992377
REMARK minimizedRMSD -1
REMARK  2 active torsions:
REMARK  status: ('A' for Active; 'I' for Inactive)
REMARK    1  A    between atoms: C2'_3  and  C1'_4 
REMARK    2  A    between atoms: C1'_4  and  C1_5 
ROOT
ATOM      1  C1  I4B d   1       0.047  -0.578   0.451  0.00  0.00    -0.075 A 
ATOM      2  C2  I4B d   1       0.130  -1.829  -0.108  0.00  0.00     0.003 A 
ATOM      3  C3  I4B d   1      -0.605  -2.906   0.443  0.00  0.00     0.002 A 
ATOM      4  C4  I4B d   1      -1.365  -2.701   1.576  0.00  0.00    -0.004 A 
ATOM      5  C5  I4B d   1      -1.466  -1.428   2.128  0.00  0.00     0.002 A 
ATOM      6  C6  I4B d   1      -0.765  -0.356   1.555  0.00  0.00     0.003 A 
ENDROOT
BRANCH   1   7
ATOM      7  C1' I4B d   1       0.862   0.530  -0.137  0.00  0.00     0.060 C 
BRANCH   7   8
ATOM      8  C2' I4B d   1       1.854  -0.083  -1.105  0.00  0.00    -0.013 C 
ATOM      9  C4' I4B d   1       1.385   0.061  -2.529  0.00  0.00     0.013 C 
ATOM     10  C3' I4B d   1       3.178   0.590  -0.900  0.00  0.00     0.013 C 
ENDBRANCH   7   8
ENDBRANCH   1   7
TORSDOF 2
ENDMDL
