MODEL 1
REMARK minimizedAffinity -2.55625463
REMARK minimizedRMSD -1
REMARK  2 active torsions:
REMARK  status: ('A' for Active; 'I' for Inactive)
REMARK    1  A    between atoms: C2'_3  and  C1'_4 
REMARK    2  A    between atoms: C1'_4  and  C1_5 
ROOT
ATOM      1  C1  I4B d   1      -0.247   0.466  -0.007  0.00  0.00    -0.075 A 
ATOM      2  C2  I4B d   1       0.899  -0.265  -0.198  0.00  0.00     0.003 A 
ATOM      3  C3  I4B d   1       0.912  -1.654   0.079  0.00  0.00     0.002 A 
ATOM      4  C4  I4B d   1      -0.220  -2.256   0.589  0.00  0.00    -0.004 A 
ATOM      5  C5  I4B d   1      -1.387  -1.518   0.760  0.00  0.00     0.002 A 
ATOM      6  C6  I4B d   1      -1.405  -0.150   0.449  0.00  0.00     0.003 A 
ENDROOT
BRANCH   1   7
ATOM      7  C1' I4B d   1      -0.216   1.937  -0.278  0.00  0.00     0.060 C 
BRANCH   7   8
ATOM      8  C2' I4B d   1       0.628   2.592   0.796  0.00  0.00    -0.013 C 
ATOM      9  C4' I4B d   1       1.884   3.186   0.215  0.00  0.00     0.013 C 
ATOM     10  C3' I4B d   1      -0.208   3.642   1.465  0.00  0.00     0.013 C 
ENDBRANCH   7   8
ENDBRANCH   1   7
TORSDOF 2
ENDMDL
