MODEL 1
REMARK minimizedAffinity -6.86170673
REMARK minimizedRMSD -1
REMARK  2 active torsions:
REMARK  status: ('A' for Active; 'I' for Inactive)
REMARK    1  A    between atoms: C2'_3  and  C1'_4 
REMARK    2  A    between atoms: C1'_4  and  C1_5 
ROOT
ATOM      1  C1  I4B d   1       0.166   0.165  -0.405  0.00  0.00    -0.075 A 
ATOM      2  C2  I4B d   1       0.696  -0.929  -1.043  0.00  0.00     0.003 A 
ATOM      3  C3  I4B d   1       0.355  -2.236  -0.619  0.00  0.00     0.002 A 
ATOM      4  C4  I4B d   1      -0.474  -2.402   0.472  0.00  0.00    -0.004 A 
ATOM      5  C5  I4B d   1      -1.027  -1.292   1.104  0.00  0.00     0.002 A 
ATOM      6  C6  I4B d   1      -0.716  -0.001   0.655  0.00  0.00     0.003 A 
ENDROOT
BRANCH   1   7
ATOM      7  C1' I4B d   1       0.573   1.531  -0.858  0.00  0.00     0.060 C 
BRANCH   7   8
ATOM      8  C2' I4B d   1       1.252   2.226   0.305  0.00  0.00    -0.013 C 
ATOM      9  C4' I4B d   1       2.737   2.341   0.081  0.00  0.00     0.013 C 
ATOM     10  C3' I4B d   1       0.623   3.577   0.468  0.00  0.00     0.013 C 
ENDBRANCH   7   8
ENDBRANCH   1   7
TORSDOF 2
ENDMDL
