MODEL 1
REMARK minimizedAffinity 0.890579879
REMARK minimizedRMSD -1
REMARK  2 active torsions:
REMARK  status: ('A' for Active; 'I' for Inactive)
REMARK    1  A    between atoms: C2'_3  and  C1'_4 
REMARK    2  A    between atoms: C1'_4  and  C1_5 
ROOT
ATOM      1  C1  I4B d   1      -0.536  -0.981  -0.269  0.00  0.00    -0.075 A 
ATOM      2  C2  I4B d   1      -0.890  -1.551   0.928  0.00  0.00     0.003 A 
ATOM      3  C3  I4B d   1      -1.264  -2.916   0.985  0.00  0.00     0.002 A 
ATOM      4  C4  I4B d   1      -1.318  -3.655  -0.179  0.00  0.00    -0.004 A 
ATOM      5  C5  I4B d   1      -0.937  -3.081  -1.389  0.00  0.00     0.002 A 
ATOM      6  C6  I4B d   1      -0.531  -1.739  -1.433  0.00  0.00     0.003 A 
ENDROOT
BRANCH   1   7
ATOM      7  C1' I4B d   1      -0.178   0.471  -0.298  0.00  0.00     0.060 C 
BRANCH   7   8
ATOM      8  C2' I4B d   1       0.986   0.646  -1.252  0.00  0.00    -0.013 C 
ATOM      9  C4' I4B d   1       2.219  -0.051  -0.741  0.00  0.00     0.013 C 
ATOM     10  C3' I4B d   1       0.574   0.107  -2.589  0.00  0.00     0.013 C 
ENDBRANCH   7   8
ENDBRANCH   1   7
TORSDOF 2
ENDMDL
