MODEL 1
REMARK minimizedAffinity 4.37388039
REMARK minimizedRMSD -1
REMARK  2 active torsions:
REMARK  status: ('A' for Active; 'I' for Inactive)
REMARK    1  A    between atoms: C2'_3  and  C1'_4 
REMARK    2  A    between atoms: C1'_4  and  C1_5 
ROOT
ATOM      1  C1  I4B d   1       0.570  -2.054   0.192  0.00  0.00    -0.075 A 
ATOM      2  C2  I4B d   1      -0.447  -1.136   0.283  0.00  0.00     0.003 A 
ATOM      3  C3  I4B d   1      -1.786  -1.569   0.434  0.00  0.00     0.002 A 
ATOM      4  C4  I4B d   1      -2.068  -2.920   0.439  0.00  0.00    -0.004 A 
ATOM      5  C5  I4B d   1      -1.034  -3.849   0.369  0.00  0.00     0.002 A 
ATOM      6  C6  I4B d   1       0.294  -3.414   0.257  0.00  0.00     0.003 A 
ENDROOT
BRANCH   1   7
ATOM      7  C1' I4B d   1       1.970  -1.564  -0.001  0.00  0.00     0.060 C 
BRANCH   7   8
ATOM      8  C2' I4B d   1       2.053  -0.913  -1.367  0.00  0.00    -0.013 C 
ATOM      9  C4' I4B d   1       3.342  -0.152  -1.531  0.00  0.00     0.013 C 
ATOM     10  C3' I4B d   1       1.925  -1.991  -2.401  0.00  0.00     0.013 C 
ENDBRANCH   7   8
ENDBRANCH   1   7
TORSDOF 2
ENDMDL
