MODEL 1
REMARK minimizedAffinity 7.60411596
REMARK minimizedRMSD -1
REMARK  2 active torsions:
REMARK  status: ('A' for Active; 'I' for Inactive)
REMARK    1  A    between atoms: C2'_3  and  C1'_4 
REMARK    2  A    between atoms: C1'_4  and  C1_5 
ROOT
ATOM      1  C1  I4B d   1      -1.939  -1.509   1.456  0.00  0.00    -0.075 A 
ATOM      2  C2  I4B d   1      -0.656  -1.161   1.116  0.00  0.00     0.003 A 
ATOM      3  C3  I4B d   1      -0.230   0.185   1.224  0.00  0.00     0.002 A 
ATOM      4  C4  I4B d   1      -1.129   1.152   1.624  0.00  0.00    -0.004 A 
ATOM      5  C5  I4B d   1      -2.423   0.794   1.990  0.00  0.00     0.002 A 
ATOM      6  C6  I4B d   1      -2.828  -0.546   1.917  0.00  0.00     0.003 A 
ENDROOT
BRANCH   1   7
ATOM      7  C1' I4B d   1      -2.366  -2.934   1.299  0.00  0.00     0.060 C 
BRANCH   7   8
ATOM      8  C2' I4B d   1      -3.551  -2.966   0.356  0.00  0.00    -0.013 C 
ATOM      9  C4' I4B d   1      -3.219  -3.708  -0.912  0.00  0.00     0.013 C 
ATOM     10  C3' I4B d   1      -4.698  -3.610   1.075  0.00  0.00     0.013 C 
ENDBRANCH   7   8
ENDBRANCH   1   7
TORSDOF 2
ENDMDL
