MODEL 1
REMARK minimizedAffinity -4.17560196
REMARK minimizedRMSD -1
REMARK  2 active torsions:
REMARK  status: ('A' for Active; 'I' for Inactive)
REMARK    1  A    between atoms: C2'_3  and  C1'_4 
REMARK    2  A    between atoms: C1'_4  and  C1_5 
ROOT
ATOM      1  C1  I4B d   1      -0.271  -1.951  -0.212  0.00  0.00    -0.075 A 
ATOM      2  C2  I4B d   1      -0.451  -2.351  -1.512  0.00  0.00     0.003 A 
ATOM      3  C3  I4B d   1      -0.330  -3.718  -1.860  0.00  0.00     0.002 A 
ATOM      4  C4  I4B d   1       0.020  -4.638  -0.892  0.00  0.00    -0.004 A 
ATOM      5  C5  I4B d   1       0.180  -4.233   0.430  0.00  0.00     0.002 A 
ATOM      6  C6  I4B d   1       0.021  -2.883   0.775  0.00  0.00     0.003 A 
ENDROOT
BRANCH   1   7
ATOM      7  C1' I4B d   1      -0.374  -0.495   0.115  0.00  0.00     0.060 C 
BRANCH   7   8
ATOM      8  C2' I4B d   1      -0.116   0.288  -1.156  0.00  0.00    -0.013 C 
ATOM      9  C4' I4B d   1      -0.778   1.640  -1.108  0.00  0.00     0.013 C 
ATOM     10  C3' I4B d   1       1.368   0.418  -1.327  0.00  0.00     0.013 C 
ENDBRANCH   7   8
ENDBRANCH   1   7
TORSDOF 2
ENDMDL
