MODEL 1
REMARK minimizedAffinity 0.643542051
REMARK minimizedRMSD -1
REMARK  2 active torsions:
REMARK  status: ('A' for Active; 'I' for Inactive)
REMARK    1  A    between atoms: C2'_3  and  C1'_4 
REMARK    2  A    between atoms: C1'_4  and  C1_5 
ROOT
ATOM      1  C1  I4B d   1       0.507   1.336   1.358  0.00  0.00    -0.075 A 
ATOM      2  C2  I4B d   1      -0.066   2.015   0.311  0.00  0.00     0.003 A 
ATOM      3  C3  I4B d   1      -0.748   1.308  -0.708  0.00  0.00     0.002 A 
ATOM      4  C4  I4B d   1      -0.789  -0.071  -0.668  0.00  0.00    -0.004 A 
ATOM      5  C5  I4B d   1      -0.228  -0.756   0.405  0.00  0.00     0.002 A 
ATOM      6  C6  I4B d   1       0.414  -0.047   1.432  0.00  0.00     0.003 A 
ENDROOT
BRANCH   1   7
ATOM      7  C1' I4B d   1       1.248   2.112   2.401  0.00  0.00     0.060 C 
BRANCH   7   8
ATOM      8  C2' I4B d   1       1.377   3.541   1.915  0.00  0.00    -0.013 C 
ATOM      9  C4' I4B d   1       0.797   4.510   2.911  0.00  0.00     0.013 C 
ATOM     10  C3' I4B d   1       2.831   3.819   1.673  0.00  0.00     0.013 C 
ENDBRANCH   7   8
ENDBRANCH   1   7
TORSDOF 2
ENDMDL
