MODEL 1
REMARK minimizedAffinity -6.49192953
REMARK minimizedRMSD -1
REMARK  2 active torsions:
REMARK  status: ('A' for Active; 'I' for Inactive)
REMARK    1  A    between atoms: C2'_3  and  C1'_4 
REMARK    2  A    between atoms: C1'_4  and  C1_5 
ROOT
ATOM      1  C1  I4B d   1       0.282   0.284  -0.784  0.00  0.00    -0.075 A 
ATOM      2  C2  I4B d   1       0.846  -0.498  -1.761  0.00  0.00     0.003 A 
ATOM      3  C3  I4B d   1       0.955  -1.898  -1.579  0.00  0.00     0.002 A 
ATOM      4  C4  I4B d   1       0.537  -2.464  -0.392  0.00  0.00    -0.004 A 
ATOM      5  C5  I4B d   1      -0.055  -1.673   0.588  0.00  0.00     0.002 A 
ATOM      6  C6  I4B d   1      -0.195  -0.292   0.387  0.00  0.00     0.003 A 
ENDROOT
BRANCH   1   7
ATOM      7  C1' I4B d   1       0.212   1.763  -0.995  0.00  0.00     0.060 C 
BRANCH   7   8
ATOM      8  C2' I4B d   1       1.271   2.409  -0.125  0.00  0.00    -0.013 C 
ATOM      9  C4' I4B d   1       2.543   2.643  -0.898  0.00  0.00     0.013 C 
ATOM     10  C3' I4B d   1       0.714   3.698   0.403  0.00  0.00     0.013 C 
ENDBRANCH   7   8
ENDBRANCH   1   7
TORSDOF 2
ENDMDL
