MODEL 1
REMARK minimizedAffinity -5.55705833
REMARK minimizedRMSD -1
REMARK  2 active torsions:
REMARK  status: ('A' for Active; 'I' for Inactive)
REMARK    1  A    between atoms: C2'_3  and  C1'_4 
REMARK    2  A    between atoms: C1'_4  and  C1_5 
ROOT
ATOM      1  C1  I4B d   1       0.828   1.091  -0.282  0.00  0.00    -0.075 A 
ATOM      2  C2  I4B d   1      -0.117   1.978  -0.734  0.00  0.00     0.003 A 
ATOM      3  C3  I4B d   1       0.043   3.366  -0.510  0.00  0.00     0.002 A 
ATOM      4  C4  I4B d   1       1.131   3.817   0.210  0.00  0.00    -0.004 A 
ATOM      5  C5  I4B d   1       2.100   2.919   0.647  0.00  0.00     0.002 A 
ATOM      6  C6  I4B d   1       1.955   1.548   0.389  0.00  0.00     0.003 A 
ENDROOT
BRANCH   1   7
ATOM      7  C1' I4B d   1       0.611  -0.372  -0.508  0.00  0.00     0.060 C 
BRANCH   7   8
ATOM      8  C2' I4B d   1      -0.689  -0.760   0.168  0.00  0.00    -0.013 C 
ATOM      9  C4' I4B d   1      -1.128  -2.140  -0.246  0.00  0.00     0.013 C 
ATOM     10  C3' I4B d   1      -0.481  -0.680   1.651  0.00  0.00     0.013 C 
ENDBRANCH   7   8
ENDBRANCH   1   7
TORSDOF 2
ENDMDL
