MODEL 1
REMARK minimizedAffinity -0.271090716
REMARK minimizedRMSD -1
REMARK  0 active torsions:
REMARK  status: ('A' for Active; 'I' for Inactive)
ROOT
ATOM      1  C   UNL d   1      -4.568   0.314   0.432  0.00  0.00     0.020 A 
ATOM      2  C1  UNL d   1      -4.278   1.000   1.611  0.00  0.00     0.020 A 
ATOM      3  C2  UNL d   1      -3.091   0.736   2.298  0.00  0.00     0.034 A 
ATOM      4  C3  UNL d   1      -2.190  -0.216   1.807  0.00  0.00     0.017 A 
ATOM      5  C4  UNL d   1      -2.482  -0.903   0.623  0.00  0.00     0.017 A 
ATOM      6  C5  UNL d   1      -3.672  -0.635  -0.061  0.00  0.00     0.034 A 
ATOM      7 Cl   UNL d   1      -1.419  -2.091  -0.045  0.00  0.00    -0.070 Cl
ATOM      8 Cl1  UNL d   1      -0.742  -0.491   2.708  0.00  0.00    -0.070 Cl
ENDROOT
TORSDOF 0
ENDMDL
