MODEL 1
REMARK minimizedAffinity 4.37604332
REMARK minimizedRMSD -1
REMARK  0 active torsions:
REMARK  status: ('A' for Active; 'I' for Inactive)
ROOT
ATOM      1  C   UNL d   1      -0.382  -0.576   2.614  0.00  0.00     0.020 A 
ATOM      2  C1  UNL d   1      -0.972   0.508   3.262  0.00  0.00     0.020 A 
ATOM      3  C2  UNL d   1      -2.265   0.908   2.918  0.00  0.00     0.034 A 
ATOM      4  C3  UNL d   1      -2.972   0.224   1.922  0.00  0.00     0.017 A 
ATOM      5  C4  UNL d   1      -2.379  -0.864   1.272  0.00  0.00     0.017 A 
ATOM      6  C5  UNL d   1      -1.084  -1.261   1.621  0.00  0.00     0.034 A 
ATOM      7 Cl   UNL d   1      -3.188  -1.758   0.034  0.00  0.00    -0.070 Cl
ATOM      8 Cl1  UNL d   1      -4.566   0.774   1.547  0.00  0.00    -0.070 Cl
ENDROOT
TORSDOF 0
ENDMDL
