MODEL 1
REMARK minimizedAffinity 2.6014514
REMARK minimizedRMSD -1
REMARK  0 active torsions:
REMARK  status: ('A' for Active; 'I' for Inactive)
ROOT
ATOM      1  C   UNL d   1      -0.709   1.076  -4.625  0.00  0.00     0.020 A 
ATOM      2  C1  UNL d   1      -0.413   0.237  -5.698  0.00  0.00     0.020 A 
ATOM      3  C2  UNL d   1      -0.302  -1.140  -5.498  0.00  0.00     0.034 A 
ATOM      4  C3  UNL d   1      -0.488  -1.683  -4.221  0.00  0.00     0.017 A 
ATOM      5  C4  UNL d   1      -0.786  -0.840  -3.144  0.00  0.00     0.017 A 
ATOM      6  C5  UNL d   1      -0.896   0.539  -3.351  0.00  0.00     0.034 A 
ATOM      7 Cl   UNL d   1      -1.030  -1.436  -1.540  0.00  0.00    -0.070 Cl
ATOM      8 Cl1  UNL d   1      -0.337  -3.395  -4.046  0.00  0.00    -0.070 Cl
ENDROOT
TORSDOF 0
ENDMDL
