MODEL 1
REMARK minimizedAffinity -1.61595476
REMARK minimizedRMSD -1
REMARK  0 active torsions:
REMARK  status: ('A' for Active; 'I' for Inactive)
ROOT
ATOM      1  C   UNL d   1       1.238  -0.352  -5.999  0.00  0.00     0.020 A 
ATOM      2  C1  UNL d   1       2.013   0.331  -5.062  0.00  0.00     0.020 A 
ATOM      3  C2  UNL d   1       1.396   1.101  -4.074  0.00  0.00     0.034 A 
ATOM      4  C3  UNL d   1       0.000   1.191  -4.021  0.00  0.00     0.017 A 
ATOM      5  C4  UNL d   1      -0.777   0.505  -4.961  0.00  0.00     0.017 A 
ATOM      6  C5  UNL d   1      -0.154  -0.265  -5.948  0.00  0.00     0.034 A 
ATOM      7 Cl   UNL d   1      -2.504   0.567  -4.958  0.00  0.00    -0.070 Cl
ATOM      8 Cl1  UNL d   1      -0.695   2.162  -2.772  0.00  0.00    -0.070 Cl
ENDROOT
TORSDOF 0
ENDMDL
