MODEL 1
REMARK minimizedAffinity 0.696642816
REMARK minimizedRMSD -1
REMARK  0 active torsions:
REMARK  status: ('A' for Active; 'I' for Inactive)
ROOT
ATOM      1  C   UNL d   1      -4.782   1.032   1.101  0.00  0.00     0.020 A 
ATOM      2  C1  UNL d   1      -4.714   0.285  -0.074  0.00  0.00     0.020 A 
ATOM      3  C2  UNL d   1      -3.572  -0.465  -0.359  0.00  0.00     0.034 A 
ATOM      4  C3  UNL d   1      -2.492  -0.470   0.532  0.00  0.00     0.017 A 
ATOM      5  C4  UNL d   1      -2.562   0.280   1.711  0.00  0.00     0.017 A 
ATOM      6  C5  UNL d   1      -3.708   1.030   1.992  0.00  0.00     0.034 A 
ATOM      7 Cl   UNL d   1      -1.271   0.323   2.860  0.00  0.00    -0.070 Cl
ATOM      8 Cl1  UNL d   1      -1.111  -1.421   0.116  0.00  0.00    -0.070 Cl
ENDROOT
TORSDOF 0
ENDMDL
