MODEL 1
REMARK minimizedAffinity 6.37074041
REMARK minimizedRMSD -1
REMARK  0 active torsions:
REMARK  status: ('A' for Active; 'I' for Inactive)
ROOT
ATOM      1  C   UNL d   1       1.231  -1.481   3.251  0.00  0.00     0.020 A 
ATOM      2  C1  UNL d   1       1.031  -0.310   3.981  0.00  0.00     0.020 A 
ATOM      3  C2  UNL d   1      -0.110   0.464   3.762  0.00  0.00     0.034 A 
ATOM      4  C3  UNL d   1      -1.057   0.068   2.810  0.00  0.00     0.017 A 
ATOM      5  C4  UNL d   1      -0.856  -1.108   2.077  0.00  0.00     0.017 A 
ATOM      6  C5  UNL d   1       0.289  -1.879   2.301  0.00  0.00     0.034 A 
ATOM      7 Cl   UNL d   1      -1.979  -1.661   0.885  0.00  0.00    -0.070 Cl
ATOM      8 Cl1  UNL d   1      -2.445   1.073   2.591  0.00  0.00    -0.070 Cl
ENDROOT
TORSDOF 0
ENDMDL
