MODEL 1
REMARK minimizedAffinity -0.0622000061
REMARK minimizedRMSD -1
REMARK  0 active torsions:
REMARK  status: ('A' for Active; 'I' for Inactive)
ROOT
ATOM      1  C   UNL d   1      -2.336   0.749  -5.013  0.00  0.00     0.020 A 
ATOM      2  C1  UNL d   1      -1.571   1.369  -6.000  0.00  0.00     0.020 A 
ATOM      3  C2  UNL d   1      -0.182   1.223  -6.000  0.00  0.00     0.034 A 
ATOM      4  C3  UNL d   1       0.446   0.456  -5.012  0.00  0.00     0.017 A 
ATOM      5  C4  UNL d   1      -0.324  -0.166  -4.022  0.00  0.00     0.017 A 
ATOM      6  C5  UNL d   1      -1.714  -0.017  -4.027  0.00  0.00     0.034 A 
ATOM      7 Cl   UNL d   1       0.379  -1.129  -2.770  0.00  0.00    -0.070 Cl
ATOM      8 Cl1  UNL d   1       2.167   0.319  -5.073  0.00  0.00    -0.070 Cl
ENDROOT
TORSDOF 0
ENDMDL
