MODEL 1
REMARK minimizedAffinity 1.777794
REMARK minimizedRMSD -1
REMARK  0 active torsions:
REMARK  status: ('A' for Active; 'I' for Inactive)
ROOT
ATOM      1  C   UNL d   1      -0.476  -1.831  -1.571  0.00  0.00     0.020 A 
ATOM      2  C1  UNL d   1       0.168  -2.875  -2.233  0.00  0.00     0.020 A 
ATOM      3  C2  UNL d   1       0.433  -2.777  -3.601  0.00  0.00     0.034 A 
ATOM      4  C3  UNL d   1       0.054  -1.632  -4.311  0.00  0.00     0.017 A 
ATOM      5  C4  UNL d   1      -0.592  -0.584  -3.645  0.00  0.00     0.017 A 
ATOM      6  C5  UNL d   1      -0.855  -0.688  -2.276  0.00  0.00     0.034 A 
ATOM      7 Cl   UNL d   1      -1.090   0.860  -4.454  0.00  0.00    -0.070 Cl
ATOM      8 Cl1  UNL d   1       0.414  -1.578  -6.000  0.00  0.00    -0.070 Cl
ENDROOT
TORSDOF 0
ENDMDL
