MODEL 1
REMARK minimizedAffinity 3.78959918
REMARK minimizedRMSD -1
REMARK  0 active torsions:
REMARK  status: ('A' for Active; 'I' for Inactive)
ROOT
ATOM      1  C   UNL d   1      -0.822   0.002  -6.000  0.00  0.00     0.020 A 
ATOM      2  C1  UNL d   1      -0.986   0.877  -4.927  0.00  0.00     0.020 A 
ATOM      3  C2  UNL d   1      -0.855   0.408  -3.618  0.00  0.00     0.034 A 
ATOM      4  C3  UNL d   1      -0.560  -0.939  -3.378  0.00  0.00     0.017 A 
ATOM      5  C4  UNL d   1      -0.396  -1.817  -4.457  0.00  0.00     0.017 A 
ATOM      6  C5  UNL d   1      -0.528  -1.342  -5.765  0.00  0.00     0.034 A 
ATOM      7 Cl   UNL d   1      -0.031  -3.492  -4.241  0.00  0.00    -0.070 Cl
ATOM      8 Cl1  UNL d   1      -0.413  -1.450  -1.734  0.00  0.00    -0.070 Cl
ENDROOT
TORSDOF 0
ENDMDL
