MODEL 1
REMARK minimizedAffinity -3.86782074
REMARK minimizedRMSD -1
REMARK  0 active torsions:
REMARK  status: ('A' for Active; 'I' for Inactive)
ROOT
ATOM      1  C   UNL d   1      -1.497  -1.512   0.023  0.00  0.00     0.020 A 
ATOM      2  C1  UNL d   1      -0.491  -0.547   0.007  0.00  0.00     0.020 A 
ATOM      3  C2  UNL d   1      -0.824   0.809   0.046  0.00  0.00     0.034 A 
ATOM      4  C3  UNL d   1      -2.166   1.203   0.102  0.00  0.00     0.017 A 
ATOM      5  C4  UNL d   1      -3.175   0.234   0.117  0.00  0.00     0.017 A 
ATOM      6  C5  UNL d   1      -2.836  -1.122   0.078  0.00  0.00     0.034 A 
ATOM      7 Cl   UNL d   1      -4.853   0.643   0.185  0.00  0.00    -0.070 Cl
ATOM      8 Cl1  UNL d   1      -2.504   2.897   0.149  0.00  0.00    -0.070 Cl
ENDROOT
TORSDOF 0
ENDMDL
