MODEL 1
REMARK minimizedAffinity -2.38061452
REMARK minimizedRMSD -1
REMARK  0 active torsions:
REMARK  status: ('A' for Active; 'I' for Inactive)
ROOT
ATOM      1  C   UNL d   1      -0.257  -2.190   0.436  0.00  0.00     0.078 C 
ATOM      2  C1  UNL d   1       0.366  -0.863   0.118  0.00  0.00    -0.077 A 
ATOM      3  C2  UNL d   1       0.183   0.239   0.962  0.00  0.00    -0.001 A 
ATOM      4  C3  UNL d   1       0.761   1.471   0.649  0.00  0.00     0.003 A 
ATOM      5  C4  UNL d   1       1.524   1.612  -0.508  0.00  0.00    -0.005 A 
ATOM      6  C5  UNL d   1       1.709   0.521  -1.355  0.00  0.00     0.003 A 
ATOM      7  C6  UNL d   1       1.133  -0.711  -1.044  0.00  0.00    -0.001 A 
ENDROOT
TORSDOF 0
ENDMDL
