MODEL 1
REMARK minimizedAffinity -4.61471891
REMARK minimizedRMSD -1
REMARK  0 active torsions:
REMARK  status: ('A' for Active; 'I' for Inactive)
ROOT
ATOM      1  C   UNL d   1      -0.100  -0.264   1.649  0.00  0.00     0.078 C 
ATOM      2  C1  UNL d   1       0.515  -0.193   0.283  0.00  0.00    -0.077 A 
ATOM      3  C2  UNL d   1       0.497  -1.300  -0.574  0.00  0.00    -0.001 A 
ATOM      4  C3  UNL d   1       1.081  -1.223  -1.840  0.00  0.00     0.003 A 
ATOM      5  C4  UNL d   1       1.688  -0.041  -2.259  0.00  0.00    -0.005 A 
ATOM      6  C5  UNL d   1       1.713   1.065  -1.412  0.00  0.00     0.003 A 
ATOM      7  C6  UNL d   1       1.129   0.990  -0.147  0.00  0.00    -0.001 A 
ENDROOT
TORSDOF 0
ENDMDL
