MODEL 1
REMARK minimizedAffinity -1.07210076
REMARK minimizedRMSD -1
REMARK  0 active torsions:
REMARK  status: ('A' for Active; 'I' for Inactive)
ROOT
ATOM      1  C   UNL d   1      -1.416   0.097   1.852  0.00  0.00     0.078 C 
ATOM      2  C1  UNL d   1      -0.284   0.401   0.918  0.00  0.00    -0.077 A 
ATOM      3  C2  UNL d   1      -0.037  -0.402  -0.202  0.00  0.00    -0.001 A 
ATOM      4  C3  UNL d   1       1.026  -0.113  -1.058  0.00  0.00     0.003 A 
ATOM      5  C4  UNL d   1       1.852   0.980  -0.803  0.00  0.00    -0.005 A 
ATOM      6  C5  UNL d   1       1.616   1.784   0.310  0.00  0.00     0.003 A 
ATOM      7  C6  UNL d   1       0.553   1.496   1.167  0.00  0.00    -0.001 A 
ENDROOT
TORSDOF 0
ENDMDL
