MODEL 1
REMARK minimizedAffinity -2.99110317
REMARK minimizedRMSD -1
REMARK  0 active torsions:
REMARK  status: ('A' for Active; 'I' for Inactive)
ROOT
ATOM      1  C   UNL d   1      -2.187   0.653  -0.475  0.00  0.00     0.078 C 
ATOM      2  C1  UNL d   1      -0.702   0.642  -0.681  0.00  0.00    -0.077 A 
ATOM      3  C2  UNL d   1      -0.062  -0.463  -1.256  0.00  0.00    -0.001 A 
ATOM      4  C3  UNL d   1       1.322  -0.464  -1.433  0.00  0.00     0.003 A 
ATOM      5  C4  UNL d   1       2.079   0.637  -1.036  0.00  0.00    -0.005 A 
ATOM      6  C5  UNL d   1       1.451   1.740  -0.460  0.00  0.00     0.003 A 
ATOM      7  C6  UNL d   1       0.067   1.743  -0.283  0.00  0.00    -0.001 A 
ENDROOT
TORSDOF 0
ENDMDL
