MODEL 1
REMARK minimizedAffinity 3.52493834
REMARK minimizedRMSD -1
REMARK  0 active torsions:
REMARK  status: ('A' for Active; 'I' for Inactive)
ROOT
ATOM      1  C   UNL d   1      -5.238   5.638  -5.996  0.00  0.00     0.078 C 
ATOM      2  C1  UNL d   1      -4.484   4.342  -5.990  0.00  0.00    -0.077 A 
ATOM      3  C2  UNL d   1      -3.084   4.322  -5.996  0.00  0.00    -0.001 A 
ATOM      4  C3  UNL d   1      -2.395   3.108  -5.999  0.00  0.00     0.003 A 
ATOM      5  C4  UNL d   1      -3.098   1.905  -5.999  0.00  0.00    -0.005 A 
ATOM      6  C5  UNL d   1      -4.492   1.915  -5.996  0.00  0.00     0.003 A 
ATOM      7  C6  UNL d   1      -5.182   3.128  -5.992  0.00  0.00    -0.001 A 
ENDROOT
TORSDOF 0
ENDMDL
