MODEL 1
REMARK minimizedAffinity -0.306704581
REMARK minimizedRMSD -1
REMARK  0 active torsions:
REMARK  status: ('A' for Active; 'I' for Inactive)
ROOT
ATOM      1  C   UNL d   1       0.393   1.080   0.356  0.00  0.00     0.078 C 
ATOM      2  C1  UNL d   1       0.567   0.183  -0.834  0.00  0.00    -0.077 A 
ATOM      3  C2  UNL d   1       1.136  -1.089  -0.701  0.00  0.00    -0.001 A 
ATOM      4  C3  UNL d   1       1.300  -1.909  -1.819  0.00  0.00     0.003 A 
ATOM      5  C4  UNL d   1       0.899  -1.465  -3.077  0.00  0.00    -0.005 A 
ATOM      6  C5  UNL d   1       0.333  -0.199  -3.219  0.00  0.00     0.003 A 
ATOM      7  C6  UNL d   1       0.168   0.622  -2.103  0.00  0.00    -0.001 A 
ENDROOT
TORSDOF 0
ENDMDL
