MODEL 1
REMARK minimizedAffinity -2.930655
REMARK minimizedRMSD -1
REMARK  0 active torsions:
REMARK  status: ('A' for Active; 'I' for Inactive)
ROOT
ATOM      1  C   UNL d   1      -4.008   0.913  -5.996  0.00  0.00     0.078 C 
ATOM      2  C1  UNL d   1      -4.221   2.398  -5.977  0.00  0.00    -0.077 A 
ATOM      3  C2  UNL d   1      -5.512   2.941  -5.955  0.00  0.00    -0.001 A 
ATOM      4  C3  UNL d   1      -5.696   4.324  -5.948  0.00  0.00     0.003 A 
ATOM      5  C4  UNL d   1      -4.593   5.176  -5.964  0.00  0.00    -0.005 A 
ATOM      6  C5  UNL d   1      -3.305   4.645  -5.989  0.00  0.00     0.003 A 
ATOM      7  C6  UNL d   1      -3.120   3.262  -5.996  0.00  0.00    -0.001 A 
ENDROOT
TORSDOF 0
ENDMDL
