MODEL 1
REMARK minimizedAffinity 3.18679881
REMARK minimizedRMSD -1
REMARK  0 active torsions:
REMARK  status: ('A' for Active; 'I' for Inactive)
ROOT
ATOM      1  C   UNL d   1      -3.717  -4.133  -6.000  0.00  0.00     0.078 C 
ATOM      2  C1  UNL d   1      -3.732  -2.634  -5.992  0.00  0.00    -0.077 A 
ATOM      3  C2  UNL d   1      -4.939  -1.924  -5.996  0.00  0.00    -0.001 A 
ATOM      4  C3  UNL d   1      -4.938  -0.529  -5.999  0.00  0.00     0.003 A 
ATOM      5  C4  UNL d   1      -3.732   0.170  -6.000  0.00  0.00    -0.005 A 
ATOM      6  C5  UNL d   1      -2.526  -0.527  -5.999  0.00  0.00     0.003 A 
ATOM      7  C6  UNL d   1      -2.525  -1.923  -5.996  0.00  0.00    -0.001 A 
ENDROOT
TORSDOF 0
ENDMDL
