MODEL 1
REMARK minimizedAffinity -1.8200947
REMARK minimizedRMSD -1
REMARK  0 active torsions:
REMARK  status: ('A' for Active; 'I' for Inactive)
ROOT
ATOM      1  C   UNL d   1      -3.063  -4.921  -5.966  0.00  0.00     0.078 C 
ATOM      2  C1  UNL d   1      -3.773  -3.600  -5.985  0.00  0.00    -0.077 A 
ATOM      3  C2  UNL d   1      -3.057  -2.397  -5.984  0.00  0.00    -0.001 A 
ATOM      4  C3  UNL d   1      -3.730  -1.174  -5.992  0.00  0.00     0.003 A 
ATOM      5  C4  UNL d   1      -5.124  -1.143  -6.000  0.00  0.00    -0.005 A 
ATOM      6  C5  UNL d   1      -5.845  -2.335  -5.999  0.00  0.00     0.003 A 
ATOM      7  C6  UNL d   1      -5.173  -3.559  -5.991  0.00  0.00    -0.001 A 
ENDROOT
TORSDOF 0
ENDMDL
