MODEL 1
REMARK minimizedAffinity -3.25852323
REMARK minimizedRMSD -1
REMARK  0 active torsions:
REMARK  status: ('A' for Active; 'I' for Inactive)
ROOT
ATOM      1  C   UNL d   1      -2.652  -4.815  -5.989  0.00  0.00     0.078 C 
ATOM      2  C1  UNL d   1      -3.551  -3.615  -6.000  0.00  0.00    -0.077 A 
ATOM      3  C2  UNL d   1      -3.024  -2.318  -5.997  0.00  0.00    -0.001 A 
ATOM      4  C3  UNL d   1      -3.874  -1.211  -5.996  0.00  0.00     0.003 A 
ATOM      5  C4  UNL d   1      -5.256  -1.389  -5.998  0.00  0.00    -0.005 A 
ATOM      6  C5  UNL d   1      -5.790  -2.676  -5.999  0.00  0.00     0.003 A 
ATOM      7  C6  UNL d   1      -4.942  -3.785  -5.999  0.00  0.00    -0.001 A 
ENDROOT
TORSDOF 0
ENDMDL
