MODEL 1
REMARK minimizedAffinity 12.8677721
REMARK minimizedRMSD -1
REMARK  0 active torsions:
REMARK  status: ('A' for Active; 'I' for Inactive)
ROOT
ATOM      1  C   UNL d   1      -2.785   1.345   5.775  0.00  0.00     0.078 C 
ATOM      2  C1  UNL d   1      -3.023   1.887   4.397  0.00  0.00    -0.077 A 
ATOM      3  C2  UNL d   1      -3.883   1.236   3.504  0.00  0.00    -0.001 A 
ATOM      4  C3  UNL d   1      -4.088   1.746   2.222  0.00  0.00     0.003 A 
ATOM      5  C4  UNL d   1      -3.436   2.910   1.820  0.00  0.00    -0.005 A 
ATOM      6  C5  UNL d   1      -2.577   3.564   2.700  0.00  0.00     0.003 A 
ATOM      7  C6  UNL d   1      -2.370   3.055   3.983  0.00  0.00    -0.001 A 
ENDROOT
TORSDOF 0
ENDMDL
