MODEL 1
REMARK minimizedAffinity 6.30770063
REMARK minimizedRMSD -1
REMARK  0 active torsions:
REMARK  status: ('A' for Active; 'I' for Inactive)
ROOT
ATOM      1  C   UNL d   1      -3.833   3.264  -5.999  0.00  0.00     0.078 C 
ATOM      2  C1  UNL d   1      -2.973   4.076  -5.078  0.00  0.00    -0.077 A 
ATOM      3  C2  UNL d   1      -3.230   4.118  -3.702  0.00  0.00    -0.001 A 
ATOM      4  C3  UNL d   1      -2.427   4.886  -2.857  0.00  0.00     0.003 A 
ATOM      5  C4  UNL d   1      -1.362   5.618  -3.379  0.00  0.00    -0.005 A 
ATOM      6  C5  UNL d   1      -1.100   5.584  -4.747  0.00  0.00     0.003 A 
ATOM      7  C6  UNL d   1      -1.902   4.817  -5.593  0.00  0.00    -0.001 A 
ENDROOT
TORSDOF 0
ENDMDL
