MODEL 1
REMARK minimizedAffinity 12.5152826
REMARK minimizedRMSD -1
REMARK  0 active torsions:
REMARK  status: ('A' for Active; 'I' for Inactive)
ROOT
ATOM      1  C   UNL d   1      -5.903   1.045   3.260  0.00  0.00     0.078 C 
ATOM      2  C1  UNL d   1      -4.625   1.783   2.996  0.00  0.00    -0.077 A 
ATOM      3  C2  UNL d   1      -3.730   2.069   4.033  0.00  0.00    -0.001 A 
ATOM      4  C3  UNL d   1      -2.548   2.766   3.774  0.00  0.00     0.003 A 
ATOM      5  C4  UNL d   1      -2.252   3.183   2.478  0.00  0.00    -0.005 A 
ATOM      6  C5  UNL d   1      -3.138   2.905   1.439  0.00  0.00     0.003 A 
ATOM      7  C6  UNL d   1      -4.320   2.208   1.697  0.00  0.00    -0.001 A 
ENDROOT
TORSDOF 0
ENDMDL
