MODEL 1
REMARK minimizedAffinity 2.45338416
REMARK minimizedRMSD -1
REMARK  0 active torsions:
REMARK  status: ('A' for Active; 'I' for Inactive)
ROOT
ATOM      1  C   UNL d   1      -2.373   1.386   5.765  0.00  0.00     0.078 C 
ATOM      2  C1  UNL d   1      -3.053   1.350   4.430  0.00  0.00    -0.077 A 
ATOM      3  C2  UNL d   1      -2.818   2.346   3.474  0.00  0.00    -0.001 A 
ATOM      4  C3  UNL d   1      -3.466   2.305   2.238  0.00  0.00     0.003 A 
ATOM      5  C4  UNL d   1      -4.354   1.271   1.947  0.00  0.00    -0.005 A 
ATOM      6  C5  UNL d   1      -4.596   0.277   2.893  0.00  0.00     0.003 A 
ATOM      7  C6  UNL d   1      -3.949   0.316   4.129  0.00  0.00    -0.001 A 
ENDROOT
TORSDOF 0
ENDMDL
