MODEL 1
REMARK minimizedAffinity 3.35543656
REMARK minimizedRMSD -1
REMARK  0 active torsions:
REMARK  status: ('A' for Active; 'I' for Inactive)
ROOT
ATOM      1  C   UNL d   1      -3.345   3.113  -5.988  0.00  0.00     0.078 C 
ATOM      2  C1  UNL d   1      -2.485   4.127  -5.294  0.00  0.00    -0.077 A 
ATOM      3  C2  UNL d   1      -1.529   4.867  -6.000  0.00  0.00    -0.001 A 
ATOM      4  C3  UNL d   1      -0.729   5.800  -5.338  0.00  0.00     0.003 A 
ATOM      5  C4  UNL d   1      -0.875   6.000  -3.967  0.00  0.00    -0.005 A 
ATOM      6  C5  UNL d   1      -1.822   5.266  -3.255  0.00  0.00     0.003 A 
ATOM      7  C6  UNL d   1      -2.623   4.333  -3.915  0.00  0.00    -0.001 A 
ENDROOT
TORSDOF 0
ENDMDL
