MODEL 1
REMARK minimizedAffinity 4.42520714
REMARK minimizedRMSD -1
REMARK  0 active torsions:
REMARK  status: ('A' for Active; 'I' for Inactive)
ROOT
ATOM      1  C   UNL d   1       1.291   6.000  -1.592  0.00  0.00     0.078 C 
ATOM      2  C1  UNL d   1       1.290   4.937  -0.534  0.00  0.00    -0.077 A 
ATOM      3  C2  UNL d   1       1.098   3.590  -0.865  0.00  0.00    -0.001 A 
ATOM      4  C3  UNL d   1       1.089   2.613   0.131  0.00  0.00     0.003 A 
ATOM      5  C4  UNL d   1       1.272   2.972   1.465  0.00  0.00    -0.005 A 
ATOM      6  C5  UNL d   1       1.461   4.310   1.805  0.00  0.00     0.003 A 
ATOM      7  C6  UNL d   1       1.470   5.289   0.810  0.00  0.00    -0.001 A 
ENDROOT
TORSDOF 0
ENDMDL
