MODEL 1
REMARK minimizedAffinity 6.83037138
REMARK minimizedRMSD -1
REMARK  0 active torsions:
REMARK  status: ('A' for Active; 'I' for Inactive)
ROOT
ATOM      1  C1  DEN d   1      -4.809   0.221  -0.150  0.00  0.00     0.130 A 
ATOM      2  C2  DEN d   1      -4.495   0.900   1.104  0.00  0.00    -0.031 A 
ATOM      3  C3  DEN d   1      -3.060   1.252   1.086  0.00  0.00     0.027 A 
ATOM      4  C4  DEN d   1      -1.306   0.817  -0.755  0.00  0.00     0.027 A 
ATOM      5  C5  DEN d   1      -1.098   0.262  -1.998  0.00  0.00    -0.003 A 
ATOM      6  C6  DEN d   1      -2.095  -0.370  -2.692  0.00  0.00     0.001 A 
ATOM      7  C7  DEN d   1      -3.359  -0.424  -2.167  0.00  0.00     0.017 A 
ATOM      8  C8  DEN d   1      -3.576   0.127  -0.910  0.00  0.00    -0.094 A 
ATOM      9  C9  DEN d   1      -2.557   0.773  -0.230  0.00  0.00    -0.072 A 
ENDROOT
TORSDOF 0
ENDMDL
