MODEL 1
REMARK minimizedAffinity 3.65998125
REMARK minimizedRMSD -1
REMARK  0 active torsions:
REMARK  status: ('A' for Active; 'I' for Inactive)
ROOT
ATOM      1  C1  DEN d   1       1.701   3.721   5.996  0.00  0.00     0.130 A 
ATOM      2  C2  DEN d   1       1.213   5.025   5.558  0.00  0.00    -0.031 A 
ATOM      3  C3  DEN d   1       2.352   5.770   4.984  0.00  0.00     0.027 A 
ATOM      4  C4  DEN d   1       4.810   5.031   4.728  0.00  0.00     0.027 A 
ATOM      5  C5  DEN d   1       5.706   4.013   4.964  0.00  0.00    -0.003 A 
ATOM      6  C6  DEN d   1       5.341   2.848   5.586  0.00  0.00     0.001 A 
ATOM      7  C7  DEN d   1       4.035   2.656   5.953  0.00  0.00     0.017 A 
ATOM      8  C8  DEN d   1       3.127   3.681   5.725  0.00  0.00    -0.094 A 
ATOM      9  C9  DEN d   1       3.513   4.846   5.084  0.00  0.00    -0.072 A 
ENDROOT
TORSDOF 0
ENDMDL
