MODEL 1
REMARK minimizedAffinity 5.91390371
REMARK minimizedRMSD -1
REMARK  0 active torsions:
REMARK  status: ('A' for Active; 'I' for Inactive)
ROOT
ATOM      1  C1  DEN d   1       2.567   3.281   6.000  0.00  0.00     0.130 A 
ATOM      2  C2  DEN d   1       3.709   3.367   5.094  0.00  0.00    -0.031 A 
ATOM      3  C3  DEN d   1       3.382   4.348   4.040  0.00  0.00     0.027 A 
ATOM      4  C4  DEN d   1       1.233   5.739   3.727  0.00  0.00     0.027 A 
ATOM      5  C5  DEN d   1      -0.020   6.000   4.238  0.00  0.00    -0.003 A 
ATOM      6  C6  DEN d   1      -0.507   5.353   5.342  0.00  0.00     0.001 A 
ATOM      7  C7  DEN d   1       0.280   4.445   6.000  0.00  0.00     0.017 A 
ATOM      8  C8  DEN d   1       1.541   4.172   5.487  0.00  0.00    -0.094 A 
ATOM      9  C9  DEN d   1       2.021   4.845   4.376  0.00  0.00    -0.072 A 
ENDROOT
TORSDOF 0
ENDMDL
