MODEL 1
REMARK minimizedAffinity 5.54718733
REMARK minimizedRMSD -1
REMARK  0 active torsions:
REMARK  status: ('A' for Active; 'I' for Inactive)
ROOT
ATOM      1  C1  DEN d   1       1.501   3.812   6.000  0.00  0.00     0.130 A 
ATOM      2  C2  DEN d   1       1.846   5.192   5.670  0.00  0.00    -0.031 A 
ATOM      3  C3  DEN d   1       3.263   5.222   5.254  0.00  0.00     0.027 A 
ATOM      4  C4  DEN d   1       4.945   3.273   5.084  0.00  0.00     0.027 A 
ATOM      5  C5  DEN d   1       5.117   1.920   5.271  0.00  0.00    -0.003 A 
ATOM      6  C6  DEN d   1       4.114   1.114   5.742  0.00  0.00     0.001 A 
ATOM      7  C7  DEN d   1       2.879   1.648   6.000  0.00  0.00     0.017 A 
ATOM      8  C8  DEN d   1       2.700   3.014   5.821  0.00  0.00    -0.094 A 
ATOM      9  C9  DEN d   1       3.723   3.809   5.333  0.00  0.00    -0.072 A 
ENDROOT
TORSDOF 0
ENDMDL
