MODEL 1
REMARK minimizedAffinity 9.78270626
REMARK minimizedRMSD -1
REMARK  0 active torsions:
REMARK  status: ('A' for Active; 'I' for Inactive)
ROOT
ATOM      1  C1  DEN d   1       2.410   1.933   1.673  0.00  0.00     0.130 A 
ATOM      2  C2  DEN d   1       1.635   1.068   0.788  0.00  0.00    -0.031 A 
ATOM      3  C3  DEN d   1       2.489   0.706  -0.360  0.00  0.00     0.027 A 
ATOM      4  C4  DEN d   1       4.927   1.393  -0.850  0.00  0.00     0.027 A 
ATOM      5  C5  DEN d   1       5.999   2.128  -0.394  0.00  0.00    -0.003 A 
ATOM      6  C6  DEN d   1       5.940   2.870   0.755  0.00  0.00     0.001 A 
ATOM      7  C7  DEN d   1       4.798   2.859   1.513  0.00  0.00     0.017 A 
ATOM      8  C8  DEN d   1       3.710   2.126   1.056  0.00  0.00    -0.094 A 
ATOM      9  C9  DEN d   1       3.794   1.372  -0.103  0.00  0.00    -0.072 A 
ENDROOT
TORSDOF 0
ENDMDL
