MODEL 1
REMARK minimizedAffinity 9.1777153
REMARK minimizedRMSD -1
REMARK  0 active torsions:
REMARK  status: ('A' for Active; 'I' for Inactive)
ROOT
ATOM      1  C1  DEN d   1      -5.919   0.338  -1.893  0.00  0.00     0.130 A 
ATOM      2  C2  DEN d   1      -5.269  -0.171  -0.689  0.00  0.00    -0.031 A 
ATOM      3  C3  DEN d   1      -3.871  -0.503  -1.030  0.00  0.00     0.027 A 
ATOM      4  C4  DEN d   1      -2.655  -0.273  -3.292  0.00  0.00     0.027 A 
ATOM      5  C5  DEN d   1      -2.797   0.101  -4.610  0.00  0.00    -0.003 A 
ATOM      6  C6  DEN d   1      -3.989   0.545  -5.119  0.00  0.00     0.001 A 
ATOM      7  C7  DEN d   1      -5.075   0.669  -4.293  0.00  0.00     0.017 A 
ATOM      8  C8  DEN d   1      -4.941   0.286  -2.965  0.00  0.00    -0.094 A 
ATOM      9  C9  DEN d   1      -3.725  -0.149  -2.467  0.00  0.00    -0.072 A 
ENDROOT
TORSDOF 0
ENDMDL
