MODEL 1
REMARK minimizedAffinity -1.36942363
REMARK minimizedRMSD -1
REMARK  0 active torsions:
REMARK  status: ('A' for Active; 'I' for Inactive)
ROOT
ATOM      1  C1  DEN d   1       5.193   2.801  -0.511  0.00  0.00     0.130 A 
ATOM      2  C2  DEN d   1       5.762   2.817   0.834  0.00  0.00    -0.031 A 
ATOM      3  C3  DEN d   1       5.365   1.568   1.513  0.00  0.00     0.027 A 
ATOM      4  C4  DEN d   1       3.935  -0.383   0.615  0.00  0.00     0.027 A 
ATOM      5  C5  DEN d   1       3.220  -0.845  -0.467  0.00  0.00    -0.003 A 
ATOM      6  C6  DEN d   1       3.085  -0.115  -1.619  0.00  0.00     0.001 A 
ATOM      7  C7  DEN d   1       3.712   1.098  -1.731  0.00  0.00     0.017 A 
ATOM      8  C8  DEN d   1       4.429   1.573  -0.641  0.00  0.00    -0.094 A 
ATOM      9  C9  DEN d   1       4.564   0.815   0.510  0.00  0.00    -0.072 A 
ENDROOT
TORSDOF 0
ENDMDL
