MODEL 1
REMARK minimizedAffinity 3.76884961
REMARK minimizedRMSD -1
REMARK  0 active torsions:
REMARK  status: ('A' for Active; 'I' for Inactive)
ROOT
ATOM      1  C1  DEN d   1       2.268   0.260  -0.749  0.00  0.00     0.130 A 
ATOM      2  C2  DEN d   1       2.842  -0.941  -1.350  0.00  0.00    -0.031 A 
ATOM      3  C3  DEN d   1       4.247  -1.046  -0.908  0.00  0.00     0.027 A 
ATOM      4  C4  DEN d   1       5.581   0.523   0.645  0.00  0.00     0.027 A 
ATOM      5  C5  DEN d   1       5.523   1.680   1.390  0.00  0.00    -0.003 A 
ATOM      6  C6  DEN d   1       4.396   2.456   1.447  0.00  0.00     0.001 A 
ATOM      7  C7  DEN d   1       3.266   2.061   0.782  0.00  0.00     0.017 A 
ATOM      8  C8  DEN d   1       3.319   0.900   0.023  0.00  0.00    -0.094 A 
ATOM      9  C9  DEN d   1       4.464   0.123  -0.013  0.00  0.00    -0.072 A 
ENDROOT
TORSDOF 0
ENDMDL
