MODEL 1
REMARK minimizedAffinity -3.27352858
REMARK minimizedRMSD -1
REMARK  0 active torsions:
REMARK  status: ('A' for Active; 'I' for Inactive)
ROOT
ATOM      1  C   UNL d   1      -2.040  -1.486  -0.510  0.00  0.00     0.172 C 
ATOM      2  N   UNL d   1      -0.821  -0.991   0.085  0.00  0.00    -0.070 N 
ATOM      3  C1  UNL d   1      -0.065  -1.647   1.020  0.00  0.00    -0.004 A 
ATOM      4  C2  UNL d   1       1.011  -0.845   1.331  0.00  0.00    -0.047 A 
ATOM      5  C3  UNL d   1       0.899   0.334   0.557  0.00  0.00    -0.047 A 
ATOM      6  C4  UNL d   1      -0.244   0.217  -0.205  0.00  0.00    -0.004 A 
ENDROOT
TORSDOF 0
ENDMDL
