MODEL 1
REMARK minimizedAffinity -0.655579031
REMARK minimizedRMSD -1
REMARK  0 active torsions:
REMARK  status: ('A' for Active; 'I' for Inactive)
ROOT
ATOM      1  C   UNL d   1       5.992   4.877   4.046  0.00  0.00     0.172 C 
ATOM      2  N   UNL d   1       4.854   4.012   3.847  0.00  0.00    -0.070 N 
ATOM      3  C1  UNL d   1       4.526   3.379   2.677  0.00  0.00    -0.004 A 
ATOM      4  C2  UNL d   1       3.378   2.651   2.899  0.00  0.00    -0.047 A 
ATOM      5  C3  UNL d   1       3.001   2.853   4.248  0.00  0.00    -0.047 A 
ATOM      6  C4  UNL d   1       3.932   3.699   4.811  0.00  0.00    -0.004 A 
ENDROOT
TORSDOF 0
ENDMDL
