MODEL 1
REMARK minimizedAffinity -3.85658932
REMARK minimizedRMSD -1
REMARK  0 active torsions:
REMARK  status: ('A' for Active; 'I' for Inactive)
ROOT
ATOM      1  C   UNL d   1       0.857   0.452   0.831  0.00  0.00     0.172 C 
ATOM      2  N   UNL d   1      -0.332  -0.178   0.307  0.00  0.00    -0.070 N 
ATOM      3  C1  UNL d   1      -1.004   0.201  -0.825  0.00  0.00    -0.004 A 
ATOM      4  C2  UNL d   1      -2.079  -0.647  -0.982  0.00  0.00    -0.047 A 
ATOM      5  C3  UNL d   1      -2.053  -1.567   0.094  0.00  0.00    -0.047 A 
ATOM      6  C4  UNL d   1      -0.961  -1.253   0.876  0.00  0.00    -0.004 A 
ENDROOT
TORSDOF 0
ENDMDL
