MODEL 1
REMARK minimizedAffinity 5.50565767
REMARK minimizedRMSD -1
REMARK  0 active torsions:
REMARK  status: ('A' for Active; 'I' for Inactive)
ROOT
ATOM      1  C   UNL d   1      -3.566  -2.109   4.506  0.00  0.00     0.172 C 
ATOM      2  N   UNL d   1      -2.693  -1.045   4.070  0.00  0.00    -0.070 N 
ATOM      3  C1  UNL d   1      -2.785   0.268   4.449  0.00  0.00    -0.004 A 
ATOM      4  C2  UNL d   1      -1.773   0.961   3.819  0.00  0.00    -0.047 A 
ATOM      5  C3  UNL d   1      -1.049   0.032   3.034  0.00  0.00    -0.047 A 
ATOM      6  C4  UNL d   1      -1.640  -1.202   3.208  0.00  0.00    -0.004 A 
ENDROOT
TORSDOF 0
ENDMDL
