MODEL 1
REMARK minimizedAffinity 2.14934897
REMARK minimizedRMSD -1
REMARK  0 active torsions:
REMARK  status: ('A' for Active; 'I' for Inactive)
ROOT
ATOM      1  C   UNL d   1       1.842   0.872   2.410  0.00  0.00     0.172 C 
ATOM      2  N   UNL d   1       1.092  -0.345   2.209  0.00  0.00    -0.070 N 
ATOM      3  C1  UNL d   1       1.410  -1.574   2.724  0.00  0.00    -0.004 A 
ATOM      4  C2  UNL d   1       0.450  -2.469   2.304  0.00  0.00    -0.047 A 
ATOM      5  C3  UNL d   1      -0.477  -1.754   1.508  0.00  0.00    -0.047 A 
ATOM      6  C4  UNL d   1      -0.055  -0.442   1.466  0.00  0.00    -0.004 A 
ENDROOT
TORSDOF 0
ENDMDL
