MODEL 1
REMARK minimizedAffinity 2.37779212
REMARK minimizedRMSD -1
REMARK  0 active torsions:
REMARK  status: ('A' for Active; 'I' for Inactive)
ROOT
ATOM      1  C   UNL d   1      -1.797   1.858  -2.906  0.00  0.00     0.172 C 
ATOM      2  N   UNL d   1      -2.145   0.701  -2.115  0.00  0.00    -0.070 N 
ATOM      3  C1  UNL d   1      -1.382  -0.427  -1.970  0.00  0.00    -0.004 A 
ATOM      4  C2  UNL d   1      -2.061  -1.293  -1.141  0.00  0.00    -0.047 A 
ATOM      5  C3  UNL d   1      -3.275  -0.664  -0.775  0.00  0.00    -0.047 A 
ATOM      6  C4  UNL d   1      -3.301   0.569  -1.392  0.00  0.00    -0.004 A 
ENDROOT
TORSDOF 0
ENDMDL
