MODEL 1
REMARK minimizedAffinity -3.83938336
REMARK minimizedRMSD -1
REMARK  0 active torsions:
REMARK  status: ('A' for Active; 'I' for Inactive)
ROOT
ATOM      1  C   UNL d   1      -1.635   1.522  -2.828  0.00  0.00     0.172 C 
ATOM      2  N   UNL d   1      -2.017   0.641  -1.750  0.00  0.00    -0.070 N 
ATOM      3  C1  UNL d   1      -1.337  -0.481  -1.356  0.00  0.00    -0.004 A 
ATOM      4  C2  UNL d   1      -2.022  -1.040  -0.299  0.00  0.00    -0.047 A 
ATOM      5  C3  UNL d   1      -3.152  -0.226  -0.048  0.00  0.00    -0.047 A 
ATOM      6  C4  UNL d   1      -3.125   0.807  -0.961  0.00  0.00    -0.004 A 
ENDROOT
TORSDOF 0
ENDMDL
