MODEL 1
REMARK minimizedAffinity 2.25435352
REMARK minimizedRMSD -1
REMARK  0 active torsions:
REMARK  status: ('A' for Active; 'I' for Inactive)
ROOT
ATOM      1  C   UNL d   1       3.347   2.538   2.858  0.00  0.00     0.172 C 
ATOM      2  N   UNL d   1       3.776   3.463   1.835  0.00  0.00    -0.070 N 
ATOM      3  C1  UNL d   1       3.774   3.220   0.487  0.00  0.00    -0.004 A 
ATOM      4  C2  UNL d   1       4.253   4.346  -0.146  0.00  0.00    -0.047 A 
ATOM      5  C3  UNL d   1       4.555   5.299   0.856  0.00  0.00    -0.047 A 
ATOM      6  C4  UNL d   1       4.250   4.726   2.073  0.00  0.00    -0.004 A 
ENDROOT
TORSDOF 0
ENDMDL
