MODEL 1
REMARK minimizedAffinity -3.97996998
REMARK minimizedRMSD -1
REMARK  0 active torsions:
REMARK  status: ('A' for Active; 'I' for Inactive)
ROOT
ATOM      1  C   UNL d   1       0.626   0.346   0.604  0.00  0.00     0.172 C 
ATOM      2  N   UNL d   1      -0.648  -0.090   0.083  0.00  0.00    -0.070 N 
ATOM      3  C1  UNL d   1      -1.105   0.121  -1.190  0.00  0.00    -0.004 A 
ATOM      4  C2  UNL d   1      -2.356  -0.448  -1.289  0.00  0.00    -0.047 A 
ATOM      5  C3  UNL d   1      -2.662  -1.021  -0.032  0.00  0.00    -0.047 A 
ATOM      6  C4  UNL d   1      -1.587  -0.784   0.799  0.00  0.00    -0.004 A 
ENDROOT
TORSDOF 0
ENDMDL
