MODEL 1
REMARK minimizedAffinity 1.2285949
REMARK minimizedRMSD -1
REMARK  0 active torsions:
REMARK  status: ('A' for Active; 'I' for Inactive)
ROOT
ATOM      1  C   UNL d   1      -3.006   1.059   6.000  0.00  0.00     0.172 C 
ATOM      2  N   UNL d   1      -2.800   0.086   4.953  0.00  0.00    -0.070 N 
ATOM      3  C1  UNL d   1      -2.353   0.357   3.688  0.00  0.00    -0.004 A 
ATOM      4  C2  UNL d   1      -2.292  -0.834   2.997  0.00  0.00    -0.047 A 
ATOM      5  C3  UNL d   1      -2.717  -1.857   3.879  0.00  0.00    -0.047 A 
ATOM      6  C4  UNL d   1      -3.025  -1.259   5.083  0.00  0.00    -0.004 A 
ENDROOT
TORSDOF 0
ENDMDL
