MODEL 1
REMARK minimizedAffinity 0.736564457
REMARK minimizedRMSD -1
REMARK  0 active torsions:
REMARK  status: ('A' for Active; 'I' for Inactive)
ROOT
ATOM      1  C   UNL d   1      -6.000   5.346   4.264  0.00  0.00     0.172 C 
ATOM      2  N   UNL d   1      -5.818   5.072   2.858  0.00  0.00    -0.070 N 
ATOM      3  C1  UNL d   1      -6.000   3.858   2.251  0.00  0.00    -0.004 A 
ATOM      4  C2  UNL d   1      -5.728   4.013   0.909  0.00  0.00    -0.047 A 
ATOM      5  C3  UNL d   1      -5.370   5.366   0.702  0.00  0.00    -0.047 A 
ATOM      6  C4  UNL d   1      -5.434   5.999   1.926  0.00  0.00    -0.004 A 
ENDROOT
TORSDOF 0
ENDMDL
