MODEL 1
REMARK minimizedAffinity -1.05136347
REMARK minimizedRMSD -1
REMARK  0 active torsions:
REMARK  status: ('A' for Active; 'I' for Inactive)
ROOT
ATOM      1  C   UNL d   1      -5.449   5.983   3.923  0.00  0.00     0.172 C 
ATOM      2  N   UNL d   1      -5.369   5.444   2.585  0.00  0.00    -0.070 N 
ATOM      3  C1  UNL d   1      -5.995   4.309   2.143  0.00  0.00    -0.004 A 
ATOM      4  C2  UNL d   1      -5.669   4.137   0.815  0.00  0.00    -0.047 A 
ATOM      5  C3  UNL d   1      -4.818   5.206   0.447  0.00  0.00    -0.047 A 
ATOM      6  C4  UNL d   1      -4.649   6.000   1.561  0.00  0.00    -0.004 A 
ENDROOT
TORSDOF 0
ENDMDL
