MODEL 1
REMARK minimizedAffinity 2.04906893
REMARK minimizedRMSD -1
REMARK  0 active torsions:
REMARK  status: ('A' for Active; 'I' for Inactive)
ROOT
ATOM      1  C   UNL d   1      -4.858   5.747  -0.864  0.00  0.00     0.172 C 
ATOM      2  N   UNL d   1      -4.868   5.849   0.577  0.00  0.00    -0.070 N 
ATOM      3  C1  UNL d   1      -3.762   5.905   1.381  0.00  0.00    -0.004 A 
ATOM      4  C2  UNL d   1      -4.194   5.999   2.687  0.00  0.00    -0.047 A 
ATOM      5  C3  UNL d   1      -5.609   5.998   2.666  0.00  0.00    -0.047 A 
ATOM      6  C4  UNL d   1      -6.000   5.905   1.347  0.00  0.00    -0.004 A 
ENDROOT
TORSDOF 0
ENDMDL
