MODEL 1
REMARK minimizedAffinity -2.35617757
REMARK minimizedRMSD -1
REMARK  0 active torsions:
REMARK  status: ('A' for Active; 'I' for Inactive)
ROOT
ATOM      1  C   UNL d   1      -5.887   4.482   4.674  0.00  0.00     0.172 C 
ATOM      2  N   UNL d   1      -5.643   4.851   3.300  0.00  0.00    -0.070 N 
ATOM      3  C1  UNL d   1      -6.000   4.117   2.200  0.00  0.00    -0.004 A 
ATOM      4  C2  UNL d   1      -5.592   4.809   1.080  0.00  0.00    -0.047 A 
ATOM      5  C3  UNL d   1      -4.967   5.999   1.522  0.00  0.00    -0.047 A 
ATOM      6  C4  UNL d   1      -5.013   6.000   2.900  0.00  0.00    -0.004 A 
ENDROOT
TORSDOF 0
ENDMDL
