MODEL 1
REMARK minimizedAffinity -0.980951369
REMARK minimizedRMSD -1
REMARK  0 active torsions:
REMARK  status: ('A' for Active; 'I' for Inactive)
ROOT
ATOM      1  C   UNL d   1      -0.463   0.046  -1.951  0.00  0.00     0.172 C 
ATOM      2  N   UNL d   1      -0.225  -0.713  -0.746  0.00  0.00    -0.070 N 
ATOM      3  C1  UNL d   1       0.935  -0.713  -0.018  0.00  0.00    -0.004 A 
ATOM      4  C2  UNL d   1       0.761  -1.562   1.054  0.00  0.00    -0.047 A 
ATOM      5  C3  UNL d   1      -0.548  -2.092   0.966  0.00  0.00    -0.047 A 
ATOM      6  C4  UNL d   1      -1.136  -1.550  -0.157  0.00  0.00    -0.004 A 
ENDROOT
TORSDOF 0
ENDMDL
