MODEL 1
REMARK minimizedAffinity -3.30991244
REMARK minimizedRMSD -1
REMARK  0 active torsions:
REMARK  status: ('A' for Active; 'I' for Inactive)
ROOT
ATOM      1  C   UNL d   1       1.019  -0.184   0.575  0.00  0.00     0.172 C 
ATOM      2  N   UNL d   1      -0.277  -0.421  -0.017  0.00  0.00    -0.070 N 
ATOM      3  C1  UNL d   1      -0.684   0.016  -1.249  0.00  0.00    -0.004 A 
ATOM      4  C2  UNL d   1      -1.978  -0.416  -1.444  0.00  0.00    -0.047 A 
ATOM      5  C3  UNL d   1      -2.362  -1.137  -0.288  0.00  0.00    -0.047 A 
ATOM      6  C4  UNL d   1      -1.290  -1.125   0.579  0.00  0.00    -0.004 A 
ENDROOT
TORSDOF 0
ENDMDL
