MODEL 1
REMARK minimizedAffinity -3.45329595
REMARK minimizedRMSD -1
REMARK  0 active torsions:
REMARK  status: ('A' for Active; 'I' for Inactive)
ROOT
ATOM      1  C   UNL d   1      -0.523  -1.945   2.177  0.00  0.00     0.172 C 
ATOM      2  N   UNL d   1      -0.188  -1.100   1.055  0.00  0.00    -0.070 N 
ATOM      3  C1  UNL d   1      -1.041  -0.735   0.048  0.00  0.00    -0.004 A 
ATOM      4  C2  UNL d   1      -0.343   0.072  -0.824  0.00  0.00    -0.047 A 
ATOM      5  C3  UNL d   1       0.975   0.196  -0.324  0.00  0.00    -0.047 A 
ATOM      6  C4  UNL d   1       1.044  -0.539   0.840  0.00  0.00    -0.004 A 
ENDROOT
TORSDOF 0
ENDMDL
