MODEL 1
REMARK minimizedAffinity -1.37321413
REMARK minimizedRMSD -1
REMARK  0 active torsions:
REMARK  status: ('A' for Active; 'I' for Inactive)
ROOT
ATOM      1  C   UNL d   1      -1.105   0.963   3.204  0.00  0.00     0.172 C 
ATOM      2  N   UNL d   1      -0.456  -0.118   2.501  0.00  0.00    -0.070 N 
ATOM      3  C1  UNL d   1      -1.044  -1.301   2.139  0.00  0.00    -0.004 A 
ATOM      4  C2  UNL d   1      -0.096  -2.062   1.489  0.00  0.00    -0.047 A 
ATOM      5  C3  UNL d   1       1.103  -1.311   1.460  0.00  0.00    -0.047 A 
ATOM      6  C4  UNL d   1       0.852  -0.112   2.094  0.00  0.00    -0.004 A 
ENDROOT
TORSDOF 0
ENDMDL
