MODEL 1
REMARK minimizedAffinity -3.71773338
REMARK minimizedRMSD -1
REMARK  0 active torsions:
REMARK  status: ('A' for Active; 'I' for Inactive)
ROOT
ATOM      1  C   UNL d   1       0.779  -3.213  -1.256  0.00  0.00     0.172 C 
ATOM      2  N   UNL d   1       1.003  -4.294  -0.326  0.00  0.00    -0.070 N 
ATOM      3  C1  UNL d   1       0.034  -5.093   0.218  0.00  0.00    -0.004 A 
ATOM      4  C2  UNL d   1       0.652  -6.000   1.051  0.00  0.00    -0.047 A 
ATOM      5  C3  UNL d   1       2.042  -5.736   1.007  0.00  0.00    -0.047 A 
ATOM      6  C4  UNL d   1       2.231  -4.676   0.146  0.00  0.00    -0.004 A 
ENDROOT
TORSDOF 0
ENDMDL
