MODEL 1
REMARK minimizedAffinity -1.60264158
REMARK minimizedRMSD -1
REMARK  0 active torsions:
REMARK  status: ('A' for Active; 'I' for Inactive)
ROOT
ATOM      1  C   UNL d   1       0.026  -0.168  -0.492  0.00  0.00     0.172 C 
ATOM      2  N   UNL d   1      -0.116   0.796   0.574  0.00  0.00    -0.070 N 
ATOM      3  C1  UNL d   1      -1.274   1.442   0.916  0.00  0.00    -0.004 A 
ATOM      4  C2  UNL d   1      -0.994   2.275   1.978  0.00  0.00    -0.047 A 
ATOM      5  C3  UNL d   1       0.380   2.125   2.284  0.00  0.00    -0.047 A 
ATOM      6  C4  UNL d   1       0.899   1.203   1.399  0.00  0.00    -0.004 A 
ENDROOT
TORSDOF 0
ENDMDL
