MODEL 1
REMARK minimizedAffinity -1.61849296
REMARK minimizedRMSD -1
REMARK  0 active torsions:
REMARK  status: ('A' for Active; 'I' for Inactive)
ROOT
ATOM      1  C   UNL d   1       1.390  -5.959   0.572  0.00  0.00     0.172 C 
ATOM      2  N   UNL d   1       0.759  -5.024  -0.330  0.00  0.00    -0.070 N 
ATOM      3  C1  UNL d   1      -0.204  -5.331  -1.254  0.00  0.00    -0.004 A 
ATOM      4  C2  UNL d   1      -0.544  -4.169  -1.912  0.00  0.00    -0.047 A 
ATOM      5  C3  UNL d   1       0.243  -3.127  -1.365  0.00  0.00    -0.047 A 
ATOM      6  C4  UNL d   1       1.041  -3.684  -0.388  0.00  0.00    -0.004 A 
ENDROOT
TORSDOF 0
ENDMDL
