MODEL 1
REMARK minimizedAffinity -1.4607327
REMARK minimizedRMSD -1
REMARK  0 active torsions:
REMARK  status: ('A' for Active; 'I' for Inactive)
ROOT
ATOM      1  C   UNL d   1       1.086  -1.201  -0.906  0.00  0.00     0.172 C 
ATOM      2  N   UNL d   1       0.708  -2.592  -0.836  0.00  0.00    -0.070 N 
ATOM      3  C1  UNL d   1       1.426  -3.586  -0.225  0.00  0.00    -0.004 A 
ATOM      4  C2  UNL d   1       0.730  -4.765  -0.378  0.00  0.00    -0.047 A 
ATOM      5  C3  UNL d   1      -0.447  -4.471  -1.106  0.00  0.00    -0.047 A 
ATOM      6  C4  UNL d   1      -0.436  -3.119  -1.377  0.00  0.00    -0.004 A 
ENDROOT
TORSDOF 0
ENDMDL
