MODEL 1
REMARK minimizedAffinity -2.62211084
REMARK minimizedRMSD -1
REMARK  0 active torsions:
REMARK  status: ('A' for Active; 'I' for Inactive)
ROOT
ATOM      1  C   UNL d   1       0.294  -0.369  -0.485  0.00  0.00     0.172 C 
ATOM      2  N   UNL d   1      -0.142   0.885   0.085  0.00  0.00    -0.070 N 
ATOM      3  C1  UNL d   1      -0.506   1.999  -0.622  0.00  0.00    -0.004 A 
ATOM      4  C2  UNL d   1      -0.856   2.978   0.283  0.00  0.00    -0.047 A 
ATOM      5  C3  UNL d   1      -0.695   2.433   1.579  0.00  0.00    -0.047 A 
ATOM      6  C4  UNL d   1      -0.252   1.136   1.427  0.00  0.00    -0.004 A 
ENDROOT
TORSDOF 0
ENDMDL
