MODEL 1
REMARK minimizedAffinity -2.99372721
REMARK minimizedRMSD -1
REMARK  0 active torsions:
REMARK  status: ('A' for Active; 'I' for Inactive)
ROOT
ATOM      1  C   UNL d   1      -1.653   1.954   1.183  0.00  0.00     0.172 C 
ATOM      2  N   UNL d   1      -0.735   1.285   0.292  0.00  0.00    -0.070 N 
ATOM      3  C1  UNL d   1      -0.293   1.770  -0.910  0.00  0.00    -0.004 A 
ATOM      4  C2  UNL d   1       0.567   0.839  -1.451  0.00  0.00    -0.047 A 
ATOM      5  C3  UNL d   1       0.644  -0.244  -0.543  0.00  0.00    -0.047 A 
ATOM      6  C4  UNL d   1      -0.172   0.059   0.527  0.00  0.00    -0.004 A 
ENDROOT
TORSDOF 0
ENDMDL
