MODEL 1
REMARK minimizedAffinity -3.12743616
REMARK minimizedRMSD -1
REMARK  0 active torsions:
REMARK  status: ('A' for Active; 'I' for Inactive)
ROOT
ATOM      1  C   UNL d   1       1.570   0.511  -0.606  0.00  0.00     0.172 C 
ATOM      2  N   UNL d   1       0.988  -0.625   0.070  0.00  0.00    -0.070 N 
ATOM      3  C1  UNL d   1       1.680  -1.579   0.767  0.00  0.00    -0.004 A 
ATOM      4  C2  UNL d   1       0.767  -2.487   1.260  0.00  0.00    -0.047 A 
ATOM      5  C3  UNL d   1      -0.518  -2.064   0.843  0.00  0.00    -0.047 A 
ATOM      6  C4  UNL d   1      -0.351  -0.909   0.108  0.00  0.00    -0.004 A 
ENDROOT
TORSDOF 0
ENDMDL
