MODEL 1
REMARK minimizedAffinity -2.24109387
REMARK minimizedRMSD -1
REMARK  0 active torsions:
REMARK  status: ('A' for Active; 'I' for Inactive)
ROOT
ATOM      1  C   UNL d   1      -0.195   0.499  -0.435  0.00  0.00     0.172 C 
ATOM      2  N   UNL d   1      -1.191   1.049  -1.325  0.00  0.00    -0.070 N 
ATOM      3  C1  UNL d   1      -1.641   0.463  -2.478  0.00  0.00    -0.004 A 
ATOM      4  C2  UNL d   1      -2.585   1.299  -3.035  0.00  0.00    -0.047 A 
ATOM      5  C3  UNL d   1      -2.705   2.426  -2.189  0.00  0.00    -0.047 A 
ATOM      6  C4  UNL d   1      -1.831   2.245  -1.138  0.00  0.00    -0.004 A 
ENDROOT
TORSDOF 0
ENDMDL
