MODEL 1
REMARK minimizedAffinity -3.46899843
REMARK minimizedRMSD -1
REMARK  0 active torsions:
REMARK  status: ('A' for Active; 'I' for Inactive)
ROOT
ATOM      1  C   UNL d   1       0.835  -2.670   1.572  0.00  0.00     0.172 C 
ATOM      2  N   UNL d   1       0.803  -1.464   0.779  0.00  0.00    -0.070 N 
ATOM      3  C1  UNL d   1      -0.328  -0.833   0.331  0.00  0.00    -0.004 A 
ATOM      4  C2  UNL d   1       0.064   0.277  -0.386  0.00  0.00    -0.047 A 
ATOM      5  C3  UNL d   1       1.479   0.314  -0.369  0.00  0.00    -0.047 A 
ATOM      6  C4  UNL d   1       1.910  -0.775   0.359  0.00  0.00    -0.004 A 
ENDROOT
TORSDOF 0
ENDMDL
