MODEL 1
REMARK minimizedAffinity -4.00766754
REMARK minimizedRMSD -1
REMARK  0 active torsions:
REMARK  status: ('A' for Active; 'I' for Inactive)
ROOT
ATOM      1  C   UNL d   1      -0.225   1.266  -0.545  0.00  0.00     0.172 C 
ATOM      2  N   UNL d   1      -0.324   0.131   0.343  0.00  0.00    -0.070 N 
ATOM      3  C1  UNL d   1       0.315  -1.069   0.180  0.00  0.00    -0.004 A 
ATOM      4  C2  UNL d   1      -0.038  -1.882   1.235  0.00  0.00    -0.047 A 
ATOM      5  C3  UNL d   1      -0.921  -1.145   2.060  0.00  0.00    -0.047 A 
ATOM      6  C4  UNL d   1      -1.081   0.097   1.484  0.00  0.00    -0.004 A 
ENDROOT
TORSDOF 0
ENDMDL
