MODEL 1
REMARK minimizedAffinity -3.6568222
REMARK minimizedRMSD -1
REMARK  0 active torsions:
REMARK  status: ('A' for Active; 'I' for Inactive)
ROOT
ATOM      1  C   UNL d   1      -0.317   1.051  -0.249  0.00  0.00     0.172 C 
ATOM      2  N   UNL d   1       0.541  -0.085  -0.007  0.00  0.00    -0.070 N 
ATOM      3  C1  UNL d   1       0.233  -1.166   0.774  0.00  0.00    -0.004 A 
ATOM      4  C2  UNL d   1       1.310  -2.026   0.748  0.00  0.00    -0.047 A 
ATOM      5  C3  UNL d   1       2.300  -1.440  -0.076  0.00  0.00    -0.047 A 
ATOM      6  C4  UNL d   1       1.798  -0.239  -0.530  0.00  0.00    -0.004 A 
ENDROOT
TORSDOF 0
ENDMDL
