MODEL 1
REMARK minimizedAffinity -3.92352676
REMARK minimizedRMSD -1
REMARK  0 active torsions:
REMARK  status: ('A' for Active; 'I' for Inactive)
ROOT
ATOM      1  C   UNL d   1      -0.708   1.117  -0.502  0.00  0.00     0.172 C 
ATOM      2  N   UNL d   1       0.178   0.085  -0.019  0.00  0.00    -0.070 N 
ATOM      3  C1  UNL d   1      -0.148  -0.888   0.888  0.00  0.00    -0.004 A 
ATOM      4  C2  UNL d   1       0.967  -1.674   1.083  0.00  0.00    -0.047 A 
ATOM      5  C3  UNL d   1       2.000  -1.155   0.266  0.00  0.00    -0.047 A 
ATOM      6  C4  UNL d   1       1.484  -0.067  -0.405  0.00  0.00    -0.004 A 
ENDROOT
TORSDOF 0
ENDMDL
