MODEL 1
REMARK minimizedAffinity -2.01898909
REMARK minimizedRMSD -1
REMARK  0 active torsions:
REMARK  status: ('A' for Active; 'I' for Inactive)
ROOT
ATOM      1  C   UNL d   1       1.511  -2.767   0.968  0.00  0.00     0.172 C 
ATOM      2  N   UNL d   1       0.941  -1.509   0.546  0.00  0.00    -0.070 N 
ATOM      3  C1  UNL d   1      -0.355  -1.113   0.744  0.00  0.00    -0.004 A 
ATOM      4  C2  UNL d   1      -0.500   0.144   0.198  0.00  0.00    -0.047 A 
ATOM      5  C3  UNL d   1       0.751   0.516  -0.348  0.00  0.00    -0.047 A 
ATOM      6  C4  UNL d   1       1.626  -0.526  -0.118  0.00  0.00    -0.004 A 
ENDROOT
TORSDOF 0
ENDMDL
