MODEL 1
REMARK minimizedAffinity -3.50092936
REMARK minimizedRMSD -1
REMARK  0 active torsions:
REMARK  status: ('A' for Active; 'I' for Inactive)
ROOT
ATOM      1  C   UNL d   1      -0.038  -1.639   0.512  0.00  0.00     0.172 C 
ATOM      2  N   UNL d   1       0.305  -0.282   0.159  0.00  0.00    -0.070 N 
ATOM      3  C1  UNL d   1       1.564   0.174  -0.126  0.00  0.00    -0.004 A 
ATOM      4  C2  UNL d   1       1.471   1.519  -0.414  0.00  0.00    -0.047 A 
ATOM      5  C3  UNL d   1       0.109   1.883  -0.297  0.00  0.00    -0.047 A 
ATOM      6  C4  UNL d   1      -0.591   0.749   0.059  0.00  0.00    -0.004 A 
ENDROOT
TORSDOF 0
ENDMDL
