MODEL 1
REMARK minimizedAffinity -3.96492791
REMARK minimizedRMSD -1
REMARK  0 active torsions:
REMARK  status: ('A' for Active; 'I' for Inactive)
ROOT
ATOM      1  C   UNL d   1      -0.659   0.806   0.244  0.00  0.00     0.172 C 
ATOM      2  N   UNL d   1       0.158  -0.366   0.454  0.00  0.00    -0.070 N 
ATOM      3  C1  UNL d   1      -0.272  -1.555   0.979  0.00  0.00    -0.004 A 
ATOM      4  C2  UNL d   1       0.804  -2.415   1.016  0.00  0.00    -0.047 A 
ATOM      5  C3  UNL d   1       1.920  -1.718   0.495  0.00  0.00    -0.047 A 
ATOM      6  C4  UNL d   1       1.492  -0.452   0.156  0.00  0.00    -0.004 A 
ENDROOT
TORSDOF 0
ENDMDL
