MODEL 1
REMARK minimizedAffinity -3.35686111
REMARK minimizedRMSD -1
REMARK  0 active torsions:
REMARK  status: ('A' for Active; 'I' for Inactive)
ROOT
ATOM      1  C   UNL d   1      -1.021   1.012  -0.773  0.00  0.00     0.172 C 
ATOM      2  N   UNL d   1      -0.078   0.096  -0.177  0.00  0.00    -0.070 N 
ATOM      3  C1  UNL d   1      -0.398  -0.991   0.593  0.00  0.00    -0.004 A 
ATOM      4  C2  UNL d   1       0.778  -1.604   0.967  0.00  0.00    -0.047 A 
ATOM      5  C3  UNL d   1       1.842  -0.860   0.404  0.00  0.00    -0.047 A 
ATOM      6  C4  UNL d   1       1.283   0.187  -0.299  0.00  0.00    -0.004 A 
ENDROOT
TORSDOF 0
ENDMDL
