MODEL 1
REMARK minimizedAffinity -2.72742844
REMARK minimizedRMSD -1
REMARK  0 active torsions:
REMARK  status: ('A' for Active; 'I' for Inactive)
ROOT
ATOM      1  C   UNL d   1       0.078   1.403  -0.242  0.00  0.00     0.172 C 
ATOM      2  N   UNL d   1      -0.144   0.099   0.338  0.00  0.00    -0.070 N 
ATOM      3  C1  UNL d   1       0.755  -0.934   0.349  0.00  0.00    -0.004 A 
ATOM      4  C2  UNL d   1       0.165  -1.999   0.995  0.00  0.00    -0.047 A 
ATOM      5  C3  UNL d   1      -1.133  -1.592   1.385  0.00  0.00    -0.047 A 
ATOM      6  C4  UNL d   1      -1.298  -0.289   0.966  0.00  0.00    -0.004 A 
ENDROOT
TORSDOF 0
ENDMDL
