MODEL 1
REMARK minimizedAffinity -2.66534019
REMARK minimizedRMSD -1
REMARK  0 active torsions:
REMARK  status: ('A' for Active; 'I' for Inactive)
ROOT
ATOM      1  C   UNL d   1      -0.729   0.408  -0.588  0.00  0.00     0.172 C 
ATOM      2  N   UNL d   1      -0.122  -0.798  -0.077  0.00  0.00    -0.070 N 
ATOM      3  C1  UNL d   1       1.168  -0.916   0.368  0.00  0.00    -0.004 A 
ATOM      4  C2  UNL d   1       1.358  -2.220   0.771  0.00  0.00    -0.047 A 
ATOM      5  C3  UNL d   1       0.140  -2.910   0.561  0.00  0.00    -0.047 A 
ATOM      6  C4  UNL d   1      -0.758  -2.006   0.036  0.00  0.00    -0.004 A 
ENDROOT
TORSDOF 0
ENDMDL
