MODEL 1
REMARK minimizedAffinity -3.3005867
REMARK minimizedRMSD -1
REMARK  0 active torsions:
REMARK  status: ('A' for Active; 'I' for Inactive)
ROOT
ATOM      1  C   UNL d   1       0.998  -2.803   0.555  0.00  0.00     0.172 C 
ATOM      2  N   UNL d   1       0.268  -1.560   0.469  0.00  0.00    -0.070 N 
ATOM      3  C1  UNL d   1       0.498  -0.560  -0.438  0.00  0.00    -0.004 A 
ATOM      4  C2  UNL d   1      -0.406   0.450  -0.190  0.00  0.00    -0.047 A 
ATOM      5  C3  UNL d   1      -1.207   0.044   0.904  0.00  0.00    -0.047 A 
ATOM      6  C4  UNL d   1      -0.768  -1.205   1.292  0.00  0.00    -0.004 A 
ENDROOT
TORSDOF 0
ENDMDL
