MODEL 1
REMARK minimizedAffinity -2.04227972
REMARK minimizedRMSD -1
REMARK  0 active torsions:
REMARK  status: ('A' for Active; 'I' for Inactive)
ROOT
ATOM      1  C   UNL d   1      -0.017  -2.296   1.124  0.00  0.00     0.172 C 
ATOM      2  N   UNL d   1      -0.274  -0.905   0.833  0.00  0.00    -0.070 N 
ATOM      3  C1  UNL d   1       0.433  -0.130  -0.047  0.00  0.00    -0.004 A 
ATOM      4  C2  UNL d   1      -0.122   1.132  -0.039  0.00  0.00    -0.047 A 
ATOM      5  C3  UNL d   1      -1.200   1.114   0.878  0.00  0.00    -0.047 A 
ATOM      6  C4  UNL d   1      -1.271  -0.159   1.403  0.00  0.00    -0.004 A 
ENDROOT
TORSDOF 0
ENDMDL
