MODEL 1
REMARK minimizedAffinity -3.44279146
REMARK minimizedRMSD -1
REMARK  0 active torsions:
REMARK  status: ('A' for Active; 'I' for Inactive)
ROOT
ATOM      1  C   UNL d   1      -0.621   1.140  -0.305  0.00  0.00     0.172 C 
ATOM      2  N   UNL d   1       0.266   0.031  -0.044  0.00  0.00    -0.070 N 
ATOM      3  C1  UNL d   1      -0.075  -1.132   0.594  0.00  0.00    -0.004 A 
ATOM      4  C2  UNL d   1       1.046  -1.932   0.643  0.00  0.00    -0.047 A 
ATOM      5  C3  UNL d   1       2.098  -1.225   0.014  0.00  0.00    -0.047 A 
ATOM      6  C4  UNL d   1       1.588  -0.014  -0.403  0.00  0.00    -0.004 A 
ENDROOT
TORSDOF 0
ENDMDL
