MODEL 1
REMARK minimizedAffinity -3.68125129
REMARK minimizedRMSD -1
REMARK  0 active torsions:
REMARK  status: ('A' for Active; 'I' for Inactive)
ROOT
ATOM      1  C   UNL d   1      -0.511   0.998   0.087  0.00  0.00     0.172 C 
ATOM      2  N   UNL d   1       0.086  -0.285   0.375  0.00  0.00    -0.070 N 
ATOM      3  C1  UNL d   1       1.253  -0.760  -0.161  0.00  0.00    -0.004 A 
ATOM      4  C2  UNL d   1       1.480  -2.014   0.366  0.00  0.00    -0.047 A 
ATOM      5  C3  UNL d   1       0.411  -2.302   1.248  0.00  0.00    -0.047 A 
ATOM      6  C4  UNL d   1      -0.437  -1.215   1.235  0.00  0.00    -0.004 A 
ENDROOT
TORSDOF 0
ENDMDL
