MODEL 1
REMARK minimizedAffinity 2.48191261
REMARK minimizedRMSD -1
REMARK  0 active torsions:
REMARK  status: ('A' for Active; 'I' for Inactive)
ROOT
ATOM      1  C   UNL d   1       4.602  -2.517   4.540  0.00  0.00     0.172 C 
ATOM      2  N   UNL d   1       4.442  -3.251   3.307  0.00  0.00    -0.070 N 
ATOM      3  C1  UNL d   1       4.195  -2.701   2.077  0.00  0.00    -0.004 A 
ATOM      4  C2  UNL d   1       4.110  -3.730   1.164  0.00  0.00    -0.047 A 
ATOM      5  C3  UNL d   1       4.314  -4.940   1.870  0.00  0.00    -0.047 A 
ATOM      6  C4  UNL d   1       4.517  -4.614   3.194  0.00  0.00    -0.004 A 
ENDROOT
TORSDOF 0
ENDMDL
