MODEL 1
REMARK minimizedAffinity -3.49747014
REMARK minimizedRMSD -1
REMARK  0 active torsions:
REMARK  status: ('A' for Active; 'I' for Inactive)
ROOT
ATOM      1  C   UNL d   1      -1.893   1.533  -4.601  0.00  0.00     0.172 C 
ATOM      2  N   UNL d   1      -2.547   0.422  -3.951  0.00  0.00    -0.070 N 
ATOM      3  C1  UNL d   1      -3.082  -0.669  -4.582  0.00  0.00    -0.004 A 
ATOM      4  C2  UNL d   1      -3.610  -1.498  -3.616  0.00  0.00    -0.047 A 
ATOM      5  C3  UNL d   1      -3.387  -0.883  -2.361  0.00  0.00    -0.047 A 
ATOM      6  C4  UNL d   1      -2.727   0.305  -2.598  0.00  0.00    -0.004 A 
ENDROOT
TORSDOF 0
ENDMDL
