MODEL 1
REMARK minimizedAffinity -0.570662856
REMARK minimizedRMSD -1
REMARK  0 active torsions:
REMARK  status: ('A' for Active; 'I' for Inactive)
ROOT
ATOM      1  C   UNL d   1      -3.491  -0.053  -2.006  0.00  0.00     0.172 C 
ATOM      2  N   UNL d   1      -3.879  -0.563  -3.300  0.00  0.00    -0.070 N 
ATOM      3  C1  UNL d   1      -3.681   0.068  -4.499  0.00  0.00    -0.004 A 
ATOM      4  C2  UNL d   1      -4.189  -0.742  -5.491  0.00  0.00    -0.047 A 
ATOM      5  C3  UNL d   1      -4.711  -1.900  -4.867  0.00  0.00    -0.047 A 
ATOM      6  C4  UNL d   1      -4.506  -1.763  -3.510  0.00  0.00    -0.004 A 
ENDROOT
TORSDOF 0
ENDMDL
