MODEL 1
REMARK minimizedAffinity -0.838504195
REMARK minimizedRMSD -1
REMARK  0 active torsions:
REMARK  status: ('A' for Active; 'I' for Inactive)
ROOT
ATOM      1  C   UNL d   1       4.821  -4.541   4.114  0.00  0.00     0.172 C 
ATOM      2  N   UNL d   1       4.602  -4.470   2.689  0.00  0.00    -0.070 N 
ATOM      3  C1  UNL d   1       5.457  -4.934   1.725  0.00  0.00    -0.004 A 
ATOM      4  C2  UNL d   1       4.887  -4.679   0.497  0.00  0.00    -0.047 A 
ATOM      5  C3  UNL d   1       3.646  -4.039   0.730  0.00  0.00    -0.047 A 
ATOM      6  C4  UNL d   1       3.495  -3.922   2.096  0.00  0.00    -0.004 A 
ENDROOT
TORSDOF 0
ENDMDL
