MODEL 1
REMARK minimizedAffinity -0.907832682
REMARK minimizedRMSD -1
REMARK  0 active torsions:
REMARK  status: ('A' for Active; 'I' for Inactive)
ROOT
ATOM      1  C   UNL d   1      -4.120  -1.500  -3.148  0.00  0.00     0.172 C 
ATOM      2  N   UNL d   1      -4.634  -0.600  -4.154  0.00  0.00    -0.070 N 
ATOM      3  C1  UNL d   1      -5.855   0.019  -4.122  0.00  0.00    -0.004 A 
ATOM      4  C2  UNL d   1      -5.966   0.791  -5.258  0.00  0.00    -0.047 A 
ATOM      5  C3  UNL d   1      -4.771   0.629  -5.999  0.00  0.00    -0.047 A 
ATOM      6  C4  UNL d   1      -3.964  -0.237  -5.293  0.00  0.00    -0.004 A 
ENDROOT
TORSDOF 0
ENDMDL
