MODEL 1
REMARK minimizedAffinity -0.0421613194
REMARK minimizedRMSD -1
REMARK  0 active torsions:
REMARK  status: ('A' for Active; 'I' for Inactive)
ROOT
ATOM      1  C   UNL d   1      -3.055  -0.717  -2.664  0.00  0.00     0.172 C 
ATOM      2  N   UNL d   1      -3.818  -0.203  -3.777  0.00  0.00    -0.070 N 
ATOM      3  C1  UNL d   1      -5.182  -0.095  -3.827  0.00  0.00    -0.004 A 
ATOM      4  C2  UNL d   1      -5.518   0.440  -5.052  0.00  0.00    -0.047 A 
ATOM      5  C3  UNL d   1      -4.314   0.660  -5.763  0.00  0.00    -0.047 A 
ATOM      6  C4  UNL d   1      -3.277   0.254  -4.950  0.00  0.00    -0.004 A 
ENDROOT
TORSDOF 0
ENDMDL
