MODEL 1
REMARK minimizedAffinity -2.54144526
REMARK minimizedRMSD -1
REMARK  0 active torsions:
REMARK  status: ('A' for Active; 'I' for Inactive)
ROOT
ATOM      1  C   UNL d   1       4.293  -3.392   2.729  0.00  0.00     0.172 C 
ATOM      2  N   UNL d   1       4.872  -3.403   4.052  0.00  0.00    -0.070 N 
ATOM      3  C1  UNL d   1       5.301  -2.303   4.745  0.00  0.00    -0.004 A 
ATOM      4  C2  UNL d   1       5.785  -2.734   5.962  0.00  0.00    -0.047 A 
ATOM      5  C3  UNL d   1       5.643  -4.141   6.000  0.00  0.00    -0.047 A 
ATOM      6  C4  UNL d   1       5.075  -4.529   4.805  0.00  0.00    -0.004 A 
ENDROOT
TORSDOF 0
ENDMDL
