MODEL 1
REMARK minimizedAffinity -0.513446569
REMARK minimizedRMSD -1
REMARK  0 active torsions:
REMARK  status: ('A' for Active; 'I' for Inactive)
ROOT
ATOM      1  C1  BNZ d   1       3.868  -6.000  -5.988  0.00  0.00     0.000 A 
ATOM      2  C2  BNZ d   1       5.237  -5.959  -6.000  0.00  0.00     0.000 A 
ATOM      3  C3  BNZ d   1       5.924  -5.256  -5.051  0.00  0.00     0.000 A 
ATOM      4  C4  BNZ d   1       5.242  -4.562  -4.117  0.00  0.00     0.000 A 
ATOM      5  C5  BNZ d   1       3.862  -4.585  -4.098  0.00  0.00     0.000 A 
ATOM      6  C6  BNZ d   1       3.174  -5.326  -5.031  0.00  0.00     0.000 A 
ENDROOT
TORSDOF 0
ENDMDL
