MODEL 1
REMARK minimizedAffinity 5.7892828
REMARK minimizedRMSD -1
REMARK  0 active torsions:
REMARK  status: ('A' for Active; 'I' for Inactive)
ROOT
ATOM      1  C1  BNZ d   1       3.841  -5.993  -5.794  0.00  0.00     0.000 A 
ATOM      2  C2  BNZ d   1       5.196  -5.973  -5.989  0.00  0.00     0.000 A 
ATOM      3  C3  BNZ d   1       5.989  -5.093  -5.306  0.00  0.00     0.000 A 
ATOM      4  C4  BNZ d   1       5.422  -4.210  -4.460  0.00  0.00     0.000 A 
ATOM      5  C5  BNZ d   1       4.056  -4.211  -4.259  0.00  0.00     0.000 A 
ATOM      6  C6  BNZ d   1       3.265  -5.124  -4.920  0.00  0.00     0.000 A 
ENDROOT
TORSDOF 0
ENDMDL
