MODEL 1
REMARK minimizedAffinity 5.02601862
REMARK minimizedRMSD -1
REMARK  0 active torsions:
REMARK  status: ('A' for Active; 'I' for Inactive)
ROOT
ATOM      1  C1  BNZ d   1       2.478   1.901   1.869  0.00  0.00     0.000 A 
ATOM      2  C2  BNZ d   1       3.220   1.554   2.966  0.00  0.00     0.000 A 
ATOM      3  C3  BNZ d   1       4.583   1.655   2.950  0.00  0.00     0.000 A 
ATOM      4  C4  BNZ d   1       5.204   2.065   1.825  0.00  0.00     0.000 A 
ATOM      5  C5  BNZ d   1       4.470   2.410   0.707  0.00  0.00     0.000 A 
ATOM      6  C6  BNZ d   1       3.096   2.344   0.740  0.00  0.00     0.000 A 
ENDROOT
TORSDOF 0
ENDMDL
