MODEL 1
REMARK minimizedAffinity 5.99212837
REMARK minimizedRMSD -1
REMARK  0 active torsions:
REMARK  status: ('A' for Active; 'I' for Inactive)
ROOT
ATOM      1  C1  BNZ d   1       2.584   1.849   2.118  0.00  0.00     0.000 A 
ATOM      2  C2  BNZ d   1       1.271   1.512   2.313  0.00  0.00     0.000 A 
ATOM      3  C3  BNZ d   1       0.301   1.952   1.455  0.00  0.00     0.000 A 
ATOM      4  C4  BNZ d   1       0.640   2.760   0.430  0.00  0.00     0.000 A 
ATOM      5  C5  BNZ d   1       1.958   3.116   0.226  0.00  0.00     0.000 A 
ATOM      6  C6  BNZ d   1       2.936   2.639   1.068  0.00  0.00     0.000 A 
ENDROOT
TORSDOF 0
ENDMDL
