MODEL 1
REMARK minimizedAffinity 3.15474176
REMARK minimizedRMSD -1
REMARK  0 active torsions:
REMARK  status: ('A' for Active; 'I' for Inactive)
ROOT
ATOM      1  C1  BNZ d   1       0.342   2.618   0.657  0.00  0.00     0.000 A 
ATOM      2  C2  BNZ d   1       1.697   2.478   0.518  0.00  0.00     0.000 A 
ATOM      3  C3  BNZ d   1       2.483   2.170   1.593  0.00  0.00     0.000 A 
ATOM      4  C4  BNZ d   1       1.919   2.041   2.811  0.00  0.00     0.000 A 
ATOM      5  C5  BNZ d   1       0.556   2.189   2.969  0.00  0.00     0.000 A 
ATOM      6  C6  BNZ d   1      -0.237   2.461   1.878  0.00  0.00     0.000 A 
ENDROOT
TORSDOF 0
ENDMDL
