MODEL 1
REMARK minimizedAffinity 1.40170836
REMARK minimizedRMSD -1
REMARK  0 active torsions:
REMARK  status: ('A' for Active; 'I' for Inactive)
ROOT
ATOM      1  C1  BNZ d   1       2.923   1.498   2.140  0.00  0.00     0.000 A 
ATOM      2  C2  BNZ d   1       2.589   1.546   0.813  0.00  0.00     0.000 A 
ATOM      3  C3  BNZ d   1       1.327   1.894   0.421  0.00  0.00     0.000 A 
ATOM      4  C4  BNZ d   1       0.390   2.153   1.357  0.00  0.00     0.000 A 
ATOM      5  C5  BNZ d   1       0.709   2.100   2.699  0.00  0.00     0.000 A 
ATOM      6  C6  BNZ d   1       1.991   1.787   3.089  0.00  0.00     0.000 A 
ENDROOT
TORSDOF 0
ENDMDL
