MODEL 1
REMARK minimizedAffinity 4.4099822
REMARK minimizedRMSD -1
REMARK  0 active torsions:
REMARK  status: ('A' for Active; 'I' for Inactive)
ROOT
ATOM      1  C1  BNZ d   1      -0.394   0.434   1.288  0.00  0.00     0.000 A 
ATOM      2  C2  BNZ d   1       0.935   0.191   1.509  0.00  0.00     0.000 A 
ATOM      3  C3  BNZ d   1       1.876   1.145   1.241  0.00  0.00     0.000 A 
ATOM      4  C4  BNZ d   1       1.491   2.326   0.715  0.00  0.00     0.000 A 
ATOM      5  C5  BNZ d   1       0.155   2.583   0.477  0.00  0.00     0.000 A 
ATOM      6  C6  BNZ d   1      -0.793   1.634   0.785  0.00  0.00     0.000 A 
ENDROOT
TORSDOF 0
ENDMDL
