MODEL 1
REMARK minimizedAffinity 9.78536701
REMARK minimizedRMSD -1
REMARK  0 active torsions:
REMARK  status: ('A' for Active; 'I' for Inactive)
ROOT
ATOM      1  C1  BNZ d   1      -2.176  -4.441  -1.138  0.00  0.00     0.000 A 
ATOM      2  C2  BNZ d   1      -1.182  -3.742  -1.770  0.00  0.00     0.000 A 
ATOM      3  C3  BNZ d   1       0.121  -4.143  -1.682  0.00  0.00     0.000 A 
ATOM      4  C4  BNZ d   1       0.435  -5.219  -0.931  0.00  0.00     0.000 A 
ATOM      5  C5  BNZ d   1      -0.554  -5.929  -0.280  0.00  0.00     0.000 A 
ATOM      6  C6  BNZ d   1      -1.870  -5.545  -0.402  0.00  0.00     0.000 A 
ENDROOT
TORSDOF 0
ENDMDL
