MODEL 1
REMARK minimizedAffinity 0.77583313
REMARK minimizedRMSD -1
REMARK  0 active torsions:
REMARK  status: ('A' for Active; 'I' for Inactive)
ROOT
ATOM      1  C1  BNZ d   1       5.142   4.154   1.128  0.00  0.00     0.000 A 
ATOM      2  C2  BNZ d   1       3.786   4.159   1.317  0.00  0.00     0.000 A 
ATOM      3  C3  BNZ d   1       3.023   3.088   0.941  0.00  0.00     0.000 A 
ATOM      4  C4  BNZ d   1       3.611   2.033   0.342  0.00  0.00     0.000 A 
ATOM      5  C5  BNZ d   1       4.976   2.017   0.136  0.00  0.00     0.000 A 
ATOM      6  C6  BNZ d   1       5.746   3.079   0.551  0.00  0.00     0.000 A 
ENDROOT
TORSDOF 0
ENDMDL
