MODEL 1
REMARK minimizedAffinity 7.70636606
REMARK minimizedRMSD -1
REMARK  0 active torsions:
REMARK  status: ('A' for Active; 'I' for Inactive)
ROOT
ATOM      1  C1  BNZ d   1       2.143   0.982   4.101  0.00  0.00     0.000 A 
ATOM      2  C2  BNZ d   1       1.294   0.796   3.042  0.00  0.00     0.000 A 
ATOM      3  C3  BNZ d   1       1.686   1.101   1.769  0.00  0.00     0.000 A 
ATOM      4  C4  BNZ d   1       2.910   1.628   1.560  0.00  0.00     0.000 A 
ATOM      5  C5  BNZ d   1       3.774   1.830   2.617  0.00  0.00     0.000 A 
ATOM      6  C6  BNZ d   1       3.390   1.486   3.893  0.00  0.00     0.000 A 
ENDROOT
TORSDOF 0
ENDMDL
