MODEL 1
REMARK minimizedAffinity -0.130047128
REMARK minimizedRMSD -1
REMARK  0 active torsions:
REMARK  status: ('A' for Active; 'I' for Inactive)
ROOT
ATOM      1  C1  BNZ d   1       5.675   5.273   5.992  0.00  0.00     0.000 A 
ATOM      2  C2  BNZ d   1       5.396   3.932   6.000  0.00  0.00     0.000 A 
ATOM      3  C3  BNZ d   1       4.945   3.305   4.872  0.00  0.00     0.000 A 
ATOM      4  C4  BNZ d   1       4.736   4.025   3.751  0.00  0.00     0.000 A 
ATOM      5  C5  BNZ d   1       5.005   5.380   3.730  0.00  0.00     0.000 A 
ATOM      6  C6  BNZ d   1       5.495   6.000   4.856  0.00  0.00     0.000 A 
ENDROOT
TORSDOF 0
ENDMDL
