MODEL 1
REMARK minimizedAffinity -4.54230499
REMARK minimizedRMSD -1
REMARK  0 active torsions:
REMARK  status: ('A' for Active; 'I' for Inactive)
ROOT
ATOM      1  C1  BNZ d   1       0.875   1.516  -3.879  0.00  0.00     0.000 A 
ATOM      2  C2  BNZ d   1       0.009   1.623  -4.935  0.00  0.00     0.000 A 
ATOM      3  C3  BNZ d   1       0.298   2.431  -5.998  0.00  0.00     0.000 A 
ATOM      4  C4  BNZ d   1       1.431   3.163  -5.986  0.00  0.00     0.000 A 
ATOM      5  C5  BNZ d   1       2.309   3.073  -4.925  0.00  0.00     0.000 A 
ATOM      6  C6  BNZ d   1       2.034   2.229  -3.874  0.00  0.00     0.000 A 
ENDROOT
TORSDOF 0
ENDMDL
