MODEL 1
REMARK minimizedAffinity 5.47329855
REMARK minimizedRMSD -1
REMARK  0 active torsions:
REMARK  status: ('A' for Active; 'I' for Inactive)
ROOT
ATOM      1  C1  BNZ d   1       3.009   4.832   2.271  0.00  0.00     0.000 A 
ATOM      2  C2  BNZ d   1       3.711   5.999   2.127  0.00  0.00     0.000 A 
ATOM      3  C3  BNZ d   1       4.962   6.000   1.577  0.00  0.00     0.000 A 
ATOM      4  C4  BNZ d   1       5.525   4.831   1.209  0.00  0.00     0.000 A 
ATOM      5  C5  BNZ d   1       4.834   3.645   1.355  0.00  0.00     0.000 A 
ATOM      6  C6  BNZ d   1       3.559   3.652   1.874  0.00  0.00     0.000 A 
ENDROOT
TORSDOF 0
ENDMDL
