MODEL 1
REMARK minimizedAffinity 5.65489388
REMARK minimizedRMSD -1
REMARK  0 active torsions:
REMARK  status: ('A' for Active; 'I' for Inactive)
ROOT
ATOM      1  C1  BNZ d   1      -1.354   2.633   1.676  0.00  0.00     0.000 A 
ATOM      2  C2  BNZ d   1      -0.693   2.636   0.477  0.00  0.00     0.000 A 
ATOM      3  C3  BNZ d   1       0.608   2.225   0.394  0.00  0.00     0.000 A 
ATOM      4  C4  BNZ d   1       1.258   1.851   1.515  0.00  0.00     0.000 A 
ATOM      5  C5  BNZ d   1       0.609   1.853   2.733  0.00  0.00     0.000 A 
ATOM      6  C6  BNZ d   1      -0.713   2.229   2.807  0.00  0.00     0.000 A 
ENDROOT
TORSDOF 0
ENDMDL
