MODEL 1
REMARK minimizedAffinity -1.54695928
REMARK minimizedRMSD -1
REMARK  0 active torsions:
REMARK  status: ('A' for Active; 'I' for Inactive)
ROOT
ATOM      1  C1  BNZ d   1      -1.856   4.328  -4.498  0.00  0.00     0.000 A 
ATOM      2  C2  BNZ d   1      -2.275   3.024  -4.500  0.00  0.00     0.000 A 
ATOM      3  C3  BNZ d   1      -3.336   2.631  -5.266  0.00  0.00     0.000 A 
ATOM      4  C4  BNZ d   1      -4.001   3.548  -5.998  0.00  0.00     0.000 A 
ATOM      5  C5  BNZ d   1      -3.597   4.868  -5.999  0.00  0.00     0.000 A 
ATOM      6  C6  BNZ d   1      -2.505   5.253  -5.257  0.00  0.00     0.000 A 
ENDROOT
TORSDOF 0
ENDMDL
