MODEL 1
REMARK minimizedAffinity -1.2771064
REMARK minimizedRMSD -1
REMARK  0 active torsions:
REMARK  status: ('A' for Active; 'I' for Inactive)
ROOT
ATOM      1  C1  BNZ d   1       4.568   3.756  -0.023  0.00  0.00     0.000 A 
ATOM      2  C2  BNZ d   1       3.814   3.772   1.120  0.00  0.00     0.000 A 
ATOM      3  C3  BNZ d   1       3.728   4.901   1.886  0.00  0.00     0.000 A 
ATOM      4  C4  BNZ d   1       4.427   5.999   1.529  0.00  0.00     0.000 A 
ATOM      5  C5  BNZ d   1       5.198   5.995   0.384  0.00  0.00     0.000 A 
ATOM      6  C6  BNZ d   1       5.251   4.869  -0.405  0.00  0.00     0.000 A 
ENDROOT
TORSDOF 0
ENDMDL
