MODEL 1
REMARK minimizedAffinity -1.60074973
REMARK minimizedRMSD -1
REMARK  0 active torsions:
REMARK  status: ('A' for Active; 'I' for Inactive)
ROOT
ATOM      1  C   UNL d   1       2.166   3.615   0.658  0.00  0.00     0.020 A 
ATOM      2  C1  UNL d   1       3.013   2.908   1.511  0.00  0.00     0.020 A 
ATOM      3  C2  UNL d   1       2.882   1.524   1.636  0.00  0.00     0.034 A 
ATOM      4  C3  UNL d   1       1.901   0.841   0.907  0.00  0.00     0.017 A 
ATOM      5  C4  UNL d   1       1.051   1.550   0.051  0.00  0.00     0.017 A 
ATOM      6  C5  UNL d   1       1.187   2.937  -0.070  0.00  0.00     0.034 A 
ATOM      7 Cl   UNL d   1      -0.182   0.777  -0.881  0.00  0.00    -0.070 Cl
ATOM      8 Cl1  UNL d   1       1.796  -0.872   1.111  0.00  0.00    -0.070 Cl
ENDROOT
TORSDOF 0
ENDMDL
