MODEL 1
REMARK minimizedAffinity -4.88961172
REMARK minimizedRMSD -1
REMARK  0 active torsions:
REMARK  status: ('A' for Active; 'I' for Inactive)
ROOT
ATOM      1  C   UNL d   1      -1.929  -2.522   1.059  0.00  0.00     0.020 A 
ATOM      2  C1  UNL d   1      -2.850  -2.243   0.050  0.00  0.00     0.020 A 
ATOM      3  C2  UNL d   1      -2.584  -1.236  -0.880  0.00  0.00     0.034 A 
ATOM      4  C3  UNL d   1      -1.393  -0.504  -0.803  0.00  0.00     0.017 A 
ATOM      5  C4  UNL d   1      -0.470  -0.784   0.210  0.00  0.00     0.017 A 
ATOM      6  C5  UNL d   1      -0.741  -1.794   1.139  0.00  0.00     0.034 A 
ATOM      7 Cl   UNL d   1       1.021   0.077   0.370  0.00  0.00    -0.070 Cl
ATOM      8 Cl1  UNL d   1      -1.129   0.727  -1.987  0.00  0.00    -0.070 Cl
ENDROOT
TORSDOF 0
ENDMDL
