MODEL 1
REMARK minimizedAffinity -1.85501158
REMARK minimizedRMSD -1
REMARK  0 active torsions:
REMARK  status: ('A' for Active; 'I' for Inactive)
ROOT
ATOM      1  C   UNL d   1      -2.598  -0.924  -1.779  0.00  0.00     0.020 A 
ATOM      2  C1  UNL d   1      -3.048  -2.067  -1.121  0.00  0.00     0.020 A 
ATOM      3  C2  UNL d   1      -2.304  -2.607  -0.070  0.00  0.00     0.034 A 
ATOM      4  C3  UNL d   1      -1.105  -2.003   0.327  0.00  0.00     0.017 A 
ATOM      5  C4  UNL d   1      -0.654  -0.855  -0.334  0.00  0.00     0.017 A 
ATOM      6  C5  UNL d   1      -1.403  -0.319  -1.386  0.00  0.00     0.034 A 
ATOM      7 Cl   UNL d   1       0.815  -0.054   0.099  0.00  0.00    -0.070 Cl
ATOM      8 Cl1  UNL d   1      -0.237  -2.724   1.635  0.00  0.00    -0.070 Cl
ENDROOT
TORSDOF 0
ENDMDL
