MODEL 1
REMARK minimizedAffinity -4.54569387
REMARK minimizedRMSD -1
REMARK  0 active torsions:
REMARK  status: ('A' for Active; 'I' for Inactive)
ROOT
ATOM      1  C   UNL d   1      -1.177   0.632  -1.808  0.00  0.00     0.020 A 
ATOM      2  C1  UNL d   1      -2.270  -0.151  -1.436  0.00  0.00     0.020 A 
ATOM      3  C2  UNL d   1      -2.120  -1.141  -0.463  0.00  0.00     0.034 A 
ATOM      4  C3  UNL d   1      -0.876  -1.351   0.142  0.00  0.00     0.017 A 
ATOM      5  C4  UNL d   1       0.220  -0.565  -0.232  0.00  0.00     0.017 A 
ATOM      6  C5  UNL d   1       0.065   0.425  -1.207  0.00  0.00     0.034 A 
ATOM      7 Cl   UNL d   1       1.787  -0.766   0.470  0.00  0.00    -0.070 Cl
ATOM      8 Cl1  UNL d   1      -0.764  -2.593   1.339  0.00  0.00    -0.070 Cl
ENDROOT
TORSDOF 0
ENDMDL
