MODEL 1
REMARK minimizedAffinity -4.10263968
REMARK minimizedRMSD -1
REMARK  0 active torsions:
REMARK  status: ('A' for Active; 'I' for Inactive)
ROOT
ATOM      1  C   UNL d   1      -2.012  -2.165   0.220  0.00  0.00     0.020 A 
ATOM      2  C1  UNL d   1      -0.961  -2.312   1.124  0.00  0.00     0.020 A 
ATOM      3  C2  UNL d   1       0.078  -1.379   1.144  0.00  0.00     0.034 A 
ATOM      4  C3  UNL d   1       0.068  -0.295   0.259  0.00  0.00     0.017 A 
ATOM      5  C4  UNL d   1      -0.988  -0.148  -0.648  0.00  0.00     0.017 A 
ATOM      6  C5  UNL d   1      -2.026  -1.085  -0.663  0.00  0.00     0.034 A 
ATOM      7 Cl   UNL d   1      -1.070   1.163  -1.770  0.00  0.00    -0.070 Cl
ATOM      8 Cl1  UNL d   1       1.385   0.821   0.340  0.00  0.00    -0.070 Cl
ENDROOT
TORSDOF 0
ENDMDL
