MODEL 1
REMARK minimizedAffinity -2.80536437
REMARK minimizedRMSD -1
REMARK  0 active torsions:
REMARK  status: ('A' for Active; 'I' for Inactive)
ROOT
ATOM      1  C   UNL d   1      -1.119   0.666  -1.787  0.00  0.00     0.020 A 
ATOM      2  C1  UNL d   1      -2.169  -0.233  -1.605  0.00  0.00     0.020 A 
ATOM      3  C2  UNL d   1      -2.056  -1.255  -0.660  0.00  0.00     0.034 A 
ATOM      4  C3  UNL d   1      -0.892  -1.380   0.107  0.00  0.00     0.017 A 
ATOM      5  C4  UNL d   1       0.161  -0.477  -0.077  0.00  0.00     0.017 A 
ATOM      6  C5  UNL d   1       0.043   0.545  -1.025  0.00  0.00     0.034 A 
ATOM      7 Cl   UNL d   1       1.628  -0.567   0.832  0.00  0.00    -0.070 Cl
ATOM      8 Cl1  UNL d   1      -0.822  -2.667   1.257  0.00  0.00    -0.070 Cl
ENDROOT
TORSDOF 0
ENDMDL
