MODEL 1
REMARK minimizedAffinity -0.530666351
REMARK minimizedRMSD -1
REMARK  0 active torsions:
REMARK  status: ('A' for Active; 'I' for Inactive)
ROOT
ATOM      1  C   UNL d   1       0.568  -0.175   0.648  0.00  0.00     0.020 A 
ATOM      2  C1  UNL d   1       0.843   0.393  -0.596  0.00  0.00     0.020 A 
ATOM      3  C2  UNL d   1       0.022   0.110  -1.689  0.00  0.00     0.034 A 
ATOM      4  C3  UNL d   1      -1.078  -0.743  -1.541  0.00  0.00     0.017 A 
ATOM      5  C4  UNL d   1      -1.353  -1.312  -0.293  0.00  0.00     0.017 A 
ATOM      6  C5  UNL d   1      -0.528  -1.025   0.799  0.00  0.00     0.034 A 
ATOM      7 Cl   UNL d   1      -2.692  -2.373  -0.033  0.00  0.00    -0.070 Cl
ATOM      8 Cl1  UNL d   1      -2.050  -1.049  -2.937  0.00  0.00    -0.070 Cl
ENDROOT
TORSDOF 0
ENDMDL
