MODEL 1
REMARK minimizedAffinity 1.88316202
REMARK minimizedRMSD -1
REMARK  0 active torsions:
REMARK  status: ('A' for Active; 'I' for Inactive)
ROOT
ATOM      1  C   UNL d   1       1.317   0.474   0.668  0.00  0.00     0.020 A 
ATOM      2  C1  UNL d   1       0.749   1.241  -0.349  0.00  0.00     0.020 A 
ATOM      3  C2  UNL d   1      -0.420   0.810  -0.979  0.00  0.00     0.034 A 
ATOM      4  C3  UNL d   1      -1.025  -0.392  -0.594  0.00  0.00     0.017 A 
ATOM      5  C4  UNL d   1      -0.455  -1.161   0.427  0.00  0.00     0.017 A 
ATOM      6  C5  UNL d   1       0.716  -0.724   1.055  0.00  0.00     0.034 A 
ATOM      7 Cl   UNL d   1      -1.144  -2.655   0.957  0.00  0.00    -0.070 Cl
ATOM      8 Cl1  UNL d   1      -2.469  -0.864  -1.416  0.00  0.00    -0.070 Cl
ENDROOT
TORSDOF 0
ENDMDL
