MODEL 1
REMARK minimizedAffinity -0.890104055
REMARK minimizedRMSD -1
REMARK  0 active torsions:
REMARK  status: ('A' for Active; 'I' for Inactive)
ROOT
ATOM      1  C   UNL d   1       3.308   3.018   0.246  0.00  0.00     0.020 A 
ATOM      2  C1  UNL d   1       2.588   3.753   1.186  0.00  0.00     0.020 A 
ATOM      3  C2  UNL d   1       1.426   3.220   1.749  0.00  0.00     0.034 A 
ATOM      4  C3  UNL d   1       0.982   1.947   1.372  0.00  0.00     0.017 A 
ATOM      5  C4  UNL d   1       1.706   1.210   0.428  0.00  0.00     0.017 A 
ATOM      6  C5  UNL d   1       2.868   1.749  -0.132  0.00  0.00     0.034 A 
ATOM      7 Cl   UNL d   1       1.220  -0.367  -0.087  0.00  0.00    -0.070 Cl
ATOM      8 Cl1  UNL d   1      -0.462   1.350   2.108  0.00  0.00    -0.070 Cl
ENDROOT
TORSDOF 0
ENDMDL
