MODEL 1
REMARK minimizedAffinity -2.99789262
REMARK minimizedRMSD -1
REMARK  0 active torsions:
REMARK  status: ('A' for Active; 'I' for Inactive)
ROOT
ATOM      1  C   UNL d   1       0.720  -0.936   1.418  0.00  0.00     0.020 A 
ATOM      2  C1  UNL d   1      -0.252  -1.846   1.830  0.00  0.00     0.020 A 
ATOM      3  C2  UNL d   1      -1.487  -1.891   1.180  0.00  0.00     0.034 A 
ATOM      4  C3  UNL d   1      -1.753  -1.024   0.114  0.00  0.00     0.017 A 
ATOM      5  C4  UNL d   1      -0.776  -0.111  -0.300  0.00  0.00     0.017 A 
ATOM      6  C5  UNL d   1       0.459  -0.070   0.355  0.00  0.00     0.034 A 
ATOM      7 Cl   UNL d   1      -1.031   0.990  -1.608  0.00  0.00    -0.070 Cl
ATOM      8 Cl1  UNL d   1      -3.302  -1.135  -0.645  0.00  0.00    -0.070 Cl
ENDROOT
TORSDOF 0
ENDMDL
