MODEL 1
REMARK minimizedAffinity 6.20872641
REMARK minimizedRMSD -1
REMARK  0 active torsions:
REMARK  status: ('A' for Active; 'I' for Inactive)
ROOT
ATOM      1  C   UNL d   1      -2.497  -3.489   1.441  0.00  0.00     0.020 A 
ATOM      2  C1  UNL d   1      -1.126  -3.528   1.689  0.00  0.00     0.020 A 
ATOM      3  C2  UNL d   1      -0.285  -2.572   1.114  0.00  0.00     0.034 A 
ATOM      4  C3  UNL d   1      -0.815  -1.574   0.288  0.00  0.00     0.017 A 
ATOM      5  C4  UNL d   1      -2.192  -1.536   0.040  0.00  0.00     0.017 A 
ATOM      6  C5  UNL d   1      -3.029  -2.495   0.619  0.00  0.00     0.034 A 
ATOM      7 Cl   UNL d   1      -2.920  -0.335  -0.967  0.00  0.00    -0.070 Cl
ATOM      8 Cl1  UNL d   1       0.282  -0.424  -0.389  0.00  0.00    -0.070 Cl
ENDROOT
TORSDOF 0
ENDMDL
