MODEL 1
REMARK minimizedAffinity -2.4020617
REMARK minimizedRMSD -1
REMARK  0 active torsions:
REMARK  status: ('A' for Active; 'I' for Inactive)
ROOT
ATOM      1  C   UNL d   1       2.137   2.467   1.815  0.00  0.00     0.020 A 
ATOM      2  C1  UNL d   1       1.697   3.254   0.752  0.00  0.00     0.020 A 
ATOM      3  C2  UNL d   1       0.773   2.742  -0.161  0.00  0.00     0.034 A 
ATOM      4  C3  UNL d   1       0.286   1.438  -0.012  0.00  0.00     0.017 A 
ATOM      5  C4  UNL d   1       0.728   0.648   1.055  0.00  0.00     0.017 A 
ATOM      6  C5  UNL d   1       1.654   1.166   1.966  0.00  0.00     0.034 A 
ATOM      7 Cl   UNL d   1       0.172  -0.969   1.304  0.00  0.00    -0.070 Cl
ATOM      8 Cl1  UNL d   1      -0.856   0.870  -1.178  0.00  0.00    -0.070 Cl
ENDROOT
TORSDOF 0
ENDMDL
