MODEL 1
REMARK minimizedAffinity -5.54484558
REMARK minimizedRMSD -1
REMARK  0 active torsions:
REMARK  status: ('A' for Active; 'I' for Inactive)
ROOT
ATOM      1  C   UNL d   1      -2.953  -0.240  -1.267  0.00  0.00     0.020 A 
ATOM      2  C1  UNL d   1      -3.635  -1.216  -0.542  0.00  0.00     0.020 A 
ATOM      3  C2  UNL d   1      -2.949  -2.007   0.383  0.00  0.00     0.034 A 
ATOM      4  C3  UNL d   1      -1.577  -1.823   0.584  0.00  0.00     0.017 A 
ATOM      5  C4  UNL d   1      -0.892  -0.843  -0.144  0.00  0.00     0.017 A 
ATOM      6  C5  UNL d   1      -1.584  -0.054  -1.068  0.00  0.00     0.034 A 
ATOM      7 Cl   UNL d   1       0.801  -0.558   0.050  0.00  0.00    -0.070 Cl
ATOM      8 Cl1  UNL d   1      -0.792  -2.836   1.744  0.00  0.00    -0.070 Cl
ENDROOT
TORSDOF 0
ENDMDL
