MODEL 1
REMARK minimizedAffinity -1.18930507
REMARK minimizedRMSD -1
REMARK  0 active torsions:
REMARK  status: ('A' for Active; 'I' for Inactive)
ROOT
ATOM      1  C   UNL d   1      -2.576  -2.782  -0.018  0.00  0.00     0.020 A 
ATOM      2  C1  UNL d   1      -1.736  -3.211   1.009  0.00  0.00     0.020 A 
ATOM      3  C2  UNL d   1      -0.550  -2.523   1.275  0.00  0.00     0.034 A 
ATOM      4  C3  UNL d   1      -0.201  -1.402   0.513  0.00  0.00     0.017 A 
ATOM      5  C4  UNL d   1      -1.045  -0.973  -0.518  0.00  0.00     0.017 A 
ATOM      6  C5  UNL d   1      -2.231  -1.666  -0.780  0.00  0.00     0.034 A 
ATOM      7 Cl   UNL d   1      -0.681   0.401  -1.502  0.00  0.00    -0.070 Cl
ATOM      8 Cl1  UNL d   1       1.280  -0.599   0.897  0.00  0.00    -0.070 Cl
ENDROOT
TORSDOF 0
ENDMDL
