MODEL 1
REMARK minimizedAffinity -1.29313493
REMARK minimizedRMSD -1
REMARK  0 active torsions:
REMARK  status: ('A' for Active; 'I' for Inactive)
ROOT
ATOM      1  C   UNL d   1       1.564  -0.014   1.086  0.00  0.00     0.020 A 
ATOM      2  C1  UNL d   1       1.119   0.808   0.052  0.00  0.00     0.020 A 
ATOM      3  C2  UNL d   1      -0.099   0.541  -0.576  0.00  0.00     0.034 A 
ATOM      4  C3  UNL d   1      -0.876  -0.550  -0.171  0.00  0.00     0.017 A 
ATOM      5  C4  UNL d   1      -0.428  -1.375   0.867  0.00  0.00     0.017 A 
ATOM      6  C5  UNL d   1       0.792  -1.103   1.493  0.00  0.00     0.034 A 
ATOM      7 Cl   UNL d   1      -1.332  -2.740   1.422  0.00  0.00    -0.070 Cl
ATOM      8 Cl1  UNL d   1      -2.372  -0.820  -0.992  0.00  0.00    -0.070 Cl
ENDROOT
TORSDOF 0
ENDMDL
