MODEL 1
REMARK minimizedAffinity -1.97493351
REMARK minimizedRMSD -1
REMARK  0 active torsions:
REMARK  status: ('A' for Active; 'I' for Inactive)
ROOT
ATOM      1  C   UNL d   1       2.474   3.258   0.384  0.00  0.00     0.020 A 
ATOM      2  C1  UNL d   1       3.347   2.680   1.305  0.00  0.00     0.020 A 
ATOM      3  C2  UNL d   1       3.288   1.308   1.558  0.00  0.00     0.034 A 
ATOM      4  C3  UNL d   1       2.355   0.509   0.888  0.00  0.00     0.017 A 
ATOM      5  C4  UNL d   1       1.479   1.089  -0.037  0.00  0.00     0.017 A 
ATOM      6  C5  UNL d   1       1.542   2.464  -0.286  0.00  0.00     0.034 A 
ATOM      7 Cl   UNL d   1       0.300   0.168  -0.902  0.00  0.00    -0.070 Cl
ATOM      8 Cl1  UNL d   1       2.338  -1.181   1.249  0.00  0.00    -0.070 Cl
ENDROOT
TORSDOF 0
ENDMDL
