MODEL 1
REMARK minimizedAffinity -3.41982698
REMARK minimizedRMSD -1
REMARK  0 active torsions:
REMARK  status: ('A' for Active; 'I' for Inactive)
ROOT
ATOM      1  C   UNL d   1      -2.724  -2.361   0.075  0.00  0.00     0.020 A 
ATOM      2  C1  UNL d   1      -1.798  -2.632   1.082  0.00  0.00     0.020 A 
ATOM      3  C2  UNL d   1      -0.635  -1.867   1.184  0.00  0.00     0.034 A 
ATOM      4  C3  UNL d   1      -0.393  -0.828   0.279  0.00  0.00     0.017 A 
ATOM      5  C4  UNL d   1      -1.323  -0.556  -0.731  0.00  0.00     0.017 A 
ATOM      6  C5  UNL d   1      -2.487  -1.325  -0.829  0.00  0.00     0.034 A 
ATOM      7 Cl   UNL d   1      -1.095   0.710  -1.885  0.00  0.00    -0.070 Cl
ATOM      8 Cl1  UNL d   1       1.067   0.077   0.465  0.00  0.00    -0.070 Cl
ENDROOT
TORSDOF 0
ENDMDL
