MODEL 1
REMARK minimizedAffinity -0.553642213
REMARK minimizedRMSD -1
REMARK  1 active torsions:
REMARK  status: ('A' for Active; 'I' for Inactive)
REMARK    1  A    between atoms: N_2  and  C1_3 
ROOT
ATOM      1  C1  UNL d   1      -1.350   1.609  -0.207  0.00  0.00     0.143 A 
ATOM      2  C2  UNL d   1      -0.499   2.256  -1.109  0.00  0.00    -0.057 A 
ATOM      3  C3  UNL d   1       0.672   1.642  -1.570  0.00  0.00     0.033 A 
ATOM      4  C4  UNL d   1       1.029   0.378  -1.112  0.00  0.00    -0.042 A 
ATOM      5  C5  UNL d   1       0.210  -0.274  -0.196  0.00  0.00     0.033 A 
ATOM      6  C6  UNL d   1      -0.961   0.342   0.255  0.00  0.00    -0.057 A 
ENDROOT
BRANCH   1   7
ATOM      7  N   UNL d   1      -2.477   2.205   0.364  0.00  0.00    -0.732 N 
ATOM      8  C   UNL d   1      -2.350   3.065   1.521  0.00  0.00     0.284 C 
ATOM      9  H3  UNL d   1      -3.133   2.545  -0.336  0.00  0.00     0.395 HD
ENDBRANCH   1   7
TORSDOF 1
ENDMDL
