MODEL 1
REMARK minimizedAffinity -3.43837166
REMARK minimizedRMSD -1
REMARK  1 active torsions:
REMARK  status: ('A' for Active; 'I' for Inactive)
REMARK    1  A    between atoms: N_2  and  C1_3 
ROOT
ATOM      1  C1  UNL d   1      -0.737   0.687   0.819  0.00  0.00     0.143 A 
ATOM      2  C2  UNL d   1      -0.337   1.252  -0.397  0.00  0.00    -0.057 A 
ATOM      3  C3  UNL d   1       0.583   0.605  -1.231  0.00  0.00     0.033 A 
ATOM      4  C4  UNL d   1       1.144  -0.609  -0.848  0.00  0.00    -0.042 A 
ATOM      5  C5  UNL d   1       0.781  -1.177   0.368  0.00  0.00     0.033 A 
ATOM      6  C6  UNL d   1      -0.144  -0.530   1.193  0.00  0.00    -0.057 A 
ENDROOT
BRANCH   1   7
ATOM      7  N   UNL d   1      -1.573   1.327   1.737  0.00  0.00    -0.732 N 
ATOM      8  C   UNL d   1      -2.649   2.181   1.282  0.00  0.00     0.284 C 
ATOM      9  H3  UNL d   1      -1.820   0.727   2.520  0.00  0.00     0.395 HD
ENDBRANCH   1   7
TORSDOF 1
ENDMDL
