MODEL 1
REMARK minimizedAffinity -2.54427147
REMARK minimizedRMSD -1
REMARK  1 active torsions:
REMARK  status: ('A' for Active; 'I' for Inactive)
REMARK    1  A    between atoms: N_2  and  C1_3 
ROOT
ATOM      1  C1  UNL d   1       0.487  -0.509  -0.280  0.00  0.00     0.143 A 
ATOM      2  C2  UNL d   1       0.452   0.548  -1.197  0.00  0.00    -0.057 A 
ATOM      3  C3  UNL d   1      -0.285   1.710  -0.937  0.00  0.00     0.033 A 
ATOM      4  C4  UNL d   1      -1.026   1.823   0.235  0.00  0.00    -0.042 A 
ATOM      5  C5  UNL d   1      -1.025   0.776   1.148  0.00  0.00     0.033 A 
ATOM      6  C6  UNL d   1      -0.282  -0.379   0.887  0.00  0.00    -0.057 A 
ENDROOT
BRANCH   1   7
ATOM      7  N   UNL d   1       1.121  -1.729  -0.524  0.00  0.00    -0.732 N 
ATOM      8  C   UNL d   1       0.626  -2.626  -1.547  0.00  0.00     0.284 C 
ATOM      9  H3  UNL d   1       2.136  -1.653  -0.495  0.00  0.00     0.395 HD
ENDBRANCH   1   7
TORSDOF 1
ENDMDL
