MODEL 1
REMARK minimizedAffinity -3.20858145
REMARK minimizedRMSD -1
REMARK  1 active torsions:
REMARK  status: ('A' for Active; 'I' for Inactive)
REMARK    1  A    between atoms: N_2  and  C1_3 
ROOT
ATOM      1  C1  UNL d   1      -1.092   1.114   0.327  0.00  0.00     0.143 A 
ATOM      2  C2  UNL d   1      -0.458   1.638  -0.804  0.00  0.00    -0.057 A 
ATOM      3  C3  UNL d   1       0.581   0.946  -1.439  0.00  0.00     0.033 A 
ATOM      4  C4  UNL d   1       1.025  -0.271  -0.935  0.00  0.00    -0.042 A 
ATOM      5  C5  UNL d   1       0.426  -0.799   0.204  0.00  0.00     0.033 A 
ATOM      6  C6  UNL d   1      -0.616  -0.107   0.830  0.00  0.00    -0.057 A 
ENDROOT
BRANCH   1   7
ATOM      7  N   UNL d   1      -2.064   1.799   1.061  0.00  0.00    -0.732 N 
ATOM      8  C   UNL d   1      -1.750   2.359   2.358  0.00  0.00     0.284 C 
ATOM      9  H3  UNL d   1      -2.639   2.401   0.477  0.00  0.00     0.395 HD
ENDBRANCH   1   7
TORSDOF 1
ENDMDL
