MODEL 1
REMARK minimizedAffinity -0.545625865
REMARK minimizedRMSD -1
REMARK  1 active torsions:
REMARK  status: ('A' for Active; 'I' for Inactive)
REMARK    1  A    between atoms: N_2  and  C1_3 
ROOT
ATOM      1  C1  UNL d   1       0.602  -0.608  -0.231  0.00  0.00     0.143 A 
ATOM      2  C2  UNL d   1       0.512   0.713  -0.682  0.00  0.00    -0.057 A 
ATOM      3  C3  UNL d   1      -0.209   1.677   0.033  0.00  0.00     0.033 A 
ATOM      4  C4  UNL d   1      -0.878   1.329   1.201  0.00  0.00    -0.042 A 
ATOM      5  C5  UNL d   1      -0.823   0.016   1.656  0.00  0.00     0.033 A 
ATOM      6  C6  UNL d   1      -0.096  -0.941   0.941  0.00  0.00    -0.057 A 
ENDROOT
BRANCH   1   7
ATOM      7  N   UNL d   1       1.220  -1.635  -0.948  0.00  0.00    -0.732 N 
ATOM      8  C   UNL d   1       0.433  -2.570  -1.724  0.00  0.00     0.284 C 
ATOM      9  H3  UNL d   1       2.074  -1.328  -1.408  0.00  0.00     0.395 HD
ENDBRANCH   1   7
TORSDOF 1
ENDMDL
