MODEL 1
REMARK minimizedAffinity -3.94869375
REMARK minimizedRMSD -1
REMARK  1 active torsions:
REMARK  status: ('A' for Active; 'I' for Inactive)
REMARK    1  A    between atoms: N_2  and  C1_3 
ROOT
ATOM      1  C1  UNL d   1      -1.079   1.185   1.213  0.00  0.00     0.143 A 
ATOM      2  C2  UNL d   1      -0.668   1.502  -0.086  0.00  0.00    -0.057 A 
ATOM      3  C3  UNL d   1       0.322   0.757  -0.736  0.00  0.00     0.033 A 
ATOM      4  C4  UNL d   1       0.942  -0.305  -0.086  0.00  0.00    -0.042 A 
ATOM      5  C5  UNL d   1       0.567  -0.623   1.215  0.00  0.00     0.033 A 
ATOM      6  C6  UNL d   1      -0.428   0.122   1.857  0.00  0.00    -0.057 A 
ENDROOT
BRANCH   1   7
ATOM      7  N   UNL d   1      -1.989   1.949   1.950  0.00  0.00    -0.732 N 
ATOM      8  C   UNL d   1      -2.320   3.297   1.541  0.00  0.00     0.284 C 
ATOM      9  H3  UNL d   1      -2.786   1.403   2.268  0.00  0.00     0.395 HD
ENDBRANCH   1   7
TORSDOF 1
ENDMDL
