MODEL 1
REMARK minimizedAffinity -1.9667058
REMARK minimizedRMSD -1
REMARK  1 active torsions:
REMARK  status: ('A' for Active; 'I' for Inactive)
REMARK    1  A    between atoms: N_2  and  C1_3 
ROOT
ATOM      1  C1  UNL d   1       0.034  -1.503  -1.432  0.00  0.00     0.143 A 
ATOM      2  C2  UNL d   1       0.302  -0.141  -1.607  0.00  0.00    -0.057 A 
ATOM      3  C3  UNL d   1       0.547   0.697  -0.513  0.00  0.00     0.033 A 
ATOM      4  C4  UNL d   1       0.499   0.192   0.782  0.00  0.00    -0.042 A 
ATOM      5  C5  UNL d   1       0.210  -1.154   0.981  0.00  0.00     0.033 A 
ATOM      6  C6  UNL d   1      -0.027  -1.987  -0.116  0.00  0.00    -0.057 A 
ENDROOT
BRANCH   1   7
ATOM      7  N   UNL d   1      -0.315  -2.367  -2.473  0.00  0.00    -0.732 N 
ATOM      8  C   UNL d   1      -0.183  -3.799  -2.318  0.00  0.00     0.284 C 
ATOM      9  H3  UNL d   1      -1.166  -2.077  -2.950  0.00  0.00     0.395 HD
ENDBRANCH   1   7
TORSDOF 1
ENDMDL
