MODEL 1
REMARK minimizedAffinity -4.97608995
REMARK minimizedRMSD -1
REMARK  1 active torsions:
REMARK  status: ('A' for Active; 'I' for Inactive)
REMARK    1  A    between atoms: N_2  and  C1_3 
ROOT
ATOM      1  C1  UNL d   1      -0.083   0.005   0.336  0.00  0.00     0.143 A 
ATOM      2  C2  UNL d   1      -0.188   0.038   1.731  0.00  0.00    -0.057 A 
ATOM      3  C3  UNL d   1      -0.947   1.020   2.379  0.00  0.00     0.033 A 
ATOM      4  C4  UNL d   1      -1.593   2.008   1.643  0.00  0.00    -0.042 A 
ATOM      5  C5  UNL d   1      -1.482   2.010   0.257  0.00  0.00     0.033 A 
ATOM      6  C6  UNL d   1      -0.728   1.022  -0.385  0.00  0.00    -0.057 A 
ENDROOT
BRANCH   1   7
ATOM      7  N   UNL d   1       0.736  -0.886  -0.361  0.00  0.00    -0.732 N 
ATOM      8  C   UNL d   1       0.174  -1.787  -1.344  0.00  0.00     0.284 C 
ATOM      9  H3  UNL d   1       1.619  -0.465  -0.640  0.00  0.00     0.395 HD
ENDBRANCH   1   7
TORSDOF 1
ENDMDL
