MODEL 1
REMARK minimizedAffinity -4.90126371
REMARK minimizedRMSD -1
REMARK  1 active torsions:
REMARK  status: ('A' for Active; 'I' for Inactive)
REMARK    1  A    between atoms: N_2  and  C1_3 
ROOT
ATOM      1  C1  UNL d   1       0.045   0.035   0.221  0.00  0.00     0.143 A 
ATOM      2  C2  UNL d   1      -0.170  -0.529   1.483  0.00  0.00    -0.057 A 
ATOM      3  C3  UNL d   1      -1.077   0.036   2.387  0.00  0.00     0.033 A 
ATOM      4  C4  UNL d   1      -1.767   1.197   2.054  0.00  0.00    -0.042 A 
ATOM      5  C5  UNL d   1      -1.551   1.789   0.814  0.00  0.00     0.033 A 
ATOM      6  C6  UNL d   1      -0.649   1.216  -0.086  0.00  0.00    -0.057 A 
ENDROOT
BRANCH   1   7
ATOM      7  N   UNL d   1       1.006  -0.424  -0.683  0.00  0.00    -0.732 N 
ATOM      8  C   UNL d   1       0.687  -1.470  -1.631  0.00  0.00     0.284 C 
ATOM      9  H3  UNL d   1       1.567   0.331  -1.070  0.00  0.00     0.395 HD
ENDBRANCH   1   7
TORSDOF 1
ENDMDL
