MODEL 1
REMARK minimizedAffinity -3.23741937
REMARK minimizedRMSD -1
REMARK  1 active torsions:
REMARK  status: ('A' for Active; 'I' for Inactive)
REMARK    1  A    between atoms: N_2  and  C1_3 
ROOT
ATOM      1  C1  UNL d   1       0.329  -0.007  -0.029  0.00  0.00     0.143 A 
ATOM      2  C2  UNL d   1       0.143   1.252  -0.611  0.00  0.00    -0.057 A 
ATOM      3  C3  UNL d   1      -0.776   2.167  -0.083  0.00  0.00     0.033 A 
ATOM      4  C4  UNL d   1      -1.548   1.827   1.023  0.00  0.00    -0.042 A 
ATOM      5  C5  UNL d   1      -1.398   0.572   1.602  0.00  0.00     0.033 A 
ATOM      6  C6  UNL d   1      -0.474  -0.335   1.074  0.00  0.00    -0.057 A 
ENDROOT
BRANCH   1   7
ATOM      7  N   UNL d   1       1.155  -0.997  -0.566  0.00  0.00    -0.732 N 
ATOM      8  C   UNL d   1       0.744  -1.748  -1.733  0.00  0.00     0.284 C 
ATOM      9  H3  UNL d   1       2.136  -0.725  -0.571  0.00  0.00     0.395 HD
ENDBRANCH   1   7
TORSDOF 1
ENDMDL
