MODEL 1
REMARK minimizedAffinity -3.49765301
REMARK minimizedRMSD -1
REMARK  1 active torsions:
REMARK  status: ('A' for Active; 'I' for Inactive)
REMARK    1  A    between atoms: N_2  and  C1_3 
ROOT
ATOM      1  C1  UNL d   1       0.139  -0.373  -0.097  0.00  0.00     0.143 A 
ATOM      2  C2  UNL d   1      -0.302  -0.848   1.143  0.00  0.00    -0.057 A 
ATOM      3  C3  UNL d   1      -1.256  -0.147   1.892  0.00  0.00     0.033 A 
ATOM      4  C4  UNL d   1      -1.766   1.060   1.425  0.00  0.00    -0.042 A 
ATOM      5  C5  UNL d   1      -1.323   1.564   0.207  0.00  0.00     0.033 A 
ATOM      6  C6  UNL d   1      -0.376   0.856  -0.539  0.00  0.00    -0.057 A 
ENDROOT
BRANCH   1   7
ATOM      7  N   UNL d   1       1.157  -0.972  -0.842  0.00  0.00    -0.732 N 
ATOM      8  C   UNL d   1       0.897  -2.166  -1.618  0.00  0.00     0.284 C 
ATOM      9  H3  UNL d   1       1.747  -0.290  -1.313  0.00  0.00     0.395 HD
ENDBRANCH   1   7
TORSDOF 1
ENDMDL
