MODEL 1
REMARK minimizedAffinity -3.37181258
REMARK minimizedRMSD -1
REMARK  1 active torsions:
REMARK  status: ('A' for Active; 'I' for Inactive)
REMARK    1  A    between atoms: N_2  and  C1_3 
ROOT
ATOM      1  C1  UNL d   1      -0.445   0.588   0.392  0.00  0.00     0.143 A 
ATOM      2  C2  UNL d   1      -1.251   0.728   1.526  0.00  0.00    -0.057 A 
ATOM      3  C3  UNL d   1      -1.867   1.948   1.833  0.00  0.00     0.033 A 
ATOM      4  C4  UNL d   1      -1.664   3.060   1.022  0.00  0.00    -0.042 A 
ATOM      5  C5  UNL d   1      -0.846   2.950  -0.097  0.00  0.00     0.033 A 
ATOM      6  C6  UNL d   1      -0.239   1.728  -0.401  0.00  0.00    -0.057 A 
ENDROOT
BRANCH   1   7
ATOM      7  N   UNL d   1       0.274  -0.571   0.087  0.00  0.00    -0.732 N 
ATOM      8  C   UNL d   1       1.256  -0.571  -0.976  0.00  0.00     0.284 C 
ATOM      9  H3  UNL d   1       0.564  -1.078   0.920  0.00  0.00     0.395 HD
ENDBRANCH   1   7
TORSDOF 1
ENDMDL
