MODEL 1
REMARK minimizedAffinity -3.10438347
REMARK minimizedRMSD -1
REMARK  1 active torsions:
REMARK  status: ('A' for Active; 'I' for Inactive)
REMARK    1  A    between atoms: N_2  and  C1_3 
ROOT
ATOM      1  C1  UNL d   1       0.156  -0.016   0.182  0.00  0.00     0.143 A 
ATOM      2  C2  UNL d   1       0.185  -0.450   1.512  0.00  0.00    -0.057 A 
ATOM      3  C3  UNL d   1      -0.442   0.281   2.528  0.00  0.00     0.033 A 
ATOM      4  C4  UNL d   1      -1.088   1.478   2.236  0.00  0.00    -0.042 A 
ATOM      5  C5  UNL d   1      -1.108   1.941   0.925  0.00  0.00     0.033 A 
ATOM      6  C6  UNL d   1      -0.485   1.204  -0.087  0.00  0.00    -0.057 A 
ENDROOT
BRANCH   1   7
ATOM      7  N   UNL d   1       0.844  -0.646  -0.857  0.00  0.00    -0.732 N 
ATOM      8  C   UNL d   1       0.752  -2.079  -1.040  0.00  0.00     0.284 C 
ATOM      9  H3  UNL d   1       0.813  -0.114  -1.723  0.00  0.00     0.395 HD
ENDBRANCH   1   7
TORSDOF 1
ENDMDL
