MODEL 1
REMARK minimizedAffinity -4.98348236
REMARK minimizedRMSD -1
REMARK  1 active torsions:
REMARK  status: ('A' for Active; 'I' for Inactive)
REMARK    1  A    between atoms: N_2  and  C1_3 
ROOT
ATOM      1  C1  UNL d   1      -0.568   1.126   0.111  0.00  0.00     0.143 A 
ATOM      2  C2  UNL d   1      -0.016   1.621  -1.075  0.00  0.00    -0.057 A 
ATOM      3  C3  UNL d   1       1.111   1.026  -1.655  0.00  0.00     0.033 A 
ATOM      4  C4  UNL d   1       1.725  -0.061  -1.040  0.00  0.00    -0.042 A 
ATOM      5  C5  UNL d   1       1.208  -0.554   0.152  0.00  0.00     0.033 A 
ATOM      6  C6  UNL d   1       0.078   0.040   0.723  0.00  0.00    -0.057 A 
ENDROOT
BRANCH   1   7
ATOM      7  N   UNL d   1      -1.628   1.734   0.789  0.00  0.00    -0.732 N 
ATOM      8  C   UNL d   1      -1.566   3.135   1.149  0.00  0.00     0.284 C 
ATOM      9  H3  UNL d   1      -2.535   1.435   0.440  0.00  0.00     0.395 HD
ENDBRANCH   1   7
TORSDOF 1
ENDMDL
