MODEL 1
REMARK minimizedAffinity -4.02138948
REMARK minimizedRMSD -1
REMARK  1 active torsions:
REMARK  status: ('A' for Active; 'I' for Inactive)
REMARK    1  A    between atoms: N_2  and  C1_3 
ROOT
ATOM      1  C1  UNL d   1      -0.175  -0.151  -0.071  0.00  0.00     0.143 A 
ATOM      2  C2  UNL d   1      -0.548  -0.210   1.276  0.00  0.00    -0.057 A 
ATOM      3  C3  UNL d   1      -1.358   0.777   1.850  0.00  0.00     0.033 A 
ATOM      4  C4  UNL d   1      -1.787   1.861   1.090  0.00  0.00    -0.042 A 
ATOM      5  C5  UNL d   1      -1.408   1.953  -0.244  0.00  0.00     0.033 A 
ATOM      6  C6  UNL d   1      -0.605   0.960  -0.813  0.00  0.00    -0.057 A 
ENDROOT
BRANCH   1   7
ATOM      7  N   UNL d   1       0.709  -1.050  -0.673  0.00  0.00    -0.732 N 
ATOM      8  C   UNL d   1       0.232  -2.018  -1.638  0.00  0.00     0.284 C 
ATOM      9  H3  UNL d   1       1.594  -0.615  -0.924  0.00  0.00     0.395 HD
ENDBRANCH   1   7
TORSDOF 1
ENDMDL
