MODEL 1
REMARK minimizedAffinity -5.14332104
REMARK minimizedRMSD -1
REMARK  0 active torsions:
REMARK  status: ('A' for Active; 'I' for Inactive)
ROOT
ATOM      1  O1  BZF d   1      -0.211   2.536   2.320  0.00  0.00    -0.204 OA
ATOM      2  C2  BZF d   1      -0.745   3.624   1.658  0.00  0.00     0.174 A 
ATOM      3  C3  BZF d   1      -0.838   3.380   0.335  0.00  0.00    -0.012 A 
ATOM      4  C3A BZF d   1      -0.415   2.023   0.172  0.00  0.00    -0.107 A 
ATOM      5  C4  BZF d   1      -0.303   1.198  -0.911  0.00  0.00     0.055 A 
ATOM      6  C5  BZF d   1       0.212  -0.048  -0.741  0.00  0.00    -0.016 A 
ATOM      7  C6  BZF d   1       0.627  -0.500   0.494  0.00  0.00     0.022 A 
ATOM      8  C7  BZF d   1       0.530   0.280   1.598  0.00  0.00     0.029 A 
ATOM      9  C7A BZF d   1      -0.020   1.528   1.436  0.00  0.00     0.058 A 
ENDROOT
TORSDOF 0
ENDMDL
