MODEL 1
REMARK minimizedAffinity -2.40756726
REMARK minimizedRMSD -1
REMARK  0 active torsions:
REMARK  status: ('A' for Active; 'I' for Inactive)
ROOT
ATOM      1  O1  BZF d   1      -0.091   2.523  -1.205  0.00  0.00    -0.204 OA
ATOM      2  C2  BZF d   1      -0.054   1.644  -2.269  0.00  0.00     0.174 A 
ATOM      3  C3  BZF d   1       0.195   0.388  -1.844  0.00  0.00    -0.012 A 
ATOM      4  C3A BZF d   1       0.231   0.475  -0.416  0.00  0.00    -0.107 A 
ATOM      5  C4  BZF d   1       0.423  -0.444   0.575  0.00  0.00     0.055 A 
ATOM      6  C5  BZF d   1       0.472  -0.022   1.866  0.00  0.00    -0.016 A 
ATOM      7  C6  BZF d   1       0.338   1.310   2.200  0.00  0.00     0.022 A 
ATOM      8  C7  BZF d   1       0.141   2.257   1.252  0.00  0.00     0.029 A 
ATOM      9  C7A BZF d   1       0.058   1.830  -0.051  0.00  0.00     0.058 A 
ENDROOT
TORSDOF 0
ENDMDL
