MODEL 1
REMARK minimizedAffinity -5.17079544
REMARK minimizedRMSD -1
REMARK  0 active torsions:
REMARK  status: ('A' for Active; 'I' for Inactive)
ROOT
ATOM      1  O1  BZF d   1       0.327  -0.286  -0.708  0.00  0.00    -0.204 OA
ATOM      2  C2  BZF d   1       0.908  -1.077   0.265  0.00  0.00     0.174 A 
ATOM      3  C3  BZF d   1       0.924  -0.439   1.453  0.00  0.00    -0.012 A 
ATOM      4  C3A BZF d   1       0.233   0.793   1.229  0.00  0.00    -0.107 A 
ATOM      5  C4  BZF d   1      -0.090   1.848   2.033  0.00  0.00     0.055 A 
ATOM      6  C5  BZF d   1      -0.705   2.931   1.488  0.00  0.00    -0.016 A 
ATOM      7  C6  BZF d   1      -1.006   2.994   0.143  0.00  0.00     0.022 A 
ATOM      8  C7  BZF d   1      -0.710   1.969  -0.694  0.00  0.00     0.029 A 
ATOM      9  C7A BZF d   1      -0.118   0.860  -0.140  0.00  0.00     0.058 A 
ENDROOT
TORSDOF 0
ENDMDL
