MODEL 1
REMARK minimizedAffinity -2.95369339
REMARK minimizedRMSD -1
REMARK  0 active torsions:
REMARK  status: ('A' for Active; 'I' for Inactive)
ROOT
ATOM      1  O1  BZF d   1       0.754   0.373   2.723  0.00  0.00    -0.204 OA
ATOM      2  C2  BZF d   1      -0.453  -0.093   2.237  0.00  0.00     0.174 A 
ATOM      3  C3  BZF d   1      -1.116   0.885   1.586  0.00  0.00    -0.012 A 
ATOM      4  C3A BZF d   1      -0.230   2.009   1.592  0.00  0.00    -0.107 A 
ATOM      5  C4  BZF d   1      -0.315   3.274   1.086  0.00  0.00     0.055 A 
ATOM      6  C5  BZF d   1       0.695   4.151   1.327  0.00  0.00    -0.016 A 
ATOM      7  C6  BZF d   1       1.800   3.799   2.074  0.00  0.00     0.022 A 
ATOM      8  C7  BZF d   1       1.932   2.553   2.592  0.00  0.00     0.029 A 
ATOM      9  C7A BZF d   1       0.929   1.655   2.322  0.00  0.00     0.058 A 
ENDROOT
TORSDOF 0
ENDMDL
