MODEL 1
REMARK minimizedAffinity -3.53148317
REMARK minimizedRMSD -1
REMARK  0 active torsions:
REMARK  status: ('A' for Active; 'I' for Inactive)
ROOT
ATOM      1  O1  BZF d   1       0.166  -0.007  -1.004  0.00  0.00    -0.204 OA
ATOM      2  C2  BZF d   1       0.738  -1.262  -1.084  0.00  0.00     0.174 A 
ATOM      3  C3  BZF d   1       1.111  -1.697   0.136  0.00  0.00    -0.012 A 
ATOM      4  C3A BZF d   1       0.666  -0.687   1.048  0.00  0.00    -0.107 A 
ATOM      5  C4  BZF d   1       0.730  -0.554   2.405  0.00  0.00     0.055 A 
ATOM      6  C5  BZF d   1       0.266   0.587   2.979  0.00  0.00    -0.016 A 
ATOM      7  C6  BZF d   1      -0.261   1.616   2.227  0.00  0.00     0.022 A 
ATOM      8  C7  BZF d   1      -0.350   1.528   0.877  0.00  0.00     0.029 A 
ATOM      9  C7A BZF d   1       0.087   0.362   0.297  0.00  0.00     0.058 A 
ENDROOT
TORSDOF 0
ENDMDL
