MODEL 1
REMARK minimizedAffinity -2.6418035
REMARK minimizedRMSD -1
REMARK  0 active torsions:
REMARK  status: ('A' for Active; 'I' for Inactive)
ROOT
ATOM      1  O1  BZF d   1       0.819  -0.485   0.340  0.00  0.00    -0.204 OA
ATOM      2  C2  BZF d   1       0.732  -0.961  -0.954  0.00  0.00     0.174 A 
ATOM      3  C3  BZF d   1      -0.230  -0.310  -1.640  0.00  0.00    -0.012 A 
ATOM      4  C3A BZF d   1      -0.716   0.695  -0.744  0.00  0.00    -0.107 A 
ATOM      5  C4  BZF d   1      -1.666   1.670  -0.853  0.00  0.00     0.055 A 
ATOM      6  C5  BZF d   1      -1.950   2.439   0.230  0.00  0.00    -0.016 A 
ATOM      7  C6  BZF d   1      -1.309   2.257   1.438  0.00  0.00     0.022 A 
ATOM      8  C7  BZF d   1      -0.356   1.306   1.594  0.00  0.00     0.029 A 
ATOM      9  C7A BZF d   1      -0.043   0.549   0.491  0.00  0.00     0.058 A 
ENDROOT
TORSDOF 0
ENDMDL
