MODEL 1
REMARK minimizedAffinity -2.57941484
REMARK minimizedRMSD -1
REMARK  0 active torsions:
REMARK  status: ('A' for Active; 'I' for Inactive)
ROOT
ATOM      1  O1  BZF d   1      -0.801  -0.420  -0.971  0.00  0.00    -0.204 OA
ATOM      2  C2  BZF d   1      -0.134  -1.629  -0.922  0.00  0.00     0.174 A 
ATOM      3  C3  BZF d   1       0.623  -1.713   0.191  0.00  0.00    -0.012 A 
ATOM      4  C3A BZF d   1       0.345  -0.518   0.927  0.00  0.00    -0.107 A 
ATOM      5  C4  BZF d   1       0.781  -0.030   2.125  0.00  0.00     0.055 A 
ATOM      6  C5  BZF d   1       0.374   1.203   2.525  0.00  0.00    -0.016 A 
ATOM      7  C6  BZF d   1      -0.464   1.977   1.749  0.00  0.00     0.022 A 
ATOM      8  C7  BZF d   1      -0.927   1.534   0.555  0.00  0.00     0.029 A 
ATOM      9  C7A BZF d   1      -0.543   0.275   0.164  0.00  0.00     0.058 A 
ENDROOT
TORSDOF 0
ENDMDL
