MODEL 1
REMARK minimizedAffinity -3.47959971
REMARK minimizedRMSD -1
REMARK  0 active torsions:
REMARK  status: ('A' for Active; 'I' for Inactive)
ROOT
ATOM      1  O1  BZF d   1       1.423  -0.471  -0.064  0.00  0.00    -0.204 OA
ATOM      2  C2  BZF d   1       1.616  -0.654   1.292  0.00  0.00     0.174 A 
ATOM      3  C3  BZF d   1       0.742   0.086   2.004  0.00  0.00    -0.012 A 
ATOM      4  C3A BZF d   1      -0.107   0.704   1.032  0.00  0.00    -0.107 A 
ATOM      5  C4  BZF d   1      -1.180   1.545   1.121  0.00  0.00     0.055 A 
ATOM      6  C5  BZF d   1      -1.740   2.024  -0.021  0.00  0.00    -0.016 A 
ATOM      7  C6  BZF d   1      -1.251   1.687  -1.266  0.00  0.00     0.022 A 
ATOM      8  C7  BZF d   1      -0.193   0.853  -1.405  0.00  0.00     0.029 A 
ATOM      9  C7A BZF d   1       0.355   0.341  -0.254  0.00  0.00     0.058 A 
ENDROOT
TORSDOF 0
ENDMDL
