MODEL 1
REMARK minimizedAffinity -5.27787399
REMARK minimizedRMSD -1
REMARK  0 active torsions:
REMARK  status: ('A' for Active; 'I' for Inactive)
ROOT
ATOM      1  O1  BZF d   1       1.514   0.128  -0.076  0.00  0.00    -0.204 OA
ATOM      2  C2  BZF d   1       1.314   0.106  -1.443  0.00  0.00     0.174 A 
ATOM      3  C3  BZF d   1       0.243   0.852  -1.782  0.00  0.00    -0.012 A 
ATOM      4  C3A BZF d   1      -0.203   1.447  -0.560  0.00  0.00    -0.107 A 
ATOM      5  C4  BZF d   1      -1.219   2.306  -0.250  0.00  0.00     0.055 A 
ATOM      6  C5  BZF d   1      -1.430   2.637   1.051  0.00  0.00    -0.016 A 
ATOM      7  C6  BZF d   1      -0.649   2.125   2.066  0.00  0.00     0.022 A 
ATOM      8  C7  BZF d   1       0.374   1.274   1.807  0.00  0.00     0.029 A 
ATOM      9  C7A BZF d   1       0.610   0.964   0.490  0.00  0.00     0.058 A 
ENDROOT
TORSDOF 0
ENDMDL
