MODEL 1
REMARK minimizedAffinity -3.16530514
REMARK minimizedRMSD -1
REMARK  0 active torsions:
REMARK  status: ('A' for Active; 'I' for Inactive)
ROOT
ATOM      1  C   UNL d   1      -2.553   0.889  -0.111  0.00  0.00     0.078 C 
ATOM      2  C1  UNL d   1      -1.143   0.768   0.384  0.00  0.00    -0.077 A 
ATOM      3  C2  UNL d   1      -0.061   0.801  -0.504  0.00  0.00    -0.001 A 
ATOM      4  C3  UNL d   1       1.246   0.677  -0.030  0.00  0.00     0.003 A 
ATOM      5  C4  UNL d   1       1.483   0.518   1.334  0.00  0.00    -0.005 A 
ATOM      6  C5  UNL d   1       0.413   0.482   2.225  0.00  0.00     0.003 A 
ATOM      7  C6  UNL d   1      -0.895   0.605   1.753  0.00  0.00    -0.001 A 
ENDROOT
TORSDOF 0
ENDMDL
