MODEL 1
REMARK minimizedAffinity -3.3972826
REMARK minimizedRMSD -1
REMARK  0 active torsions:
REMARK  status: ('A' for Active; 'I' for Inactive)
ROOT
ATOM      1  C   UNL d   1       1.324   0.114   2.436  0.00  0.00     0.078 C 
ATOM      2  C1  UNL d   1       0.501   0.262   1.191  0.00  0.00    -0.077 A 
ATOM      3  C2  UNL d   1       1.108   0.376  -0.066  0.00  0.00    -0.001 A 
ATOM      4  C3  UNL d   1       0.330   0.523  -1.215  0.00  0.00     0.003 A 
ATOM      5  C4  UNL d   1      -1.060   0.558  -1.119  0.00  0.00    -0.005 A 
ATOM      6  C5  UNL d   1      -1.673   0.448   0.128  0.00  0.00     0.003 A 
ATOM      7  C6  UNL d   1      -0.896   0.301   1.278  0.00  0.00    -0.001 A 
ENDROOT
TORSDOF 0
ENDMDL
