MODEL 1
REMARK minimizedAffinity -3.46092415
REMARK minimizedRMSD -1
REMARK  0 active torsions:
REMARK  status: ('A' for Active; 'I' for Inactive)
ROOT
ATOM      1  C   UNL d   1       0.955  -1.633  -3.118  0.00  0.00     0.078 C 
ATOM      2  C1  UNL d   1       0.584  -0.885  -1.873  0.00  0.00    -0.077 A 
ATOM      3  C2  UNL d   1      -0.736  -0.477  -1.643  0.00  0.00    -0.001 A 
ATOM      4  C3  UNL d   1      -1.065   0.228  -0.484  0.00  0.00     0.003 A 
ATOM      5  C4  UNL d   1      -0.080   0.533   0.453  0.00  0.00    -0.005 A 
ATOM      6  C5  UNL d   1       1.236   0.133   0.232  0.00  0.00     0.003 A 
ATOM      7  C6  UNL d   1       1.567  -0.572  -0.926  0.00  0.00    -0.001 A 
ENDROOT
TORSDOF 0
ENDMDL
