MODEL 1
REMARK minimizedAffinity -1.42637837
REMARK minimizedRMSD -1
REMARK  0 active torsions:
REMARK  status: ('A' for Active; 'I' for Inactive)
ROOT
ATOM      1  C   UNL d   1       0.747   0.108  -2.745  0.00  0.00     0.078 C 
ATOM      2  C1  UNL d   1       0.395   0.253  -1.294  0.00  0.00    -0.077 A 
ATOM      3  C2  UNL d   1       1.388   0.231  -0.306  0.00  0.00    -0.001 A 
ATOM      4  C3  UNL d   1       1.045   0.358   1.041  0.00  0.00     0.003 A 
ATOM      5  C4  UNL d   1      -0.289   0.505   1.413  0.00  0.00    -0.005 A 
ATOM      6  C5  UNL d   1      -1.284   0.526   0.437  0.00  0.00     0.003 A 
ATOM      7  C6  UNL d   1      -0.944   0.400  -0.911  0.00  0.00    -0.001 A 
ENDROOT
TORSDOF 0
ENDMDL
