MODEL 1
REMARK minimizedAffinity -3.37480545
REMARK minimizedRMSD -1
REMARK  0 active torsions:
REMARK  status: ('A' for Active; 'I' for Inactive)
ROOT
ATOM      1  C   UNL d   1      -0.659  -0.342   0.428  0.00  0.00     0.078 C 
ATOM      2  C1  UNL d   1      -0.060  -0.564  -0.929  0.00  0.00    -0.077 A 
ATOM      3  C2  UNL d   1      -0.311  -1.740  -1.645  0.00  0.00    -0.001 A 
ATOM      4  C3  UNL d   1       0.262  -1.937  -2.903  0.00  0.00     0.003 A 
ATOM      5  C4  UNL d   1       1.091  -0.962  -3.454  0.00  0.00    -0.005 A 
ATOM      6  C5  UNL d   1       1.348   0.211  -2.748  0.00  0.00     0.003 A 
ATOM      7  C6  UNL d   1       0.776   0.410  -1.490  0.00  0.00    -0.001 A 
ENDROOT
TORSDOF 0
ENDMDL
