MODEL 1
REMARK minimizedAffinity -3.0038774
REMARK minimizedRMSD -1
REMARK  0 active torsions:
REMARK  status: ('A' for Active; 'I' for Inactive)
ROOT
ATOM      1  C   UNL d   1       0.718   0.417  -1.604  0.00  0.00     0.078 C 
ATOM      2  C1  UNL d   1       0.211   0.317  -0.196  0.00  0.00    -0.077 A 
ATOM      3  C2  UNL d   1       1.090   0.362   0.892  0.00  0.00    -0.001 A 
ATOM      4  C3  UNL d   1       0.605   0.258   2.197  0.00  0.00     0.003 A 
ATOM      5  C4  UNL d   1      -0.762   0.107   2.425  0.00  0.00    -0.005 A 
ATOM      6  C5  UNL d   1      -1.644   0.059   1.348  0.00  0.00     0.003 A 
ATOM      7  C6  UNL d   1      -1.161   0.163   0.042  0.00  0.00    -0.001 A 
ENDROOT
TORSDOF 0
ENDMDL
