MODEL 1
REMARK minimizedAffinity -2.7677691
REMARK minimizedRMSD -1
REMARK  0 active torsions:
REMARK  status: ('A' for Active; 'I' for Inactive)
ROOT
ATOM      1  C   UNL d   1       2.039  -6.000   3.061  0.00  0.00     0.078 C 
ATOM      2  C1  UNL d   1       3.149  -5.470   3.918  0.00  0.00    -0.077 A 
ATOM      3  C2  UNL d   1       3.365  -5.969   5.209  0.00  0.00    -0.001 A 
ATOM      4  C3  UNL d   1       4.396  -5.459   5.999  0.00  0.00     0.003 A 
ATOM      5  C4  UNL d   1       5.219  -4.447   5.509  0.00  0.00    -0.005 A 
ATOM      6  C5  UNL d   1       5.011  -3.943   4.227  0.00  0.00     0.003 A 
ATOM      7  C6  UNL d   1       3.980  -4.452   3.435  0.00  0.00    -0.001 A 
ENDROOT
TORSDOF 0
ENDMDL
