MODEL 1
REMARK minimizedAffinity -4.53498745
REMARK minimizedRMSD -1
REMARK  0 active torsions:
REMARK  status: ('A' for Active; 'I' for Inactive)
ROOT
ATOM      1  C   UNL d   1      -2.900   0.656   0.786  0.00  0.00     0.078 C 
ATOM      2  C1  UNL d   1      -1.448   0.364   1.020  0.00  0.00    -0.077 A 
ATOM      3  C2  UNL d   1      -0.969   0.068   2.301  0.00  0.00    -0.001 A 
ATOM      4  C3  UNL d   1       0.387  -0.192   2.505  0.00  0.00     0.003 A 
ATOM      5  C4  UNL d   1       1.276  -0.157   1.432  0.00  0.00    -0.005 A 
ATOM      6  C5  UNL d   1       0.808   0.139   0.154  0.00  0.00     0.003 A 
ATOM      7  C6  UNL d   1      -0.547   0.399  -0.052  0.00  0.00    -0.001 A 
ENDROOT
TORSDOF 0
ENDMDL
