MODEL 1
REMARK minimizedAffinity -5.59362984
REMARK minimizedRMSD -1
REMARK  0 active torsions:
REMARK  status: ('A' for Active; 'I' for Inactive)
ROOT
ATOM      1  C   UNL d   1       0.040   0.362  -1.315  0.00  0.00     0.078 C 
ATOM      2  C1  UNL d   1      -0.058   0.083   0.156  0.00  0.00    -0.077 A 
ATOM      3  C2  UNL d   1       1.068   0.175   0.983  0.00  0.00    -0.001 A 
ATOM      4  C3  UNL d   1       0.965  -0.096   2.348  0.00  0.00     0.003 A 
ATOM      5  C4  UNL d   1      -0.262  -0.462   2.898  0.00  0.00    -0.005 A 
ATOM      6  C5  UNL d   1      -1.388  -0.558   2.082  0.00  0.00     0.003 A 
ATOM      7  C6  UNL d   1      -1.286  -0.287   0.717  0.00  0.00    -0.001 A 
ENDROOT
TORSDOF 0
ENDMDL
