MODEL 1
REMARK minimizedAffinity -2.26718664
REMARK minimizedRMSD -1
REMARK  0 active torsions:
REMARK  status: ('A' for Active; 'I' for Inactive)
ROOT
ATOM      1  C   UNL d   1      -1.034   0.385   3.142  0.00  0.00     0.078 C 
ATOM      2  C1  UNL d   1      -0.580   0.380   1.713  0.00  0.00    -0.077 A 
ATOM      3  C2  UNL d   1      -1.504   0.338   0.662  0.00  0.00    -0.001 A 
ATOM      4  C3  UNL d   1      -1.067   0.324  -0.663  0.00  0.00     0.003 A 
ATOM      5  C4  UNL d   1       0.297   0.352  -0.950  0.00  0.00    -0.005 A 
ATOM      6  C5  UNL d   1       1.224   0.392   0.089  0.00  0.00     0.003 A 
ATOM      7  C6  UNL d   1       0.788   0.405   1.415  0.00  0.00    -0.001 A 
ENDROOT
TORSDOF 0
ENDMDL
