MODEL 1
REMARK minimizedAffinity -1.75425184
REMARK minimizedRMSD -1
REMARK  0 active torsions:
REMARK  status: ('A' for Active; 'I' for Inactive)
ROOT
ATOM      1  C   UNL d   1       0.791  -0.189  -1.604  0.00  0.00     0.078 C 
ATOM      2  C1  UNL d   1       0.287  -0.042  -0.200  0.00  0.00    -0.077 A 
ATOM      3  C2  UNL d   1       1.174   0.115   0.872  0.00  0.00    -0.001 A 
ATOM      4  C3  UNL d   1       0.691   0.241   2.176  0.00  0.00     0.003 A 
ATOM      5  C4  UNL d   1      -0.681   0.209   2.420  0.00  0.00    -0.005 A 
ATOM      6  C5  UNL d   1      -1.571   0.050   1.360  0.00  0.00     0.003 A 
ATOM      7  C6  UNL d   1      -1.090  -0.076   0.056  0.00  0.00    -0.001 A 
ENDROOT
TORSDOF 0
ENDMDL
