MODEL 1
REMARK minimizedAffinity -2.71800303
REMARK minimizedRMSD -1
REMARK  0 active torsions:
REMARK  status: ('A' for Active; 'I' for Inactive)
ROOT
ATOM      1  C   UNL d   1       0.049   0.322  -1.639  0.00  0.00     0.078 C 
ATOM      2  C1  UNL d   1       0.112   0.369  -0.141  0.00  0.00    -0.077 A 
ATOM      3  C2  UNL d   1      -1.018   0.090   0.637  0.00  0.00    -0.001 A 
ATOM      4  C3  UNL d   1      -0.948   0.147   2.030  0.00  0.00     0.003 A 
ATOM      5  C4  UNL d   1       0.250   0.485   2.657  0.00  0.00    -0.005 A 
ATOM      6  C5  UNL d   1       1.380   0.766   1.890  0.00  0.00     0.003 A 
ATOM      7  C6  UNL d   1       1.311   0.710   0.498  0.00  0.00    -0.001 A 
ENDROOT
TORSDOF 0
ENDMDL
