MODEL 1
REMARK minimizedAffinity -4.43342352
REMARK minimizedRMSD -1
REMARK  0 active torsions:
REMARK  status: ('A' for Active; 'I' for Inactive)
ROOT
ATOM      1  C   UNL d   1       1.149  -0.443  -2.989  0.00  0.00     0.078 C 
ATOM      2  C1  UNL d   1       0.833  -0.029  -1.583  0.00  0.00    -0.077 A 
ATOM      3  C2  UNL d   1       1.808  -0.079  -0.580  0.00  0.00    -0.001 A 
ATOM      4  C3  UNL d   1       1.497   0.301   0.727  0.00  0.00     0.003 A 
ATOM      5  C4  UNL d   1       0.211   0.732   1.043  0.00  0.00    -0.005 A 
ATOM      6  C5  UNL d   1      -0.767   0.784   0.052  0.00  0.00     0.003 A 
ATOM      7  C6  UNL d   1      -0.458   0.405  -1.255  0.00  0.00    -0.001 A 
ENDROOT
TORSDOF 0
ENDMDL
