MODEL 1
REMARK minimizedAffinity -3.09605861
REMARK minimizedRMSD -1
REMARK  0 active torsions:
REMARK  status: ('A' for Active; 'I' for Inactive)
ROOT
ATOM      1  C   UNL d   1       0.453   0.439   2.682  0.00  0.00     0.078 C 
ATOM      2  C1  UNL d   1       0.283   0.297   1.199  0.00  0.00    -0.077 A 
ATOM      3  C2  UNL d   1      -0.801   0.886   0.538  0.00  0.00    -0.001 A 
ATOM      4  C3  UNL d   1      -0.952   0.737  -0.842  0.00  0.00     0.003 A 
ATOM      5  C4  UNL d   1      -0.023  -0.002  -1.572  0.00  0.00    -0.005 A 
ATOM      6  C5  UNL d   1       1.059  -0.594  -0.922  0.00  0.00     0.003 A 
ATOM      7  C6  UNL d   1       1.211  -0.446   0.458  0.00  0.00    -0.001 A 
ENDROOT
TORSDOF 0
ENDMDL
