MODEL 1
REMARK minimizedAffinity -4.45986176
REMARK minimizedRMSD -1
REMARK  0 active torsions:
REMARK  status: ('A' for Active; 'I' for Inactive)
ROOT
ATOM      1  C   UNL d   1       0.300  -0.165  -1.235  0.00  0.00     0.078 C 
ATOM      2  C1  UNL d   1      -0.106  -0.072   0.206  0.00  0.00    -0.077 A 
ATOM      3  C2  UNL d   1      -1.453   0.043   0.570  0.00  0.00    -0.001 A 
ATOM      4  C3  UNL d   1      -1.815   0.138   1.914  0.00  0.00     0.003 A 
ATOM      5  C4  UNL d   1      -0.836   0.120   2.906  0.00  0.00    -0.005 A 
ATOM      6  C5  UNL d   1       0.507   0.008   2.553  0.00  0.00     0.003 A 
ATOM      7  C6  UNL d   1       0.871  -0.087   1.209  0.00  0.00    -0.001 A 
ENDROOT
TORSDOF 0
ENDMDL
