MODEL 1
REMARK minimizedAffinity -2.16273785
REMARK minimizedRMSD -1
REMARK  0 active torsions:
REMARK  status: ('A' for Active; 'I' for Inactive)
ROOT
ATOM      1  C2' OXE d   1       0.004  -0.931  -0.664  0.00  0.00     0.078 C 
ATOM      2  C1' OXE d   1       0.622  -0.943   2.074  0.00  0.00     0.078 C 
ATOM      3  C1  OXE d   1      -0.164   0.226   1.535  0.00  0.00    -0.078 A 
ATOM      4  C2  OXE d   1      -0.421   0.247   0.185  0.00  0.00    -0.078 A 
ATOM      5  C3  OXE d   1      -1.189   1.274  -0.355  0.00  0.00     0.003 A 
ATOM      6  C4  OXE d   1      -1.571   2.365   0.436  0.00  0.00    -0.002 A 
ATOM      7  C5  OXE d   1      -1.284   2.384   1.805  0.00  0.00    -0.002 A 
ATOM      8  C6  OXE d   1      -0.620   1.304   2.377  0.00  0.00     0.003 A 
ENDROOT
TORSDOF 0
ENDMDL
