MODEL 1
REMARK minimizedAffinity 0.0733284131
REMARK minimizedRMSD -1
REMARK  0 active torsions:
REMARK  status: ('A' for Active; 'I' for Inactive)
ROOT
ATOM      1  C2' OXE d   1      -0.249  -0.981   2.662  0.00  0.00     0.078 C 
ATOM      2  C1' OXE d   1      -1.418   1.415   1.784  0.00  0.00     0.078 C 
ATOM      3  C1  OXE d   1      -0.478   0.704   0.842  0.00  0.00    -0.078 A 
ATOM      4  C2  OXE d   1       0.126  -0.443   1.298  0.00  0.00    -0.078 A 
ATOM      5  C3  OXE d   1       0.959  -1.167   0.451  0.00  0.00     0.003 A 
ATOM      6  C4  OXE d   1       1.309  -0.657  -0.806  0.00  0.00    -0.002 A 
ATOM      7  C5  OXE d   1       0.736   0.530  -1.274  0.00  0.00    -0.002 A 
ATOM      8  C6  OXE d   1      -0.190   1.199  -0.481  0.00  0.00     0.003 A 
ENDROOT
TORSDOF 0
ENDMDL
