MODEL 1
REMARK minimizedAffinity -1.75737274
REMARK minimizedRMSD -1
REMARK  0 active torsions:
REMARK  status: ('A' for Active; 'I' for Inactive)
ROOT
ATOM      1  C2' OXE d   1       0.632  -0.983  -1.020  0.00  0.00     0.078 C 
ATOM      2  C1' OXE d   1       0.327   1.781  -1.407  0.00  0.00     0.078 C 
ATOM      3  C1  OXE d   1      -0.234   1.181  -0.142  0.00  0.00    -0.078 A 
ATOM      4  C2  OXE d   1      -0.122  -0.179   0.018  0.00  0.00    -0.078 A 
ATOM      5  C3  OXE d   1      -0.575  -0.775   1.191  0.00  0.00     0.003 A 
ATOM      6  C4  OXE d   1      -1.280  -0.026   2.141  0.00  0.00    -0.002 A 
ATOM      7  C5  OXE d   1      -1.440   1.354   1.979  0.00  0.00    -0.002 A 
ATOM      8  C6  OXE d   1      -0.888   1.979   0.867  0.00  0.00     0.003 A 
ENDROOT
TORSDOF 0
ENDMDL
