MODEL 1
REMARK minimizedAffinity -3.77496719
REMARK minimizedRMSD -1
REMARK  0 active torsions:
REMARK  status: ('A' for Active; 'I' for Inactive)
ROOT
ATOM      1  C2' OXE d   1       0.550   1.799  -1.560  0.00  0.00     0.078 C 
ATOM      2  C1' OXE d   1       1.065  -0.630  -0.250  0.00  0.00     0.078 C 
ATOM      3  C1  OXE d   1       0.084   0.321   0.390  0.00  0.00    -0.078 A 
ATOM      4  C2  OXE d   1      -0.126   1.527  -0.234  0.00  0.00    -0.078 A 
ATOM      5  C3  OXE d   1      -1.062   2.417   0.285  0.00  0.00     0.003 A 
ATOM      6  C4  OXE d   1      -1.676   2.162   1.517  0.00  0.00    -0.002 A 
ATOM      7  C5  OXE d   1      -1.445   0.957   2.189  0.00  0.00    -0.002 A 
ATOM      8  C6  OXE d   1      -0.602   0.010   1.619  0.00  0.00     0.003 A 
ENDROOT
TORSDOF 0
ENDMDL
