MODEL 1
REMARK minimizedAffinity -1.41251314
REMARK minimizedRMSD -1
REMARK  0 active torsions:
REMARK  status: ('A' for Active; 'I' for Inactive)
ROOT
ATOM      1  C2' OXE d   1       0.500  -0.933  -0.837  0.00  0.00     0.078 C 
ATOM      2  C1' OXE d   1      -0.076   1.767  -1.347  0.00  0.00     0.078 C 
ATOM      3  C1  OXE d   1      -0.482   1.202  -0.009  0.00  0.00    -0.078 A 
ATOM      4  C2  OXE d   1      -0.238  -0.132   0.214  0.00  0.00    -0.078 A 
ATOM      5  C3  OXE d   1      -0.542  -0.691   1.452  0.00  0.00     0.003 A 
ATOM      6  C4  OXE d   1      -1.234   0.054   2.415  0.00  0.00    -0.002 A 
ATOM      7  C5  OXE d   1      -1.528   1.403   2.193  0.00  0.00    -0.002 A 
ATOM      8  C6  OXE d   1      -1.122   2.002   1.006  0.00  0.00     0.003 A 
ENDROOT
TORSDOF 0
ENDMDL
