MODEL 1
REMARK minimizedAffinity -1.52890682
REMARK minimizedRMSD -1
REMARK  0 active torsions:
REMARK  status: ('A' for Active; 'I' for Inactive)
ROOT
ATOM      1  C2' OXE d   1      -1.226   2.146  -0.747  0.00  0.00     0.078 C 
ATOM      2  C1' OXE d   1      -0.876   1.622   1.988  0.00  0.00     0.078 C 
ATOM      3  C1  OXE d   1      -0.350   0.607   1.005  0.00  0.00    -0.078 A 
ATOM      4  C2  OXE d   1      -0.567   0.849  -0.330  0.00  0.00    -0.078 A 
ATOM      5  C3  OXE d   1      -0.054  -0.028  -1.282  0.00  0.00     0.003 A 
ATOM      6  C4  OXE d   1       0.545  -1.230  -0.888  0.00  0.00    -0.002 A 
ATOM      7  C5  OXE d   1       0.741  -1.515   0.467  0.00  0.00    -0.002 A 
ATOM      8  C6  OXE d   1       0.338  -0.589   1.423  0.00  0.00     0.003 A 
ENDROOT
TORSDOF 0
ENDMDL
