MODEL 1
REMARK minimizedAffinity -0.525399506
REMARK minimizedRMSD -1
REMARK  0 active torsions:
REMARK  status: ('A' for Active; 'I' for Inactive)
ROOT
ATOM      1  C2' OXE d   1      -1.485   2.217   0.553  0.00  0.00     0.078 C 
ATOM      2  C1' OXE d   1       0.144   3.002  -1.594  0.00  0.00     0.078 C 
ATOM      3  C1  OXE d   1       0.291   1.592  -1.078  0.00  0.00    -0.078 A 
ATOM      4  C2  OXE d   1      -0.477   1.232   0.003  0.00  0.00    -0.078 A 
ATOM      5  C3  OXE d   1      -0.420  -0.073   0.485  0.00  0.00     0.003 A 
ATOM      6  C4  OXE d   1       0.523  -0.975  -0.023  0.00  0.00    -0.002 A 
ATOM      7  C5  OXE d   1       1.343  -0.616  -1.098  0.00  0.00    -0.002 A 
ATOM      8  C6  OXE d   1       1.210   0.647  -1.663  0.00  0.00     0.003 A 
ENDROOT
TORSDOF 0
ENDMDL
