MODEL 1
REMARK minimizedAffinity -1.47502375
REMARK minimizedRMSD -1
REMARK  0 active torsions:
REMARK  status: ('A' for Active; 'I' for Inactive)
ROOT
ATOM      1  C2' OXE d   1       1.781   0.945  -1.585  0.00  0.00     0.078 C 
ATOM      2  C1' OXE d   1       0.828  -1.687  -1.379  0.00  0.00     0.078 C 
ATOM      3  C1  OXE d   1       0.225  -0.648  -0.467  0.00  0.00    -0.078 A 
ATOM      4  C2  OXE d   1       0.730   0.628  -0.543  0.00  0.00    -0.078 A 
ATOM      5  C3  OXE d   1       0.172   1.637   0.237  0.00  0.00     0.003 A 
ATOM      6  C4  OXE d   1      -0.792   1.334   1.206  0.00  0.00    -0.002 A 
ATOM      7  C5  OXE d   1      -1.292   0.033   1.326  0.00  0.00    -0.002 A 
ATOM      8  C6  OXE d   1      -0.825  -0.958   0.470  0.00  0.00     0.003 A 
ENDROOT
TORSDOF 0
ENDMDL
