MODEL 1
REMARK minimizedAffinity -3.68940306
REMARK minimizedRMSD -1
REMARK  0 active torsions:
REMARK  status: ('A' for Active; 'I' for Inactive)
ROOT
ATOM      1  C2' OXE d   1      -0.387  -1.182   2.374  0.00  0.00     0.078 C 
ATOM      2  C1' OXE d   1      -1.322   1.460   2.225  0.00  0.00     0.078 C 
ATOM      3  C1  OXE d   1      -0.509   0.935   1.068  0.00  0.00    -0.078 A 
ATOM      4  C2  OXE d   1      -0.016  -0.343   1.171  0.00  0.00    -0.078 A 
ATOM      5  C3  OXE d   1       0.694  -0.895   0.108  0.00  0.00     0.003 A 
ATOM      6  C4  OXE d   1       1.040  -0.109  -0.997  0.00  0.00    -0.002 A 
ATOM      7  C5  OXE d   1       0.582   1.208  -1.104  0.00  0.00    -0.002 A 
ATOM      8  C6  OXE d   1      -0.228   1.731  -0.101  0.00  0.00     0.003 A 
ENDROOT
TORSDOF 0
ENDMDL
