MODEL 1
REMARK minimizedAffinity -4.83321428
REMARK minimizedRMSD -1
REMARK  0 active torsions:
REMARK  status: ('A' for Active; 'I' for Inactive)
ROOT
ATOM      1  C2' OXE d   1       1.101  -0.306  -0.922  0.00  0.00     0.078 C 
ATOM      2  C1' OXE d   1       0.106   2.273  -1.411  0.00  0.00     0.078 C 
ATOM      3  C1  OXE d   1      -0.524   1.476  -0.296  0.00  0.00    -0.078 A 
ATOM      4  C2  OXE d   1      -0.062   0.197  -0.095  0.00  0.00    -0.078 A 
ATOM      5  C3  OXE d   1      -0.570  -0.562   0.955  0.00  0.00     0.003 A 
ATOM      6  C4  OXE d   1      -1.653  -0.093   1.710  0.00  0.00    -0.002 A 
ATOM      7  C5  OXE d   1      -2.165   1.191   1.495  0.00  0.00    -0.002 A 
ATOM      8  C6  OXE d   1      -1.585   2.002   0.526  0.00  0.00     0.003 A 
ENDROOT
TORSDOF 0
ENDMDL
