MODEL 1
REMARK minimizedAffinity -4.97311068
REMARK minimizedRMSD -1
REMARK  0 active torsions:
REMARK  status: ('A' for Active; 'I' for Inactive)
ROOT
ATOM      1  C2' OXE d   1       1.154  -2.832  -2.652  0.00  0.00     0.078 C 
ATOM      2  C1' OXE d   1      -1.651  -2.755  -2.592  0.00  0.00     0.078 C 
ATOM      3  C1  OXE d   1      -0.902  -1.812  -1.684  0.00  0.00    -0.078 A 
ATOM      4  C2  OXE d   1       0.470  -1.889  -1.686  0.00  0.00    -0.078 A 
ATOM      5  C3  OXE d   1       1.212  -1.004  -0.908  0.00  0.00     0.003 A 
ATOM      6  C4  OXE d   1       0.571  -0.142  -0.010  0.00  0.00    -0.002 A 
ATOM      7  C5  OXE d   1      -0.825  -0.075   0.037  0.00  0.00    -0.002 A 
ATOM      8  C6  OXE d   1      -1.575  -0.871  -0.823  0.00  0.00     0.003 A 
ENDROOT
TORSDOF 0
ENDMDL
