MODEL 1
REMARK minimizedAffinity -4.21225882
REMARK minimizedRMSD -1
REMARK  0 active torsions:
REMARK  status: ('A' for Active; 'I' for Inactive)
ROOT
ATOM      1  C2' OXE d   1       0.500   0.241  -0.588  0.00  0.00     0.078 C 
ATOM      2  C1' OXE d   1       0.042   2.937  -1.223  0.00  0.00     0.078 C 
ATOM      3  C1  OXE d   1      -0.707   2.353  -0.051  0.00  0.00    -0.078 A 
ATOM      4  C2  OXE d   1      -0.512   1.021   0.224  0.00  0.00    -0.078 A 
ATOM      5  C3  OXE d   1      -1.136   0.446   1.327  0.00  0.00     0.003 A 
ATOM      6  C4  OXE d   1      -2.078   1.172   2.067  0.00  0.00    -0.002 A 
ATOM      7  C5  OXE d   1      -2.321   2.519   1.779  0.00  0.00    -0.002 A 
ATOM      8  C6  OXE d   1      -1.614   3.135   0.753  0.00  0.00     0.003 A 
ENDROOT
TORSDOF 0
ENDMDL
