MODEL 1
REMARK minimizedAffinity -4.55327892
REMARK minimizedRMSD -1
REMARK  0 active torsions:
REMARK  status: ('A' for Active; 'I' for Inactive)
ROOT
ATOM      1  C2' OXE d   1      -0.515  -0.699   1.521  0.00  0.00     0.078 C 
ATOM      2  C1' OXE d   1       0.707   0.150  -0.859  0.00  0.00     0.078 C 
ATOM      3  C1  OXE d   1      -0.087   1.165  -0.076  0.00  0.00    -0.078 A 
ATOM      4  C2  OXE d   1      -0.720   0.729   1.063  0.00  0.00    -0.078 A 
ATOM      5  C3  OXE d   1      -1.420   1.637   1.853  0.00  0.00     0.003 A 
ATOM      6  C4  OXE d   1      -1.614   2.954   1.417  0.00  0.00    -0.002 A 
ATOM      7  C5  OXE d   1      -1.011   3.407   0.239  0.00  0.00    -0.002 A 
ATOM      8  C6  OXE d   1      -0.211   2.539  -0.495  0.00  0.00     0.003 A 
ENDROOT
TORSDOF 0
ENDMDL
