MODEL 1
REMARK minimizedAffinity -2.29302669
REMARK minimizedRMSD -1
REMARK  0 active torsions:
REMARK  status: ('A' for Active; 'I' for Inactive)
ROOT
ATOM      1  C2' OXE d   1       0.186  -0.810   2.205  0.00  0.00     0.078 C 
ATOM      2  C1' OXE d   1       0.572  -0.687  -0.572  0.00  0.00     0.078 C 
ATOM      3  C1  OXE d   1      -0.367   0.314   0.052  0.00  0.00    -0.078 A 
ATOM      4  C2  OXE d   1      -0.586   0.216   1.405  0.00  0.00    -0.078 A 
ATOM      5  C3  OXE d   1      -1.401   1.149   2.041  0.00  0.00     0.003 A 
ATOM      6  C4  OXE d   1      -2.120   2.089   1.292  0.00  0.00    -0.002 A 
ATOM      7  C5  OXE d   1      -1.942   2.180  -0.092  0.00  0.00    -0.002 A 
ATOM      8  C6  OXE d   1      -1.039   1.329  -0.721  0.00  0.00     0.003 A 
ENDROOT
TORSDOF 0
ENDMDL
