MODEL 1
REMARK minimizedAffinity -5.26876879
REMARK minimizedRMSD -1
REMARK  0 active torsions:
REMARK  status: ('A' for Active; 'I' for Inactive)
ROOT
ATOM      1  C2' OXE d   1       1.389   0.449  -0.942  0.00  0.00     0.078 C 
ATOM      2  C1' OXE d   1      -0.087   2.827  -1.156  0.00  0.00     0.078 C 
ATOM      3  C1  OXE d   1      -0.457   1.866  -0.054  0.00  0.00    -0.078 A 
ATOM      4  C2  OXE d   1       0.240   0.684   0.014  0.00  0.00    -0.078 A 
ATOM      5  C3  OXE d   1      -0.025  -0.213   1.045  0.00  0.00     0.003 A 
ATOM      6  C4  OXE d   1      -1.096   0.007   1.919  0.00  0.00    -0.002 A 
ATOM      7  C5  OXE d   1      -1.844   1.187   1.842  0.00  0.00    -0.002 A 
ATOM      8  C6  OXE d   1      -1.511   2.144   0.890  0.00  0.00     0.003 A 
ENDROOT
TORSDOF 0
ENDMDL
