MODEL 1
REMARK minimizedAffinity -3.50439978
REMARK minimizedRMSD -1
REMARK  0 active torsions:
REMARK  status: ('A' for Active; 'I' for Inactive)
ROOT
ATOM      1  C2' OXE d   1      -0.973  -0.913  -0.703  0.00  0.00     0.078 C 
ATOM      2  C1' OXE d   1       0.299  -0.538   1.771  0.00  0.00     0.078 C 
ATOM      3  C1  OXE d   1      -0.615   0.555   1.278  0.00  0.00    -0.078 A 
ATOM      4  C2  OXE d   1      -1.197   0.384   0.045  0.00  0.00    -0.078 A 
ATOM      5  C3  OXE d   1      -2.092   1.337  -0.433  0.00  0.00     0.003 A 
ATOM      6  C4  OXE d   1      -2.286   2.538   0.260  0.00  0.00    -0.002 A 
ATOM      7  C5  OXE d   1      -1.673   2.749   1.499  0.00  0.00    -0.002 A 
ATOM      8  C6  OXE d   1      -0.869   1.752   2.041  0.00  0.00     0.003 A 
ENDROOT
TORSDOF 0
ENDMDL
