MODEL 1
REMARK minimizedAffinity -2.15712881
REMARK minimizedRMSD -1
REMARK  0 active torsions:
REMARK  status: ('A' for Active; 'I' for Inactive)
ROOT
ATOM      1  C2' OXE d   1       1.910   0.025  -1.451  0.00  0.00     0.078 C 
ATOM      2  C1' OXE d   1       0.572  -2.431  -1.695  0.00  0.00     0.078 C 
ATOM      3  C1  OXE d   1      -0.026  -1.392  -0.779  0.00  0.00    -0.078 A 
ATOM      4  C2  OXE d   1       0.661  -0.211  -0.630  0.00  0.00    -0.078 A 
ATOM      5  C3  OXE d   1       0.125   0.803   0.160  0.00  0.00     0.003 A 
ATOM      6  C4  OXE d   1      -1.026   0.573   0.924  0.00  0.00    -0.002 A 
ATOM      7  C5  OXE d   1      -1.718  -0.638   0.817  0.00  0.00    -0.002 A 
ATOM      8  C6  OXE d   1      -1.256  -1.613  -0.060  0.00  0.00     0.003 A 
ENDROOT
TORSDOF 0
ENDMDL
