MODEL 1
REMARK minimizedAffinity -5.94846964
REMARK minimizedRMSD -1
REMARK  0 active torsions:
REMARK  status: ('A' for Active; 'I' for Inactive)
ROOT
ATOM      1  C2' OXE d   1       1.455   1.180  -1.590  0.00  0.00     0.078 C 
ATOM      2  C1' OXE d   1       0.162   0.029   0.620  0.00  0.00     0.078 C 
ATOM      3  C1  OXE d   1      -0.352  -0.318  -0.755  0.00  0.00    -0.078 A 
ATOM      4  C2  OXE d   1       0.257   0.286  -1.828  0.00  0.00    -0.078 A 
ATOM      5  C3  OXE d   1      -0.142  -0.041  -3.121  0.00  0.00     0.003 A 
ATOM      6  C4  OXE d   1      -1.257  -0.861  -3.333  0.00  0.00    -0.002 A 
ATOM      7  C5  OXE d   1      -1.916  -1.456  -2.252  0.00  0.00    -0.002 A 
ATOM      8  C6  OXE d   1      -1.451  -1.229  -0.961  0.00  0.00     0.003 A 
ENDROOT
TORSDOF 0
ENDMDL
