MODEL 1
REMARK minimizedAffinity -4.29450417
REMARK minimizedRMSD -1
REMARK  0 active torsions:
REMARK  status: ('A' for Active; 'I' for Inactive)
ROOT
ATOM      1  C2' OXE d   1       0.398  -1.750  -1.386  0.00  0.00     0.078 C 
ATOM      2  C1' OXE d   1       1.606   0.784  -1.322  0.00  0.00     0.078 C 
ATOM      3  C1  OXE d   1       0.379   0.568  -0.471  0.00  0.00    -0.078 A 
ATOM      4  C2  OXE d   1      -0.232  -0.661  -0.544  0.00  0.00    -0.078 A 
ATOM      5  C3  OXE d   1      -1.335  -0.931   0.261  0.00  0.00     0.003 A 
ATOM      6  C4  OXE d   1      -1.918   0.084   1.029  0.00  0.00    -0.002 A 
ATOM      7  C5  OXE d   1      -1.334   1.354   1.087  0.00  0.00    -0.002 A 
ATOM      8  C6  OXE d   1      -0.163   1.599   0.377  0.00  0.00     0.003 A 
ENDROOT
TORSDOF 0
ENDMDL
