MODEL 1
REMARK minimizedAffinity 8.43375587
REMARK minimizedRMSD -1
REMARK  0 active torsions:
REMARK  status: ('A' for Active; 'I' for Inactive)
ROOT
ATOM      1  N1  IND d   1       1.655   0.706   0.103  0.00  0.00    -0.196 N 
ATOM      2  C2  IND d   1       1.578  -0.373  -0.732  0.00  0.00     0.054 A 
ATOM      3  C3  IND d   1       1.530  -1.519  -0.016  0.00  0.00    -0.031 A 
ATOM      4  C4  IND d   1       1.464  -1.852   2.536  0.00  0.00     0.051 A 
ATOM      5  C5  IND d   1       1.549  -1.165   3.714  0.00  0.00    -0.031 A 
ATOM      6  C6  IND d   1       1.673   0.209   3.750  0.00  0.00     0.015 A 
ATOM      7  C7  IND d   1       1.706   0.951   2.604  0.00  0.00    -0.016 A 
ATOM      8  C8  IND d   1       1.627   0.256   1.405  0.00  0.00    -0.047 A 
ATOM      9  C9  IND d   1       1.544  -1.141   1.362  0.00  0.00    -0.096 A 
ATOM     10  HN1 IND d   1       1.712   1.528  -0.143  0.00  0.00     0.298 HD
ENDROOT
TORSDOF 0
ENDMDL
