MODEL 1
REMARK minimizedAffinity 2.28730154
REMARK minimizedRMSD -1
REMARK  0 active torsions:
REMARK  status: ('A' for Active; 'I' for Inactive)
ROOT
ATOM      1  N1  IND d   1      -4.467  -5.232  -3.874  0.00  0.00    -0.196 N 
ATOM      2  C2  IND d   1      -5.232  -4.321  -4.547  0.00  0.00     0.054 A 
ATOM      3  C3  IND d   1      -5.965  -3.589  -3.678  0.00  0.00    -0.031 A 
ATOM      4  C4  IND d   1      -5.991  -3.649  -1.105  0.00  0.00     0.051 A 
ATOM      5  C5  IND d   1      -5.488  -4.340  -0.038  0.00  0.00    -0.031 A 
ATOM      6  C6  IND d   1      -4.599  -5.383  -0.199  0.00  0.00     0.015 A 
ATOM      7  C7  IND d   1      -4.169  -5.768  -1.438  0.00  0.00    -0.016 A 
ATOM      8  C8  IND d   1      -4.683  -5.073  -2.523  0.00  0.00    -0.047 A 
ATOM      9  C9  IND d   1      -5.618  -4.042  -2.369  0.00  0.00    -0.096 A 
ATOM     10  HN1 IND d   1      -3.940  -5.808  -4.235  0.00  0.00     0.298 HD
ENDROOT
TORSDOF 0
ENDMDL
