MODEL 1
REMARK minimizedAffinity 5.48769474
REMARK minimizedRMSD -1
REMARK  0 active torsions:
REMARK  status: ('A' for Active; 'I' for Inactive)
ROOT
ATOM      1  N1  IND d   1      -4.502  -5.188  -2.404  0.00  0.00    -0.196 N 
ATOM      2  C2  IND d   1      -4.636  -4.105  -1.582  0.00  0.00     0.054 A 
ATOM      3  C3  IND d   1      -5.037  -3.024  -2.289  0.00  0.00    -0.031 A 
ATOM      4  C4  IND d   1      -5.631  -2.833  -4.786  0.00  0.00     0.051 A 
ATOM      5  C5  IND d   1      -5.629  -3.547  -5.952  0.00  0.00    -0.031 A 
ATOM      6  C6  IND d   1      -5.246  -4.872  -5.995  0.00  0.00     0.015 A 
ATOM      7  C7  IND d   1      -4.860  -5.539  -4.866  0.00  0.00    -0.016 A 
ATOM      8  C8  IND d   1      -4.854  -4.815  -3.682  0.00  0.00    -0.047 A 
ATOM      9  C9  IND d   1      -5.201  -3.458  -3.640  0.00  0.00    -0.096 A 
ATOM     10  HN1 IND d   1      -4.241  -5.972  -2.163  0.00  0.00     0.298 HD
ENDROOT
TORSDOF 0
ENDMDL
