MODEL 1
REMARK minimizedAffinity 5.38378954
REMARK minimizedRMSD -1
REMARK  0 active torsions:
REMARK  status: ('A' for Active; 'I' for Inactive)
ROOT
ATOM      1  N1  IND d   1      -2.084  -1.417   0.758  0.00  0.00    -0.196 N 
ATOM      2  C2  IND d   1      -2.350  -0.123   0.406  0.00  0.00     0.054 A 
ATOM      3  C3  IND d   1      -1.199   0.548   0.177  0.00  0.00    -0.031 A 
ATOM      4  C4  IND d   1       1.229  -0.305   0.221  0.00  0.00     0.051 A 
ATOM      5  C5  IND d   1       1.978  -1.407   0.525  0.00  0.00    -0.031 A 
ATOM      6  C6  IND d   1       1.400  -2.594   0.927  0.00  0.00     0.015 A 
ATOM      7  C7  IND d   1       0.044  -2.726   1.030  0.00  0.00    -0.016 A 
ATOM      8  C8  IND d   1      -0.719  -1.607   0.730  0.00  0.00    -0.047 A 
ATOM      9  C9  IND d   1      -0.136  -0.388   0.362  0.00  0.00    -0.096 A 
ATOM     10  HN1 IND d   1      -2.670  -2.012   0.962  0.00  0.00     0.298 HD
ENDROOT
TORSDOF 0
ENDMDL
