MODEL 1
REMARK minimizedAffinity 3.94561172
REMARK minimizedRMSD -1
REMARK  0 active torsions:
REMARK  status: ('A' for Active; 'I' for Inactive)
ROOT
ATOM      1  N1  IND d   1      -4.372  -2.364  -5.965  0.00  0.00    -0.196 N 
ATOM      2  C2  IND d   1      -5.127  -1.500  -5.221  0.00  0.00     0.054 A 
ATOM      3  C3  IND d   1      -5.895  -2.183  -4.343  0.00  0.00    -0.031 A 
ATOM      4  C4  IND d   1      -5.999  -4.714  -3.885  0.00  0.00     0.051 A 
ATOM      5  C5  IND d   1      -5.522  -5.912  -4.338  0.00  0.00    -0.031 A 
ATOM      6  C6  IND d   1      -4.616  -5.989  -5.376  0.00  0.00     0.015 A 
ATOM      7  C7  IND d   1      -4.143  -4.866  -5.995  0.00  0.00    -0.016 A 
ATOM      8  C8  IND d   1      -4.632  -3.649  -5.541  0.00  0.00    -0.047 A 
ATOM      9  C9  IND d   1      -5.583  -3.566  -4.517  0.00  0.00    -0.096 A 
ATOM     10  HN1 IND d   1      -3.827  -2.142  -6.591  0.00  0.00     0.298 HD
ENDROOT
TORSDOF 0
ENDMDL
