MODEL 1
REMARK minimizedAffinity 1.73632574
REMARK minimizedRMSD -1
REMARK  0 active torsions:
REMARK  status: ('A' for Active; 'I' for Inactive)
ROOT
ATOM      1  N1  IND d   1       0.340  -2.085   2.244  0.00  0.00    -0.196 N 
ATOM      2  C2  IND d   1       1.451  -2.718   2.728  0.00  0.00     0.054 A 
ATOM      3  C3  IND d   1       2.559  -1.988   2.469  0.00  0.00    -0.031 A 
ATOM      4  C4  IND d   1       2.772   0.323   1.355  0.00  0.00     0.051 A 
ATOM      5  C5  IND d   1       2.038   1.282   0.715  0.00  0.00    -0.031 A 
ATOM      6  C6  IND d   1       0.672   1.167   0.551  0.00  0.00     0.015 A 
ATOM      7  C7  IND d   1      -0.015   0.088   1.033  0.00  0.00    -0.016 A 
ATOM      8  C8  IND d   1       0.729  -0.891   1.677  0.00  0.00    -0.047 A 
ATOM      9  C9  IND d   1       2.120  -0.800   1.809  0.00  0.00    -0.096 A 
ATOM     10  HN1 IND d   1      -0.465  -2.383   2.286  0.00  0.00     0.298 HD
ENDROOT
TORSDOF 0
ENDMDL
