MODEL 1
REMARK minimizedAffinity -0.166307092
REMARK minimizedRMSD -1
REMARK  0 active torsions:
REMARK  status: ('A' for Active; 'I' for Inactive)
ROOT
ATOM      1  N1  IND d   1       1.269   1.307   2.524  0.00  0.00    -0.196 N 
ATOM      2  C2  IND d   1       0.992   1.888   3.730  0.00  0.00     0.054 A 
ATOM      3  C3  IND d   1       1.083   0.975   4.723  0.00  0.00    -0.031 A 
ATOM      4  C4  IND d   1       1.769  -1.504   4.609  0.00  0.00     0.051 A 
ATOM      5  C5  IND d   1       2.079  -2.496   3.722  0.00  0.00    -0.031 A 
ATOM      6  C6  IND d   1       2.138  -2.266   2.363  0.00  0.00     0.015 A 
ATOM      7  C7  IND d   1       1.900  -1.027   1.839  0.00  0.00    -0.016 A 
ATOM      8  C8  IND d   1       1.578  -0.019   2.736  0.00  0.00    -0.047 A 
ATOM      9  C9  IND d   1       1.475  -0.256   4.113  0.00  0.00    -0.096 A 
ATOM     10  HN1 IND d   1       1.252   1.702   1.760  0.00  0.00     0.298 HD
ENDROOT
TORSDOF 0
ENDMDL
