MODEL 1
REMARK minimizedAffinity 1.25437915
REMARK minimizedRMSD -1
REMARK  0 active torsions:
REMARK  status: ('A' for Active; 'I' for Inactive)
ROOT
ATOM      1  N1  IND d   1      -5.520  -3.379  -2.465  0.00  0.00    -0.196 N 
ATOM      2  C2  IND d   1      -5.943  -4.409  -1.672  0.00  0.00     0.054 A 
ATOM      3  C3  IND d   1      -5.997  -5.558  -2.383  0.00  0.00    -0.031 A 
ATOM      4  C4  IND d   1      -5.341  -5.998  -4.833  0.00  0.00     0.051 A 
ATOM      5  C5  IND d   1      -4.933  -5.360  -5.971  0.00  0.00    -0.031 A 
ATOM      6  C6  IND d   1      -4.693  -4.001  -5.998  0.00  0.00     0.015 A 
ATOM      7  C7  IND d   1      -4.841  -3.229  -4.880  0.00  0.00    -0.016 A 
ATOM      8  C8  IND d   1      -5.262  -3.873  -3.725  0.00  0.00    -0.047 A 
ATOM      9  C9  IND d   1      -5.548  -5.244  -3.702  0.00  0.00    -0.096 A 
ATOM     10  HN1 IND d   1      -5.431  -2.560  -2.219  0.00  0.00     0.298 HD
ENDROOT
TORSDOF 0
ENDMDL
