MODEL 1
REMARK minimizedAffinity 8.2237978
REMARK minimizedRMSD -1
REMARK  0 active torsions:
REMARK  status: ('A' for Active; 'I' for Inactive)
ROOT
ATOM      1  C   UNL d   1       2.970  -1.085   0.063  0.00  0.00     0.023 A 
ATOM      2  C1  UNL d   1       2.471   0.163  -0.310  0.00  0.00     0.003 A 
ATOM      3  C2  UNL d   1       1.194   0.555   0.094  0.00  0.00     0.048 A 
ATOM      4  C3  UNL d   1       0.421  -0.304   0.873  0.00  0.00     0.023 A 
ATOM      5  C4  UNL d   1       0.916  -1.554   1.251  0.00  0.00     0.048 A 
ATOM      6  C5  UNL d   1       2.193  -1.942   0.843  0.00  0.00     0.003 A 
ATOM      7  I   UNL d   1      -1.481   0.278   1.477  0.00  0.00    -0.146 I 
ENDROOT
TORSDOF 0
ENDMDL
