MODEL 1
REMARK minimizedAffinity -3.3957243
REMARK minimizedRMSD -1
REMARK  0 active torsions:
REMARK  status: ('A' for Active; 'I' for Inactive)
ROOT
ATOM      1  C   UNL d   1      -2.870   1.135   0.539  0.00  0.00     0.023 A 
ATOM      2  C1  UNL d   1      -2.612   2.312   1.243  0.00  0.00     0.003 A 
ATOM      3  C2  UNL d   1      -1.295   2.707   1.485  0.00  0.00     0.048 A 
ATOM      4  C3  UNL d   1      -0.241   1.922   1.020  0.00  0.00     0.023 A 
ATOM      5  C4  UNL d   1      -0.494   0.745   0.315  0.00  0.00     0.048 A 
ATOM      6  C5  UNL d   1      -1.812   0.353   0.075  0.00  0.00     0.003 A 
ATOM      7  I   UNL d   1       1.720   2.509   1.380  0.00  0.00    -0.146 I 
ENDROOT
TORSDOF 0
ENDMDL
