MODEL 1
REMARK minimizedAffinity 7.79364109
REMARK minimizedRMSD -1
REMARK  0 active torsions:
REMARK  status: ('A' for Active; 'I' for Inactive)
ROOT
ATOM      1  C   UNL d   1       2.853  -1.649   0.693  0.00  0.00     0.023 A 
ATOM      2  C1  UNL d   1       1.814  -2.341   1.315  0.00  0.00     0.003 A 
ATOM      3  C2  UNL d   1       0.552  -1.753   1.429  0.00  0.00     0.048 A 
ATOM      4  C3  UNL d   1       0.337  -0.474   0.918  0.00  0.00     0.023 A 
ATOM      5  C4  UNL d   1       1.374   0.222   0.294  0.00  0.00     0.048 A 
ATOM      6  C5  UNL d   1       2.633  -0.369   0.183  0.00  0.00     0.003 A 
ATOM      7  I   UNL d   1      -1.540   0.403   1.087  0.00  0.00    -0.146 I 
ENDROOT
TORSDOF 0
ENDMDL
