MODEL 1
REMARK minimizedAffinity 12.8257608
REMARK minimizedRMSD -1
REMARK  0 active torsions:
REMARK  status: ('A' for Active; 'I' for Inactive)
ROOT
ATOM      1  C   UNL d   1      -3.870   1.590  -5.929  0.00  0.00     0.023 A 
ATOM      2  C1  UNL d   1      -4.668   2.735  -5.921  0.00  0.00     0.003 A 
ATOM      3  C2  UNL d   1      -4.076   3.999  -5.898  0.00  0.00     0.048 A 
ATOM      4  C3  UNL d   1      -2.687   4.113  -5.883  0.00  0.00     0.023 A 
ATOM      5  C4  UNL d   1      -1.884   2.971  -5.892  0.00  0.00     0.048 A 
ATOM      6  C5  UNL d   1      -2.480   1.708  -5.914  0.00  0.00     0.003 A 
ATOM      7  I   UNL d   1      -1.804   5.994  -5.848  0.00  0.00    -0.146 I 
ENDROOT
TORSDOF 0
ENDMDL
