MODEL 1
REMARK minimizedAffinity 8.03418255
REMARK minimizedRMSD -1
REMARK  0 active torsions:
REMARK  status: ('A' for Active; 'I' for Inactive)
ROOT
ATOM      1  C   UNL d   1       2.911   4.179   1.763  0.00  0.00     0.023 A 
ATOM      2  C1  UNL d   1       3.715   3.406   2.602  0.00  0.00     0.003 A 
ATOM      3  C2  UNL d   1       4.161   3.928   3.818  0.00  0.00     0.048 A 
ATOM      4  C3  UNL d   1       3.800   5.222   4.190  0.00  0.00     0.023 A 
ATOM      5  C4  UNL d   1       2.995   5.999   3.354  0.00  0.00     0.048 A 
ATOM      6  C5  UNL d   1       2.552   5.474   2.139  0.00  0.00     0.003 A 
ATOM      7  I   UNL d   1       4.463   6.000   5.999  0.00  0.00    -0.146 I 
ENDROOT
TORSDOF 0
ENDMDL
