MODEL 1
REMARK minimizedAffinity -3.50737405
REMARK minimizedRMSD -1
REMARK  0 active torsions:
REMARK  status: ('A' for Active; 'I' for Inactive)
ROOT
ATOM      1  C   UNL d   1       0.780   3.598   0.432  0.00  0.00     0.023 A 
ATOM      2  C1  UNL d   1      -0.447   3.065   0.831  0.00  0.00     0.003 A 
ATOM      3  C2  UNL d   1      -0.706   1.704   0.664  0.00  0.00     0.048 A 
ATOM      4  C3  UNL d   1       0.266   0.879   0.098  0.00  0.00     0.023 A 
ATOM      5  C4  UNL d   1       1.495   1.407  -0.302  0.00  0.00     0.048 A 
ATOM      6  C5  UNL d   1       1.749   2.769  -0.134  0.00  0.00     0.003 A 
ATOM      7  I   UNL d   1      -0.117  -1.148  -0.151  0.00  0.00    -0.146 I 
ENDROOT
TORSDOF 0
ENDMDL
