MODEL 1
REMARK minimizedAffinity 8.753685
REMARK minimizedRMSD -1
REMARK  0 active torsions:
REMARK  status: ('A' for Active; 'I' for Inactive)
ROOT
ATOM      1  C   UNL d   1       3.122   0.975   1.341  0.00  0.00     0.023 A 
ATOM      2  C1  UNL d   1       2.703   2.113   2.030  0.00  0.00     0.003 A 
ATOM      3  C2  UNL d   1       1.350   2.457   2.055  0.00  0.00     0.048 A 
ATOM      4  C3  UNL d   1       0.421   1.658   1.390  0.00  0.00     0.023 A 
ATOM      5  C4  UNL d   1       0.836   0.518   0.699  0.00  0.00     0.048 A 
ATOM      6  C5  UNL d   1       2.190   0.178   0.677  0.00  0.00     0.003 A 
ATOM      7  I   UNL d   1      -1.594   2.168   1.425  0.00  0.00    -0.146 I 
ENDROOT
TORSDOF 0
ENDMDL
