MODEL 1
REMARK minimizedAffinity 6.43451691
REMARK minimizedRMSD -1
REMARK  0 active torsions:
REMARK  status: ('A' for Active; 'I' for Inactive)
ROOT
ATOM      1  C   UNL d   1      -2.631   1.263   0.392  0.00  0.00     0.023 A 
ATOM      2  C1  UNL d   1      -2.253   0.009  -0.089  0.00  0.00     0.003 A 
ATOM      3  C2  UNL d   1      -0.902  -0.342  -0.140  0.00  0.00     0.048 A 
ATOM      4  C3  UNL d   1       0.065   0.565   0.292  0.00  0.00     0.023 A 
ATOM      5  C4  UNL d   1      -0.309   1.820   0.775  0.00  0.00     0.048 A 
ATOM      6  C5  UNL d   1      -1.661   2.167   0.823  0.00  0.00     0.003 A 
ATOM      7  I   UNL d   1       2.075   0.044   0.218  0.00  0.00    -0.146 I 
ENDROOT
TORSDOF 0
ENDMDL
