MODEL 1
REMARK minimizedAffinity -2.59114051
REMARK minimizedRMSD -1
REMARK  0 active torsions:
REMARK  status: ('A' for Active; 'I' for Inactive)
ROOT
ATOM      1  C   UNL d   1      -1.361  -4.132  -1.864  0.00  0.00     0.023 A 
ATOM      2  C1  UNL d   1      -1.974  -3.061  -1.213  0.00  0.00     0.003 A 
ATOM      3  C2  UNL d   1      -1.264  -1.879  -0.991  0.00  0.00     0.048 A 
ATOM      4  C3  UNL d   1       0.058  -1.775  -1.423  0.00  0.00     0.023 A 
ATOM      5  C4  UNL d   1       0.675  -2.844  -2.075  0.00  0.00     0.048 A 
ATOM      6  C5  UNL d   1      -0.039  -4.024  -2.295  0.00  0.00     0.003 A 
ATOM      7  I   UNL d   1       1.116  -0.017  -1.093  0.00  0.00    -0.146 I 
ENDROOT
TORSDOF 0
ENDMDL
