MODEL 1
REMARK minimizedAffinity -0.14516589
REMARK minimizedRMSD -1
REMARK  0 active torsions:
REMARK  status: ('A' for Active; 'I' for Inactive)
ROOT
ATOM      1  C   UNL d   1      -4.650   2.207  -0.034  0.00  0.00     0.023 A 
ATOM      2  C1  UNL d   1      -5.256   3.236  -0.755  0.00  0.00     0.003 A 
ATOM      3  C2  UNL d   1      -4.808   3.548  -2.040  0.00  0.00     0.048 A 
ATOM      4  C3  UNL d   1      -3.755   2.825  -2.599  0.00  0.00     0.023 A 
ATOM      5  C4  UNL d   1      -3.147   1.793  -1.882  0.00  0.00     0.048 A 
ATOM      6  C5  UNL d   1      -3.597   1.486  -0.597  0.00  0.00     0.003 A 
ATOM      7  I   UNL d   1      -3.086   3.286  -4.512  0.00  0.00    -0.146 I 
ENDROOT
TORSDOF 0
ENDMDL
