MODEL 1
REMARK minimizedAffinity -3.12381911
REMARK minimizedRMSD -1
REMARK  0 active torsions:
REMARK  status: ('A' for Active; 'I' for Inactive)
ROOT
ATOM      1  C   UNL d   1      -5.191   2.169   0.268  0.00  0.00     0.023 A 
ATOM      2  C1  UNL d   1      -5.600   3.391  -0.266  0.00  0.00     0.003 A 
ATOM      3  C2  UNL d   1      -5.225   3.748  -1.563  0.00  0.00     0.048 A 
ATOM      4  C3  UNL d   1      -4.442   2.878  -2.320  0.00  0.00     0.023 A 
ATOM      5  C4  UNL d   1      -4.031   1.654  -1.790  0.00  0.00     0.048 A 
ATOM      6  C5  UNL d   1      -4.407   1.302  -0.493  0.00  0.00     0.003 A 
ATOM      7  I   UNL d   1      -3.882   3.408  -4.251  0.00  0.00    -0.146 I 
ENDROOT
TORSDOF 0
ENDMDL
