MODEL 1
REMARK minimizedAffinity 0.900368869
REMARK minimizedRMSD -1
REMARK  0 active torsions:
REMARK  status: ('A' for Active; 'I' for Inactive)
ROOT
ATOM      1  C   UNL d   1       2.312   0.966   0.922  0.00  0.00     0.023 A 
ATOM      2  C1  UNL d   1       2.632   1.412  -0.360  0.00  0.00     0.003 A 
ATOM      3  C2  UNL d   1       2.399   2.742  -0.717  0.00  0.00     0.048 A 
ATOM      4  C3  UNL d   1       1.847   3.621   0.214  0.00  0.00     0.023 A 
ATOM      5  C4  UNL d   1       1.526   3.180   1.499  0.00  0.00     0.048 A 
ATOM      6  C5  UNL d   1       1.760   1.849   1.851  0.00  0.00     0.003 A 
ATOM      7  I   UNL d   1       1.500   5.601  -0.315  0.00  0.00    -0.146 I 
ENDROOT
TORSDOF 0
ENDMDL
