MODEL 1
REMARK minimizedAffinity 0.608431101
REMARK minimizedRMSD -1
REMARK  0 active torsions:
REMARK  status: ('A' for Active; 'I' for Inactive)
ROOT
ATOM      1  C   UNL d   1       1.888   4.103  -0.032  0.00  0.00     0.023 A 
ATOM      2  C1  UNL d   1       1.522   3.512   1.177  0.00  0.00     0.003 A 
ATOM      3  C2  UNL d   1       1.558   2.123   1.314  0.00  0.00     0.048 A 
ATOM      4  C3  UNL d   1       1.961   1.331   0.239  0.00  0.00     0.023 A 
ATOM      5  C4  UNL d   1       2.329   1.919  -0.972  0.00  0.00     0.048 A 
ATOM      6  C5  UNL d   1       2.291   3.308  -1.105  0.00  0.00     0.003 A 
ATOM      7  I   UNL d   1       2.015  -0.737   0.442  0.00  0.00    -0.146 I 
ENDROOT
TORSDOF 0
ENDMDL
