MODEL 1
REMARK minimizedAffinity -1.62929106
REMARK minimizedRMSD -1
REMARK  0 active torsions:
REMARK  status: ('A' for Active; 'I' for Inactive)
ROOT
ATOM      1  C1  DEN d   1       5.179   3.057  -3.634  0.00  0.00     0.130 A 
ATOM      2  C2  DEN d   1       5.134   3.822  -4.877  0.00  0.00    -0.031 A 
ATOM      3  C3  DEN d   1       5.393   2.892  -5.995  0.00  0.00     0.027 A 
ATOM      4  C4  DEN d   1       5.851   0.355  -5.922  0.00  0.00     0.027 A 
ATOM      5  C5  DEN d   1       6.000  -0.735  -5.093  0.00  0.00    -0.003 A 
ATOM      6  C6  DEN d   1       5.919  -0.633  -3.730  0.00  0.00     0.001 A 
ATOM      7  C7  DEN d   1       5.639   0.579  -3.156  0.00  0.00     0.017 A 
ATOM      8  C8  DEN d   1       5.496   1.684  -3.984  0.00  0.00    -0.094 A 
ATOM      9  C9  DEN d   1       5.568   1.558  -5.361  0.00  0.00    -0.072 A 
ENDROOT
TORSDOF 0
ENDMDL
