MODEL 1
REMARK minimizedAffinity 11.8226128
REMARK minimizedRMSD -1
REMARK  0 active torsions:
REMARK  status: ('A' for Active; 'I' for Inactive)
ROOT
ATOM      1  C1  DEN d   1       5.614   0.402  -5.336  0.00  0.00     0.130 A 
ATOM      2  C2  DEN d   1       4.916   1.501  -5.997  0.00  0.00    -0.031 A 
ATOM      3  C3  DEN d   1       4.304   2.346  -4.953  0.00  0.00     0.027 A 
ATOM      4  C4  DEN d   1       4.372   2.064  -2.390  0.00  0.00     0.027 A 
ATOM      5  C5  DEN d   1       4.832   1.274  -1.360  0.00  0.00    -0.003 A 
ATOM      6  C6  DEN d   1       5.551   0.129  -1.582  0.00  0.00     0.001 A 
ATOM      7  C7  DEN d   1       5.869  -0.234  -2.864  0.00  0.00     0.017 A 
ATOM      8  C8  DEN d   1       5.402   0.553  -3.908  0.00  0.00    -0.094 A 
ATOM      9  C9  DEN d   1       4.687   1.713  -3.662  0.00  0.00    -0.072 A 
ENDROOT
TORSDOF 0
ENDMDL
