MODEL 1
REMARK minimizedAffinity 3.08129954
REMARK minimizedRMSD -1
REMARK  0 active torsions:
REMARK  status: ('A' for Active; 'I' for Inactive)
ROOT
ATOM      1  C1  DEN d   1       3.047   3.996  -5.962  0.00  0.00     0.130 A 
ATOM      2  C2  DEN d   1       4.045   5.060  -5.901  0.00  0.00    -0.031 A 
ATOM      3  C3  DEN d   1       5.382   4.431  -5.886  0.00  0.00     0.027 A 
ATOM      4  C4  DEN d   1       5.998   1.928  -5.955  0.00  0.00     0.027 A 
ATOM      5  C5  DEN d   1       5.492   0.648  -5.998  0.00  0.00    -0.003 A 
ATOM      6  C6  DEN d   1       4.146   0.395  -5.998  0.00  0.00     0.001 A 
ATOM      7  C7  DEN d   1       3.259   1.439  -6.000  0.00  0.00     0.017 A 
ATOM      8  C8  DEN d   1       3.762   2.732  -5.948  0.00  0.00    -0.094 A 
ATOM      9  C9  DEN d   1       5.126   2.968  -5.961  0.00  0.00    -0.072 A 
ENDROOT
TORSDOF 0
ENDMDL
