MODEL 1
REMARK minimizedAffinity 4.05129623
REMARK minimizedRMSD -1
REMARK  0 active torsions:
REMARK  status: ('A' for Active; 'I' for Inactive)
ROOT
ATOM      1  C1  DEN d   1      -1.561   4.166   0.038  0.00  0.00     0.130 A 
ATOM      2  C2  DEN d   1      -0.312   3.898   0.747  0.00  0.00    -0.031 A 
ATOM      3  C3  DEN d   1      -0.491   2.661   1.534  0.00  0.00     0.027 A 
ATOM      4  C4  DEN d   1      -2.566   1.141   1.719  0.00  0.00     0.027 A 
ATOM      5  C5  DEN d   1      -3.869   0.966   1.309  0.00  0.00    -0.003 A 
ATOM      6  C6  DEN d   1      -4.500   1.856   0.482  0.00  0.00     0.001 A 
ATOM      7  C7  DEN d   1      -3.814   2.939  -0.000  0.00  0.00     0.017 A 
ATOM      8  C8  DEN d   1      -2.502   3.126   0.414  0.00  0.00    -0.094 A 
ATOM      9  C9  DEN d   1      -1.877   2.208   1.241  0.00  0.00    -0.072 A 
ENDROOT
TORSDOF 0
ENDMDL
