MODEL 1
REMARK minimizedAffinity 10.0167027
REMARK minimizedRMSD -1
REMARK  0 active torsions:
REMARK  status: ('A' for Active; 'I' for Inactive)
ROOT
ATOM      1  C1  DEN d   1      -1.755  -4.429  -1.096  0.00  0.00     0.130 A 
ATOM      2  C2  DEN d   1      -1.084  -4.188  -2.371  0.00  0.00    -0.031 A 
ATOM      3  C3  DEN d   1      -0.365  -2.901  -2.272  0.00  0.00     0.027 A 
ATOM      4  C4  DEN d   1      -0.222  -1.271  -0.279  0.00  0.00     0.027 A 
ATOM      5  C5  DEN d   1      -0.636  -1.040   1.014  0.00  0.00    -0.003 A 
ATOM      6  C6  DEN d   1      -1.472  -1.899   1.678  0.00  0.00     0.001 A 
ATOM      7  C7  DEN d   1      -1.885  -3.052   1.065  0.00  0.00     0.017 A 
ATOM      8  C8  DEN d   1      -1.479  -3.288  -0.241  0.00  0.00    -0.094 A 
ATOM      9  C9  DEN d   1      -0.624  -2.414  -0.891  0.00  0.00    -0.072 A 
ENDROOT
TORSDOF 0
ENDMDL
