MODEL 1
REMARK minimizedAffinity 5.91318607
REMARK minimizedRMSD -1
REMARK  0 active torsions:
REMARK  status: ('A' for Active; 'I' for Inactive)
ROOT
ATOM      1  C1  DEN d   1      -0.048  -2.243  -1.914  0.00  0.00     0.130 A 
ATOM      2  C2  DEN d   1      -0.762  -3.450  -2.318  0.00  0.00    -0.031 A 
ATOM      3  C3  DEN d   1      -1.689  -3.818  -1.229  0.00  0.00     0.027 A 
ATOM      4  C4  DEN d   1      -2.089  -2.638   1.030  0.00  0.00     0.027 A 
ATOM      5  C5  DEN d   1      -1.708  -1.581   1.827  0.00  0.00    -0.003 A 
ATOM      6  C6  DEN d   1      -0.731  -0.698   1.451  0.00  0.00     0.001 A 
ATOM      7  C7  DEN d   1      -0.132  -0.829   0.226  0.00  0.00     0.017 A 
ATOM      8  C8  DEN d   1      -0.506  -1.896  -0.581  0.00  0.00    -0.094 A 
ATOM      9  C9  DEN d   1      -1.504  -2.771  -0.188  0.00  0.00    -0.072 A 
ENDROOT
TORSDOF 0
ENDMDL
