MODEL 1
REMARK minimizedAffinity 7.53583527
REMARK minimizedRMSD -1
REMARK  0 active torsions:
REMARK  status: ('A' for Active; 'I' for Inactive)
ROOT
ATOM      1  C1  DEN d   1      -1.015   4.461  -3.510  0.00  0.00     0.130 A 
ATOM      2  C2  DEN d   1      -1.305   3.151  -2.934  0.00  0.00    -0.031 A 
ATOM      3  C3  DEN d   1      -2.577   2.670  -3.509  0.00  0.00     0.027 A 
ATOM      4  C4  DEN d   1      -4.117   3.820  -5.230  0.00  0.00     0.027 A 
ATOM      5  C5  DEN d   1      -4.295   4.948  -6.000  0.00  0.00    -0.003 A 
ATOM      6  C6  DEN d   1      -3.417   6.000  -5.968  0.00  0.00     0.001 A 
ATOM      7  C7  DEN d   1      -2.296   5.925  -5.184  0.00  0.00     0.017 A 
ATOM      8  C8  DEN d   1      -2.114   4.793  -4.400  0.00  0.00    -0.094 A 
ATOM      9  C9  DEN d   1      -3.006   3.736  -4.455  0.00  0.00    -0.072 A 
ENDROOT
TORSDOF 0
ENDMDL
