MODEL 1
REMARK minimizedAffinity 17.8908558
REMARK minimizedRMSD -1
REMARK  0 active torsions:
REMARK  status: ('A' for Active; 'I' for Inactive)
ROOT
ATOM      1  C1  DEN d   1      -2.089   0.438   2.050  0.00  0.00     0.130 A 
ATOM      2  C2  DEN d   1      -1.542  -0.910   1.929  0.00  0.00    -0.031 A 
ATOM      3  C3  DEN d   1      -0.149  -0.797   1.452  0.00  0.00     0.027 A 
ATOM      4  C4  DEN d   1       1.209   1.324   0.897  0.00  0.00     0.027 A 
ATOM      5  C5  DEN d   1       1.167   2.700   0.835  0.00  0.00    -0.003 A 
ATOM      6  C6  DEN d   1       0.036   3.410   1.139  0.00  0.00     0.001 A 
ATOM      7  C7  DEN d   1      -1.087   2.750   1.562  0.00  0.00     0.017 A 
ATOM      8  C8  DEN d   1      -1.055   1.363   1.620  0.00  0.00    -0.094 A 
ATOM      9  C9  DEN d   1       0.102   0.663   1.321  0.00  0.00    -0.072 A 
ENDROOT
TORSDOF 0
ENDMDL
