MODEL 1
REMARK minimizedAffinity 15.3286533
REMARK minimizedRMSD -1
REMARK  0 active torsions:
REMARK  status: ('A' for Active; 'I' for Inactive)
ROOT
ATOM      1  C1  DEN d   1      -2.307  -3.796   1.744  0.00  0.00     0.130 A 
ATOM      2  C2  DEN d   1      -1.973  -2.668   2.609  0.00  0.00    -0.031 A 
ATOM      3  C3  DEN d   1      -1.146  -1.724   1.830  0.00  0.00     0.027 A 
ATOM      4  C4  DEN d   1      -0.360  -1.897  -0.621  0.00  0.00     0.027 A 
ATOM      5  C5  DEN d   1      -0.384  -2.679  -1.755  0.00  0.00    -0.003 A 
ATOM      6  C6  DEN d   1      -1.016  -3.893  -1.791  0.00  0.00     0.001 A 
ATOM      7  C7  DEN d   1      -1.690  -4.341  -0.686  0.00  0.00     0.017 A 
ATOM      8  C8  DEN d   1      -1.664  -3.562   0.463  0.00  0.00    -0.094 A 
ATOM      9  C9  DEN d   1      -1.030  -2.332   0.477  0.00  0.00    -0.072 A 
ENDROOT
TORSDOF 0
ENDMDL
