MODEL 1
REMARK minimizedAffinity 7.1809988
REMARK minimizedRMSD -1
REMARK  0 active torsions:
REMARK  status: ('A' for Active; 'I' for Inactive)
ROOT
ATOM      1  C1  DEN d   1       0.617  -4.473  -4.802  0.00  0.00     0.130 A 
ATOM      2  C2  DEN d   1       2.075  -4.443  -4.872  0.00  0.00    -0.031 A 
ATOM      3  C3  DEN d   1       2.591  -4.146  -3.520  0.00  0.00     0.027 A 
ATOM      4  C4  DEN d   1       1.279  -3.737  -1.337  0.00  0.00     0.027 A 
ATOM      5  C5  DEN d   1       0.021  -3.649  -0.783  0.00  0.00    -0.003 A 
ATOM      6  C6  DEN d   1      -1.118  -3.795  -1.530  0.00  0.00     0.001 A 
ATOM      7  C7  DEN d   1      -1.021  -4.081  -2.867  0.00  0.00     0.017 A 
ATOM      8  C8  DEN d   1       0.244  -4.164  -3.434  0.00  0.00    -0.094 A 
ATOM      9  C9  DEN d   1       1.383  -4.026  -2.659  0.00  0.00    -0.072 A 
ENDROOT
TORSDOF 0
ENDMDL
