MODEL 1
REMARK minimizedAffinity 3.55351019
REMARK minimizedRMSD -1
REMARK  0 active torsions:
REMARK  status: ('A' for Active; 'I' for Inactive)
ROOT
ATOM      1  C1  DEN d   1       1.021  -6.000  -5.373  0.00  0.00     0.130 A 
ATOM      2  C2  DEN d   1       2.319  -5.442  -5.003  0.00  0.00    -0.031 A 
ATOM      3  C3  DEN d   1       2.179  -4.799  -3.681  0.00  0.00     0.027 A 
ATOM      4  C4  DEN d   1       0.091  -4.618  -2.177  0.00  0.00     0.027 A 
ATOM      5  C5  DEN d   1      -1.247  -4.928  -2.072  0.00  0.00    -0.003 A 
ATOM      6  C6  DEN d   1      -1.925  -5.582  -3.066  0.00  0.00     0.001 A 
ATOM      7  C7  DEN d   1      -1.256  -5.987  -4.191  0.00  0.00     0.017 A 
ATOM      8  C8  DEN d   1       0.091  -5.671  -4.308  0.00  0.00    -0.094 A 
ATOM      9  C9  DEN d   1       0.762  -5.020  -3.286  0.00  0.00    -0.072 A 
ENDROOT
TORSDOF 0
ENDMDL
