MODEL 1
REMARK minimizedAffinity 12.9081488
REMARK minimizedRMSD -1
REMARK  0 active torsions:
REMARK  status: ('A' for Active; 'I' for Inactive)
ROOT
ATOM      1  C1  DEN d   1      -2.670  -3.433   1.639  0.00  0.00     0.130 A 
ATOM      2  C2  DEN d   1      -2.271  -2.515   2.702  0.00  0.00    -0.031 A 
ATOM      3  C3  DEN d   1      -1.191  -1.654   2.181  0.00  0.00     0.027 A 
ATOM      4  C4  DEN d   1      -0.106  -1.650  -0.159  0.00  0.00     0.027 A 
ATOM      5  C5  DEN d   1      -0.103  -2.256  -1.396  0.00  0.00    -0.003 A 
ATOM      6  C6  DEN d   1      -0.925  -3.310  -1.695  0.00  0.00     0.001 A 
ATOM      7  C7  DEN d   1      -1.817  -3.762  -0.758  0.00  0.00     0.017 A 
ATOM      8  C8  DEN d   1      -1.820  -3.161   0.494  0.00  0.00    -0.094 A 
ATOM      9  C9  DEN d   1      -0.990  -2.089   0.772  0.00  0.00    -0.072 A 
ENDROOT
TORSDOF 0
ENDMDL
