MODEL 1
REMARK minimizedAffinity 4.78384304
REMARK minimizedRMSD -1
REMARK  0 active torsions:
REMARK  status: ('A' for Active; 'I' for Inactive)
ROOT
ATOM      1  C1  DEN d   1       4.731   0.666  -3.435  0.00  0.00     0.130 A 
ATOM      2  C2  DEN d   1       5.387  -0.341  -4.265  0.00  0.00    -0.031 A 
ATOM      3  C3  DEN d   1       6.000   0.348  -5.419  0.00  0.00     0.027 A 
ATOM      4  C4  DEN d   1       6.000   2.862  -5.996  0.00  0.00     0.027 A 
ATOM      5  C5  DEN d   1       5.562   4.105  -5.596  0.00  0.00    -0.003 A 
ATOM      6  C6  DEN d   1       4.794   4.283  -4.476  0.00  0.00     0.001 A 
ATOM      7  C7  DEN d   1       4.478   3.206  -3.691  0.00  0.00     0.017 A 
ATOM      8  C8  DEN d   1       4.910   1.948  -4.091  0.00  0.00    -0.094 A 
ATOM      9  C9  DEN d   1       5.695   1.790  -5.220  0.00  0.00    -0.072 A 
ENDROOT
TORSDOF 0
ENDMDL
