MODEL 1
REMARK minimizedAffinity 9.12370491
REMARK minimizedRMSD -1
REMARK  0 active torsions:
REMARK  status: ('A' for Active; 'I' for Inactive)
ROOT
ATOM      1  C1  DEN d   1      -4.103   3.084  -3.808  0.00  0.00     0.130 A 
ATOM      2  C2  DEN d   1      -3.099   3.930  -4.447  0.00  0.00    -0.031 A 
ATOM      3  C3  DEN d   1      -2.321   4.597  -3.383  0.00  0.00     0.027 A 
ATOM      4  C4  DEN d   1      -2.569   4.398  -0.824  0.00  0.00     0.027 A 
ATOM      5  C5  DEN d   1      -3.290   3.810   0.192  0.00  0.00    -0.003 A 
ATOM      6  C6  DEN d   1      -4.345   2.972  -0.053  0.00  0.00     0.001 A 
ATOM      7  C7  DEN d   1      -4.682   2.663  -1.344  0.00  0.00     0.017 A 
ATOM      8  C8  DEN d   1      -3.964   3.258  -2.373  0.00  0.00    -0.094 A 
ATOM      9  C9  DEN d   1      -2.893   4.093  -2.106  0.00  0.00    -0.072 A 
ENDROOT
TORSDOF 0
ENDMDL
