MODEL 1
REMARK minimizedAffinity -1.54497457
REMARK minimizedRMSD -1
REMARK  0 active torsions:
REMARK  status: ('A' for Active; 'I' for Inactive)
ROOT
ATOM      1  C1  DEN d   1       3.653   1.396  -5.862  0.00  0.00     0.130 A 
ATOM      2  C2  DEN d   1       4.864   0.603  -5.671  0.00  0.00    -0.031 A 
ATOM      3  C3  DEN d   1       6.000   1.534  -5.519  0.00  0.00     0.027 A 
ATOM      4  C4  DEN d   1       6.000   4.113  -5.556  0.00  0.00     0.027 A 
ATOM      5  C5  DEN d   1       5.212   5.234  -5.701  0.00  0.00    -0.003 A 
ATOM      6  C6  DEN d   1       3.866   5.154  -5.942  0.00  0.00     0.001 A 
ATOM      7  C7  DEN d   1       3.258   3.927  -6.000  0.00  0.00     0.017 A 
ATOM      8  C8  DEN d   1       4.047   2.793  -5.862  0.00  0.00    -0.094 A 
ATOM      9  C9  DEN d   1       5.404   2.895  -5.607  0.00  0.00    -0.072 A 
ENDROOT
TORSDOF 0
ENDMDL
