MODEL 1
REMARK minimizedAffinity 7.97388887
REMARK minimizedRMSD -1
REMARK  0 active torsions:
REMARK  status: ('A' for Active; 'I' for Inactive)
ROOT
ATOM      1  C   UNL d   1      -2.240   3.311  -2.345  0.00  0.00     0.124 A 
ATOM      2  C1  UNL d   1      -2.640   2.008  -2.081  0.00  0.00     0.062 A 
ATOM      3  C2  UNL d   1      -3.023   1.168  -3.122  0.00  0.00     0.162 A 
ATOM      4  C3  UNL d   1      -3.007   1.629  -4.439  0.00  0.00    -0.034 A 
ATOM      5  C4  UNL d   1      -2.604   2.940  -4.697  0.00  0.00     0.162 A 
ATOM      6  C5  UNL d   1      -2.222   3.775  -3.652  0.00  0.00     0.062 A 
ATOM      7  F   UNL d   1      -1.836   5.033  -3.910  0.00  0.00    -0.097 F 
ATOM      8  F1  UNL d   1      -2.577   3.415  -5.951  0.00  0.00    -0.096 F 
ATOM      9  I   UNL d   1      -3.579   0.376  -6.000  0.00  0.00    -0.060 I 
ATOM     10  F2  UNL d   1      -3.405  -0.085  -2.838  0.00  0.00    -0.096 F 
ATOM     11  F3  UNL d   1      -2.658   1.557  -0.818  0.00  0.00    -0.097 F 
ATOM     12  F4  UNL d   1      -1.873   4.117  -1.340  0.00  0.00    -0.092 F 
ENDROOT
TORSDOF 0
ENDMDL
