MODEL 1
REMARK minimizedAffinity 7.65701437
REMARK minimizedRMSD -1
REMARK  0 active torsions:
REMARK  status: ('A' for Active; 'I' for Inactive)
ROOT
ATOM      1  C   UNL d   1      -0.959  -0.690   1.047  0.00  0.00     0.124 A 
ATOM      2  C1  UNL d   1      -1.278  -1.584   2.060  0.00  0.00     0.062 A 
ATOM      3  C2  UNL d   1      -0.469  -2.692   2.296  0.00  0.00     0.162 A 
ATOM      4  C3  UNL d   1       0.669  -2.911   1.519  0.00  0.00    -0.034 A 
ATOM      5  C4  UNL d   1       0.983  -2.008   0.502  0.00  0.00     0.162 A 
ATOM      6  C5  UNL d   1       0.171  -0.903   0.270  0.00  0.00     0.062 A 
ATOM      7  F   UNL d   1       0.480  -0.040  -0.709  0.00  0.00    -0.097 F 
ATOM      8  F1  UNL d   1       2.069  -2.189  -0.264  0.00  0.00    -0.096 F 
ATOM      9  I   UNL d   1       1.881  -4.566   1.869  0.00  0.00    -0.060 I 
ATOM     10  F2  UNL d   1      -0.801  -3.539   3.281  0.00  0.00    -0.096 F 
ATOM     11  F3  UNL d   1      -2.369  -1.382   2.812  0.00  0.00    -0.097 F 
ATOM     12  F4  UNL d   1      -1.740   0.374   0.821  0.00  0.00    -0.092 F 
ENDROOT
TORSDOF 0
ENDMDL
