MODEL 1
REMARK minimizedAffinity 7.35308647
REMARK minimizedRMSD -1
REMARK  0 active torsions:
REMARK  status: ('A' for Active; 'I' for Inactive)
ROOT
ATOM      1  C   UNL d   1       0.184  -1.480   2.050  0.00  0.00     0.124 A 
ATOM      2  C1  UNL d   1      -1.007  -0.839   2.363  0.00  0.00     0.062 A 
ATOM      3  C2  UNL d   1      -1.735  -0.191   1.369  0.00  0.00     0.162 A 
ATOM      4  C3  UNL d   1      -1.275  -0.181   0.052  0.00  0.00    -0.034 A 
ATOM      5  C4  UNL d   1      -0.076  -0.827  -0.255  0.00  0.00     0.162 A 
ATOM      6  C5  UNL d   1       0.648  -1.473   0.742  0.00  0.00     0.062 A 
ATOM      7  F   UNL d   1       1.798  -2.092   0.437  0.00  0.00    -0.097 F 
ATOM      8  F1  UNL d   1       0.395  -0.837  -1.511  0.00  0.00    -0.096 F 
ATOM      9  I   UNL d   1      -2.361   0.787  -1.436  0.00  0.00    -0.060 I 
ATOM     10  F2  UNL d   1      -2.882   0.420   1.701  0.00  0.00    -0.096 F 
ATOM     11  F3  UNL d   1      -1.456  -0.843   3.626  0.00  0.00    -0.097 F 
ATOM     12  F4  UNL d   1       0.883  -2.102   3.007  0.00  0.00    -0.092 F 
ENDROOT
TORSDOF 0
ENDMDL
