MODEL 1
REMARK minimizedAffinity -1.50924778
REMARK minimizedRMSD -1
REMARK  0 active torsions:
REMARK  status: ('A' for Active; 'I' for Inactive)
ROOT
ATOM      1  C   UNL d   1      -0.349  -2.998   2.916  0.00  0.00     0.124 A 
ATOM      2  C1  UNL d   1      -0.842  -1.710   2.753  0.00  0.00     0.062 A 
ATOM      3  C2  UNL d   1      -0.417  -0.928   1.683  0.00  0.00     0.162 A 
ATOM      4  C3  UNL d   1       0.506  -1.432   0.767  0.00  0.00    -0.034 A 
ATOM      5  C4  UNL d   1       0.998  -2.727   0.938  0.00  0.00     0.162 A 
ATOM      6  C5  UNL d   1       0.570  -3.505   2.008  0.00  0.00     0.062 A 
ATOM      7  F   UNL d   1       1.047  -4.748   2.164  0.00  0.00    -0.097 F 
ATOM      8  F1  UNL d   1       1.887  -3.242   0.075  0.00  0.00    -0.096 F 
ATOM      9  I   UNL d   1       1.145  -0.265  -0.834  0.00  0.00    -0.060 I 
ATOM     10  F2  UNL d   1      -0.910   0.312   1.550  0.00  0.00    -0.096 F 
ATOM     11  F3  UNL d   1      -1.730  -1.218   3.629  0.00  0.00    -0.097 F 
ATOM     12  F4  UNL d   1      -0.760  -3.748   3.947  0.00  0.00    -0.092 F 
ENDROOT
TORSDOF 0
ENDMDL
