MODEL 1
REMARK minimizedAffinity 7.15639162
REMARK minimizedRMSD -1
REMARK  0 active torsions:
REMARK  status: ('A' for Active; 'I' for Inactive)
ROOT
ATOM      1  C   UNL d   1      -1.150  -0.448   0.907  0.00  0.00     0.124 A 
ATOM      2  C1  UNL d   1       0.043  -0.574   0.209  0.00  0.00     0.062 A 
ATOM      3  C2  UNL d   1       0.899  -1.639   0.473  0.00  0.00     0.162 A 
ATOM      4  C3  UNL d   1       0.565  -2.588   1.439  0.00  0.00    -0.034 A 
ATOM      5  C4  UNL d   1      -0.636  -2.454   2.138  0.00  0.00     0.162 A 
ATOM      6  C5  UNL d   1      -1.489  -1.387   1.871  0.00  0.00     0.062 A 
ATOM      7  F   UNL d   1      -2.641  -1.267   2.547  0.00  0.00    -0.097 F 
ATOM      8  F1  UNL d   1      -0.988  -3.348   3.074  0.00  0.00    -0.096 F 
ATOM      9  I   UNL d   1       1.843  -4.182   1.837  0.00  0.00    -0.060 I 
ATOM     10  F2  UNL d   1       2.045  -1.736  -0.217  0.00  0.00    -0.096 F 
ATOM     11  F3  UNL d   1       0.372   0.333  -0.722  0.00  0.00    -0.097 F 
ATOM     12  F4  UNL d   1      -1.972   0.579   0.652  0.00  0.00    -0.092 F 
ENDROOT
TORSDOF 0
ENDMDL
