MODEL 1
REMARK minimizedAffinity 4.16131401
REMARK minimizedRMSD -1
REMARK  0 active torsions:
REMARK  status: ('A' for Active; 'I' for Inactive)
ROOT
ATOM      1  C   UNL d   1      -0.981   0.047   0.581  0.00  0.00     0.124 A 
ATOM      2  C1  UNL d   1      -1.104  -0.762   1.702  0.00  0.00     0.062 A 
ATOM      3  C2  UNL d   1      -0.351  -1.927   1.811  0.00  0.00     0.162 A 
ATOM      4  C3  UNL d   1       0.535  -2.290   0.797  0.00  0.00    -0.034 A 
ATOM      5  C4  UNL d   1       0.653  -1.472  -0.328  0.00  0.00     0.162 A 
ATOM      6  C5  UNL d   1      -0.102  -0.309  -0.433  0.00  0.00     0.062 A 
ATOM      7  F   UNL d   1       0.019   0.471  -1.517  0.00  0.00    -0.097 F 
ATOM      8  F1  UNL d   1       1.496  -1.792  -1.322  0.00  0.00    -0.096 F 
ATOM      9  I   UNL d   1       1.664  -4.032   0.957  0.00  0.00    -0.060 I 
ATOM     10  F2  UNL d   1      -0.491  -2.690   2.906  0.00  0.00    -0.096 F 
ATOM     11  F3  UNL d   1      -1.953  -0.422   2.682  0.00  0.00    -0.097 F 
ATOM     12  F4  UNL d   1      -1.708   1.166   0.478  0.00  0.00    -0.092 F 
ENDROOT
TORSDOF 0
ENDMDL
