MODEL 1
REMARK minimizedAffinity 6.70460844
REMARK minimizedRMSD -1
REMARK  0 active torsions:
REMARK  status: ('A' for Active; 'I' for Inactive)
ROOT
ATOM      1  C   UNL d   1      -1.313  -1.191   1.535  0.00  0.00     0.124 A 
ATOM      2  C1  UNL d   1      -1.193  -2.224   2.454  0.00  0.00     0.062 A 
ATOM      3  C2  UNL d   1      -0.056  -3.027   2.460  0.00  0.00     0.162 A 
ATOM      4  C3  UNL d   1       0.971  -2.798   1.545  0.00  0.00    -0.034 A 
ATOM      5  C4  UNL d   1       0.843  -1.758   0.623  0.00  0.00     0.162 A 
ATOM      6  C5  UNL d   1      -0.295  -0.959   0.621  0.00  0.00     0.062 A 
ATOM      7  F   UNL d   1      -0.410   0.039  -0.268  0.00  0.00    -0.097 F 
ATOM      8  F1  UNL d   1       1.812  -1.511  -0.271  0.00  0.00    -0.096 F 
ATOM      9  I   UNL d   1       2.674  -3.996   1.551  0.00  0.00    -0.060 I 
ATOM     10  F2  UNL d   1       0.033  -4.018   3.359  0.00  0.00    -0.096 F 
ATOM     11  F3  UNL d   1      -2.176  -2.451   3.337  0.00  0.00    -0.097 F 
ATOM     12  F4  UNL d   1      -2.409  -0.421   1.530  0.00  0.00    -0.092 F 
ENDROOT
TORSDOF 0
ENDMDL
