MODEL 1
REMARK minimizedAffinity -3.55556417
REMARK minimizedRMSD -1
REMARK  0 active torsions:
REMARK  status: ('A' for Active; 'I' for Inactive)
ROOT
ATOM      1  C   UNL d   1       0.825  -1.942   0.221  0.00  0.00     0.124 A 
ATOM      2  C1  UNL d   1       0.082  -1.125  -0.620  0.00  0.00     0.062 A 
ATOM      3  C2  UNL d   1      -1.188  -0.700  -0.240  0.00  0.00     0.162 A 
ATOM      4  C3  UNL d   1      -1.723  -1.090   0.987  0.00  0.00    -0.034 A 
ATOM      5  C4  UNL d   1      -0.970  -1.913   1.827  0.00  0.00     0.162 A 
ATOM      6  C5  UNL d   1       0.298  -2.335   1.443  0.00  0.00     0.062 A 
ATOM      7  F   UNL d   1       1.014  -3.125   2.257  0.00  0.00    -0.097 F 
ATOM      8  F1  UNL d   1      -1.455  -2.307   3.014  0.00  0.00    -0.096 F 
ATOM      9  I   UNL d   1      -3.621  -0.457   1.559  0.00  0.00    -0.060 I 
ATOM     10  F2  UNL d   1      -1.883   0.090  -1.072  0.00  0.00    -0.096 F 
ATOM     11  F3  UNL d   1       0.588  -0.744  -1.801  0.00  0.00    -0.097 F 
ATOM     12  F4  UNL d   1       2.046  -2.350  -0.147  0.00  0.00    -0.092 F 
ENDROOT
TORSDOF 0
ENDMDL
