MODEL 1
REMARK minimizedAffinity 10.9926062
REMARK minimizedRMSD -1
REMARK  0 active torsions:
REMARK  status: ('A' for Active; 'I' for Inactive)
ROOT
ATOM      1  C   UNL d   1       0.433  -0.586  -0.551  0.00  0.00     0.124 A 
ATOM      2  C1  UNL d   1       0.859   0.073   0.594  0.00  0.00     0.062 A 
ATOM      3  C2  UNL d   1      -0.015   0.258   1.662  0.00  0.00     0.162 A 
ATOM      4  C3  UNL d   1      -1.324  -0.218   1.590  0.00  0.00    -0.034 A 
ATOM      5  C4  UNL d   1      -1.746  -0.878   0.435  0.00  0.00     0.162 A 
ATOM      6  C5  UNL d   1      -0.869  -1.060  -0.629  0.00  0.00     0.062 A 
ATOM      7  F   UNL d   1      -1.283  -1.697  -1.735  0.00  0.00    -0.097 F 
ATOM      8  F1  UNL d   1      -2.998  -1.348   0.332  0.00  0.00    -0.096 F 
ATOM      9  I   UNL d   1      -2.634   0.057   3.184  0.00  0.00    -0.060 I 
ATOM     10  F2  UNL d   1       0.424   0.898   2.756  0.00  0.00    -0.096 F 
ATOM     11  F3  UNL d   1       2.116   0.533   0.673  0.00  0.00    -0.097 F 
ATOM     12  F4  UNL d   1       1.275  -0.762  -1.577  0.00  0.00    -0.092 F 
ENDROOT
TORSDOF 0
ENDMDL
