MODEL 1
REMARK minimizedAffinity 5.89283705
REMARK minimizedRMSD -1
REMARK  0 active torsions:
REMARK  status: ('A' for Active; 'I' for Inactive)
ROOT
ATOM      1  C   UNL d   1      -1.674  -0.239   2.225  0.00  0.00     0.124 A 
ATOM      2  C1  UNL d   1      -1.387   0.695   1.239  0.00  0.00     0.062 A 
ATOM      3  C2  UNL d   1      -0.406   0.430   0.288  0.00  0.00     0.162 A 
ATOM      4  C3  UNL d   1       0.295  -0.775   0.317  0.00  0.00    -0.034 A 
ATOM      5  C4  UNL d   1       0.002  -1.709   1.312  0.00  0.00     0.162 A 
ATOM      6  C5  UNL d   1      -0.979  -1.440   2.260  0.00  0.00     0.062 A 
ATOM      7  F   UNL d   1      -1.255  -2.343   3.212  0.00  0.00    -0.097 F 
ATOM      8  F1  UNL d   1       0.657  -2.878   1.369  0.00  0.00    -0.096 F 
ATOM      9  I   UNL d   1       1.763  -1.175  -1.104  0.00  0.00    -0.060 I 
ATOM     10  F2  UNL d   1      -0.149   1.351  -0.653  0.00  0.00    -0.096 F 
ATOM     11  F3  UNL d   1      -2.055   1.857   1.203  0.00  0.00    -0.097 F 
ATOM     12  F4  UNL d   1      -2.617   0.019   3.140  0.00  0.00    -0.092 F 
ENDROOT
TORSDOF 0
ENDMDL
