MODEL 1
REMARK minimizedAffinity -5.68749905
REMARK minimizedRMSD -1
REMARK  0 active torsions:
REMARK  status: ('A' for Active; 'I' for Inactive)
ROOT
ATOM      1  C4' PXY d   1      -1.100   0.154  -0.493  0.00  0.00     0.077 C 
ATOM      2  C1' PXY d   1       4.440  -0.278   1.100  0.00  0.00     0.077 C 
ATOM      3  C1  PXY d   1       2.988  -0.176   0.677  0.00  0.00    -0.082 A 
ATOM      4  C2  PXY d   1       2.426   1.015   0.546  0.00  0.00     0.003 A 
ATOM      5  C3  PXY d   1       1.105   1.124   0.195  0.00  0.00     0.003 A 
ATOM      6  C4  PXY d   1       0.366   0.004  -0.077  0.00  0.00    -0.082 A 
ATOM      7  C5  PXY d   1       0.934  -1.214   0.044  0.00  0.00     0.003 A 
ATOM      8  C6  PXY d   1       2.265  -1.305   0.441  0.00  0.00     0.003 A 
ENDROOT
TORSDOF 0
ENDMDL
