MODEL 1
REMARK minimizedAffinity -4.04880714
REMARK minimizedRMSD -1
REMARK  0 active torsions:
REMARK  status: ('A' for Active; 'I' for Inactive)
ROOT
ATOM      1  C4' PXY d   1      -0.773  -2.453  -1.533  0.00  0.00     0.077 C 
ATOM      2  C1' PXY d   1       1.859   1.387   1.892  0.00  0.00     0.077 C 
ATOM      3  C1  PXY d   1       1.158   0.387   0.995  0.00  0.00    -0.082 A 
ATOM      4  C2  PXY d   1       1.647  -0.836   0.871  0.00  0.00     0.003 A 
ATOM      5  C3  PXY d   1       1.043  -1.744   0.040  0.00  0.00     0.003 A 
ATOM      6  C4  PXY d   1      -0.103  -1.413  -0.632  0.00  0.00    -0.082 A 
ATOM      7  C5  PXY d   1      -0.615  -0.170  -0.502  0.00  0.00     0.003 A 
ATOM      8  C6  PXY d   1       0.037   0.749   0.315  0.00  0.00     0.003 A 
ENDROOT
TORSDOF 0
ENDMDL
