MODEL 1
REMARK minimizedAffinity -5.37547016
REMARK minimizedRMSD -1
REMARK  0 active torsions:
REMARK  status: ('A' for Active; 'I' for Inactive)
ROOT
ATOM      1  C4' PXY d   1       3.334  -1.444   0.413  0.00  0.00     0.077 C 
ATOM      2  C1' PXY d   1      -1.896   0.967  -0.092  0.00  0.00     0.077 C 
ATOM      3  C1  PXY d   1      -0.519   0.346   0.040  0.00  0.00    -0.082 A 
ATOM      4  C2  PXY d   1      -0.327  -0.907  -0.338  0.00  0.00     0.003 A 
ATOM      5  C3  PXY d   1       0.904  -1.494  -0.196  0.00  0.00     0.003 A 
ATOM      6  C4  PXY d   1       1.963  -0.774   0.289  0.00  0.00    -0.082 A 
ATOM      7  C5  PXY d   1       1.778   0.509   0.667  0.00  0.00     0.003 A 
ATOM      8  C6  PXY d   1       0.511   1.073   0.553  0.00  0.00     0.003 A 
ENDROOT
TORSDOF 0
ENDMDL
