MODEL 1
REMARK minimizedAffinity -4.38806391
REMARK minimizedRMSD -1
REMARK  0 active torsions:
REMARK  status: ('A' for Active; 'I' for Inactive)
ROOT
ATOM      1  C4' PXY d   1       2.861  -1.608   1.221  0.00  0.00     0.077 C 
ATOM      2  C1' PXY d   1      -1.854   1.033  -0.829  0.00  0.00     0.077 C 
ATOM      3  C1  PXY d   1      -0.623   0.329  -0.293  0.00  0.00    -0.082 A 
ATOM      4  C2  PXY d   1       0.239   0.998   0.455  0.00  0.00     0.003 A 
ATOM      5  C3  PXY d   1       1.373   0.385   0.922  0.00  0.00     0.003 A 
ATOM      6  C4  PXY d   1       1.601  -0.941   0.665  0.00  0.00    -0.082 A 
ATOM      7  C5  PXY d   1       0.720  -1.633  -0.088  0.00  0.00     0.003 A 
ATOM      8  C6  PXY d   1      -0.404  -0.982  -0.587  0.00  0.00     0.003 A 
ENDROOT
TORSDOF 0
ENDMDL
