MODEL 1
REMARK minimizedAffinity -2.03479719
REMARK minimizedRMSD -1
REMARK  0 active torsions:
REMARK  status: ('A' for Active; 'I' for Inactive)
ROOT
ATOM      1  C4' PXY d   1      -2.522   0.736   1.855  0.00  0.00     0.077 C 
ATOM      2  C1' PXY d   1       2.548  -1.303  -0.032  0.00  0.00     0.077 C 
ATOM      3  C1  PXY d   1       1.218  -0.760   0.453  0.00  0.00    -0.082 A 
ATOM      4  C2  PXY d   1       0.873  -0.911   1.722  0.00  0.00     0.003 A 
ATOM      5  C3  PXY d   1      -0.339  -0.454   2.170  0.00  0.00     0.003 A 
ATOM      6  C4  PXY d   1      -1.185   0.212   1.323  0.00  0.00    -0.082 A 
ATOM      7  C5  PXY d   1      -0.836   0.379   0.030  0.00  0.00     0.003 A 
ATOM      8  C6  PXY d   1       0.382  -0.128  -0.415  0.00  0.00     0.003 A 
ENDROOT
TORSDOF 0
ENDMDL
