MODEL 1
REMARK minimizedAffinity -2.75115585
REMARK minimizedRMSD -1
REMARK  0 active torsions:
REMARK  status: ('A' for Active; 'I' for Inactive)
ROOT
ATOM      1  C4' PXY d   1      -0.813   1.396   0.013  0.00  0.00     0.077 C 
ATOM      2  C1' PXY d   1       4.352  -1.073   0.813  0.00  0.00     0.077 C 
ATOM      3  C1  PXY d   1       3.001  -0.415   0.610  0.00  0.00    -0.082 A 
ATOM      4  C2  PXY d   1       1.935  -1.166   0.389  0.00  0.00     0.003 A 
ATOM      5  C3  PXY d   1       0.711  -0.586   0.171  0.00  0.00     0.003 A 
ATOM      6  C4  PXY d   1       0.568   0.774   0.233  0.00  0.00    -0.082 A 
ATOM      7  C5  PXY d   1       1.650   1.547   0.469  0.00  0.00     0.003 A 
ATOM      8  C6  PXY d   1       2.890   0.941   0.646  0.00  0.00     0.003 A 
ENDROOT
TORSDOF 0
ENDMDL
