MODEL 1
REMARK minimizedAffinity -4.84800434
REMARK minimizedRMSD -1
REMARK  0 active torsions:
REMARK  status: ('A' for Active; 'I' for Inactive)
ROOT
ATOM      1  C4' PXY d   1       3.735  -1.131   1.060  0.00  0.00     0.077 C 
ATOM      2  C1' PXY d   1      -1.534   0.591  -0.581  0.00  0.00     0.077 C 
ATOM      3  C1  PXY d   1      -0.148   0.151  -0.155  0.00  0.00    -0.082 A 
ATOM      4  C2  PXY d   1       0.130  -1.140  -0.063  0.00  0.00     0.003 A 
ATOM      5  C3  PXY d   1       1.369  -1.555   0.351  0.00  0.00     0.003 A 
ATOM      6  C4  PXY d   1       2.351  -0.641   0.624  0.00  0.00    -0.082 A 
ATOM      7  C5  PXY d   1       2.079   0.678   0.523  0.00  0.00     0.003 A 
ATOM      8  C6  PXY d   1       0.802   1.079   0.140  0.00  0.00     0.003 A 
ENDROOT
TORSDOF 0
ENDMDL
