MODEL 1
REMARK minimizedAffinity -6.06763268
REMARK minimizedRMSD -1
REMARK  0 active torsions:
REMARK  status: ('A' for Active; 'I' for Inactive)
ROOT
ATOM      1  C4' PXY d   1       3.466  -1.537   0.616  0.00  0.00     0.077 C 
ATOM      2  C1' PXY d   1      -1.502   1.369   0.080  0.00  0.00     0.077 C 
ATOM      3  C1  PXY d   1      -0.193   0.618   0.219  0.00  0.00    -0.082 A 
ATOM      4  C2  PXY d   1      -0.155  -0.682  -0.028  0.00  0.00     0.003 A 
ATOM      5  C3  PXY d   1       1.014  -1.382   0.124  0.00  0.00     0.003 A 
ATOM      6  C4  PXY d   1       2.168  -0.736   0.480  0.00  0.00    -0.082 A 
ATOM      7  C5  PXY d   1       2.139   0.591   0.722  0.00  0.00     0.003 A 
ATOM      8  C6  PXY d   1       0.934   1.277   0.603  0.00  0.00     0.003 A 
ENDROOT
TORSDOF 0
ENDMDL
