MODEL 1
REMARK minimizedAffinity -2.62969971
REMARK minimizedRMSD -1
REMARK  0 active torsions:
REMARK  status: ('A' for Active; 'I' for Inactive)
ROOT
ATOM      1  C4' PXY d   1      -2.099   1.218  -0.159  0.00  0.00     0.077 C 
ATOM      2  C1' PXY d   1       2.837  -1.748   0.347  0.00  0.00     0.077 C 
ATOM      3  C1  PXY d   1       1.547  -0.961   0.223  0.00  0.00    -0.082 A 
ATOM      4  C2  PXY d   1       0.452  -1.565  -0.211  0.00  0.00     0.003 A 
ATOM      5  C3  PXY d   1      -0.715  -0.861  -0.360  0.00  0.00     0.003 A 
ATOM      6  C4  PXY d   1      -0.777   0.461  -0.009  0.00  0.00    -0.082 A 
ATOM      7  C5  PXY d   1       0.333   1.081   0.445  0.00  0.00     0.003 A 
ATOM      8  C6  PXY d   1       1.519   0.359   0.549  0.00  0.00     0.003 A 
ENDROOT
TORSDOF 0
ENDMDL
