MODEL 1
REMARK minimizedAffinity -3.20182633
REMARK minimizedRMSD -1
REMARK  0 active torsions:
REMARK  status: ('A' for Active; 'I' for Inactive)
ROOT
ATOM      1  C4' PXY d   1       2.528  -1.847   0.425  0.00  0.00     0.077 C 
ATOM      2  C1' PXY d   1      -2.522   0.827  -0.448  0.00  0.00     0.077 C 
ATOM      3  C1  PXY d   1      -1.191   0.137  -0.219  0.00  0.00    -0.082 A 
ATOM      4  C2  PXY d   1      -1.048  -1.135  -0.554  0.00  0.00     0.003 A 
ATOM      5  C3  PXY d   1       0.138  -1.783  -0.324  0.00  0.00     0.003 A 
ATOM      6  C4  PXY d   1       1.206  -1.107   0.203  0.00  0.00    -0.082 A 
ATOM      7  C5  PXY d   1       1.071   0.194   0.537  0.00  0.00     0.003 A 
ATOM      8  C6  PXY d   1      -0.154   0.822   0.334  0.00  0.00     0.003 A 
ENDROOT
TORSDOF 0
ENDMDL
