MODEL 1
REMARK minimizedAffinity -3.74255848
REMARK minimizedRMSD -1
REMARK  0 active torsions:
REMARK  status: ('A' for Active; 'I' for Inactive)
ROOT
ATOM      1  C4' PXY d   1      -1.860   0.800  -0.535  0.00  0.00     0.077 C 
ATOM      2  C1' PXY d   1       3.155  -1.520   1.161  0.00  0.00     0.077 C 
ATOM      3  C1  PXY d   1       1.841  -0.902   0.725  0.00  0.00    -0.082 A 
ATOM      4  C2  PXY d   1       0.941  -1.648   0.106  0.00  0.00     0.003 A 
ATOM      5  C3  PXY d   1      -0.239  -1.098  -0.324  0.00  0.00     0.003 A 
ATOM      6  C4  PXY d   1      -0.524   0.217  -0.069  0.00  0.00    -0.082 A 
ATOM      7  C5  PXY d   1       0.385   0.982   0.573  0.00  0.00     0.003 A 
ATOM      8  C6  PXY d   1       1.594   0.414   0.963  0.00  0.00     0.003 A 
ENDROOT
TORSDOF 0
ENDMDL
