MODEL 1
REMARK minimizedAffinity 7.59730625
REMARK minimizedRMSD -1
REMARK  1 active torsions:
REMARK  status: ('A' for Active; 'I' for Inactive)
REMARK    1  A    between atoms: C3_4  and  O_7 
ROOT
ATOM      1  C   UNL d   1      -2.899  -0.434  -2.280  0.00  0.00    -0.033 A 
ATOM      2  C1  UNL d   1      -1.642  -0.753  -1.764  0.00  0.00     0.039 A 
ATOM      3  C2  UNL d   1      -1.253  -2.089  -1.641  0.00  0.00    -0.080 A 
ATOM      4  C3  UNL d   1      -2.130  -3.094  -2.039  0.00  0.00     0.150 A 
ATOM      5  C4  UNL d   1      -3.383  -2.784  -2.558  0.00  0.00    -0.007 A 
ATOM      6  C5  UNL d   1      -3.769  -1.449  -2.678  0.00  0.00     0.039 A 
ENDROOT
BRANCH   4   7
ATOM      7  O   UNL d   1      -1.798  -4.412  -1.935  0.00  0.00    -0.526 OA
ATOM      8  H5  UNL d   1      -0.915  -4.476  -1.534  0.00  0.00     0.418 HD
ENDBRANCH   4   7
TORSDOF 1
ENDMDL
