MODEL 1
REMARK minimizedAffinity -1.4957509
REMARK minimizedRMSD -1
REMARK  1 active torsions:
REMARK  status: ('A' for Active; 'I' for Inactive)
REMARK    1  A    between atoms: C3_4  and  O_7 
ROOT
ATOM      1  C   UNL d   1      -6.000   2.911  -4.433  0.00  0.00    -0.033 A 
ATOM      2  C1  UNL d   1      -5.505   2.665  -5.716  0.00  0.00     0.039 A 
ATOM      3  C2  UNL d   1      -4.868   1.455  -6.000  0.00  0.00    -0.080 A 
ATOM      4  C3  UNL d   1      -4.733   0.502  -4.995  0.00  0.00     0.150 A 
ATOM      5  C4  UNL d   1      -5.227   0.739  -3.716  0.00  0.00    -0.007 A 
ATOM      6  C5  UNL d   1      -5.862   1.948  -3.434  0.00  0.00     0.039 A 
ENDROOT
BRANCH   4   7
ATOM      7  O   UNL d   1      -4.114  -0.691  -5.223  0.00  0.00    -0.526 OA
ATOM      8  H5  UNL d   1      -3.799  -0.704  -6.142  0.00  0.00     0.418 HD
ENDBRANCH   4   7
TORSDOF 1
ENDMDL
