MODEL 1
REMARK minimizedAffinity -1.12253869
REMARK minimizedRMSD -1
REMARK  1 active torsions:
REMARK  status: ('A' for Active; 'I' for Inactive)
REMARK    1  A    between atoms: C3_4  and  O_7 
ROOT
ATOM      1  C   UNL d   1      -5.920   2.427  -3.768  0.00  0.00    -0.033 A 
ATOM      2  C1  UNL d   1      -5.922   2.376  -5.163  0.00  0.00     0.039 A 
ATOM      3  C2  UNL d   1      -5.940   3.557  -5.907  0.00  0.00    -0.080 A 
ATOM      4  C3  UNL d   1      -5.954   4.781  -5.244  0.00  0.00     0.150 A 
ATOM      5  C4  UNL d   1      -5.948   4.840  -3.854  0.00  0.00    -0.007 A 
ATOM      6  C5  UNL d   1      -5.931   3.659  -3.114  0.00  0.00     0.039 A 
ENDROOT
BRANCH   4   7
ATOM      7  O   UNL d   1      -5.976   5.961  -5.927  0.00  0.00    -0.526 OA
ATOM      8  H5  UNL d   1      -6.007   5.766  -6.878  0.00  0.00     0.418 HD
ENDBRANCH   4   7
TORSDOF 1
ENDMDL
