MODEL 1
REMARK minimizedAffinity 4.37650156
REMARK minimizedRMSD -1
REMARK  1 active torsions:
REMARK  status: ('A' for Active; 'I' for Inactive)
REMARK    1  A    between atoms: C3_4  and  O_7 
ROOT
ATOM      1  C   UNL d   1       0.185  -0.567   0.833  0.00  0.00    -0.033 A 
ATOM      2  C1  UNL d   1      -0.564   0.569   0.519  0.00  0.00     0.039 A 
ATOM      3  C2  UNL d   1      -0.414   1.736   1.270  0.00  0.00    -0.080 A 
ATOM      4  C3  UNL d   1       0.487   1.755   2.331  0.00  0.00     0.150 A 
ATOM      5  C4  UNL d   1       1.239   0.629   2.648  0.00  0.00    -0.007 A 
ATOM      6  C5  UNL d   1       1.088  -0.536   1.897  0.00  0.00     0.039 A 
ENDROOT
BRANCH   4   7
ATOM      7  O   UNL d   1       0.663   2.869   3.096  0.00  0.00    -0.526 OA
ATOM      8  H5  UNL d   1       0.057   3.560   2.779  0.00  0.00     0.418 HD
ENDBRANCH   4   7
TORSDOF 1
ENDMDL
