MODEL 1
REMARK minimizedAffinity 0.366710275
REMARK minimizedRMSD -1
REMARK  1 active torsions:
REMARK  status: ('A' for Active; 'I' for Inactive)
REMARK    1  A    between atoms: C3_4  and  O_7 
ROOT
ATOM      1  C   UNL d   1      -4.069  -1.325  -4.252  0.00  0.00    -0.033 A 
ATOM      2  C1  UNL d   1      -3.778  -1.059  -2.912  0.00  0.00     0.039 A 
ATOM      3  C2  UNL d   1      -3.155  -2.029  -2.125  0.00  0.00    -0.080 A 
ATOM      4  C3  UNL d   1      -2.827  -3.259  -2.688  0.00  0.00     0.150 A 
ATOM      5  C4  UNL d   1      -3.110  -3.530  -4.023  0.00  0.00    -0.007 A 
ATOM      6  C5  UNL d   1      -3.734  -2.560  -4.807  0.00  0.00     0.039 A 
ENDROOT
BRANCH   4   7
ATOM      7  O   UNL d   1      -2.221  -4.238  -1.959  0.00  0.00    -0.526 OA
ATOM      8  H5  UNL d   1      -2.113  -3.920  -1.047  0.00  0.00     0.418 HD
ENDBRANCH   4   7
TORSDOF 1
ENDMDL
