MODEL 1
REMARK minimizedAffinity 1.66130674
REMARK minimizedRMSD -1
REMARK  1 active torsions:
REMARK  status: ('A' for Active; 'I' for Inactive)
REMARK    1  A    between atoms: C3_4  and  O_7 
ROOT
ATOM      1  C   UNL d   1      -0.713  -0.056  -0.276  0.00  0.00    -0.033 A 
ATOM      2  C1  UNL d   1      -1.519   1.083  -0.317  0.00  0.00     0.039 A 
ATOM      3  C2  UNL d   1      -2.868   1.000   0.033  0.00  0.00    -0.080 A 
ATOM      4  C3  UNL d   1      -3.397  -0.227   0.423  0.00  0.00     0.150 A 
ATOM      5  C4  UNL d   1      -2.599  -1.366   0.471  0.00  0.00    -0.007 A 
ATOM      6  C5  UNL d   1      -1.253  -1.280   0.120  0.00  0.00     0.039 A 
ENDROOT
BRANCH   4   7
ATOM      7  O   UNL d   1      -4.709  -0.359   0.770  0.00  0.00    -0.526 OA
ATOM      8  H5  UNL d   1      -5.144   0.503   0.662  0.00  0.00     0.418 HD
ENDBRANCH   4   7
TORSDOF 1
ENDMDL
