MODEL 1
REMARK minimizedAffinity 3.41344047
REMARK minimizedRMSD -1
REMARK  1 active torsions:
REMARK  status: ('A' for Active; 'I' for Inactive)
REMARK    1  A    between atoms: C3_4  and  O_7 
ROOT
ATOM      1  C   UNL d   1       0.215   0.482   2.223  0.00  0.00    -0.033 A 
ATOM      2  C1  UNL d   1       1.089  -0.366   1.539  0.00  0.00     0.039 A 
ATOM      3  C2  UNL d   1       1.109  -0.371   0.143  0.00  0.00    -0.080 A 
ATOM      4  C3  UNL d   1       0.253   0.476  -0.556  0.00  0.00     0.150 A 
ATOM      5  C4  UNL d   1      -0.617   1.326   0.119  0.00  0.00    -0.007 A 
ATOM      6  C5  UNL d   1      -0.637   1.329   1.513  0.00  0.00     0.039 A 
ENDROOT
BRANCH   4   7
ATOM      7  O   UNL d   1       0.233   0.503  -1.919  0.00  0.00    -0.526 OA
ATOM      8  H5  UNL d   1       0.866  -0.157  -2.249  0.00  0.00     0.418 HD
ENDBRANCH   4   7
TORSDOF 1
ENDMDL
