MODEL 1
REMARK minimizedAffinity -0.246901527
REMARK minimizedRMSD -1
REMARK  1 active torsions:
REMARK  status: ('A' for Active; 'I' for Inactive)
REMARK    1  A    between atoms: C3_4  and  O_7 
ROOT
ATOM      1  C   UNL d   1      -1.412  -3.981  -0.475  0.00  0.00    -0.033 A 
ATOM      2  C1  UNL d   1      -1.663  -3.140   0.611  0.00  0.00     0.039 A 
ATOM      3  C2  UNL d   1      -1.489  -1.761   0.482  0.00  0.00    -0.080 A 
ATOM      4  C3  UNL d   1      -1.064  -1.236  -0.736  0.00  0.00     0.150 A 
ATOM      5  C4  UNL d   1      -0.816  -2.068  -1.822  0.00  0.00    -0.007 A 
ATOM      6  C5  UNL d   1      -0.990  -3.445  -1.692  0.00  0.00     0.039 A 
ENDROOT
BRANCH   4   7
ATOM      7  O   UNL d   1      -0.875   0.103  -0.908  0.00  0.00    -0.526 OA
ATOM      8  H5  UNL d   1      -1.057   0.550  -0.064  0.00  0.00     0.418 HD
ENDBRANCH   4   7
TORSDOF 1
ENDMDL
