MODEL 1
REMARK minimizedAffinity -1.44700575
REMARK minimizedRMSD -1
REMARK  1 active torsions:
REMARK  status: ('A' for Active; 'I' for Inactive)
REMARK    1  A    between atoms: C3_4  and  O_7 
ROOT
ATOM      1  C   UNL d   1      -5.925   1.845  -4.800  0.00  0.00    -0.033 A 
ATOM      2  C1  UNL d   1      -5.954   2.527  -3.582  0.00  0.00     0.039 A 
ATOM      3  C2  UNL d   1      -5.980   3.923  -3.563  0.00  0.00    -0.080 A 
ATOM      4  C3  UNL d   1      -5.978   4.623  -4.766  0.00  0.00     0.150 A 
ATOM      5  C4  UNL d   1      -5.954   3.950  -5.982  0.00  0.00    -0.007 A 
ATOM      6  C5  UNL d   1      -5.927   2.556  -6.000  0.00  0.00     0.039 A 
ENDROOT
BRANCH   4   7
ATOM      7  O   UNL d   1      -5.998   5.986  -4.797  0.00  0.00    -0.526 OA
ATOM      8  H5  UNL d   1      -5.985   6.315  -3.883  0.00  0.00     0.418 HD
ENDBRANCH   4   7
TORSDOF 1
ENDMDL
