MODEL 1
REMARK minimizedAffinity 2.59657359
REMARK minimizedRMSD -1
REMARK  1 active torsions:
REMARK  status: ('A' for Active; 'I' for Inactive)
REMARK    1  A    between atoms: C3_4  and  O_7 
ROOT
ATOM      1  C   UNL d   1       0.403   0.801  -0.058  0.00  0.00    -0.033 A 
ATOM      2  C1  UNL d   1       0.819  -0.336   0.637  0.00  0.00     0.039 A 
ATOM      3  C2  UNL d   1      -0.020  -1.448   0.727  0.00  0.00    -0.080 A 
ATOM      4  C3  UNL d   1      -1.272  -1.410   0.118  0.00  0.00     0.150 A 
ATOM      5  C4  UNL d   1      -1.691  -0.281  -0.579  0.00  0.00    -0.007 A 
ATOM      6  C5  UNL d   1      -0.852   0.828  -0.667  0.00  0.00     0.039 A 
ENDROOT
BRANCH   4   7
ATOM      7  O   UNL d   1      -2.128  -2.469   0.182  0.00  0.00    -0.526 OA
ATOM      8  H5  UNL d   1      -1.716  -3.165   0.719  0.00  0.00     0.418 HD
ENDBRANCH   4   7
TORSDOF 1
ENDMDL
