MODEL 1
REMARK minimizedAffinity 2.6867311
REMARK minimizedRMSD -1
REMARK  1 active torsions:
REMARK  status: ('A' for Active; 'I' for Inactive)
REMARK    1  A    between atoms: C3_4  and  O_7 
ROOT
ATOM      1  C   UNL d   1       0.072   0.910  -0.482  0.00  0.00    -0.033 A 
ATOM      2  C1  UNL d   1       0.938  -0.008   0.115  0.00  0.00     0.039 A 
ATOM      3  C2  UNL d   1       0.447  -1.222   0.599  0.00  0.00    -0.080 A 
ATOM      4  C3  UNL d   1      -0.911  -1.505   0.480  0.00  0.00     0.150 A 
ATOM      5  C4  UNL d   1      -1.779  -0.597  -0.117  0.00  0.00    -0.007 A 
ATOM      6  C5  UNL d   1      -1.287   0.615  -0.599  0.00  0.00     0.039 A 
ENDROOT
BRANCH   4   7
ATOM      7  O   UNL d   1      -1.438  -2.675   0.942  0.00  0.00    -0.526 OA
ATOM      8  H5  UNL d   1      -0.726  -3.191   1.355  0.00  0.00     0.418 HD
ENDBRANCH   4   7
TORSDOF 1
ENDMDL
