MODEL 1
REMARK minimizedAffinity -1.01825011
REMARK minimizedRMSD -1
REMARK  1 active torsions:
REMARK  status: ('A' for Active; 'I' for Inactive)
REMARK    1  A    between atoms: C3_4  and  O_7 
ROOT
ATOM      1  C   UNL d   1       1.354  -0.142   2.011  0.00  0.00    -0.033 A 
ATOM      2  C1  UNL d   1       1.399  -0.243   0.620  0.00  0.00     0.039 A 
ATOM      3  C2  UNL d   1       0.430  -0.983  -0.060  0.00  0.00    -0.080 A 
ATOM      4  C3  UNL d   1      -0.577  -1.617   0.663  0.00  0.00     0.150 A 
ATOM      5  C4  UNL d   1      -0.630  -1.518   2.049  0.00  0.00    -0.007 A 
ATOM      6  C5  UNL d   1       0.339  -0.778   2.726  0.00  0.00     0.039 A 
ENDROOT
BRANCH   4   7
ATOM      7  O   UNL d   1      -1.542  -2.355   0.044  0.00  0.00    -0.526 OA
ATOM      8  H5  UNL d   1      -1.362  -2.358  -0.911  0.00  0.00     0.418 HD
ENDBRANCH   4   7
TORSDOF 1
ENDMDL
