MODEL 1
REMARK minimizedAffinity -3.28400636
REMARK minimizedRMSD -1
REMARK  0 active torsions:
REMARK  status: ('A' for Active; 'I' for Inactive)
ROOT
ATOM      1  O1  BZF d   1      -0.912   1.205  -0.727  0.00  0.00    -0.204 OA
ATOM      2  C2  BZF d   1      -0.332   1.945  -1.739  0.00  0.00     0.174 A 
ATOM      3  C3  BZF d   1       0.767   1.324  -2.217  0.00  0.00    -0.012 A 
ATOM      4  C3A BZF d   1       0.827   0.077  -1.518  0.00  0.00    -0.107 A 
ATOM      5  C4  BZF d   1       1.685  -0.985  -1.566  0.00  0.00     0.055 A 
ATOM      6  C5  BZF d   1       1.506  -2.017  -0.701  0.00  0.00    -0.016 A 
ATOM      7  C6  BZF d   1       0.486  -2.018   0.228  0.00  0.00     0.022 A 
ATOM      8  C7  BZF d   1      -0.392  -0.989   0.310  0.00  0.00     0.029 A 
ATOM      9  C7A BZF d   1      -0.234   0.040  -0.585  0.00  0.00     0.058 A 
ENDROOT
TORSDOF 0
ENDMDL
