MODEL 1
REMARK minimizedAffinity -0.117681175
REMARK minimizedRMSD -1
REMARK  0 active torsions:
REMARK  status: ('A' for Active; 'I' for Inactive)
ROOT
ATOM      1  O1  BZF d   1       1.076   0.222  -2.000  0.00  0.00    -0.204 OA
ATOM      2  C2  BZF d   1       1.868  -0.889  -2.216  0.00  0.00     0.174 A 
ATOM      3  C3  BZF d   1       1.613  -1.845  -1.299  0.00  0.00    -0.012 A 
ATOM      4  C3A BZF d   1       0.532  -1.333  -0.513  0.00  0.00    -0.107 A 
ATOM      5  C4  BZF d   1      -0.177  -1.828   0.543  0.00  0.00     0.055 A 
ATOM      6  C5  BZF d   1      -1.121  -1.046   1.130  0.00  0.00    -0.016 A 
ATOM      7  C6  BZF d   1      -1.378   0.236   0.689  0.00  0.00     0.022 A 
ATOM      8  C7  BZF d   1      -0.704   0.769  -0.359  0.00  0.00     0.029 A 
ATOM      9  C7A BZF d   1       0.228  -0.031  -0.974  0.00  0.00     0.058 A 
ENDROOT
TORSDOF 0
ENDMDL
