MODEL 1
REMARK minimizedAffinity -4.67231703
REMARK minimizedRMSD -1
REMARK  0 active torsions:
REMARK  status: ('A' for Active; 'I' for Inactive)
ROOT
ATOM      1  O1  BZF d   1      -0.038   0.650   0.348  0.00  0.00    -0.204 OA
ATOM      2  C2  BZF d   1      -0.597  -0.603   0.505  0.00  0.00     0.174 A 
ATOM      3  C3  BZF d   1       0.053  -1.515  -0.246  0.00  0.00    -0.012 A 
ATOM      4  C3A BZF d   1       1.140  -0.804  -0.845  0.00  0.00    -0.107 A 
ATOM      5  C4  BZF d   1       2.152  -1.170  -1.685  0.00  0.00     0.055 A 
ATOM      6  C5  BZF d   1       3.008  -0.218  -2.143  0.00  0.00    -0.016 A 
ATOM      7  C6  BZF d   1       2.878   1.108  -1.784  0.00  0.00     0.022 A 
ATOM      8  C7  BZF d   1       1.893   1.518  -0.948  0.00  0.00     0.029 A 
ATOM      9  C7A BZF d   1       1.047   0.553  -0.458  0.00  0.00     0.058 A 
ENDROOT
TORSDOF 0
ENDMDL
