MODEL 1
REMARK minimizedAffinity -3.07950783
REMARK minimizedRMSD -1
REMARK  0 active torsions:
REMARK  status: ('A' for Active; 'I' for Inactive)
ROOT
ATOM      1  O1  BZF d   1      -0.094   1.042  -1.051  0.00  0.00    -0.204 OA
ATOM      2  C2  BZF d   1      -1.220   1.003  -0.251  0.00  0.00     0.174 A 
ATOM      3  C3  BZF d   1      -1.239  -0.122   0.493  0.00  0.00    -0.012 A 
ATOM      4  C3A BZF d   1      -0.004  -0.784   0.205  0.00  0.00    -0.107 A 
ATOM      5  C4  BZF d   1       0.565  -1.944   0.649  0.00  0.00     0.055 A 
ATOM      6  C5  BZF d   1       1.749  -2.345   0.115  0.00  0.00    -0.016 A 
ATOM      7  C6  BZF d   1       2.387  -1.616  -0.867  0.00  0.00     0.022 A 
ATOM      8  C7  BZF d   1       1.864  -0.457  -1.336  0.00  0.00     0.029 A 
ATOM      9  C7A BZF d   1       0.684  -0.032  -0.774  0.00  0.00     0.058 A 
ENDROOT
TORSDOF 0
ENDMDL
