MODEL 1
REMARK minimizedAffinity -3.59254265
REMARK minimizedRMSD -1
REMARK  0 active torsions:
REMARK  status: ('A' for Active; 'I' for Inactive)
ROOT
ATOM      1  O1  BZF d   1       0.235   0.971  -0.891  0.00  0.00    -0.204 OA
ATOM      2  C2  BZF d   1      -0.906   1.001  -0.113  0.00  0.00     0.174 A 
ATOM      3  C3  BZF d   1      -1.156  -0.213   0.419  0.00  0.00    -0.012 A 
ATOM      4  C3A BZF d   1      -0.054  -1.033   0.018  0.00  0.00    -0.107 A 
ATOM      5  C4  BZF d   1       0.278  -2.337   0.248  0.00  0.00     0.055 A 
ATOM      6  C5  BZF d   1       1.386  -2.852  -0.348  0.00  0.00    -0.016 A 
ATOM      7  C6  BZF d   1       2.180  -2.093  -1.183  0.00  0.00     0.022 A 
ATOM      8  C7  BZF d   1       1.894  -0.793  -1.437  0.00  0.00     0.029 A 
ATOM      9  C7A BZF d   1       0.794  -0.261  -0.810  0.00  0.00     0.058 A 
ENDROOT
TORSDOF 0
ENDMDL
