MODEL 1
REMARK minimizedAffinity -4.00325918
REMARK minimizedRMSD -1
REMARK  0 active torsions:
REMARK  status: ('A' for Active; 'I' for Inactive)
ROOT
ATOM      1  O1  BZF d   1      -0.032   1.010  -0.712  0.00  0.00    -0.204 OA
ATOM      2  C2  BZF d   1      -0.315   0.054   0.245  0.00  0.00     0.174 A 
ATOM      3  C3  BZF d   1       0.439  -1.048   0.058  0.00  0.00    -0.012 A 
ATOM      4  C3A BZF d   1       1.310  -0.728  -1.031  0.00  0.00    -0.107 A 
ATOM      5  C4  BZF d   1       2.302  -1.413  -1.673  0.00  0.00     0.055 A 
ATOM      6  C5  BZF d   1       2.910  -0.844  -2.747  0.00  0.00    -0.016 A 
ATOM      7  C6  BZF d   1       2.548   0.405  -3.209  0.00  0.00     0.022 A 
ATOM      8  C7  BZF d   1       1.573   1.125  -2.602  0.00  0.00     0.029 A 
ATOM      9  C7A BZF d   1       0.980   0.566  -1.496  0.00  0.00     0.058 A 
ENDROOT
TORSDOF 0
ENDMDL
