MODEL 1
REMARK minimizedAffinity -4.38327074
REMARK minimizedRMSD -1
REMARK  0 active torsions:
REMARK  status: ('A' for Active; 'I' for Inactive)
ROOT
ATOM      1  O1  BZF d   1       1.855   0.877  -2.505  0.00  0.00    -0.204 OA
ATOM      2  C2  BZF d   1       2.709  -0.208  -2.461  0.00  0.00     0.174 A 
ATOM      3  C3  BZF d   1       2.357  -1.054  -1.471  0.00  0.00    -0.012 A 
ATOM      4  C3A BZF d   1       1.156  -0.507  -0.918  0.00  0.00    -0.107 A 
ATOM      5  C4  BZF d   1       0.319  -0.905   0.085  0.00  0.00     0.055 A 
ATOM      6  C5  BZF d   1      -0.728  -0.108   0.426  0.00  0.00    -0.016 A 
ATOM      7  C6  BZF d   1      -0.963   1.093  -0.211  0.00  0.00     0.022 A 
ATOM      8  C7  BZF d   1      -0.163   1.527  -1.215  0.00  0.00     0.029 A 
ATOM      9  C7A BZF d   1       0.876   0.708  -1.584  0.00  0.00     0.058 A 
ENDROOT
TORSDOF 0
ENDMDL
