MODEL 1
REMARK minimizedAffinity -2.78879881
REMARK minimizedRMSD -1
REMARK  0 active torsions:
REMARK  status: ('A' for Active; 'I' for Inactive)
ROOT
ATOM      1  O1  BZF d   1       1.598  -1.665  -1.493  0.00  0.00    -0.204 OA
ATOM      2  C2  BZF d   1       1.060  -2.341  -0.415  0.00  0.00     0.174 A 
ATOM      3  C3  BZF d   1       0.181  -1.562   0.249  0.00  0.00    -0.012 A 
ATOM      4  C3A BZF d   1       0.100  -0.354  -0.513  0.00  0.00    -0.107 A 
ATOM      5  C4  BZF d   1      -0.618   0.799  -0.371  0.00  0.00     0.055 A 
ATOM      6  C5  BZF d   1      -0.413   1.817  -1.247  0.00  0.00    -0.016 A 
ATOM      7  C6  BZF d   1       0.505   1.719  -2.272  0.00  0.00     0.022 A 
ATOM      8  C7  BZF d   1       1.238   0.594  -2.456  0.00  0.00     0.029 A 
ATOM      9  C7A BZF d   1       1.009  -0.449  -1.592  0.00  0.00     0.058 A 
ENDROOT
TORSDOF 0
ENDMDL
