MODEL 1
REMARK minimizedAffinity 10.4402704
REMARK minimizedRMSD -1
REMARK  0 active torsions:
REMARK  status: ('A' for Active; 'I' for Inactive)
ROOT
ATOM      1  O1  BZF d   1      -3.711  -1.704   5.114  0.00  0.00    -0.204 OA
ATOM      2  C2  BZF d   1      -4.422  -2.547   4.280  0.00  0.00     0.174 A 
ATOM      3  C3  BZF d   1      -4.240  -2.206   2.988  0.00  0.00    -0.012 A 
ATOM      4  C3A BZF d   1      -3.288  -1.138   3.011  0.00  0.00    -0.107 A 
ATOM      5  C4  BZF d   1      -2.694  -0.389   2.035  0.00  0.00     0.055 A 
ATOM      6  C5  BZF d   1      -1.865   0.625   2.395  0.00  0.00    -0.016 A 
ATOM      7  C6  BZF d   1      -1.611   0.922   3.718  0.00  0.00     0.022 A 
ATOM      8  C7  BZF d   1      -2.174   0.204   4.721  0.00  0.00     0.029 A 
ATOM      9  C7A BZF d   1      -2.986  -0.843   4.360  0.00  0.00     0.058 A 
ENDROOT
TORSDOF 0
ENDMDL
