MODEL 1
REMARK minimizedAffinity -3.82518458
REMARK minimizedRMSD -1
REMARK  0 active torsions:
REMARK  status: ('A' for Active; 'I' for Inactive)
ROOT
ATOM      1  O1  BZF d   1       1.079   0.744  -2.911  0.00  0.00    -0.204 OA
ATOM      2  C2  BZF d   1       1.910  -0.357  -2.990  0.00  0.00     0.174 A 
ATOM      3  C3  BZF d   1       1.727  -1.172  -1.931  0.00  0.00    -0.012 A 
ATOM      4  C3A BZF d   1       0.653  -0.588  -1.188  0.00  0.00    -0.107 A 
ATOM      5  C4  BZF d   1       0.002  -0.943  -0.042  0.00  0.00     0.055 A 
ATOM      6  C5  BZF d   1      -0.954  -0.117   0.459  0.00  0.00    -0.016 A 
ATOM      7  C6  BZF d   1      -1.280   1.073  -0.158  0.00  0.00     0.022 A 
ATOM      8  C7  BZF d   1      -0.665   1.466  -1.300  0.00  0.00     0.029 A 
ATOM      9  C7A BZF d   1       0.278   0.618  -1.826  0.00  0.00     0.058 A 
ENDROOT
TORSDOF 0
ENDMDL
