MODEL 1
REMARK minimizedAffinity -3.91251278
REMARK minimizedRMSD -1
REMARK  0 active torsions:
REMARK  status: ('A' for Active; 'I' for Inactive)
ROOT
ATOM      1  O1  BZF d   1      -2.834   1.363   2.277  0.00  0.00    -0.204 OA
ATOM      2  C2  BZF d   1      -2.530   1.299   3.623  0.00  0.00     0.174 A 
ATOM      3  C3  BZF d   1      -1.318   0.739   3.813  0.00  0.00    -0.012 A 
ATOM      4  C3A BZF d   1      -0.794   0.519   2.500  0.00  0.00    -0.107 A 
ATOM      5  C4  BZF d   1       0.380   0.003   2.031  0.00  0.00     0.055 A 
ATOM      6  C5  BZF d   1       0.550  -0.143   0.691  0.00  0.00    -0.016 A 
ATOM      7  C6  BZF d   1      -0.435   0.212  -0.208  0.00  0.00     0.022 A 
ATOM      8  C7  BZF d   1      -1.614   0.733   0.209  0.00  0.00     0.029 A 
ATOM      9  C7A BZF d   1      -1.776   0.912   1.561  0.00  0.00     0.058 A 
ENDROOT
TORSDOF 0
ENDMDL
