MODEL 1
REMARK minimizedAffinity -1.56806433
REMARK minimizedRMSD -1
REMARK  0 active torsions:
REMARK  status: ('A' for Active; 'I' for Inactive)
ROOT
ATOM      1  O1  BZF d   1       0.821   1.944  -2.804  0.00  0.00    -0.204 OA
ATOM      2  C2  BZF d   1      -0.103   2.752  -2.171  0.00  0.00     0.174 A 
ATOM      3  C3  BZF d   1      -0.713   2.087  -1.169  0.00  0.00    -0.012 A 
ATOM      4  C3A BZF d   1      -0.068   0.811  -1.116  0.00  0.00    -0.107 A 
ATOM      5  C4  BZF d   1      -0.221  -0.287  -0.318  0.00  0.00     0.055 A 
ATOM      6  C5  BZF d   1       0.517  -1.398  -0.576  0.00  0.00    -0.016 A 
ATOM      7  C6  BZF d   1       1.411  -1.449  -1.624  0.00  0.00     0.022 A 
ATOM      8  C7  BZF d   1       1.602  -0.384  -2.440  0.00  0.00     0.029 A 
ATOM      9  C7A BZF d   1       0.882   0.752  -2.162  0.00  0.00     0.058 A 
ENDROOT
TORSDOF 0
ENDMDL
