MODEL 1
REMARK minimizedAffinity -5.79701233
REMARK minimizedRMSD -1
REMARK  0 active torsions:
REMARK  status: ('A' for Active; 'I' for Inactive)
ROOT
ATOM      1  O1  BZF d   1       1.710  -1.292  -1.577  0.00  0.00    -0.204 OA
ATOM      2  C2  BZF d   1       2.309  -0.392  -2.438  0.00  0.00     0.174 A 
ATOM      3  C3  BZF d   1       1.659   0.790  -2.423  0.00  0.00    -0.012 A 
ATOM      4  C3A BZF d   1       0.642   0.647  -1.427  0.00  0.00    -0.107 A 
ATOM      5  C4  BZF d   1      -0.319   1.486  -0.941  0.00  0.00     0.055 A 
ATOM      6  C5  BZF d   1      -1.202   1.016  -0.021  0.00  0.00    -0.016 A 
ATOM      7  C6  BZF d   1      -1.156  -0.287   0.430  0.00  0.00     0.022 A 
ATOM      8  C7  BZF d   1      -0.218  -1.155  -0.020  0.00  0.00     0.029 A 
ATOM      9  C7A BZF d   1       0.696  -0.673  -0.925  0.00  0.00     0.058 A 
ENDROOT
TORSDOF 0
ENDMDL
