MODEL 1
REMARK minimizedAffinity -3.67079329
REMARK minimizedRMSD -1
REMARK  0 active torsions:
REMARK  status: ('A' for Active; 'I' for Inactive)
ROOT
ATOM      1  O1  BZF d   1       2.087  -1.063  -1.450  0.00  0.00    -0.204 OA
ATOM      2  C2  BZF d   1       2.508  -0.290  -2.514  0.00  0.00     0.174 A 
ATOM      3  C3  BZF d   1       1.684   0.762  -2.696  0.00  0.00    -0.012 A 
ATOM      4  C3A BZF d   1       0.738   0.690  -1.625  0.00  0.00    -0.107 A 
ATOM      5  C4  BZF d   1      -0.323   1.466  -1.256  0.00  0.00     0.055 A 
ATOM      6  C5  BZF d   1      -1.088   1.079  -0.202  0.00  0.00    -0.016 A 
ATOM      7  C6  BZF d   1      -0.825  -0.079   0.501  0.00  0.00     0.022 A 
ATOM      8  C7  BZF d   1       0.219  -0.878   0.174  0.00  0.00     0.029 A 
ATOM      9  C7A BZF d   1       1.014  -0.473  -0.870  0.00  0.00     0.058 A 
ENDROOT
TORSDOF 0
ENDMDL
