MODEL 1
REMARK minimizedAffinity -3.62855458
REMARK minimizedRMSD -1
REMARK  0 active torsions:
REMARK  status: ('A' for Active; 'I' for Inactive)
ROOT
ATOM      1  O1  BZF d   1       0.873   1.579  -1.570  0.00  0.00    -0.204 OA
ATOM      2  C2  BZF d   1       0.759   0.723  -0.492  0.00  0.00     0.174 A 
ATOM      3  C3  BZF d   1       1.579  -0.338  -0.634  0.00  0.00    -0.012 A 
ATOM      4  C3A BZF d   1       2.315  -0.086  -1.835  0.00  0.00    -0.107 A 
ATOM      5  C4  BZF d   1       3.294  -0.770  -2.497  0.00  0.00     0.055 A 
ATOM      6  C5  BZF d   1       3.751  -0.288  -3.682  0.00  0.00    -0.016 A 
ATOM      7  C6  BZF d   1       3.248   0.871  -4.237  0.00  0.00     0.022 A 
ATOM      8  C7  BZF d   1       2.280   1.587  -3.615  0.00  0.00     0.029 A 
ATOM      9  C7A BZF d   1       1.839   1.120  -2.401  0.00  0.00     0.058 A 
ENDROOT
TORSDOF 0
ENDMDL
