MODEL 1
REMARK minimizedAffinity 6.71687937
REMARK minimizedRMSD -1
REMARK  2 active torsions:
REMARK  status: ('A' for Active; 'I' for Inactive)
REMARK    1  A    between atoms: C2'_3  and  C1'_4 
REMARK    2  A    between atoms: C1'_4  and  C1_5 
ROOT
ATOM      1  C1  I4B d   1       0.820  -0.407   1.106  0.00  0.00    -0.075 A 
ATOM      2  C2  I4B d   1       1.026   0.633   0.233  0.00  0.00     0.003 A 
ATOM      3  C3  I4B d   1       1.789   0.435  -0.943  0.00  0.00     0.002 A 
ATOM      4  C4  I4B d   1       2.366  -0.796  -1.181  0.00  0.00    -0.004 A 
ATOM      5  C5  I4B d   1       2.137  -1.855  -0.306  0.00  0.00     0.002 A 
ATOM      6  C6  I4B d   1       1.349  -1.663   0.838  0.00  0.00     0.003 A 
ENDROOT
BRANCH   1   7
ATOM      7  C1' I4B d   1       0.037  -0.154   2.355  0.00  0.00     0.060 C 
BRANCH   7   8
ATOM      8  C2' I4B d   1       1.007  -0.139   3.519  0.00  0.00    -0.013 C 
ATOM      9  C4' I4B d   1       2.009   0.976   3.379  0.00  0.00     0.013 C 
ATOM     10  C3' I4B d   1       0.212   0.003   4.782  0.00  0.00     0.013 C 
ENDBRANCH   7   8
ENDBRANCH   1   7
TORSDOF 2
ENDMDL
