MODEL 1
REMARK minimizedAffinity -2.14489484
REMARK minimizedRMSD -1
REMARK  2 active torsions:
REMARK  status: ('A' for Active; 'I' for Inactive)
REMARK    1  A    between atoms: C2'_3  and  C1'_4 
REMARK    2  A    between atoms: C1'_4  and  C1_5 
ROOT
ATOM      1  C1  I4B d   1       1.516  -1.010   0.713  0.00  0.00    -0.075 A 
ATOM      2  C2  I4B d   1       2.238  -1.843  -0.104  0.00  0.00     0.003 A 
ATOM      3  C3  I4B d   1       3.070  -1.303  -1.115  0.00  0.00     0.002 A 
ATOM      4  C4  I4B d   1       3.110   0.063  -1.305  0.00  0.00    -0.004 A 
ATOM      5  C5  I4B d   1       2.394   0.907  -0.461  0.00  0.00     0.002 A 
ATOM      6  C6  I4B d   1       1.601   0.368   0.563  0.00  0.00     0.003 A 
ENDROOT
BRANCH   1   7
ATOM      7  C1' I4B d   1       0.622  -1.615   1.749  0.00  0.00     0.060 C 
BRANCH   7   8
ATOM      8  C2' I4B d   1      -0.529  -0.659   1.989  0.00  0.00    -0.013 C 
ATOM      9  C4' I4B d   1      -1.851  -1.378   1.957  0.00  0.00     0.013 C 
ATOM     10  C3' I4B d   1      -0.307   0.009   3.313  0.00  0.00     0.013 C 
ENDBRANCH   7   8
ENDBRANCH   1   7
TORSDOF 2
ENDMDL
