MODEL 1
REMARK minimizedAffinity -5.33545589
REMARK minimizedRMSD -1
REMARK  2 active torsions:
REMARK  status: ('A' for Active; 'I' for Inactive)
REMARK    1  A    between atoms: C2'_3  and  C1'_4 
REMARK    2  A    between atoms: C1'_4  and  C1_5 
ROOT
ATOM      1  C1  I4B d   1       2.462  -0.838  -0.967  0.00  0.00    -0.075 A 
ATOM      2  C2  I4B d   1       1.757  -1.849  -0.362  0.00  0.00     0.003 A 
ATOM      3  C3  I4B d   1       0.721  -1.547   0.554  0.00  0.00     0.002 A 
ATOM      4  C4  I4B d   1       0.459  -0.230   0.874  0.00  0.00    -0.004 A 
ATOM      5  C5  I4B d   1       1.159   0.794   0.243  0.00  0.00     0.002 A 
ATOM      6  C6  I4B d   1       2.158   0.489  -0.692  0.00  0.00     0.003 A 
ENDROOT
BRANCH   1   7
ATOM      7  C1' I4B d   1       3.571  -1.193  -1.905  0.00  0.00     0.060 C 
BRANCH   7   8
ATOM      8  C2' I4B d   1       4.654  -0.143  -1.766  0.00  0.00    -0.013 C 
ATOM      9  C4' I4B d   1       5.802  -0.417  -2.701  0.00  0.00     0.013 C 
ATOM     10  C3' I4B d   1       4.038   1.196  -2.043  0.00  0.00     0.013 C 
ENDBRANCH   7   8
ENDBRANCH   1   7
TORSDOF 2
ENDMDL
