MODEL 1
REMARK minimizedAffinity -6.51877213
REMARK minimizedRMSD -1
REMARK  2 active torsions:
REMARK  status: ('A' for Active; 'I' for Inactive)
REMARK    1  A    between atoms: C2'_3  and  C1'_4 
REMARK    2  A    between atoms: C1'_4  and  C1_5 
ROOT
ATOM      1  C1  I4B d   1       1.511  -0.995   0.027  0.00  0.00    -0.075 A 
ATOM      2  C2  I4B d   1       2.650  -1.637  -0.390  0.00  0.00     0.003 A 
ATOM      3  C3  I4B d   1       3.662  -0.921  -1.073  0.00  0.00     0.002 A 
ATOM      4  C4  I4B d   1       3.473   0.415  -1.361  0.00  0.00    -0.004 A 
ATOM      5  C5  I4B d   1       2.328   1.070  -0.918  0.00  0.00     0.002 A 
ATOM      6  C6  I4B d   1       1.345   0.364  -0.208  0.00  0.00     0.003 A 
ENDROOT
BRANCH   1   7
ATOM      7  C1' I4B d   1       0.447  -1.789   0.717  0.00  0.00     0.060 C 
BRANCH   7   8
ATOM      8  C2' I4B d   1      -0.651  -0.833   1.138  0.00  0.00    -0.013 C 
ATOM      9  C4' I4B d   1      -1.917  -1.574   1.479  0.00  0.00     0.013 C 
ATOM     10  C3' I4B d   1      -0.152  -0.043   2.311  0.00  0.00     0.013 C 
ENDBRANCH   7   8
ENDBRANCH   1   7
TORSDOF 2
ENDMDL
