MODEL 1
REMARK minimizedAffinity 0.942945898
REMARK minimizedRMSD -1
REMARK  2 active torsions:
REMARK  status: ('A' for Active; 'I' for Inactive)
REMARK    1  A    between atoms: C2'_3  and  C1'_4 
REMARK    2  A    between atoms: C1'_4  and  C1_5 
ROOT
ATOM      1  C1  I4B d   1       2.121   0.506  -0.572  0.00  0.00    -0.075 A 
ATOM      2  C2  I4B d   1       1.188  -0.482  -0.767  0.00  0.00     0.003 A 
ATOM      3  C3  I4B d   1       0.209  -0.744   0.222  0.00  0.00     0.002 A 
ATOM      4  C4  I4B d   1       0.231  -0.033   1.405  0.00  0.00    -0.004 A 
ATOM      5  C5  I4B d   1       1.164   0.983   1.592  0.00  0.00     0.002 A 
ATOM      6  C6  I4B d   1       2.107   1.263   0.592  0.00  0.00     0.003 A 
ENDROOT
BRANCH   1   7
ATOM      7  C1' I4B d   1       3.160   0.734  -1.623  0.00  0.00     0.060 C 
BRANCH   7   8
ATOM      8  C2' I4B d   1       3.777  -0.607  -1.968  0.00  0.00    -0.013 C 
ATOM      9  C4' I4B d   1       5.139  -0.437  -2.587  0.00  0.00     0.013 C 
ATOM     10  C3' I4B d   1       3.850  -1.420  -0.711  0.00  0.00     0.013 C 
ENDBRANCH   7   8
ENDBRANCH   1   7
TORSDOF 2
ENDMDL
