MODEL 1
REMARK minimizedAffinity -0.746822059
REMARK minimizedRMSD -1
REMARK  2 active torsions:
REMARK  status: ('A' for Active; 'I' for Inactive)
REMARK    1  A    between atoms: C2'_3  and  C1'_4 
REMARK    2  A    between atoms: C1'_4  and  C1_5 
ROOT
ATOM      1  C1  I4B d   1       2.569  -1.014  -0.740  0.00  0.00    -0.075 A 
ATOM      2  C2  I4B d   1       2.608  -1.730   0.431  0.00  0.00     0.003 A 
ATOM      3  C3  I4B d   1       1.706  -1.429   1.480  0.00  0.00     0.002 A 
ATOM      4  C4  I4B d   1       0.821  -0.379   1.336  0.00  0.00    -0.004 A 
ATOM      5  C5  I4B d   1       0.768   0.330   0.140  0.00  0.00     0.002 A 
ATOM      6  C6  I4B d   1       1.639   0.003  -0.910  0.00  0.00     0.003 A 
ENDROOT
BRANCH   1   7
ATOM      7  C1' I4B d   1       3.559  -1.337  -1.814  0.00  0.00     0.060 C 
BRANCH   7   8
ATOM      8  C2' I4B d   1       4.632  -0.267  -1.798  0.00  0.00    -0.013 C 
ATOM      9  C4' I4B d   1       5.682  -0.532  -2.843  0.00  0.00     0.013 C 
ATOM     10  C3' I4B d   1       3.967   1.059  -2.021  0.00  0.00     0.013 C 
ENDBRANCH   7   8
ENDBRANCH   1   7
TORSDOF 2
ENDMDL
