MODEL 1
REMARK minimizedAffinity -2.69943237
REMARK minimizedRMSD -1
REMARK  2 active torsions:
REMARK  status: ('A' for Active; 'I' for Inactive)
REMARK    1  A    between atoms: C2'_3  and  C1'_4 
REMARK    2  A    between atoms: C1'_4  and  C1_5 
ROOT
ATOM      1  C1  I4B d   1       2.623  -0.911  -1.124  0.00  0.00    -0.075 A 
ATOM      2  C2  I4B d   1       2.248  -1.899  -0.248  0.00  0.00     0.003 A 
ATOM      3  C3  I4B d   1       1.271  -1.638   0.744  0.00  0.00     0.002 A 
ATOM      4  C4  I4B d   1       0.737  -0.370   0.855  0.00  0.00    -0.004 A 
ATOM      5  C5  I4B d   1       1.102   0.623  -0.049  0.00  0.00     0.002 A 
ATOM      6  C6  I4B d   1       2.042   0.348  -1.053  0.00  0.00     0.003 A 
ENDROOT
BRANCH   1   7
ATOM      7  C1' I4B d   1       3.681  -1.212  -2.138  0.00  0.00     0.060 C 
BRANCH   7   8
ATOM      8  C2' I4B d   1       4.753  -0.147  -2.024  0.00  0.00    -0.013 C 
ATOM      9  C4' I4B d   1       5.873  -0.394  -3.000  0.00  0.00     0.013 C 
ATOM     10  C3' I4B d   1       4.109   1.186  -2.264  0.00  0.00     0.013 C 
ENDBRANCH   7   8
ENDBRANCH   1   7
TORSDOF 2
ENDMDL
