MODEL 1
REMARK minimizedAffinity -0.845408082
REMARK minimizedRMSD -1
REMARK  2 active torsions:
REMARK  status: ('A' for Active; 'I' for Inactive)
REMARK    1  A    between atoms: C2'_3  and  C1'_4 
REMARK    2  A    between atoms: C1'_4  and  C1_5 
ROOT
ATOM      1  C1  I4B d   1       2.750   0.630  -1.149  0.00  0.00    -0.075 A 
ATOM      2  C2  I4B d   1       2.219  -0.631  -1.249  0.00  0.00     0.003 A 
ATOM      3  C3  I4B d   1       1.304  -1.099  -0.276  0.00  0.00     0.002 A 
ATOM      4  C4  I4B d   1       0.989  -0.296   0.802  0.00  0.00    -0.004 A 
ATOM      5  C5  I4B d   1       1.511   0.991   0.890  0.00  0.00     0.002 A 
ATOM      6  C6  I4B d   1       2.388   1.462  -0.097  0.00  0.00     0.003 A 
ENDROOT
BRANCH   1   7
ATOM      7  C1' I4B d   1       3.739   1.080  -2.177  0.00  0.00     0.060 C 
BRANCH   7   8
ATOM      8  C2' I4B d   1       4.577  -0.118  -2.575  0.00  0.00    -0.013 C 
ATOM      9  C4' I4B d   1       5.961   0.299  -2.996  0.00  0.00     0.013 C 
ATOM     10  C3' I4B d   1       4.626  -1.057  -1.407  0.00  0.00     0.013 C 
ENDBRANCH   7   8
ENDBRANCH   1   7
TORSDOF 2
ENDMDL
