MODEL 1
REMARK minimizedAffinity 8.58816051
REMARK minimizedRMSD -1
REMARK  2 active torsions:
REMARK  status: ('A' for Active; 'I' for Inactive)
REMARK    1  A    between atoms: C2'_3  and  C1'_4 
REMARK    2  A    between atoms: C1'_4  and  C1_5 
ROOT
ATOM      1  C1  I4B d   1       1.526  -0.081   0.735  0.00  0.00    -0.075 A 
ATOM      2  C2  I4B d   1       1.718   0.866  -0.239  0.00  0.00     0.003 A 
ATOM      3  C3  I4B d   1       2.081   2.188   0.114  0.00  0.00     0.002 A 
ATOM      4  C4  I4B d   1       2.190   2.530   1.447  0.00  0.00    -0.004 A 
ATOM      5  C5  I4B d   1       2.016   1.563   2.432  0.00  0.00     0.002 A 
ATOM      6  C6  I4B d   1       1.694   0.246   2.074  0.00  0.00     0.003 A 
ENDROOT
BRANCH   1   7
ATOM      7  C1' I4B d   1       1.111  -1.460   0.328  0.00  0.00     0.060 C 
BRANCH   7   8
ATOM      8  C2' I4B d   1       2.365  -2.249   0.009  0.00  0.00    -0.013 C 
ATOM      9  C4' I4B d   1       2.397  -2.658  -1.440  0.00  0.00     0.013 C 
ATOM     10  C3' I4B d   1       3.549  -1.398   0.357  0.00  0.00     0.013 C 
ENDBRANCH   7   8
ENDBRANCH   1   7
TORSDOF 2
ENDMDL
