MODEL 1
REMARK minimizedAffinity 9.68793011
REMARK minimizedRMSD -1
REMARK  1 active torsions:
REMARK  status: ('A' for Active; 'I' for Inactive)
REMARK    1  A    between atoms: N_2  and  C1_3 
ROOT
ATOM      1  C1  UNL d   1      -5.191   4.543   3.699  0.00  0.00     0.143 A 
ATOM      2  C2  UNL d   1      -4.008   5.291   3.721  0.00  0.00    -0.057 A 
ATOM      3  C3  UNL d   1      -3.619   6.000   4.864  0.00  0.00     0.033 A 
ATOM      4  C4  UNL d   1      -4.423   5.997   5.999  0.00  0.00    -0.042 A 
ATOM      5  C5  UNL d   1      -5.615   5.281   5.991  0.00  0.00     0.033 A 
ATOM      6  C6  UNL d   1      -5.995   4.570   4.849  0.00  0.00    -0.057 A 
ENDROOT
BRANCH   1   7
ATOM      7  N   UNL d   1      -5.681   3.898   2.561  0.00  0.00    -0.732 N 
ATOM      8  C   UNL d   1      -5.888   4.629   1.330  0.00  0.00     0.284 C 
ATOM      9  H3  UNL d   1      -5.274   2.974   2.433  0.00  0.00     0.395 HD
ENDBRANCH   1   7
TORSDOF 1
ENDMDL
