MODEL 1
REMARK minimizedAffinity 5.32294846
REMARK minimizedRMSD -1
REMARK  1 active torsions:
REMARK  status: ('A' for Active; 'I' for Inactive)
REMARK    1  A    between atoms: N_2  and  C1_3 
ROOT
ATOM      1  C1  UNL d   1      -0.466  -3.605  -1.169  0.00  0.00     0.143 A 
ATOM      2  C2  UNL d   1       0.753  -3.169  -0.640  0.00  0.00    -0.057 A 
ATOM      3  C3  UNL d   1       1.503  -2.170  -1.272  0.00  0.00     0.033 A 
ATOM      4  C4  UNL d   1       1.060  -1.609  -2.465  0.00  0.00    -0.042 A 
ATOM      5  C5  UNL d   1      -0.137  -2.045  -3.022  0.00  0.00     0.033 A 
ATOM      6  C6  UNL d   1      -0.885  -3.038  -2.383  0.00  0.00    -0.057 A 
ENDROOT
BRANCH   1   7
ATOM      7  N   UNL d   1      -1.210  -4.663  -0.640  0.00  0.00    -0.732 N 
ATOM      8  C   UNL d   1      -1.766  -5.679  -1.508  0.00  0.00     0.284 C 
ATOM      9  H3  UNL d   1      -0.810  -5.027   0.222  0.00  0.00     0.395 HD
ENDBRANCH   1   7
TORSDOF 1
ENDMDL
