MODEL 1
REMARK minimizedAffinity 13.8752337
REMARK minimizedRMSD -1
REMARK  1 active torsions:
REMARK  status: ('A' for Active; 'I' for Inactive)
REMARK    1  A    between atoms: N_2  and  C1_3 
ROOT
ATOM      1  C1  UNL d   1       1.023  -2.939  -0.146  0.00  0.00     0.143 A 
ATOM      2  C2  UNL d   1       1.107  -2.237  -1.353  0.00  0.00    -0.057 A 
ATOM      3  C3  UNL d   1       1.520  -0.899  -1.388  0.00  0.00     0.033 A 
ATOM      4  C4  UNL d   1       1.830  -0.230  -0.208  0.00  0.00    -0.042 A 
ATOM      5  C5  UNL d   1       1.731  -0.901   1.005  0.00  0.00     0.033 A 
ATOM      6  C6  UNL d   1       1.324  -2.239   1.033  0.00  0.00    -0.057 A 
ENDROOT
BRANCH   1   7
ATOM      7  N   UNL d   1       0.525  -4.240  -0.035  0.00  0.00    -0.732 N 
ATOM      8  C   UNL d   1      -0.831  -4.546  -0.438  0.00  0.00     0.284 C 
ATOM      9  H3  UNL d   1       1.209  -4.942  -0.309  0.00  0.00     0.395 HD
ENDBRANCH   1   7
TORSDOF 1
ENDMDL
