MODEL 1
REMARK minimizedAffinity -2.01292133
REMARK minimizedRMSD -1
REMARK  1 active torsions:
REMARK  status: ('A' for Active; 'I' for Inactive)
REMARK    1  A    between atoms: C1_2  and  C2_3 
ROOT
ATOM      1  C2  UNL d   1       1.384  -0.781   1.006  0.00  0.00    -0.076 A 
ATOM      2  C3  UNL d   1       1.082   0.420   0.341  0.00  0.00     0.004 A 
ATOM      3  C4  UNL d   1      -0.190   0.652  -0.179  0.00  0.00    -0.003 A 
ATOM      4  C5  UNL d   1      -1.181  -0.314  -0.042  0.00  0.00     0.000 A 
ATOM      5  C6  UNL d   1      -0.904  -1.504   0.631  0.00  0.00     0.000 A 
ATOM      6  C7  UNL d   1       0.368  -1.746   1.175  0.00  0.00    -0.073 A 
ATOM      7  C8  UNL d   1       0.614  -3.049   1.886  0.00  0.00     0.078 C 
ENDROOT
BRANCH   1   8
ATOM      8  C1  UNL d   1       2.789  -0.988   1.526  0.00  0.00     0.053 C 
ATOM      9  C   UNL d   1       3.072  -0.176   2.781  0.00  0.00     0.018 C 
ENDBRANCH   1   8
TORSDOF 1
ENDMDL
