MODEL 1
REMARK minimizedAffinity -3.25232983
REMARK minimizedRMSD -1
REMARK  1 active torsions:
REMARK  status: ('A' for Active; 'I' for Inactive)
REMARK    1  A    between atoms: C1_2  and  C2_3 
ROOT
ATOM      1  C2  UNL d   1       0.686  -0.368   0.935  0.00  0.00    -0.076 A 
ATOM      2  C3  UNL d   1       0.324  -1.604   1.499  0.00  0.00     0.004 A 
ATOM      3  C4  UNL d   1       1.096  -2.190   2.500  0.00  0.00    -0.003 A 
ATOM      4  C5  UNL d   1       2.243  -1.549   2.955  0.00  0.00     0.000 A 
ATOM      5  C6  UNL d   1       2.608  -0.315   2.420  0.00  0.00     0.000 A 
ATOM      6  C7  UNL d   1       1.832   0.298   1.421  0.00  0.00    -0.073 A 
ATOM      7  C8  UNL d   1       2.276   1.627   0.875  0.00  0.00     0.078 C 
ENDROOT
BRANCH   1   8
ATOM      8  C1  UNL d   1      -0.175   0.206  -0.168  0.00  0.00     0.053 C 
ATOM      9  C   UNL d   1      -1.609   0.443   0.278  0.00  0.00     0.018 C 
ENDBRANCH   1   8
TORSDOF 1
ENDMDL
