MODEL 1
REMARK minimizedAffinity -5.75989819
REMARK minimizedRMSD -1
REMARK  1 active torsions:
REMARK  status: ('A' for Active; 'I' for Inactive)
REMARK    1  A    between atoms: C1_2  and  C2_3 
ROOT
ATOM      1  C2  UNL d   1       0.742  -0.350   0.766  0.00  0.00    -0.076 A 
ATOM      2  C3  UNL d   1       0.648  -1.707   1.119  0.00  0.00     0.004 A 
ATOM      3  C4  UNL d   1       1.761  -2.406   1.584  0.00  0.00    -0.003 A 
ATOM      4  C5  UNL d   1       2.985  -1.758   1.705  0.00  0.00     0.000 A 
ATOM      5  C6  UNL d   1       3.092  -0.407   1.376  0.00  0.00     0.000 A 
ATOM      6  C7  UNL d   1       1.976   0.316   0.921  0.00  0.00    -0.073 A 
ATOM      7  C8  UNL d   1       2.150   1.769   0.574  0.00  0.00     0.078 C 
ENDROOT
BRANCH   1   8
ATOM      8  C1  UNL d   1      -0.492   0.348   0.241  0.00  0.00     0.053 C 
ATOM      9  C   UNL d   1      -1.488  -0.618  -0.382  0.00  0.00     0.018 C 
ENDBRANCH   1   8
TORSDOF 1
ENDMDL
