MODEL 1
REMARK minimizedAffinity -5.87158108
REMARK minimizedRMSD -1
REMARK  1 active torsions:
REMARK  status: ('A' for Active; 'I' for Inactive)
REMARK    1  A    between atoms: C1_2  and  C2_3 
ROOT
ATOM      1  C2  UNL d   1       1.039  -0.057   0.490  0.00  0.00    -0.076 A 
ATOM      2  C3  UNL d   1       2.433   0.107   0.406  0.00  0.00     0.004 A 
ATOM      3  C4  UNL d   1       3.301  -0.866   0.899  0.00  0.00    -0.003 A 
ATOM      4  C5  UNL d   1       2.789  -2.019   1.483  0.00  0.00     0.000 A 
ATOM      5  C6  UNL d   1       1.409  -2.207   1.559  0.00  0.00     0.000 A 
ATOM      6  C7  UNL d   1       0.520  -1.244   1.052  0.00  0.00    -0.073 A 
ATOM      7  C8  UNL d   1      -0.958  -1.495   1.166  0.00  0.00     0.078 C 
ENDROOT
BRANCH   1   8
ATOM      8  C1  UNL d   1       0.147   1.044  -0.037  0.00  0.00     0.053 C 
ATOM      9  C   UNL d   1       0.862   2.384  -0.119  0.00  0.00     0.018 C 
ENDBRANCH   1   8
TORSDOF 1
ENDMDL
