MODEL 1
REMARK minimizedAffinity -3.6785841
REMARK minimizedRMSD -1
REMARK  1 active torsions:
REMARK  status: ('A' for Active; 'I' for Inactive)
REMARK    1  A    between atoms: C1_2  and  C2_3 
ROOT
ATOM      1  C2  UNL d   1      -0.008   0.070   0.237  0.00  0.00    -0.076 A 
ATOM      2  C3  UNL d   1       0.562   1.322  -0.055  0.00  0.00     0.004 A 
ATOM      3  C4  UNL d   1       1.930   1.541   0.098  0.00  0.00    -0.003 A 
ATOM      4  C5  UNL d   1       2.751   0.511   0.545  0.00  0.00     0.000 A 
ATOM      5  C6  UNL d   1       2.205  -0.742   0.823  0.00  0.00     0.000 A 
ATOM      6  C7  UNL d   1       0.831  -0.984   0.658  0.00  0.00    -0.073 A 
ATOM      7  C8  UNL d   1       0.296  -2.353   0.978  0.00  0.00     0.078 C 
ENDROOT
BRANCH   1   8
ATOM      8  C1  UNL d   1      -1.502  -0.101   0.078  0.00  0.00     0.053 C 
ATOM      9  C   UNL d   1      -1.950   0.009  -1.371  0.00  0.00     0.018 C 
ENDBRANCH   1   8
TORSDOF 1
ENDMDL
