MODEL 1
REMARK minimizedAffinity -6.57943249
REMARK minimizedRMSD -1
REMARK  1 active torsions:
REMARK  status: ('A' for Active; 'I' for Inactive)
REMARK    1  A    between atoms: C1_2  and  C2_3 
ROOT
ATOM      1  C2  UNL d   1       1.111  -1.595   1.581  0.00  0.00    -0.076 A 
ATOM      2  C3  UNL d   1       2.450  -1.725   1.986  0.00  0.00     0.004 A 
ATOM      3  C4  UNL d   1       3.434  -0.865   1.500  0.00  0.00    -0.003 A 
ATOM      4  C5  UNL d   1       3.093   0.139   0.600  0.00  0.00     0.000 A 
ATOM      5  C6  UNL d   1       1.766   0.294   0.201  0.00  0.00     0.000 A 
ATOM      6  C7  UNL d   1       0.759  -0.555   0.694  0.00  0.00    -0.073 A 
ATOM      7  C8  UNL d   1      -0.654  -0.347   0.225  0.00  0.00     0.078 C 
ENDROOT
BRANCH   1   8
ATOM      8  C1  UNL d   1       0.093  -2.574   2.121  0.00  0.00     0.053 C 
ATOM      9  C   UNL d   1       0.636  -3.992   2.206  0.00  0.00     0.018 C 
ENDBRANCH   1   8
TORSDOF 1
ENDMDL
