MODEL 1
REMARK minimizedAffinity -2.12244701
REMARK minimizedRMSD -1
REMARK  1 active torsions:
REMARK  status: ('A' for Active; 'I' for Inactive)
REMARK    1  A    between atoms: C1_2  and  C2_3 
ROOT
ATOM      1  C2  UNL d   1      -2.050  -0.127  -1.714  0.00  0.00    -0.076 A 
ATOM      2  C3  UNL d   1      -1.850   1.231  -2.015  0.00  0.00     0.004 A 
ATOM      3  C4  UNL d   1      -2.287   1.771  -3.223  0.00  0.00    -0.003 A 
ATOM      4  C5  UNL d   1      -2.932   0.961  -4.151  0.00  0.00     0.000 A 
ATOM      5  C6  UNL d   1      -3.155  -0.385  -3.862  0.00  0.00     0.000 A 
ATOM      6  C7  UNL d   1      -2.736  -0.941  -2.641  0.00  0.00    -0.073 A 
ATOM      7  C8  UNL d   1      -2.997  -2.400  -2.385  0.00  0.00     0.078 C 
ENDROOT
BRANCH   1   8
ATOM      8  C1  UNL d   1      -1.530  -0.663  -0.399  0.00  0.00     0.053 C 
ATOM      9  C   UNL d   1      -0.230   0.001   0.027  0.00  0.00     0.018 C 
ENDBRANCH   1   8
TORSDOF 1
ENDMDL
