MODEL 1
REMARK minimizedAffinity 9.55637169
REMARK minimizedRMSD -1
REMARK  0 active torsions:
REMARK  status: ('A' for Active; 'I' for Inactive)
ROOT
ATOM      1  C   UNL d   1       5.084   3.132   1.169  0.00  0.00     0.078 C 
ATOM      2  C1  UNL d   1       5.077   4.066   2.342  0.00  0.00    -0.077 A 
ATOM      3  C2  UNL d   1       4.148   3.914   3.379  0.00  0.00    -0.001 A 
ATOM      4  C3  UNL d   1       4.147   4.797   4.460  0.00  0.00     0.003 A 
ATOM      5  C4  UNL d   1       5.071   5.839   4.514  0.00  0.00    -0.005 A 
ATOM      6  C5  UNL d   1       5.997   6.000   3.485  0.00  0.00     0.003 A 
ATOM      7  C6  UNL d   1       6.000   5.118   2.403  0.00  0.00    -0.001 A 
ENDROOT
TORSDOF 0
ENDMDL
