MODEL 1
REMARK minimizedAffinity 9.83790588
REMARK minimizedRMSD -1
REMARK  0 active torsions:
REMARK  status: ('A' for Active; 'I' for Inactive)
ROOT
ATOM      1  C   UNL d   1       5.999   1.467   1.166  0.00  0.00     0.078 C 
ATOM      2  C1  UNL d   1       5.744   1.850   2.593  0.00  0.00    -0.077 A 
ATOM      3  C2  UNL d   1       5.237   0.920   3.509  0.00  0.00    -0.001 A 
ATOM      4  C3  UNL d   1       4.994   1.293   4.832  0.00  0.00     0.003 A 
ATOM      5  C4  UNL d   1       5.254   2.596   5.251  0.00  0.00    -0.005 A 
ATOM      6  C5  UNL d   1       5.757   3.529   4.346  0.00  0.00     0.003 A 
ATOM      7  C6  UNL d   1       6.000   3.158   3.022  0.00  0.00    -0.001 A 
ENDROOT
TORSDOF 0
ENDMDL
