MODEL 1
REMARK minimizedAffinity 8.73175049
REMARK minimizedRMSD -1
REMARK  0 active torsions:
REMARK  status: ('A' for Active; 'I' for Inactive)
ROOT
ATOM      1  C   UNL d   1      -0.806   2.434   2.474  0.00  0.00     0.078 C 
ATOM      2  C1  UNL d   1      -0.114   1.128   2.729  0.00  0.00    -0.077 A 
ATOM      3  C2  UNL d   1      -0.826  -0.077   2.728  0.00  0.00    -0.001 A 
ATOM      4  C3  UNL d   1      -0.171  -1.284   2.977  0.00  0.00     0.003 A 
ATOM      5  C4  UNL d   1       1.200  -1.298   3.230  0.00  0.00    -0.005 A 
ATOM      6  C5  UNL d   1       1.916  -0.103   3.235  0.00  0.00     0.003 A 
ATOM      7  C6  UNL d   1       1.263   1.105   2.987  0.00  0.00    -0.001 A 
ENDROOT
TORSDOF 0
ENDMDL
