MODEL 1
REMARK minimizedAffinity 8.18057632
REMARK minimizedRMSD -1
REMARK  0 active torsions:
REMARK  status: ('A' for Active; 'I' for Inactive)
ROOT
ATOM      1  C   UNL d   1       0.646  -0.336   3.492  0.00  0.00     0.078 C 
ATOM      2  C1  UNL d   1      -0.726   0.049   3.022  0.00  0.00    -0.077 A 
ATOM      3  C2  UNL d   1      -1.037   1.380   2.718  0.00  0.00    -0.001 A 
ATOM      4  C3  UNL d   1      -2.320   1.725   2.291  0.00  0.00     0.003 A 
ATOM      5  C4  UNL d   1      -3.303   0.745   2.166  0.00  0.00    -0.005 A 
ATOM      6  C5  UNL d   1      -3.003  -0.582   2.468  0.00  0.00     0.003 A 
ATOM      7  C6  UNL d   1      -1.720  -0.929   2.895  0.00  0.00    -0.001 A 
ENDROOT
TORSDOF 0
ENDMDL
