MODEL 1
REMARK minimizedAffinity 16.1344662
REMARK minimizedRMSD -1
REMARK  0 active torsions:
REMARK  status: ('A' for Active; 'I' for Inactive)
ROOT
ATOM      1  C   UNL d   1       2.278   0.623  -5.695  0.00  0.00     0.078 C 
ATOM      2  C1  UNL d   1       3.570   1.376  -5.808  0.00  0.00    -0.077 A 
ATOM      3  C2  UNL d   1       4.798   0.704  -5.812  0.00  0.00    -0.001 A 
ATOM      4  C3  UNL d   1       5.994   1.419  -5.908  0.00  0.00     0.003 A 
ATOM      5  C4  UNL d   1       5.972   2.809  -5.999  0.00  0.00    -0.005 A 
ATOM      6  C5  UNL d   1       4.755   3.487  -5.994  0.00  0.00     0.003 A 
ATOM      7  C6  UNL d   1       3.558   2.774  -5.898  0.00  0.00    -0.001 A 
ENDROOT
TORSDOF 0
ENDMDL
