MODEL 1
REMARK minimizedAffinity -3.78382015
REMARK minimizedRMSD -1
REMARK  0 active torsions:
REMARK  status: ('A' for Active; 'I' for Inactive)
ROOT
ATOM      1  C4' PXY d   1       2.494   0.600  -0.705  0.00  0.00     0.077 C 
ATOM      2  C1' PXY d   1      -2.681  -0.398   1.668  0.00  0.00     0.077 C 
ATOM      3  C1  PXY d   1      -1.329  -0.137   1.034  0.00  0.00    -0.082 A 
ATOM      4  C2  PXY d   1      -0.226  -0.392   1.718  0.00  0.00     0.003 A 
ATOM      5  C3  PXY d   1       1.005  -0.132   1.172  0.00  0.00     0.003 A 
ATOM      6  C4  PXY d   1       1.108   0.343  -0.108  0.00  0.00    -0.082 A 
ATOM      7  C5  PXY d   1      -0.013   0.595  -0.817  0.00  0.00     0.003 A 
ATOM      8  C6  PXY d   1      -1.253   0.363  -0.229  0.00  0.00     0.003 A 
ENDROOT
TORSDOF 0
ENDMDL
