MODEL 1
REMARK minimizedAffinity 0.625028074
REMARK minimizedRMSD -1
REMARK  0 active torsions:
REMARK  status: ('A' for Active; 'I' for Inactive)
ROOT
ATOM      1  C4' PXY d   1       2.407  -3.151   1.550  0.00  0.00     0.077 C 
ATOM      2  C1' PXY d   1      -1.900   0.647   0.894  0.00  0.00     0.077 C 
ATOM      3  C1  PXY d   1      -0.771  -0.351   1.053  0.00  0.00    -0.082 A 
ATOM      4  C2  PXY d   1      -0.576  -0.938   2.223  0.00  0.00     0.003 A 
ATOM      5  C3  PXY d   1       0.460  -1.820   2.393  0.00  0.00     0.003 A 
ATOM      6  C4  PXY d   1       1.274  -2.144   1.341  0.00  0.00    -0.082 A 
ATOM      7  C5  PXY d   1       1.075  -1.557   0.141  0.00  0.00     0.003 A 
ATOM      8  C6  PXY d   1       0.043  -0.634   0.000  0.00  0.00     0.003 A 
ENDROOT
TORSDOF 0
ENDMDL
