MODEL 1
REMARK minimizedAffinity 2.08804893
REMARK minimizedRMSD -1
REMARK  0 active torsions:
REMARK  status: ('A' for Active; 'I' for Inactive)
ROOT
ATOM      1  C4' PXY d   1      -3.856  -0.565   1.101  0.00  0.00     0.077 C 
ATOM      2  C1' PXY d   1       1.871  -1.065   0.501  0.00  0.00     0.077 C 
ATOM      3  C1  PXY d   1       0.369  -0.927   0.647  0.00  0.00    -0.082 A 
ATOM      4  C2  PXY d   1      -0.188  -1.068   1.839  0.00  0.00     0.003 A 
ATOM      5  C3  PXY d   1      -1.548  -0.978   1.984  0.00  0.00     0.003 A 
ATOM      6  C4  PXY d   1      -2.342  -0.687   0.907  0.00  0.00    -0.082 A 
ATOM      7  C5  PXY d   1      -1.781  -0.531  -0.310  0.00  0.00     0.003 A 
ATOM      8  C6  PXY d   1      -0.402  -0.667  -0.443  0.00  0.00     0.003 A 
ENDROOT
TORSDOF 0
ENDMDL
