MODEL 1
REMARK minimizedAffinity 3.52115726
REMARK minimizedRMSD -1
REMARK  0 active torsions:
REMARK  status: ('A' for Active; 'I' for Inactive)
ROOT
ATOM      1  C4' PXY d   1       3.451  -1.449   0.722  0.00  0.00     0.077 C 
ATOM      2  C1' PXY d   1      -2.101  -0.333   1.881  0.00  0.00     0.077 C 
ATOM      3  C1  PXY d   1      -0.649  -0.634   1.568  0.00  0.00    -0.082 A 
ATOM      4  C2  PXY d   1       0.276  -0.425   2.491  0.00  0.00     0.003 A 
ATOM      5  C3  PXY d   1       1.598  -0.662   2.214  0.00  0.00     0.003 A 
ATOM      6  C4  PXY d   1       1.971  -1.168   0.997  0.00  0.00    -0.082 A 
ATOM      7  C5  PXY d   1       1.032  -1.394   0.054  0.00  0.00     0.003 A 
ATOM      8  C6  PXY d   1      -0.300  -1.109   0.341  0.00  0.00     0.003 A 
ENDROOT
TORSDOF 0
ENDMDL
