MODEL 1
REMARK minimizedAffinity 8.83405495
REMARK minimizedRMSD -1
REMARK  0 active torsions:
REMARK  status: ('A' for Active; 'I' for Inactive)
ROOT
ATOM      1  C4' PXY d   1      -1.404   0.985   1.518  0.00  0.00     0.077 C 
ATOM      2  C1' PXY d   1       2.750  -2.983   0.873  0.00  0.00     0.077 C 
ATOM      3  C1  PXY d   1       1.665  -1.936   1.031  0.00  0.00    -0.082 A 
ATOM      4  C2  PXY d   1       1.115  -1.740   2.218  0.00  0.00     0.003 A 
ATOM      5  C3  PXY d   1       0.110  -0.819   2.373  0.00  0.00     0.003 A 
ATOM      6  C4  PXY d   1      -0.298  -0.055   1.313  0.00  0.00    -0.082 A 
ATOM      7  C5  PXY d   1       0.266  -0.242   0.101  0.00  0.00     0.003 A 
ATOM      8  C6  PXY d   1       1.256  -1.210  -0.044  0.00  0.00     0.003 A 
ENDROOT
TORSDOF 0
ENDMDL
