MODEL 1
REMARK minimizedAffinity -1.81808043
REMARK minimizedRMSD -1
REMARK  0 active torsions:
REMARK  status: ('A' for Active; 'I' for Inactive)
ROOT
ATOM      1  C4' PXY d   1       1.157   5.999   5.997  0.00  0.00     0.077 C 
ATOM      2  C1' PXY d   1       5.201   5.971   1.867  0.00  0.00     0.077 C 
ATOM      3  C1  PXY d   1       4.132   5.983   2.942  0.00  0.00    -0.082 A 
ATOM      4  C2  PXY d   1       4.486   6.000   4.216  0.00  0.00     0.003 A 
ATOM      5  C3  PXY d   1       3.533   5.979   5.201  0.00  0.00     0.003 A 
ATOM      6  C4  PXY d   1       2.202   5.996   4.878  0.00  0.00    -0.082 A 
ATOM      7  C5  PXY d   1       1.833   5.990   3.580  0.00  0.00     0.003 A 
ATOM      8  C6  PXY d   1       2.816   5.969   2.595  0.00  0.00     0.003 A 
ENDROOT
TORSDOF 0
ENDMDL
