MODEL 1
REMARK minimizedAffinity 7.22209358
REMARK minimizedRMSD -1
REMARK  0 active torsions:
REMARK  status: ('A' for Active; 'I' for Inactive)
ROOT
ATOM      1  C4' PXY d   1       1.448  -0.681  -0.303  0.00  0.00     0.077 C 
ATOM      2  C1' PXY d   1      -4.143  -0.453   1.145  0.00  0.00     0.077 C 
ATOM      3  C1  PXY d   1      -2.674  -0.509   0.777  0.00  0.00    -0.082 A 
ATOM      4  C2  PXY d   1      -2.313  -0.413  -0.492  0.00  0.00     0.003 A 
ATOM      5  C3  PXY d   1      -0.990  -0.494  -0.845  0.00  0.00     0.003 A 
ATOM      6  C4  PXY d   1      -0.023  -0.620   0.115  0.00  0.00    -0.082 A 
ATOM      7  C5  PXY d   1      -0.382  -0.707   1.414  0.00  0.00     0.003 A 
ATOM      8  C6  PXY d   1      -1.733  -0.665   1.748  0.00  0.00     0.003 A 
ENDROOT
TORSDOF 0
ENDMDL
