MODEL 1
REMARK minimizedAffinity 1.52372825
REMARK minimizedRMSD -1
REMARK  0 active torsions:
REMARK  status: ('A' for Active; 'I' for Inactive)
ROOT
ATOM      1  C4' PXY d   1       2.220   5.856   5.980  0.00  0.00     0.077 C 
ATOM      2  C1' PXY d   1       3.899   6.000   0.450  0.00  0.00     0.077 C 
ATOM      3  C1  PXY d   1       3.470   5.957   1.904  0.00  0.00    -0.082 A 
ATOM      4  C2  PXY d   1       2.183   5.906   2.205  0.00  0.00     0.003 A 
ATOM      5  C3  PXY d   1       1.776   5.899   3.514  0.00  0.00     0.003 A 
ATOM      6  C4  PXY d   1       2.699   5.891   4.526  0.00  0.00    -0.082 A 
ATOM      7  C5  PXY d   1       4.014   5.932   4.227  0.00  0.00     0.003 A 
ATOM      8  C6  PXY d   1       4.405   5.980   2.892  0.00  0.00     0.003 A 
ENDROOT
TORSDOF 0
ENDMDL
