MODEL 1
REMARK minimizedAffinity -2.16421533
REMARK minimizedRMSD -1
REMARK  0 active torsions:
REMARK  status: ('A' for Active; 'I' for Inactive)
ROOT
ATOM      1  C4' PXY d   1       5.830   5.997   2.335  0.00  0.00     0.077 C 
ATOM      2  C1' PXY d   1       0.611   5.943   4.818  0.00  0.00     0.077 C 
ATOM      3  C1  PXY d   1       1.984   5.962   4.177  0.00  0.00    -0.082 A 
ATOM      4  C2  PXY d   1       2.092   5.961   2.859  0.00  0.00     0.003 A 
ATOM      5  C3  PXY d   1       3.326   5.946   2.263  0.00  0.00     0.003 A 
ATOM      6  C4  PXY d   1       4.463   5.987   3.025  0.00  0.00    -0.082 A 
ATOM      7  C5  PXY d   1       4.363   6.000   4.371  0.00  0.00     0.003 A 
ATOM      8  C6  PXY d   1       3.100   5.973   4.956  0.00  0.00     0.003 A 
ENDROOT
TORSDOF 0
ENDMDL
