MODEL 1
REMARK minimizedAffinity -0.500424206
REMARK minimizedRMSD -1
REMARK  0 active torsions:
REMARK  status: ('A' for Active; 'I' for Inactive)
ROOT
ATOM      1  C4' PXY d   1       0.545   5.978   4.536  0.00  0.00     0.077 C 
ATOM      2  C1' PXY d   1       6.000   5.999   2.622  0.00  0.00     0.077 C 
ATOM      3  C1  PXY d   1       4.573   5.989   3.135  0.00  0.00    -0.082 A 
ATOM      4  C2  PXY d   1       3.569   5.977   2.274  0.00  0.00     0.003 A 
ATOM      5  C3  PXY d   1       2.272   5.999   2.721  0.00  0.00     0.003 A 
ATOM      6  C4  PXY d   1       2.002   5.980   4.063  0.00  0.00    -0.082 A 
ATOM      7  C5  PXY d   1       3.021   5.981   4.948  0.00  0.00     0.003 A 
ATOM      8  C6  PXY d   1       4.330   6.000   4.474  0.00  0.00     0.003 A 
ENDROOT
TORSDOF 0
ENDMDL
