MODEL 1
REMARK minimizedAffinity 2.66200709
REMARK minimizedRMSD -1
REMARK  0 active torsions:
REMARK  status: ('A' for Active; 'I' for Inactive)
ROOT
ATOM      1  C4' PXY d   1       1.959  -0.897  -0.329  0.00  0.00     0.077 C 
ATOM      2  C1' PXY d   1      -3.459  -0.043   1.495  0.00  0.00     0.077 C 
ATOM      3  C1  PXY d   1      -2.043  -0.272   1.005  0.00  0.00    -0.082 A 
ATOM      4  C2  PXY d   1      -1.058  -0.385   1.882  0.00  0.00     0.003 A 
ATOM      5  C3  PXY d   1       0.233  -0.560   1.455  0.00  0.00     0.003 A 
ATOM      6  C4  PXY d   1       0.512  -0.675   0.120  0.00  0.00    -0.082 A 
ATOM      7  C5  PXY d   1      -0.488  -0.572  -0.780  0.00  0.00     0.003 A 
ATOM      8  C6  PXY d   1      -1.787  -0.353  -0.328  0.00  0.00     0.003 A 
ENDROOT
TORSDOF 0
ENDMDL
