MODEL 1
REMARK minimizedAffinity 0.664577544
REMARK minimizedRMSD -1
REMARK  0 active torsions:
REMARK  status: ('A' for Active; 'I' for Inactive)
ROOT
ATOM      1  C4' PXY d   1      -1.227   0.679   0.936  0.00  0.00     0.077 C 
ATOM      2  C1' PXY d   1       2.970  -3.292   0.748  0.00  0.00     0.077 C 
ATOM      3  C1  PXY d   1       1.876  -2.243   0.789  0.00  0.00    -0.082 A 
ATOM      4  C2  PXY d   1       1.063  -2.186   1.831  0.00  0.00     0.003 A 
ATOM      5  C3  PXY d   1       0.049  -1.265   1.870  0.00  0.00     0.003 A 
ATOM      6  C4  PXY d   1      -0.102  -0.358   0.856  0.00  0.00    -0.082 A 
ATOM      7  C5  PXY d   1       0.730  -0.402  -0.206  0.00  0.00     0.003 A 
ATOM      8  C6  PXY d   1       1.727  -1.372  -0.246  0.00  0.00     0.003 A 
ENDROOT
TORSDOF 0
ENDMDL
