MODEL 1
REMARK minimizedAffinity -0.496052682
REMARK minimizedRMSD -1
REMARK  0 active torsions:
REMARK  status: ('A' for Active; 'I' for Inactive)
ROOT
ATOM      1  C4' PXY d   1       3.274  -4.071   0.677  0.00  0.00     0.077 C 
ATOM      2  C1' PXY d   1      -0.925  -0.112   1.006  0.00  0.00     0.077 C 
ATOM      3  C1  PXY d   1       0.176  -1.149   0.907  0.00  0.00    -0.082 A 
ATOM      4  C2  PXY d   1       0.340  -2.025   1.885  0.00  0.00     0.003 A 
ATOM      5  C3  PXY d   1       1.351  -2.949   1.826  0.00  0.00     0.003 A 
ATOM      6  C4  PXY d   1       2.170  -3.012   0.731  0.00  0.00    -0.082 A 
ATOM      7  C5  PXY d   1       2.002  -2.129  -0.277  0.00  0.00     0.003 A 
ATOM      8  C6  PXY d   1       0.996  -1.172  -0.179  0.00  0.00     0.003 A 
ENDROOT
TORSDOF 0
ENDMDL
