MODEL 1
REMARK minimizedAffinity 1.34463787
REMARK minimizedRMSD -1
REMARK  0 active torsions:
REMARK  status: ('A' for Active; 'I' for Inactive)
ROOT
ATOM      1  C4' PXY d   1       0.096   5.975   5.681  0.00  0.00     0.077 C 
ATOM      2  C1' PXY d   1       4.731   6.000   2.228  0.00  0.00     0.077 C 
ATOM      3  C1  PXY d   1       3.508   5.999   3.124  0.00  0.00    -0.082 A 
ATOM      4  C2  PXY d   1       3.661   5.995   4.438  0.00  0.00     0.003 A 
ATOM      5  C3  PXY d   1       2.566   5.962   5.263  0.00  0.00     0.003 A 
ATOM      6  C4  PXY d   1       1.302   5.986   4.738  0.00  0.00    -0.082 A 
ATOM      7  C5  PXY d   1       1.138   6.000   3.398  0.00  0.00     0.003 A 
ATOM      8  C6  PXY d   1       2.262   5.992   2.578  0.00  0.00     0.003 A 
ENDROOT
TORSDOF 0
ENDMDL
