MODEL 1
REMARK minimizedAffinity -4.83950138
REMARK minimizedRMSD -1
REMARK  1 active torsions:
REMARK  status: ('A' for Active; 'I' for Inactive)
REMARK    1  A    between atoms: C3_4  and  O_7 
ROOT
ATOM      1  C   UNL d   1      -0.341  -0.584  -0.279  0.00  0.00    -0.033 A 
ATOM      2  C1  UNL d   1       0.743   0.050   0.332  0.00  0.00     0.039 A 
ATOM      3  C2  UNL d   1       0.536   0.883   1.434  0.00  0.00    -0.080 A 
ATOM      4  C3  UNL d   1      -0.757   1.072   1.914  0.00  0.00     0.150 A 
ATOM      5  C4  UNL d   1      -1.841   0.441   1.312  0.00  0.00    -0.007 A 
ATOM      6  C5  UNL d   1      -1.632  -0.390   0.212  0.00  0.00     0.039 A 
ENDROOT
BRANCH   4   7
ATOM      7  O   UNL d   1      -1.009   1.879   2.983  0.00  0.00    -0.526 OA
ATOM      8  H5  UNL d   1      -0.170   2.271   3.278  0.00  0.00     0.418 HD
ENDBRANCH   4   7
TORSDOF 1
ENDMDL
