MODEL 1
REMARK minimizedAffinity -4.832582
REMARK minimizedRMSD -1
REMARK  1 active torsions:
REMARK  status: ('A' for Active; 'I' for Inactive)
REMARK    1  A    between atoms: C3_4  and  O_7 
ROOT
ATOM      1  C   UNL d   1      -0.513   1.445   2.635  0.00  0.00    -0.033 A 
ATOM      2  C1  UNL d   1       0.774   1.120   2.202  0.00  0.00     0.039 A 
ATOM      3  C2  UNL d   1       0.961   0.504   0.963  0.00  0.00    -0.080 A 
ATOM      4  C3  UNL d   1      -0.145   0.220   0.167  0.00  0.00     0.150 A 
ATOM      5  C4  UNL d   1      -1.430   0.544   0.590  0.00  0.00    -0.007 A 
ATOM      6  C5  UNL d   1      -1.615   1.158   1.828  0.00  0.00     0.039 A 
ENDROOT
BRANCH   4   7
ATOM      7  O   UNL d   1      -0.012  -0.384  -1.048  0.00  0.00    -0.526 OA
ATOM      8  H5  UNL d   1       0.929  -0.575  -1.195  0.00  0.00     0.418 HD
ENDBRANCH   4   7
TORSDOF 1
ENDMDL
