MODEL 1
REMARK minimizedAffinity -1.1115737
REMARK minimizedRMSD -1
REMARK  1 active torsions:
REMARK  status: ('A' for Active; 'I' for Inactive)
REMARK    1  A    between atoms: C3_4  and  O_7 
ROOT
ATOM      1  C   UNL d   1       1.621   1.227  -4.858  0.00  0.00    -0.033 A 
ATOM      2  C1  UNL d   1       0.389   0.627  -4.588  0.00  0.00     0.039 A 
ATOM      3  C2  UNL d   1      -0.004   0.402  -3.267  0.00  0.00    -0.080 A 
ATOM      4  C3  UNL d   1       0.841   0.782  -2.228  0.00  0.00     0.150 A 
ATOM      5  C4  UNL d   1       2.068   1.383  -2.490  0.00  0.00    -0.007 A 
ATOM      6  C5  UNL d   1       2.459   1.606  -3.810  0.00  0.00     0.039 A 
ENDROOT
BRANCH   4   7
ATOM      7  O   UNL d   1       0.502   0.578  -0.923  0.00  0.00    -0.526 OA
ATOM      8  H5  UNL d   1      -0.359   0.128  -0.895  0.00  0.00     0.418 HD
ENDBRANCH   4   7
TORSDOF 1
ENDMDL
