MODEL 1
REMARK minimizedAffinity -3.80515862
REMARK minimizedRMSD -1
REMARK  1 active torsions:
REMARK  status: ('A' for Active; 'I' for Inactive)
REMARK    1  A    between atoms: C3_4  and  O_7 
ROOT
ATOM      1  C   UNL d   1       0.306  -0.433  -0.327  0.00  0.00    -0.033 A 
ATOM      2  C1  UNL d   1      -1.052  -0.170  -0.132  0.00  0.00     0.039 A 
ATOM      3  C2  UNL d   1      -1.470   0.567   0.978  0.00  0.00    -0.080 A 
ATOM      4  C3  UNL d   1      -0.522   1.036   1.883  0.00  0.00     0.150 A 
ATOM      5  C4  UNL d   1       0.833   0.781   1.693  0.00  0.00    -0.007 A 
ATOM      6  C5  UNL d   1       1.248   0.044   0.585  0.00  0.00     0.039 A 
ENDROOT
BRANCH   4   7
ATOM      7  O   UNL d   1      -0.882   1.756   2.983  0.00  0.00    -0.526 OA
ATOM      8  H5  UNL d   1      -1.851   1.829   2.999  0.00  0.00     0.418 HD
ENDBRANCH   4   7
TORSDOF 1
ENDMDL
