MODEL 1
REMARK minimizedAffinity -4.82905436
REMARK minimizedRMSD -1
REMARK  1 active torsions:
REMARK  status: ('A' for Active; 'I' for Inactive)
REMARK    1  A    between atoms: C3_4  and  O_7 
ROOT
ATOM      1  C   UNL d   1       0.711  -0.479  -0.347  0.00  0.00    -0.033 A 
ATOM      2  C1  UNL d   1      -0.633  -0.100  -0.375  0.00  0.00     0.039 A 
ATOM      3  C2  UNL d   1      -1.175   0.632   0.683  0.00  0.00    -0.080 A 
ATOM      4  C3  UNL d   1      -0.365   0.981   1.760  0.00  0.00     0.150 A 
ATOM      5  C4  UNL d   1       0.976   0.610   1.791  0.00  0.00    -0.007 A 
ATOM      6  C5  UNL d   1       1.516  -0.122   0.735  0.00  0.00     0.039 A 
ENDROOT
BRANCH   4   7
ATOM      7  O   UNL d   1      -0.850   1.691   2.817  0.00  0.00    -0.526 OA
ATOM      8  H5  UNL d   1      -1.798   1.851   2.671  0.00  0.00     0.418 HD
ENDBRANCH   4   7
TORSDOF 1
ENDMDL
