MODEL 1
REMARK minimizedAffinity -3.85590768
REMARK minimizedRMSD -1
REMARK  1 active torsions:
REMARK  status: ('A' for Active; 'I' for Inactive)
REMARK    1  A    between atoms: C3_4  and  O_7 
ROOT
ATOM      1  C   UNL d   1      -0.548  -0.542  -0.633  0.00  0.00    -0.033 A 
ATOM      2  C1  UNL d   1       0.524  -0.134   0.163  0.00  0.00     0.039 A 
ATOM      3  C2  UNL d   1       0.292   0.613   1.320  0.00  0.00    -0.080 A 
ATOM      4  C3  UNL d   1      -1.014   0.944   1.669  0.00  0.00     0.150 A 
ATOM      5  C4  UNL d   1      -2.087   0.538   0.882  0.00  0.00    -0.007 A 
ATOM      6  C5  UNL d   1      -1.853  -0.207  -0.273  0.00  0.00     0.039 A 
ENDROOT
BRANCH   4   7
ATOM      7  O   UNL d   1      -1.290   1.676   2.786  0.00  0.00    -0.526 OA
ATOM      8  H5  UNL d   1      -0.450   1.910   3.215  0.00  0.00     0.418 HD
ENDBRANCH   4   7
TORSDOF 1
ENDMDL
