MODEL 1
REMARK minimizedAffinity -2.18422818
REMARK minimizedRMSD -1
REMARK  1 active torsions:
REMARK  status: ('A' for Active; 'I' for Inactive)
REMARK    1  A    between atoms: C3_4  and  O_7 
ROOT
ATOM      1  C   UNL d   1      -0.161  -0.441  -0.202  0.00  0.00    -0.033 A 
ATOM      2  C1  UNL d   1       0.881  -0.012   0.622  0.00  0.00     0.039 A 
ATOM      3  C2  UNL d   1       0.600   0.673   1.806  0.00  0.00    -0.080 A 
ATOM      4  C3  UNL d   1      -0.724   0.921   2.154  0.00  0.00     0.150 A 
ATOM      5  C4  UNL d   1      -1.768   0.493   1.340  0.00  0.00    -0.007 A 
ATOM      6  C5  UNL d   1      -1.486  -0.190   0.158  0.00  0.00     0.039 A 
ENDROOT
BRANCH   4   7
ATOM      7  O   UNL d   1      -1.047   1.590   3.298  0.00  0.00    -0.526 OA
ATOM      8  H5  UNL d   1      -0.225   1.849   3.745  0.00  0.00     0.418 HD
ENDBRANCH   4   7
TORSDOF 1
ENDMDL
