MODEL 1
REMARK minimizedAffinity -5.23935795
REMARK minimizedRMSD -1
REMARK  1 active torsions:
REMARK  status: ('A' for Active; 'I' for Inactive)
REMARK    1  A    between atoms: C3_4  and  O_7 
ROOT
ATOM      1  C   UNL d   1      -0.530   1.382   2.218  0.00  0.00    -0.033 A 
ATOM      2  C1  UNL d   1      -1.664   0.913   1.553  0.00  0.00     0.039 A 
ATOM      3  C2  UNL d   1      -1.529   0.165   0.382  0.00  0.00    -0.080 A 
ATOM      4  C3  UNL d   1      -0.257  -0.108  -0.112  0.00  0.00     0.150 A 
ATOM      5  C4  UNL d   1       0.878   0.353   0.548  0.00  0.00    -0.007 A 
ATOM      6  C5  UNL d   1       0.741   1.101   1.717  0.00  0.00     0.039 A 
ENDROOT
BRANCH   4   7
ATOM      7  O   UNL d   1      -0.075  -0.830  -1.254  0.00  0.00    -0.526 OA
ATOM      8  H5  UNL d   1      -0.947  -1.058  -1.616  0.00  0.00     0.418 HD
ENDBRANCH   4   7
TORSDOF 1
ENDMDL
