MODEL 1
REMARK minimizedAffinity -4.68380165
REMARK minimizedRMSD -1
REMARK  1 active torsions:
REMARK  status: ('A' for Active; 'I' for Inactive)
REMARK    1  A    between atoms: C3_4  and  O_7 
ROOT
ATOM      1  C   UNL d   1       0.118  -0.435  -0.426  0.00  0.00    -0.033 A 
ATOM      2  C1  UNL d   1       1.153   0.131   0.322  0.00  0.00     0.039 A 
ATOM      3  C2  UNL d   1       0.863   0.866   1.473  0.00  0.00    -0.080 A 
ATOM      4  C3  UNL d   1      -0.463   1.027   1.865  0.00  0.00     0.150 A 
ATOM      5  C4  UNL d   1      -1.498   0.463   1.127  0.00  0.00    -0.007 A 
ATOM      6  C5  UNL d   1      -1.207  -0.271  -0.023  0.00  0.00     0.039 A 
ENDROOT
BRANCH   4   7
ATOM      7  O   UNL d   1      -0.795   1.740   2.979  0.00  0.00    -0.526 OA
ATOM      8  H5  UNL d   1       0.020   2.095   3.371  0.00  0.00     0.418 HD
ENDBRANCH   4   7
TORSDOF 1
ENDMDL
