MODEL 1
REMARK minimizedAffinity -6.48424196
REMARK minimizedRMSD -1
REMARK  1 active torsions:
REMARK  status: ('A' for Active; 'I' for Inactive)
REMARK    1  A    between atoms: C1_2  and  C2_3 
ROOT
ATOM      1  C2  UNL d   1       1.327  -0.417   0.502  0.00  0.00    -0.076 A 
ATOM      2  C3  UNL d   1       2.590  -0.977   0.762  0.00  0.00     0.004 A 
ATOM      3  C4  UNL d   1       2.864  -1.592   1.983  0.00  0.00    -0.003 A 
ATOM      4  C5  UNL d   1       1.881  -1.657   2.963  0.00  0.00     0.000 A 
ATOM      5  C6  UNL d   1       0.617  -1.122   2.716  0.00  0.00     0.000 A 
ATOM      6  C7  UNL d   1       0.318  -0.513   1.485  0.00  0.00    -0.073 A 
ATOM      7  C8  UNL d   1      -1.060   0.052   1.275  0.00  0.00     0.078 C 
ENDROOT
BRANCH   1   8
ATOM      8  C1  UNL d   1       1.095   0.261  -0.829  0.00  0.00     0.053 C 
ATOM      9  C   UNL d   1       1.131  -0.716  -1.994  0.00  0.00     0.018 C 
ENDBRANCH   1   8
TORSDOF 1
ENDMDL
