MODEL 1
REMARK minimizedAffinity -5.34384251
REMARK minimizedRMSD -1
REMARK  1 active torsions:
REMARK  status: ('A' for Active; 'I' for Inactive)
REMARK    1  A    between atoms: C1_2  and  C2_3 
ROOT
ATOM      1  C2  UNL d   1       0.989  -0.496   1.342  0.00  0.00    -0.076 A 
ATOM      2  C3  UNL d   1       1.486   0.184   0.217  0.00  0.00     0.004 A 
ATOM      3  C4  UNL d   1       0.622   0.723  -0.736  0.00  0.00    -0.003 A 
ATOM      4  C5  UNL d   1      -0.753   0.590  -0.578  0.00  0.00     0.000 A 
ATOM      5  C6  UNL d   1      -1.264  -0.066   0.542  0.00  0.00     0.000 A 
ATOM      6  C7  UNL d   1      -0.408  -0.600   1.519  0.00  0.00    -0.073 A 
ATOM      7  C8  UNL d   1      -1.013  -1.303   2.703  0.00  0.00     0.078 C 
ENDROOT
BRANCH   1   8
ATOM      8  C1  UNL d   1       1.974  -1.082   2.328  0.00  0.00     0.053 C 
ATOM      9  C   UNL d   1       2.411  -2.488   1.948  0.00  0.00     0.018 C 
ENDBRANCH   1   8
TORSDOF 1
ENDMDL
