MODEL 1
REMARK minimizedAffinity -4.86718369
REMARK minimizedRMSD -1
REMARK  1 active torsions:
REMARK  status: ('A' for Active; 'I' for Inactive)
REMARK    1  A    between atoms: C1_2  and  C2_3 
ROOT
ATOM      1  C2  UNL d   1       0.378  -0.132   0.608  0.00  0.00    -0.076 A 
ATOM      2  C3  UNL d   1       1.747  -0.306   0.873  0.00  0.00     0.004 A 
ATOM      3  C4  UNL d   1       2.179  -0.927   2.044  0.00  0.00    -0.003 A 
ATOM      4  C5  UNL d   1       1.247  -1.385   2.969  0.00  0.00     0.000 A 
ATOM      5  C6  UNL d   1      -0.116  -1.236   2.715  0.00  0.00     0.000 A 
ATOM      6  C7  UNL d   1      -0.568  -0.627   1.531  0.00  0.00    -0.073 A 
ATOM      7  C8  UNL d   1      -2.049  -0.488   1.311  0.00  0.00     0.078 C 
ENDROOT
BRANCH   1   8
ATOM      8  C1  UNL d   1      -0.030   0.572  -0.666  0.00  0.00     0.053 C 
ATOM      9  C   UNL d   1      -0.274  -0.394  -1.814  0.00  0.00     0.018 C 
ENDBRANCH   1   8
TORSDOF 1
ENDMDL
