MODEL 1
REMARK minimizedAffinity -6.05207539
REMARK minimizedRMSD -1
REMARK  1 active torsions:
REMARK  status: ('A' for Active; 'I' for Inactive)
REMARK    1  A    between atoms: C1_2  and  C2_3 
ROOT
ATOM      1  C2  UNL d   1      -0.599  -0.537   1.381  0.00  0.00    -0.076 A 
ATOM      2  C3  UNL d   1      -0.074  -1.317   2.426  0.00  0.00     0.004 A 
ATOM      3  C4  UNL d   1       1.262  -1.716   2.422  0.00  0.00    -0.003 A 
ATOM      4  C5  UNL d   1       2.094  -1.340   1.373  0.00  0.00     0.000 A 
ATOM      5  C6  UNL d   1       1.594  -0.552   0.337  0.00  0.00     0.000 A 
ATOM      6  C7  UNL d   1       0.254  -0.128   0.334  0.00  0.00    -0.073 A 
ATOM      7  C8  UNL d   1      -0.233   0.717  -0.811  0.00  0.00     0.078 C 
ENDROOT
BRANCH   1   8
ATOM      8  C1  UNL d   1      -2.062  -0.157   1.426  0.00  0.00     0.053 C 
ATOM      9  C   UNL d   1      -2.928  -1.072   0.574  0.00  0.00     0.018 C 
ENDBRANCH   1   8
TORSDOF 1
ENDMDL
