MODEL 1
REMARK minimizedAffinity 9.15235233
REMARK minimizedRMSD -1
REMARK  0 active torsions:
REMARK  status: ('A' for Active; 'I' for Inactive)
ROOT
ATOM      1  C   UNL d   1      -0.322  -6.000   0.379  0.00  0.00     0.078 C 
ATOM      2  C1  UNL d   1       0.982  -5.273   0.242  0.00  0.00    -0.077 A 
ATOM      3  C2  UNL d   1       1.025  -3.875   0.174  0.00  0.00    -0.001 A 
ATOM      4  C3  UNL d   1       2.245  -3.211   0.036  0.00  0.00     0.003 A 
ATOM      5  C4  UNL d   1       3.432  -3.938  -0.036  0.00  0.00    -0.005 A 
ATOM      6  C5  UNL d   1       3.400  -5.329   0.029  0.00  0.00     0.003 A 
ATOM      7  C6  UNL d   1       2.180  -5.994   0.167  0.00  0.00    -0.001 A 
ENDROOT
TORSDOF 0
ENDMDL
