MODEL 1
REMARK minimizedAffinity -2.07253766
REMARK minimizedRMSD -1
REMARK  0 active torsions:
REMARK  status: ('A' for Active; 'I' for Inactive)
ROOT
ATOM      1  C   UNL d   1      -0.441   5.841   5.798  0.00  0.00     0.078 C 
ATOM      2  C1  UNL d   1      -1.765   5.138   5.786  0.00  0.00    -0.077 A 
ATOM      3  C2  UNL d   1      -2.955   5.846   5.577  0.00  0.00    -0.001 A 
ATOM      4  C3  UNL d   1      -4.182   5.181   5.579  0.00  0.00     0.003 A 
ATOM      5  C4  UNL d   1      -4.231   3.804   5.789  0.00  0.00    -0.005 A 
ATOM      6  C5  UNL d   1      -3.053   3.091   6.000  0.00  0.00     0.003 A 
ATOM      7  C6  UNL d   1      -1.825   3.755   5.999  0.00  0.00    -0.001 A 
ENDROOT
TORSDOF 0
ENDMDL
