MODEL 1
REMARK minimizedAffinity 3.14104772
REMARK minimizedRMSD -1
REMARK  0 active torsions:
REMARK  status: ('A' for Active; 'I' for Inactive)
ROOT
ATOM      1  C   UNL d   1       2.574  -5.207   0.374  0.00  0.00     0.078 C 
ATOM      2  C1  UNL d   1       2.144  -3.840   0.814  0.00  0.00    -0.077 A 
ATOM      3  C2  UNL d   1       2.988  -3.033   1.587  0.00  0.00    -0.001 A 
ATOM      4  C3  UNL d   1       2.570  -1.766   1.998  0.00  0.00     0.003 A 
ATOM      5  C4  UNL d   1       1.308  -1.295   1.642  0.00  0.00    -0.005 A 
ATOM      6  C5  UNL d   1       0.461  -2.092   0.875  0.00  0.00     0.003 A 
ATOM      7  C6  UNL d   1       0.876  -3.359   0.463  0.00  0.00    -0.001 A 
ENDROOT
TORSDOF 0
ENDMDL
