MODEL 1
REMARK minimizedAffinity 11.1309347
REMARK minimizedRMSD -1
REMARK  0 active torsions:
REMARK  status: ('A' for Active; 'I' for Inactive)
ROOT
ATOM      1  C   UNL d   1      -5.260  -2.502  -2.008  0.00  0.00     0.078 C 
ATOM      2  C1  UNL d   1      -5.331  -1.953  -3.401  0.00  0.00    -0.077 A 
ATOM      3  C2  UNL d   1      -4.794  -2.661  -4.484  0.00  0.00    -0.001 A 
ATOM      4  C3  UNL d   1      -4.858  -2.133  -5.774  0.00  0.00     0.003 A 
ATOM      5  C4  UNL d   1      -5.457  -0.894  -5.994  0.00  0.00    -0.005 A 
ATOM      6  C5  UNL d   1      -5.992  -0.182  -4.923  0.00  0.00     0.003 A 
ATOM      7  C6  UNL d   1      -5.929  -0.708  -3.632  0.00  0.00    -0.001 A 
ENDROOT
TORSDOF 0
ENDMDL
