MODEL 1
REMARK minimizedAffinity 3.89861369
REMARK minimizedRMSD -1
REMARK  0 active torsions:
REMARK  status: ('A' for Active; 'I' for Inactive)
ROOT
ATOM      1  C   UNL d   1      -2.074   2.931  -3.643  0.00  0.00     0.078 C 
ATOM      2  C1  UNL d   1      -2.503   1.744  -2.833  0.00  0.00    -0.077 A 
ATOM      3  C2  UNL d   1      -1.817   0.526  -2.919  0.00  0.00    -0.001 A 
ATOM      4  C3  UNL d   1      -2.234  -0.573  -2.167  0.00  0.00     0.003 A 
ATOM      5  C4  UNL d   1      -3.339  -0.467  -1.325  0.00  0.00    -0.005 A 
ATOM      6  C5  UNL d   1      -4.030   0.740  -1.235  0.00  0.00     0.003 A 
ATOM      7  C6  UNL d   1      -3.614   1.841  -1.986  0.00  0.00    -0.001 A 
ENDROOT
TORSDOF 0
ENDMDL
