MODEL 1
REMARK minimizedAffinity 2.99778199
REMARK minimizedRMSD -1
REMARK  0 active torsions:
REMARK  status: ('A' for Active; 'I' for Inactive)
ROOT
ATOM      1  C   UNL d   1       5.063  -2.276   4.924  0.00  0.00     0.078 C 
ATOM      2  C1  UNL d   1       3.986  -1.888   3.956  0.00  0.00    -0.077 A 
ATOM      3  C2  UNL d   1       3.017  -0.936   4.298  0.00  0.00    -0.001 A 
ATOM      4  C3  UNL d   1       2.015  -0.592   3.390  0.00  0.00     0.003 A 
ATOM      5  C4  UNL d   1       1.970  -1.196   2.135  0.00  0.00    -0.005 A 
ATOM      6  C5  UNL d   1       2.927  -2.146   1.787  0.00  0.00     0.003 A 
ATOM      7  C6  UNL d   1       3.931  -2.491   2.693  0.00  0.00    -0.001 A 
ENDROOT
TORSDOF 0
ENDMDL
