MODEL 1
REMARK minimizedAffinity 9.5247221
REMARK minimizedRMSD -1
REMARK  0 active torsions:
REMARK  status: ('A' for Active; 'I' for Inactive)
ROOT
ATOM      1  C   UNL d   1      -4.574   5.966   6.000  0.00  0.00     0.078 C 
ATOM      2  C1  UNL d   1      -4.096   4.596   5.623  0.00  0.00    -0.077 A 
ATOM      3  C2  UNL d   1      -2.919   4.420   4.885  0.00  0.00    -0.001 A 
ATOM      4  C3  UNL d   1      -2.492   3.139   4.533  0.00  0.00     0.003 A 
ATOM      5  C4  UNL d   1      -3.235   2.023   4.914  0.00  0.00    -0.005 A 
ATOM      6  C5  UNL d   1      -4.408   2.188   5.647  0.00  0.00     0.003 A 
ATOM      7  C6  UNL d   1      -4.838   3.469   6.000  0.00  0.00    -0.001 A 
ENDROOT
TORSDOF 0
ENDMDL
