MODEL 1
REMARK minimizedAffinity 8.85302258
REMARK minimizedRMSD -1
REMARK  0 active torsions:
REMARK  status: ('A' for Active; 'I' for Inactive)
ROOT
ATOM      1  C   UNL d   1      -1.623   0.185   3.417  0.00  0.00     0.078 C 
ATOM      2  C1  UNL d   1      -2.975   0.791   3.189  0.00  0.00    -0.077 A 
ATOM      3  C2  UNL d   1      -3.600   1.556   4.181  0.00  0.00    -0.001 A 
ATOM      4  C3  UNL d   1      -4.863   2.106   3.958  0.00  0.00     0.003 A 
ATOM      5  C4  UNL d   1      -5.513   1.896   2.744  0.00  0.00    -0.005 A 
ATOM      6  C5  UNL d   1      -4.901   1.135   1.751  0.00  0.00     0.003 A 
ATOM      7  C6  UNL d   1      -3.637   0.584   1.972  0.00  0.00    -0.001 A 
ENDROOT
TORSDOF 0
ENDMDL
