MODEL 1
REMARK minimizedAffinity 8.44056225
REMARK minimizedRMSD -1
REMARK  0 active torsions:
REMARK  status: ('A' for Active; 'I' for Inactive)
ROOT
ATOM      1  C   UNL d   1      -4.091   3.272  -4.094  0.00  0.00     0.078 C 
ATOM      2  C1  UNL d   1      -2.779   2.666  -3.692  0.00  0.00    -0.077 A 
ATOM      3  C2  UNL d   1      -2.615   2.069  -2.436  0.00  0.00    -0.001 A 
ATOM      4  C3  UNL d   1      -1.385   1.518  -2.072  0.00  0.00     0.003 A 
ATOM      5  C4  UNL d   1      -0.311   1.558  -2.958  0.00  0.00    -0.005 A 
ATOM      6  C5  UNL d   1      -0.464   2.151  -4.209  0.00  0.00     0.003 A 
ATOM      7  C6  UNL d   1      -1.693   2.703  -4.575  0.00  0.00    -0.001 A 
ENDROOT
TORSDOF 0
ENDMDL
