MODEL 1
REMARK minimizedAffinity -0.203411847
REMARK minimizedRMSD -1
REMARK  0 active torsions:
REMARK  status: ('A' for Active; 'I' for Inactive)
ROOT
ATOM      1  C   UNL d   1       1.196  -1.126   2.142  0.00  0.00     0.124 A 
ATOM      2  C1  UNL d   1       1.813  -1.007   0.904  0.00  0.00     0.062 A 
ATOM      3  C2  UNL d   1       1.081  -0.598  -0.206  0.00  0.00     0.162 A 
ATOM      4  C3  UNL d   1      -0.277  -0.303  -0.085  0.00  0.00    -0.034 A 
ATOM      5  C4  UNL d   1      -0.891  -0.425   1.163  0.00  0.00     0.162 A 
ATOM      6  C5  UNL d   1      -0.155  -0.835   2.270  0.00  0.00     0.062 A 
ATOM      7  F   UNL d   1      -0.753  -0.949   3.465  0.00  0.00    -0.097 F 
ATOM      8  F1  UNL d   1      -2.195  -0.150   1.315  0.00  0.00    -0.096 F 
ATOM      9  I   UNL d   1      -1.374   0.310  -1.744  0.00  0.00    -0.060 I 
ATOM     10  F2  UNL d   1       1.704  -0.492  -1.390  0.00  0.00    -0.096 F 
ATOM     11  F3  UNL d   1       3.118  -1.288   0.778  0.00  0.00    -0.097 F 
ATOM     12  F4  UNL d   1       1.902  -1.521   3.209  0.00  0.00    -0.092 F 
ENDROOT
TORSDOF 0
ENDMDL
