MODEL 1
REMARK minimizedAffinity -5.6735692
REMARK minimizedRMSD -1
REMARK  0 active torsions:
REMARK  status: ('A' for Active; 'I' for Inactive)
ROOT
ATOM      1  C   UNL d   1       1.586  -1.026   1.548  0.00  0.00     0.124 A 
ATOM      2  C1  UNL d   1       1.685  -1.358   0.204  0.00  0.00     0.062 A 
ATOM      3  C2  UNL d   1       1.028  -0.594  -0.756  0.00  0.00     0.162 A 
ATOM      4  C3  UNL d   1       0.266   0.511  -0.376  0.00  0.00    -0.034 A 
ATOM      5  C4  UNL d   1       0.170   0.837   0.978  0.00  0.00     0.162 A 
ATOM      6  C5  UNL d   1       0.828   0.071   1.934  0.00  0.00     0.062 A 
ATOM      7  F   UNL d   1       0.730   0.392   3.232  0.00  0.00    -0.097 F 
ATOM      8  F1  UNL d   1      -0.555   1.893   1.379  0.00  0.00    -0.096 F 
ATOM      9  I   UNL d   1      -0.718   1.656  -1.808  0.00  0.00    -0.060 I 
ATOM     10  F2  UNL d   1       1.142  -0.937  -2.048  0.00  0.00    -0.096 F 
ATOM     11  F3  UNL d   1       2.416  -2.418  -0.171  0.00  0.00    -0.097 F 
ATOM     12  F4  UNL d   1       2.218  -1.764   2.470  0.00  0.00    -0.092 F 
ENDROOT
TORSDOF 0
ENDMDL
