MODEL 1
REMARK minimizedAffinity -1.90539634
REMARK minimizedRMSD -1
REMARK  0 active torsions:
REMARK  status: ('A' for Active; 'I' for Inactive)
ROOT
ATOM      1  C   UNL d   1       1.338  -1.941   1.689  0.00  0.00     0.124 A 
ATOM      2  C1  UNL d   1       0.224  -1.180   2.016  0.00  0.00     0.062 A 
ATOM      3  C2  UNL d   1      -0.443  -0.456   1.033  0.00  0.00     0.162 A 
ATOM      4  C3  UNL d   1       0.001  -0.490  -0.289  0.00  0.00    -0.034 A 
ATOM      5  C4  UNL d   1       1.122  -1.257  -0.611  0.00  0.00     0.162 A 
ATOM      6  C5  UNL d   1       1.786  -1.978   0.376  0.00  0.00     0.062 A 
ATOM      7  F   UNL d   1       2.862  -2.713   0.057  0.00  0.00    -0.097 F 
ATOM      8  F1  UNL d   1       1.576  -1.312  -1.872  0.00  0.00    -0.096 F 
ATOM      9  I   UNL d   1      -0.994   0.591  -1.763  0.00  0.00    -0.060 I 
ATOM     10  F2  UNL d   1      -1.517   0.270   1.378  0.00  0.00    -0.096 F 
ATOM     11  F3  UNL d   1      -0.210  -1.141   3.284  0.00  0.00    -0.097 F 
ATOM     12  F4  UNL d   1       1.979  -2.635   2.637  0.00  0.00    -0.092 F 
ENDROOT
TORSDOF 0
ENDMDL
