MODEL 1
REMARK minimizedAffinity 0.773738563
REMARK minimizedRMSD -1
REMARK  0 active torsions:
REMARK  status: ('A' for Active; 'I' for Inactive)
ROOT
ATOM      1  C   UNL d   1      -1.066   1.749  -2.431  0.00  0.00     0.124 A 
ATOM      2  C1  UNL d   1      -1.932   0.843  -1.833  0.00  0.00     0.062 A 
ATOM      3  C2  UNL d   1      -1.562   0.192  -0.660  0.00  0.00     0.162 A 
ATOM      4  C3  UNL d   1      -0.321   0.446  -0.075  0.00  0.00    -0.034 A 
ATOM      5  C4  UNL d   1       0.544   1.357  -0.683  0.00  0.00     0.162 A 
ATOM      6  C5  UNL d   1       0.170   2.005  -1.856  0.00  0.00     0.062 A 
ATOM      7  F   UNL d   1       1.008   2.880  -2.432  0.00  0.00    -0.097 F 
ATOM      8  F1  UNL d   1       1.744   1.624  -0.147  0.00  0.00    -0.096 F 
ATOM      9  I   UNL d   1       0.234  -0.526   1.680  0.00  0.00    -0.060 I 
ATOM     10  F2  UNL d   1      -2.419  -0.678  -0.104  0.00  0.00    -0.096 F 
ATOM     11  F3  UNL d   1      -3.126   0.594  -2.388  0.00  0.00    -0.097 F 
ATOM     12  F4  UNL d   1      -1.424   2.373  -3.561  0.00  0.00    -0.092 F 
ENDROOT
TORSDOF 0
ENDMDL
