MODEL 1
REMARK minimizedAffinity -2.25369191
REMARK minimizedRMSD -1
REMARK  0 active torsions:
REMARK  status: ('A' for Active; 'I' for Inactive)
ROOT
ATOM      1  C   UNL d   1       0.946  -1.266   2.199  0.00  0.00     0.124 A 
ATOM      2  C1  UNL d   1       1.707  -0.950   1.082  0.00  0.00     0.062 A 
ATOM      3  C2  UNL d   1       1.123  -0.302  -0.003  0.00  0.00     0.162 A 
ATOM      4  C3  UNL d   1      -0.230   0.036   0.025  0.00  0.00    -0.034 A 
ATOM      5  C4  UNL d   1      -0.989  -0.286   1.152  0.00  0.00     0.162 A 
ATOM      6  C5  UNL d   1      -0.401  -0.934   2.233  0.00  0.00     0.062 A 
ATOM      7  F   UNL d   1      -1.137  -1.238   3.312  0.00  0.00    -0.097 F 
ATOM      8  F1  UNL d   1      -2.293   0.024   1.212  0.00  0.00    -0.096 F 
ATOM      9  I   UNL d   1      -1.108   1.005  -1.594  0.00  0.00    -0.060 I 
ATOM     10  F2  UNL d   1       1.882  -0.009  -1.069  0.00  0.00    -0.096 F 
ATOM     11  F3  UNL d   1       3.008  -1.271   1.046  0.00  0.00    -0.097 F 
ATOM     12  F4  UNL d   1       1.511  -1.890   3.241  0.00  0.00    -0.092 F 
ENDROOT
TORSDOF 0
ENDMDL
