MODEL 1
REMARK minimizedAffinity -2.50995493
REMARK minimizedRMSD -1
REMARK  0 active torsions:
REMARK  status: ('A' for Active; 'I' for Inactive)
ROOT
ATOM      1  C   UNL d   1       0.744  -1.374   1.669  0.00  0.00     0.124 A 
ATOM      2  C1  UNL d   1      -0.394  -0.620   1.919  0.00  0.00     0.062 A 
ATOM      3  C2  UNL d   1      -0.920   0.204   0.928  0.00  0.00     0.162 A 
ATOM      4  C3  UNL d   1      -0.310   0.276  -0.324  0.00  0.00    -0.034 A 
ATOM      5  C4  UNL d   1       0.835  -0.485  -0.568  0.00  0.00     0.162 A 
ATOM      6  C5  UNL d   1       1.357  -1.306   0.425  0.00  0.00     0.062 A 
ATOM      7  F   UNL d   1       2.456  -2.035   0.181  0.00  0.00    -0.097 F 
ATOM      8  F1  UNL d   1       1.447  -0.439  -1.761  0.00  0.00    -0.096 F 
ATOM      9  I   UNL d   1      -1.094   1.506  -1.808  0.00  0.00    -0.060 I 
ATOM     10  F2  UNL d   1      -2.021   0.922   1.198  0.00  0.00    -0.096 F 
ATOM     11  F3  UNL d   1      -0.988  -0.683   3.120  0.00  0.00    -0.097 F 
ATOM     12  F4  UNL d   1       1.249  -2.165   2.624  0.00  0.00    -0.092 F 
ENDROOT
TORSDOF 0
ENDMDL
