MODEL 1
REMARK minimizedAffinity 1.48884785
REMARK minimizedRMSD -1
REMARK  0 active torsions:
REMARK  status: ('A' for Active; 'I' for Inactive)
ROOT
ATOM      1  C   UNL d   1       0.385  -1.361   1.478  0.00  0.00     0.124 A 
ATOM      2  C1  UNL d   1      -0.521  -0.346   1.754  0.00  0.00     0.062 A 
ATOM      3  C2  UNL d   1      -0.971   0.488   0.734  0.00  0.00     0.162 A 
ATOM      4  C3  UNL d   1      -0.515   0.309  -0.573  0.00  0.00    -0.034 A 
ATOM      5  C4  UNL d   1       0.396  -0.713  -0.842  0.00  0.00     0.162 A 
ATOM      6  C5  UNL d   1       0.843  -1.543   0.181  0.00  0.00     0.062 A 
ATOM      7  F   UNL d   1       1.718  -2.523  -0.088  0.00  0.00    -0.097 F 
ATOM      8  F1  UNL d   1       0.854  -0.912  -2.087  0.00  0.00    -0.096 F 
ATOM      9  I   UNL d   1      -1.185   1.553  -2.101  0.00  0.00    -0.060 I 
ATOM     10  F2  UNL d   1      -1.846   1.460   1.029  0.00  0.00    -0.096 F 
ATOM     11  F3  UNL d   1      -0.964  -0.167   3.007  0.00  0.00    -0.097 F 
ATOM     12  F4  UNL d   1       0.816  -2.160   2.462  0.00  0.00    -0.092 F 
ENDROOT
TORSDOF 0
ENDMDL
