MODEL 1
REMARK minimizedAffinity -0.127314985
REMARK minimizedRMSD -1
REMARK  0 active torsions:
REMARK  status: ('A' for Active; 'I' for Inactive)
ROOT
ATOM      1  C   UNL d   1       0.369  -0.929   1.199  0.00  0.00     0.124 A 
ATOM      2  C1  UNL d   1      -0.542   0.071   1.511  0.00  0.00     0.062 A 
ATOM      3  C2  UNL d   1      -1.048   0.894   0.509  0.00  0.00     0.162 A 
ATOM      4  C3  UNL d   1      -0.644   0.721  -0.815  0.00  0.00    -0.034 A 
ATOM      5  C4  UNL d   1       0.273  -0.286  -1.121  0.00  0.00     0.162 A 
ATOM      6  C5  UNL d   1       0.775  -1.106  -0.116  0.00  0.00     0.062 A 
ATOM      7  F   UNL d   1       1.655  -2.072  -0.420  0.00  0.00    -0.097 F 
ATOM      8  F1  UNL d   1       0.682  -0.480  -2.384  0.00  0.00    -0.096 F 
ATOM      9  I   UNL d   1      -1.399   1.950  -2.316  0.00  0.00    -0.060 I 
ATOM     10  F2  UNL d   1      -1.926   1.852   0.839  0.00  0.00    -0.096 F 
ATOM     11  F3  UNL d   1      -0.935   0.245   2.781  0.00  0.00    -0.097 F 
ATOM     12  F4  UNL d   1       0.855  -1.719   2.165  0.00  0.00    -0.092 F 
ENDROOT
TORSDOF 0
ENDMDL
