MODEL 1
REMARK minimizedAffinity -2.68370676
REMARK minimizedRMSD -1
REMARK  0 active torsions:
REMARK  status: ('A' for Active; 'I' for Inactive)
ROOT
ATOM      1  C   UNL d   1       1.954  -1.673   0.341  0.00  0.00     0.124 A 
ATOM      2  C1  UNL d   1       1.396  -1.610   1.610  0.00  0.00     0.062 A 
ATOM      3  C2  UNL d   1       0.071  -1.215   1.774  0.00  0.00     0.162 A 
ATOM      4  C3  UNL d   1      -0.706  -0.882   0.665  0.00  0.00    -0.034 A 
ATOM      5  C4  UNL d   1      -0.137  -0.947  -0.609  0.00  0.00     0.162 A 
ATOM      6  C5  UNL d   1       1.187  -1.341  -0.767  0.00  0.00     0.062 A 
ATOM      7  F   UNL d   1       1.724  -1.402  -1.994  0.00  0.00    -0.097 F 
ATOM      8  F1  UNL d   1      -0.856  -0.633  -1.697  0.00  0.00    -0.096 F 
ATOM      9  I   UNL d   1      -2.687  -0.291   0.905  0.00  0.00    -0.060 I 
ATOM     10  F2  UNL d   1      -0.441  -1.163   3.012  0.00  0.00    -0.096 F 
ATOM     11  F3  UNL d   1       2.135  -1.929   2.683  0.00  0.00    -0.097 F 
ATOM     12  F4  UNL d   1       3.229  -2.052   0.186  0.00  0.00    -0.092 F 
ENDROOT
TORSDOF 0
ENDMDL
