MODEL 1
REMARK minimizedAffinity -3.19722009
REMARK minimizedRMSD -1
REMARK  0 active torsions:
REMARK  status: ('A' for Active; 'I' for Inactive)
ROOT
ATOM      1  C   UNL d   1      -0.526  -0.375  -0.551  0.00  0.00     0.124 A 
ATOM      2  C1  UNL d   1      -1.046  -0.460   0.733  0.00  0.00     0.062 A 
ATOM      3  C2  UNL d   1      -0.239  -0.870   1.790  0.00  0.00     0.162 A 
ATOM      4  C3  UNL d   1       1.099  -1.197   1.568  0.00  0.00    -0.034 A 
ATOM      5  C4  UNL d   1       1.615  -1.110   0.274  0.00  0.00     0.162 A 
ATOM      6  C5  UNL d   1       0.804  -0.700  -0.779  0.00  0.00     0.062 A 
ATOM      7  F   UNL d   1       1.309  -0.618  -2.019  0.00  0.00    -0.097 F 
ATOM      8  F1  UNL d   1       2.897  -1.417   0.025  0.00  0.00    -0.096 F 
ATOM      9  I   UNL d   1       2.310  -1.811   3.146  0.00  0.00    -0.060 I 
ATOM     10  F2  UNL d   1      -0.768  -0.943   3.020  0.00  0.00    -0.096 F 
ATOM     11  F3  UNL d   1      -2.331  -0.148   0.956  0.00  0.00    -0.097 F 
ATOM     12  F4  UNL d   1      -1.305   0.019  -1.566  0.00  0.00    -0.092 F 
ENDROOT
TORSDOF 0
ENDMDL
