MODEL 1
REMARK minimizedAffinity -5.0516572
REMARK minimizedRMSD -1
REMARK  0 active torsions:
REMARK  status: ('A' for Active; 'I' for Inactive)
ROOT
ATOM      1  C   UNL d   1      -0.935  -0.248   1.261  0.00  0.00     0.124 A 
ATOM      2  C1  UNL d   1      -0.018  -0.828   2.126  0.00  0.00     0.062 A 
ATOM      3  C2  UNL d   1       1.116  -1.460   1.623  0.00  0.00     0.162 A 
ATOM      4  C3  UNL d   1       1.340  -1.514   0.247  0.00  0.00    -0.034 A 
ATOM      5  C4  UNL d   1       0.412  -0.928  -0.617  0.00  0.00     0.162 A 
ATOM      6  C5  UNL d   1      -0.719  -0.298  -0.109  0.00  0.00     0.062 A 
ATOM      7  F   UNL d   1      -1.604   0.262  -0.947  0.00  0.00    -0.097 F 
ATOM      8  F1  UNL d   1       0.597  -0.962  -1.945  0.00  0.00    -0.096 F 
ATOM      9  I   UNL d   1       3.034  -2.457  -0.509  0.00  0.00    -0.060 I 
ATOM     10  F2  UNL d   1       1.985  -2.012   2.482  0.00  0.00    -0.096 F 
ATOM     11  F3  UNL d   1      -0.225  -0.782   3.450  0.00  0.00    -0.097 F 
ATOM     12  F4  UNL d   1      -2.026   0.358   1.747  0.00  0.00    -0.092 F 
ENDROOT
TORSDOF 0
ENDMDL
