MODEL 1
REMARK minimizedAffinity -2.15274334
REMARK minimizedRMSD -1
REMARK  0 active torsions:
REMARK  status: ('A' for Active; 'I' for Inactive)
ROOT
ATOM      1  C   UNL d   1      -1.067  -0.272   0.695  0.00  0.00     0.124 A 
ATOM      2  C1  UNL d   1      -0.642  -0.290  -0.626  0.00  0.00     0.062 A 
ATOM      3  C2  UNL d   1       0.663  -0.661  -0.936  0.00  0.00     0.162 A 
ATOM      4  C3  UNL d   1       1.553  -1.018   0.077  0.00  0.00    -0.034 A 
ATOM      5  C4  UNL d   1       1.119  -0.997   1.403  0.00  0.00     0.162 A 
ATOM      6  C5  UNL d   1      -0.186  -0.625   1.708  0.00  0.00     0.062 A 
ATOM      7  F   UNL d   1      -0.595  -0.608   2.985  0.00  0.00    -0.097 F 
ATOM      8  F1  UNL d   1       1.948  -1.334   2.402  0.00  0.00    -0.096 F 
ATOM      9  I   UNL d   1       3.506  -1.573  -0.383  0.00  0.00    -0.060 I 
ATOM     10  F2  UNL d   1       1.047  -0.669  -2.222  0.00  0.00    -0.096 F 
ATOM     11  F3  UNL d   1      -1.490   0.052  -1.606  0.00  0.00    -0.097 F 
ATOM     12  F4  UNL d   1      -2.323   0.086   0.991  0.00  0.00    -0.092 F 
ENDROOT
TORSDOF 0
ENDMDL
