MODEL 1
REMARK minimizedAffinity -2.60299802
REMARK minimizedRMSD -1
REMARK  0 active torsions:
REMARK  status: ('A' for Active; 'I' for Inactive)
ROOT
ATOM      1  C   UNL d   1      -0.771   0.503  -0.379  0.00  0.00     0.124 A 
ATOM      2  C1  UNL d   1      -1.268  -0.077   0.780  0.00  0.00     0.062 A 
ATOM      3  C2  UNL d   1      -0.401  -0.667   1.696  0.00  0.00     0.162 A 
ATOM      4  C3  UNL d   1       0.973  -0.678   1.457  0.00  0.00    -0.034 A 
ATOM      5  C4  UNL d   1       1.466  -0.093   0.289  0.00  0.00     0.162 A 
ATOM      6  C5  UNL d   1       0.595   0.495  -0.623  0.00  0.00     0.062 A 
ATOM      7  F   UNL d   1       1.078   1.055  -1.742  0.00  0.00    -0.097 F 
ATOM      8  F1  UNL d   1       2.781  -0.086   0.029  0.00  0.00    -0.096 F 
ATOM      9  I   UNL d   1       2.272  -1.558   2.824  0.00  0.00    -0.060 I 
ATOM     10  F2  UNL d   1      -0.910  -1.220   2.807  0.00  0.00    -0.096 F 
ATOM     11  F3  UNL d   1      -2.588  -0.072   1.018  0.00  0.00    -0.097 F 
ATOM     12  F4  UNL d   1      -1.607   1.068  -1.259  0.00  0.00    -0.092 F 
ENDROOT
TORSDOF 0
ENDMDL
