MODEL 1
REMARK minimizedAffinity 8.4119463
REMARK minimizedRMSD -1
REMARK  0 active torsions:
REMARK  status: ('A' for Active; 'I' for Inactive)
ROOT
ATOM      1  C1  DEN d   1       2.289  -0.459  -0.265  0.00  0.00     0.130 A 
ATOM      2  C2  DEN d   1       1.975  -0.769  -1.657  0.00  0.00    -0.031 A 
ATOM      3  C3  DEN d   1       3.000  -0.135  -2.509  0.00  0.00     0.027 A 
ATOM      4  C4  DEN d   1       5.036   1.286  -1.813  0.00  0.00     0.027 A 
ATOM      5  C5  DEN d   1       5.712   1.832  -0.743  0.00  0.00    -0.003 A 
ATOM      6  C6  DEN d   1       5.278   1.681   0.547  0.00  0.00     0.001 A 
ATOM      7  C7  DEN d   1       4.162   0.930   0.805  0.00  0.00     0.017 A 
ATOM      8  C8  DEN d   1       3.472   0.384  -0.268  0.00  0.00    -0.094 A 
ATOM      9  C9  DEN d   1       3.933   0.537  -1.565  0.00  0.00    -0.072 A 
ENDROOT
TORSDOF 0
ENDMDL
