MODEL 1
REMARK minimizedAffinity 6.42900181
REMARK minimizedRMSD -1
REMARK  0 active torsions:
REMARK  status: ('A' for Active; 'I' for Inactive)
ROOT
ATOM      1  C1  DEN d   1       2.770   1.241   0.764  0.00  0.00     0.130 A 
ATOM      2  C2  DEN d   1       2.763   0.046  -0.075  0.00  0.00    -0.031 A 
ATOM      3  C3  DEN d   1       1.535   0.072  -0.895  0.00  0.00     0.027 A 
ATOM      4  C4  DEN d   1      -0.344   1.838  -0.949  0.00  0.00     0.027 A 
ATOM      5  C5  DEN d   1      -0.786   3.024  -0.406  0.00  0.00    -0.003 A 
ATOM      6  C6  DEN d   1      -0.096   3.676   0.582  0.00  0.00     0.001 A 
ATOM      7  C7  DEN d   1       1.097   3.169   1.025  0.00  0.00     0.017 A 
ATOM      8  C8  DEN d   1       1.545   1.970   0.487  0.00  0.00    -0.094 A 
ATOM      9  C9  DEN d   1       0.839   1.332  -0.519  0.00  0.00    -0.072 A 
ENDROOT
TORSDOF 0
ENDMDL
