MODEL 1
REMARK minimizedAffinity 9.13412094
REMARK minimizedRMSD -1
REMARK  0 active torsions:
REMARK  status: ('A' for Active; 'I' for Inactive)
ROOT
ATOM      1  C1  DEN d   1       4.789   1.886  -2.973  0.00  0.00     0.130 A 
ATOM      2  C2  DEN d   1       5.995   2.532  -2.462  0.00  0.00    -0.031 A 
ATOM      3  C3  DEN d   1       5.996   2.399  -0.992  0.00  0.00     0.027 A 
ATOM      4  C4  DEN d   1       4.260   1.258   0.536  0.00  0.00     0.027 A 
ATOM      5  C5  DEN d   1       3.061   0.580   0.562  0.00  0.00    -0.003 A 
ATOM      6  C6  DEN d   1       2.343   0.321  -0.576  0.00  0.00     0.001 A 
ATOM      7  C7  DEN d   1       2.841   0.704  -1.794  0.00  0.00     0.017 A 
ATOM      8  C8  DEN d   1       4.045   1.395  -1.827  0.00  0.00    -0.094 A 
ATOM      9  C9  DEN d   1       4.761   1.636  -0.667  0.00  0.00    -0.072 A 
ENDROOT
TORSDOF 0
ENDMDL
