MODEL 1
REMARK minimizedAffinity 7.16629839
REMARK minimizedRMSD -1
REMARK  0 active torsions:
REMARK  status: ('A' for Active; 'I' for Inactive)
ROOT
ATOM      1  C1  DEN d   1       4.927   1.607  -3.728  0.00  0.00     0.130 A 
ATOM      2  C2  DEN d   1       6.000   2.487  -3.273  0.00  0.00    -0.031 A 
ATOM      3  C3  DEN d   1       5.874   2.641  -1.810  0.00  0.00     0.027 A 
ATOM      4  C4  DEN d   1       4.134   1.605  -0.213  0.00  0.00     0.027 A 
ATOM      5  C5  DEN d   1       3.020   0.799  -0.137  0.00  0.00    -0.003 A 
ATOM      6  C6  DEN d   1       2.448   0.238  -1.248  0.00  0.00     0.001 A 
ATOM      7  C7  DEN d   1       3.015   0.439  -2.478  0.00  0.00     0.017 A 
ATOM      8  C8  DEN d   1       4.134   1.256  -2.564  0.00  0.00    -0.094 A 
ATOM      9  C9  DEN d   1       4.705   1.805  -1.428  0.00  0.00    -0.072 A 
ENDROOT
TORSDOF 0
ENDMDL
