MODEL 1
REMARK minimizedAffinity 9.4911232
REMARK minimizedRMSD -1
REMARK  0 active torsions:
REMARK  status: ('A' for Active; 'I' for Inactive)
ROOT
ATOM      1  C1  DEN d   1       2.348   0.100  -1.415  0.00  0.00     0.130 A 
ATOM      2  C2  DEN d   1       2.175  -0.071   0.024  0.00  0.00    -0.031 A 
ATOM      3  C3  DEN d   1       3.294   0.613   0.703  0.00  0.00     0.027 A 
ATOM      4  C4  DEN d   1       5.264   1.918  -0.330  0.00  0.00     0.027 A 
ATOM      5  C5  DEN d   1       5.845   2.325  -1.511  0.00  0.00    -0.003 A 
ATOM      6  C6  DEN d   1       5.323   1.993  -2.734  0.00  0.00     0.001 A 
ATOM      7  C7  DEN d   1       4.162   1.270  -2.802  0.00  0.00     0.017 A 
ATOM      8  C8  DEN d   1       3.575   0.849  -1.616  0.00  0.00    -0.094 A 
ATOM      9  C9  DEN d   1       4.111   1.206  -0.390  0.00  0.00    -0.072 A 
ENDROOT
TORSDOF 0
ENDMDL
