MODEL 1
REMARK minimizedAffinity 9.20526314
REMARK minimizedRMSD -1
REMARK  0 active torsions:
REMARK  status: ('A' for Active; 'I' for Inactive)
ROOT
ATOM      1  C1  DEN d   1       5.789   2.268  -1.064  0.00  0.00     0.130 A 
ATOM      2  C2  DEN d   1       5.997   2.458  -2.497  0.00  0.00    -0.031 A 
ATOM      3  C3  DEN d   1       4.917   1.748  -3.213  0.00  0.00     0.027 A 
ATOM      4  C4  DEN d   1       2.954   0.383  -2.246  0.00  0.00     0.027 A 
ATOM      5  C5  DEN d   1       2.366  -0.070  -1.086  0.00  0.00    -0.003 A 
ATOM      6  C6  DEN d   1       2.892   0.193   0.151  0.00  0.00     0.001 A 
ATOM      7  C7  DEN d   1       4.016   0.969   0.259  0.00  0.00     0.017 A 
ATOM      8  C8  DEN d   1       4.619   1.423  -0.906  0.00  0.00    -0.094 A 
ATOM      9  C9  DEN d   1       4.065   1.157  -2.147  0.00  0.00    -0.072 A 
ENDROOT
TORSDOF 0
ENDMDL
