MODEL 1
REMARK minimizedAffinity -5.3268671
REMARK minimizedRMSD -1
REMARK  0 active torsions:
REMARK  status: ('A' for Active; 'I' for Inactive)
ROOT
ATOM      1  O1  BZF d   1       1.755  -0.891   0.844  0.00  0.00    -0.204 OA
ATOM      2  C2  BZF d   1       2.981  -0.346   0.515  0.00  0.00     0.174 A 
ATOM      3  C3  BZF d   1       2.836   0.913   0.054  0.00  0.00    -0.012 A 
ATOM      4  C3A BZF d   1       1.442   1.204   0.186  0.00  0.00    -0.107 A 
ATOM      5  C4  BZF d   1       0.682   2.304  -0.090  0.00  0.00     0.055 A 
ATOM      6  C5  BZF d   1      -0.664   2.239   0.084  0.00  0.00    -0.016 A 
ATOM      7  C6  BZF d   1      -1.283   1.088   0.527  0.00  0.00     0.022 A 
ATOM      8  C7  BZF d   1      -0.571  -0.027   0.819  0.00  0.00     0.029 A 
ATOM      9  C7A BZF d   1       0.793   0.046   0.675  0.00  0.00     0.058 A 
ENDROOT
TORSDOF 0
ENDMDL
