MODEL 1
REMARK minimizedAffinity 0.585624576
REMARK minimizedRMSD -1
REMARK  0 active torsions:
REMARK  status: ('A' for Active; 'I' for Inactive)
ROOT
ATOM      1  O1  BZF d   1       2.208   0.087   0.407  0.00  0.00    -0.204 OA
ATOM      2  C2  BZF d   1       1.718  -1.158   0.065  0.00  0.00     0.174 A 
ATOM      3  C3  BZF d   1       0.369  -1.155   0.056  0.00  0.00    -0.012 A 
ATOM      4  C3A BZF d   1      -0.006   0.199   0.324  0.00  0.00    -0.107 A 
ATOM      5  C4  BZF d   1      -1.209   0.836   0.428  0.00  0.00     0.055 A 
ATOM      6  C5  BZF d   1      -1.233   2.151   0.773  0.00  0.00    -0.016 A 
ATOM      7  C6  BZF d   1      -0.074   2.856   1.025  0.00  0.00     0.022 A 
ATOM      8  C7  BZF d   1       1.143   2.268   0.930  0.00  0.00     0.029 A 
ATOM      9  C7A BZF d   1       1.172   0.948   0.550  0.00  0.00     0.058 A 
ENDROOT
TORSDOF 0
ENDMDL
