MODEL 1
REMARK minimizedAffinity -2.34160042
REMARK minimizedRMSD -1
REMARK  0 active torsions:
REMARK  status: ('A' for Active; 'I' for Inactive)
ROOT
ATOM      1  O1  BZF d   1       2.919   0.894   0.776  0.00  0.00    -0.204 OA
ATOM      2  C2  BZF d   1       3.288   2.118   1.300  0.00  0.00     0.174 A 
ATOM      3  C3  BZF d   1       2.215   2.925   1.431  0.00  0.00    -0.012 A 
ATOM      4  C3A BZF d   1       1.093   2.124   1.047  0.00  0.00    -0.107 A 
ATOM      5  C4  BZF d   1      -0.250   2.361   0.982  0.00  0.00     0.055 A 
ATOM      6  C5  BZF d   1      -1.069   1.391   0.496  0.00  0.00    -0.016 A 
ATOM      7  C6  BZF d   1      -0.578   0.177   0.061  0.00  0.00     0.022 A 
ATOM      8  C7  BZF d   1       0.747  -0.105   0.111  0.00  0.00     0.029 A 
ATOM      9  C7A BZF d   1       1.573   0.860   0.633  0.00  0.00     0.058 A 
ENDROOT
TORSDOF 0
ENDMDL
