MODEL 1
REMARK minimizedAffinity -3.51309419
REMARK minimizedRMSD -1
REMARK  0 active torsions:
REMARK  status: ('A' for Active; 'I' for Inactive)
ROOT
ATOM      1  O1  BZF d   1      -1.376   0.563  -0.947  0.00  0.00    -0.204 OA
ATOM      2  C2  BZF d   1      -0.414   1.104  -0.117  0.00  0.00     0.174 A 
ATOM      3  C3  BZF d   1       0.452   0.155   0.295  0.00  0.00    -0.012 A 
ATOM      4  C3A BZF d   1       0.056  -1.037  -0.390  0.00  0.00    -0.107 A 
ATOM      5  C4  BZF d   1       0.540  -2.314  -0.407  0.00  0.00     0.055 A 
ATOM      6  C5  BZF d   1      -0.120  -3.261  -1.124  0.00  0.00    -0.016 A 
ATOM      7  C6  BZF d   1      -1.267  -2.967  -1.832  0.00  0.00     0.022 A 
ATOM      8  C7  BZF d   1      -1.782  -1.714  -1.849  0.00  0.00     0.029 A 
ATOM      9  C7A BZF d   1      -1.099  -0.748  -1.151  0.00  0.00     0.058 A 
ENDROOT
TORSDOF 0
ENDMDL
