MODEL 1
REMARK minimizedAffinity -4.83097219
REMARK minimizedRMSD -1
REMARK  0 active torsions:
REMARK  status: ('A' for Active; 'I' for Inactive)
ROOT
ATOM      1  O1  BZF d   1      -0.114   0.173   0.636  0.00  0.00    -0.204 OA
ATOM      2  C2  BZF d   1      -0.713   1.049  -0.248  0.00  0.00     0.174 A 
ATOM      3  C3  BZF d   1      -0.922   0.456  -1.442  0.00  0.00    -0.012 A 
ATOM      4  C3A BZF d   1      -0.506  -0.901  -1.265  0.00  0.00    -0.107 A 
ATOM      5  C4  BZF d   1      -0.485  -1.991  -2.088  0.00  0.00     0.055 A 
ATOM      6  C5  BZF d   1       0.050  -3.153  -1.631  0.00  0.00    -0.016 A 
ATOM      7  C6  BZF d   1       0.578  -3.260  -0.361  0.00  0.00     0.022 A 
ATOM      8  C7  BZF d   1       0.575  -2.207   0.494  0.00  0.00     0.029 A 
ATOM      9  C7A BZF d   1       0.004  -1.041   0.046  0.00  0.00     0.058 A 
ENDROOT
TORSDOF 0
ENDMDL
