MODEL 1
REMARK minimizedAffinity -2.23997331
REMARK minimizedRMSD -1
REMARK  0 active torsions:
REMARK  status: ('A' for Active; 'I' for Inactive)
ROOT
ATOM      1  O1  BZF d   1      -1.686  -2.237  -2.202  0.00  0.00    -0.204 OA
ATOM      2  C2  BZF d   1      -1.005  -3.430  -2.347  0.00  0.00     0.174 A 
ATOM      3  C3  BZF d   1       0.078  -3.464  -1.544  0.00  0.00    -0.012 A 
ATOM      4  C3A BZF d   1       0.022  -2.252  -0.786  0.00  0.00    -0.107 A 
ATOM      5  C4  BZF d   1       0.812  -1.718   0.191  0.00  0.00     0.055 A 
ATOM      6  C5  BZF d   1       0.522  -0.481   0.674  0.00  0.00    -0.016 A 
ATOM      7  C6  BZF d   1      -0.547   0.251   0.200  0.00  0.00     0.022 A 
ATOM      8  C7  BZF d   1      -1.363  -0.239  -0.765  0.00  0.00     0.029 A 
ATOM      9  C7A BZF d   1      -1.092  -1.502  -1.232  0.00  0.00     0.058 A 
ENDROOT
TORSDOF 0
ENDMDL
