MODEL 1
REMARK minimizedAffinity -2.4912312
REMARK minimizedRMSD -1
REMARK  0 active torsions:
REMARK  status: ('A' for Active; 'I' for Inactive)
ROOT
ATOM      1  O1  BZF d   1       0.261   2.182   0.694  0.00  0.00    -0.204 OA
ATOM      2  C2  BZF d   1      -1.112   2.317   0.617  0.00  0.00     0.174 A 
ATOM      3  C3  BZF d   1      -1.689   1.148   0.273  0.00  0.00    -0.012 A 
ATOM      4  C3A BZF d   1      -0.618   0.202   0.216  0.00  0.00    -0.107 A 
ATOM      5  C4  BZF d   1      -0.559  -1.135  -0.059  0.00  0.00     0.055 A 
ATOM      6  C5  BZF d   1       0.654  -1.747  -0.103  0.00  0.00    -0.016 A 
ATOM      7  C6  BZF d   1       1.826  -1.054   0.116  0.00  0.00     0.022 A 
ATOM      8  C7  BZF d   1       1.818   0.272   0.397  0.00  0.00     0.029 A 
ATOM      9  C7A BZF d   1       0.592   0.887   0.475  0.00  0.00     0.058 A 
ENDROOT
TORSDOF 0
ENDMDL
