MODEL 1
REMARK minimizedAffinity -5.37823677
REMARK minimizedRMSD -1
REMARK  0 active torsions:
REMARK  status: ('A' for Active; 'I' for Inactive)
ROOT
ATOM      1  O1  BZF d   1      -3.455  -4.821  -1.576  0.00  0.00    -0.204 OA
ATOM      2  C2  BZF d   1      -3.889  -5.002  -0.277  0.00  0.00     0.174 A 
ATOM      3  C3  BZF d   1      -2.947  -4.600   0.602  0.00  0.00    -0.012 A 
ATOM      4  C3A BZF d   1      -1.894  -4.054  -0.198  0.00  0.00    -0.107 A 
ATOM      5  C4  BZF d   1      -0.691  -3.480   0.098  0.00  0.00     0.055 A 
ATOM      6  C5  BZF d   1       0.136  -3.119  -0.917  0.00  0.00    -0.016 A 
ATOM      7  C6  BZF d   1      -0.205  -3.321  -2.238  0.00  0.00     0.022 A 
ATOM      8  C7  BZF d   1      -1.390  -3.882  -2.582  0.00  0.00     0.029 A 
ATOM      9  C7A BZF d   1      -2.242  -4.219  -1.559  0.00  0.00     0.058 A 
ENDROOT
TORSDOF 0
ENDMDL
