MODEL 1
REMARK minimizedAffinity -1.23096216
REMARK minimizedRMSD -1
REMARK  0 active torsions:
REMARK  status: ('A' for Active; 'I' for Inactive)
ROOT
ATOM      1  O1  BZF d   1      -1.621  -1.870  -2.099  0.00  0.00    -0.204 OA
ATOM      2  C2  BZF d   1      -1.300  -3.214  -2.131  0.00  0.00     0.174 A 
ATOM      3  C3  BZF d   1      -0.213  -3.464  -1.373  0.00  0.00    -0.012 A 
ATOM      4  C3A BZF d   1       0.116  -2.213  -0.761  0.00  0.00    -0.107 A 
ATOM      5  C4  BZF d   1       1.089  -1.822   0.113  0.00  0.00     0.055 A 
ATOM      6  C5  BZF d   1       1.179  -0.511   0.459  0.00  0.00    -0.016 A 
ATOM      7  C6  BZF d   1       0.317   0.436  -0.054  0.00  0.00     0.022 A 
ATOM      8  C7  BZF d   1      -0.667   0.096  -0.921  0.00  0.00     0.029 A 
ATOM      9  C7A BZF d   1      -0.782  -1.234  -1.247  0.00  0.00     0.058 A 
ENDROOT
TORSDOF 0
ENDMDL
