MODEL 1
REMARK minimizedAffinity -0.396585047
REMARK minimizedRMSD -1
REMARK  0 active torsions:
REMARK  status: ('A' for Active; 'I' for Inactive)
ROOT
ATOM      1  O1  BZF d   1       0.925  -0.852   0.486  0.00  0.00    -0.204 OA
ATOM      2  C2  BZF d   1       0.148  -1.694  -0.286  0.00  0.00     0.174 A 
ATOM      3  C3  BZF d   1      -1.058  -1.143  -0.530  0.00  0.00    -0.012 A 
ATOM      4  C3A BZF d   1      -1.001   0.162   0.053  0.00  0.00    -0.107 A 
ATOM      5  C4  BZF d   1      -1.888   1.197   0.126  0.00  0.00     0.055 A 
ATOM      6  C5  BZF d   1      -1.549   2.309   0.831  0.00  0.00    -0.016 A 
ATOM      7  C6  BZF d   1      -0.335   2.417   1.477  0.00  0.00     0.022 A 
ATOM      8  C7  BZF d   1       0.580   1.418   1.428  0.00  0.00     0.029 A 
ATOM      9  C7A BZF d   1       0.253   0.307   0.690  0.00  0.00     0.058 A 
ENDROOT
TORSDOF 0
ENDMDL
