MODEL 1
REMARK minimizedAffinity -2.94018412
REMARK minimizedRMSD -1
REMARK  0 active torsions:
REMARK  status: ('A' for Active; 'I' for Inactive)
ROOT
ATOM      1  O1  BZF d   1      -0.463   0.036  -1.263  0.00  0.00    -0.204 OA
ATOM      2  C2  BZF d   1      -0.263   0.043   0.104  0.00  0.00     0.174 A 
ATOM      3  C3  BZF d   1      -0.371  -1.202   0.610  0.00  0.00    -0.012 A 
ATOM      4  C3A BZF d   1      -0.565  -2.054  -0.523  0.00  0.00    -0.107 A 
ATOM      5  C4  BZF d   1      -0.723  -3.402  -0.668  0.00  0.00     0.055 A 
ATOM      6  C5  BZF d   1      -0.965  -3.910  -1.906  0.00  0.00    -0.016 A 
ATOM      7  C6  BZF d   1      -1.060  -3.098  -3.017  0.00  0.00     0.022 A 
ATOM      8  C7  BZF d   1      -0.905  -1.755  -2.924  0.00  0.00     0.029 A 
ATOM      9  C7A BZF d   1      -0.628  -1.243  -1.680  0.00  0.00     0.058 A 
ENDROOT
TORSDOF 0
ENDMDL
