MODEL 1
REMARK minimizedAffinity -3.95029855
REMARK minimizedRMSD -1
REMARK  0 active torsions:
REMARK  status: ('A' for Active; 'I' for Inactive)
ROOT
ATOM      1  O1  BZF d   1       2.698   1.047   0.525  0.00  0.00    -0.204 OA
ATOM      2  C2  BZF d   1       3.276   2.112   1.188  0.00  0.00     0.174 A 
ATOM      3  C3  BZF d   1       2.364   3.075   1.432  0.00  0.00    -0.012 A 
ATOM      4  C3A BZF d   1       1.120   2.541   0.970  0.00  0.00    -0.107 A 
ATOM      5  C4  BZF d   1      -0.159   3.019   0.953  0.00  0.00     0.055 A 
ATOM      6  C5  BZF d   1      -1.134   2.278   0.364  0.00  0.00    -0.016 A 
ATOM      7  C6  BZF d   1      -0.865   1.058  -0.222  0.00  0.00     0.022 A 
ATOM      8  C7  BZF d   1       0.388   0.540  -0.226  0.00  0.00     0.029 A 
ATOM      9  C7A BZF d   1       1.369   1.272   0.398  0.00  0.00     0.058 A 
ENDROOT
TORSDOF 0
ENDMDL
