MODEL 1
REMARK minimizedAffinity -1.02722704
REMARK minimizedRMSD -1
REMARK  0 active torsions:
REMARK  status: ('A' for Active; 'I' for Inactive)
ROOT
ATOM      1  O1  BZF d   1       2.320   1.369   1.002  0.00  0.00    -0.204 OA
ATOM      2  C2  BZF d   1       2.458   2.668   1.452  0.00  0.00     0.174 A 
ATOM      3  C3  BZF d   1       1.286   3.330   1.367  0.00  0.00    -0.012 A 
ATOM      4  C3A BZF d   1       0.336   2.359   0.918  0.00  0.00    -0.107 A 
ATOM      5  C4  BZF d   1      -1.004   2.406   0.658  0.00  0.00     0.055 A 
ATOM      6  C5  BZF d   1      -1.620   1.301   0.162  0.00  0.00    -0.016 A 
ATOM      7  C6  BZF d   1      -0.927   0.135  -0.089  0.00  0.00     0.022 A 
ATOM      8  C7  BZF d   1       0.402   0.038   0.158  0.00  0.00     0.029 A 
ATOM      9  C7A BZF d   1       1.021   1.143   0.689  0.00  0.00     0.058 A 
ENDROOT
TORSDOF 0
ENDMDL
