MODEL 1
REMARK minimizedAffinity -4.12466621
REMARK minimizedRMSD -1
REMARK  0 active torsions:
REMARK  status: ('A' for Active; 'I' for Inactive)
ROOT
ATOM      1  O1  BZF d   1      -2.290  -2.205  -1.792  0.00  0.00    -0.204 OA
ATOM      2  C2  BZF d   1      -1.434  -3.290  -1.790  0.00  0.00     0.174 A 
ATOM      3  C3  BZF d   1      -0.312  -3.013  -1.096  0.00  0.00    -0.012 A 
ATOM      4  C3A BZF d   1      -0.516  -1.702  -0.558  0.00  0.00    -0.107 A 
ATOM      5  C4  BZF d   1       0.238  -0.885   0.234  0.00  0.00     0.055 A 
ATOM      6  C5  BZF d   1      -0.218   0.363   0.519  0.00  0.00    -0.016 A 
ATOM      7  C6  BZF d   1      -1.420   0.827   0.025  0.00  0.00     0.022 A 
ATOM      8  C7  BZF d   1      -2.205   0.051  -0.760  0.00  0.00     0.029 A 
ATOM      9  C7A BZF d   1      -1.762  -1.222  -1.023  0.00  0.00     0.058 A 
ENDROOT
TORSDOF 0
ENDMDL
