MODEL 1
REMARK minimizedAffinity -1.12585402
REMARK minimizedRMSD -1
REMARK  0 active torsions:
REMARK  status: ('A' for Active; 'I' for Inactive)
ROOT
ATOM      1  O1  BZF d   1       0.527   2.478   0.757  0.00  0.00    -0.204 OA
ATOM      2  C2  BZF d   1      -0.780   2.815   0.463  0.00  0.00     0.174 A 
ATOM      3  C3  BZF d   1      -1.465   1.738   0.027  0.00  0.00    -0.012 A 
ATOM      4  C3A BZF d   1      -0.553   0.642   0.139  0.00  0.00    -0.107 A 
ATOM      5  C4  BZF d   1      -0.654  -0.694  -0.128  0.00  0.00     0.055 A 
ATOM      6  C5  BZF d   1       0.444  -1.481   0.019  0.00  0.00    -0.016 A 
ATOM      7  C6  BZF d   1       1.658  -0.966   0.425  0.00  0.00     0.022 A 
ATOM      8  C7  BZF d   1       1.805   0.352   0.706  0.00  0.00     0.029 A 
ATOM      9  C7A BZF d   1       0.689   1.144   0.590  0.00  0.00     0.058 A 
ENDROOT
TORSDOF 0
ENDMDL
