MODEL 1
REMARK minimizedAffinity -0.09618669
REMARK minimizedRMSD -1
REMARK  0 active torsions:
REMARK  status: ('A' for Active; 'I' for Inactive)
ROOT
ATOM      1  O1  BZF d   1       2.600   0.985   0.715  0.00  0.00    -0.204 OA
ATOM      2  C2  BZF d   1       2.872   2.211   1.290  0.00  0.00     0.174 A 
ATOM      3  C3  BZF d   1       1.737   2.917   1.470  0.00  0.00    -0.012 A 
ATOM      4  C3A BZF d   1       0.681   2.042   1.062  0.00  0.00    -0.107 A 
ATOM      5  C4  BZF d   1      -0.679   2.166   1.023  0.00  0.00     0.055 A 
ATOM      6  C5  BZF d   1      -1.419   1.152   0.502  0.00  0.00    -0.016 A 
ATOM      7  C6  BZF d   1      -0.834   0.005   0.007  0.00  0.00     0.022 A 
ATOM      8  C7  BZF d   1       0.510  -0.165   0.029  0.00  0.00     0.029 A 
ATOM      9  C7A BZF d   1       1.259   0.843   0.585  0.00  0.00     0.058 A 
ENDROOT
TORSDOF 0
ENDMDL
