MODEL 1
REMARK minimizedAffinity -4.30589437
REMARK minimizedRMSD -1
REMARK  0 active torsions:
REMARK  status: ('A' for Active; 'I' for Inactive)
ROOT
ATOM      1  O1  BZF d   1       0.462  -2.415  -0.042  0.00  0.00    -0.204 OA
ATOM      2  C2  BZF d   1      -0.224  -3.133  -1.002  0.00  0.00     0.174 A 
ATOM      3  C3  BZF d   1      -1.043  -2.327  -1.709  0.00  0.00    -0.012 A 
ATOM      4  C3A BZF d   1      -0.788  -1.008  -1.217  0.00  0.00    -0.107 A 
ATOM      5  C4  BZF d   1      -1.282   0.224  -1.536  0.00  0.00     0.055 A 
ATOM      6  C5  BZF d   1      -0.878   1.304  -0.817  0.00  0.00    -0.016 A 
ATOM      7  C6  BZF d   1       0.014   1.188   0.230  0.00  0.00     0.022 A 
ATOM      8  C7  BZF d   1       0.535  -0.013   0.580  0.00  0.00     0.029 A 
ATOM      9  C7A BZF d   1       0.154  -1.102  -0.166  0.00  0.00     0.058 A 
ENDROOT
TORSDOF 0
ENDMDL
