MODEL 1
REMARK minimizedAffinity -5.36662817
REMARK minimizedRMSD -1
REMARK  0 active torsions:
REMARK  status: ('A' for Active; 'I' for Inactive)
ROOT
ATOM      1  C4' PXY d   1      -1.977   1.284  -2.447  0.00  0.00     0.077 C 
ATOM      2  C1' PXY d   1       2.233  -1.230   0.615  0.00  0.00     0.077 C 
ATOM      3  C1  PXY d   1       1.121  -0.572  -0.178  0.00  0.00    -0.082 A 
ATOM      4  C2  PXY d   1       1.133  -0.636  -1.500  0.00  0.00     0.003 A 
ATOM      5  C3  PXY d   1       0.153  -0.019  -2.233  0.00  0.00     0.003 A 
ATOM      6  C4  PXY d   1      -0.880   0.625  -1.606  0.00  0.00    -0.082 A 
ATOM      7  C5  PXY d   1      -0.905   0.686  -0.258  0.00  0.00     0.003 A 
ATOM      8  C6  PXY d   1       0.122   0.088   0.467  0.00  0.00     0.003 A 
ENDROOT
TORSDOF 0
ENDMDL
