MODEL 1
REMARK minimizedAffinity -3.43151474
REMARK minimizedRMSD -1
REMARK  0 active torsions:
REMARK  status: ('A' for Active; 'I' for Inactive)
ROOT
ATOM      1  C4' PXY d   1      -2.259   1.241  -2.309  0.00  0.00     0.077 C 
ATOM      2  C1' PXY d   1       1.735  -1.420   0.914  0.00  0.00     0.077 C 
ATOM      3  C1  PXY d   1       0.681  -0.720   0.080  0.00  0.00    -0.082 A 
ATOM      4  C2  PXY d   1       0.548  -1.029  -1.200  0.00  0.00     0.003 A 
ATOM      5  C3  PXY d   1      -0.379  -0.382  -1.977  0.00  0.00     0.003 A 
ATOM      6  C4  PXY d   1      -1.214   0.552  -1.426  0.00  0.00    -0.082 A 
ATOM      7  C5  PXY d   1      -1.092   0.866  -0.118  0.00  0.00     0.003 A 
ATOM      8  C6  PXY d   1      -0.117   0.228   0.643  0.00  0.00     0.003 A 
ENDROOT
TORSDOF 0
ENDMDL
