MODEL 1
REMARK minimizedAffinity -3.12683535
REMARK minimizedRMSD -1
REMARK  0 active torsions:
REMARK  status: ('A' for Active; 'I' for Inactive)
ROOT
ATOM      1  C4' PXY d   1       2.948  -0.748  -0.927  0.00  0.00     0.077 C 
ATOM      2  C1' PXY d   1      -1.097  -0.854   3.202  0.00  0.00     0.077 C 
ATOM      3  C1  PXY d   1      -0.045  -0.821   2.111  0.00  0.00    -0.082 A 
ATOM      4  C2  PXY d   1       0.978  -1.658   2.163  0.00  0.00     0.003 A 
ATOM      5  C3  PXY d   1       1.955  -1.620   1.202  0.00  0.00     0.003 A 
ATOM      6  C4  PXY d   1       1.857  -0.752   0.148  0.00  0.00    -0.082 A 
ATOM      7  C5  PXY d   1       0.811   0.098   0.081  0.00  0.00     0.003 A 
ATOM      8  C6  PXY d   1      -0.149   0.072   1.089  0.00  0.00     0.003 A 
ENDROOT
TORSDOF 0
ENDMDL
