MODEL 1
REMARK minimizedAffinity -2.2428236
REMARK minimizedRMSD -1
REMARK  0 active torsions:
REMARK  status: ('A' for Active; 'I' for Inactive)
ROOT
ATOM      1  C4' PXY d   1       1.483  -1.391   0.749  0.00  0.00     0.077 C 
ATOM      2  C1' PXY d   1      -2.193   1.194  -2.887  0.00  0.00     0.077 C 
ATOM      3  C1  PXY d   1      -1.231   0.526  -1.925  0.00  0.00    -0.082 A 
ATOM      4  C2  PXY d   1      -0.285  -0.272  -2.394  0.00  0.00     0.003 A 
ATOM      5  C3  PXY d   1       0.573  -0.909  -1.535  0.00  0.00     0.003 A 
ATOM      6  C4  PXY d   1       0.496  -0.687  -0.187  0.00  0.00    -0.082 A 
ATOM      7  C5  PXY d   1      -0.460   0.133   0.299  0.00  0.00     0.003 A 
ATOM      8  C6  PXY d   1      -1.347   0.739  -0.586  0.00  0.00     0.003 A 
ENDROOT
TORSDOF 0
ENDMDL
