MODEL 1
REMARK minimizedAffinity -2.86093736
REMARK minimizedRMSD -1
REMARK  0 active torsions:
REMARK  status: ('A' for Active; 'I' for Inactive)
ROOT
ATOM      1  C4' PXY d   1       1.914  -0.963   0.588  0.00  0.00     0.077 C 
ATOM      2  C1' PXY d   1      -2.351   1.321  -2.575  0.00  0.00     0.077 C 
ATOM      3  C1  PXY d   1      -1.232   0.733  -1.738  0.00  0.00    -0.082 A 
ATOM      4  C2  PXY d   1      -0.474  -0.227  -2.242  0.00  0.00     0.003 A 
ATOM      5  C3  PXY d   1       0.522  -0.792  -1.488  0.00  0.00     0.003 A 
ATOM      6  C4  PXY d   1       0.779  -0.334  -0.224  0.00  0.00    -0.082 A 
ATOM      7  C5  PXY d   1       0.017   0.653   0.293  0.00  0.00     0.003 A 
ATOM      8  C6  PXY d   1      -1.016   1.185  -0.473  0.00  0.00     0.003 A 
ENDROOT
TORSDOF 0
ENDMDL
