MODEL 1
REMARK minimizedAffinity -5.51319027
REMARK minimizedRMSD -1
REMARK  0 active torsions:
REMARK  status: ('A' for Active; 'I' for Inactive)
ROOT
ATOM      1  C4' PXY d   1       1.998  -0.922  -0.140  0.00  0.00     0.077 C 
ATOM      2  C1' PXY d   1      -2.933   1.350  -2.123  0.00  0.00     0.077 C 
ATOM      3  C1  PXY d   1      -1.642   0.744  -1.611  0.00  0.00    -0.082 A 
ATOM      4  C2  PXY d   1      -1.195   1.074  -0.410  0.00  0.00     0.003 A 
ATOM      5  C3  PXY d   1      -0.013   0.560   0.055  0.00  0.00     0.003 A 
ATOM      6  C4  PXY d   1       0.694  -0.342  -0.694  0.00  0.00    -0.082 A 
ATOM      7  C5  PXY d   1       0.240  -0.691  -1.917  0.00  0.00     0.003 A 
ATOM      8  C6  PXY d   1      -0.942  -0.127  -2.388  0.00  0.00     0.003 A 
ENDROOT
TORSDOF 0
ENDMDL
