MODEL 1
REMARK minimizedAffinity -2.75974941
REMARK minimizedRMSD -1
REMARK  0 active torsions:
REMARK  status: ('A' for Active; 'I' for Inactive)
ROOT
ATOM      1  C4' PXY d   1       2.916  -0.748  -1.479  0.00  0.00     0.077 C 
ATOM      2  C1' PXY d   1      -1.527  -0.497   2.211  0.00  0.00     0.077 C 
ATOM      3  C1  PXY d   1      -0.353  -0.566   1.253  0.00  0.00    -0.082 A 
ATOM      4  C2  PXY d   1      -0.416   0.071   0.095  0.00  0.00     0.003 A 
ATOM      5  C3  PXY d   1       0.623  -0.006  -0.796  0.00  0.00     0.003 A 
ATOM      6  C4  PXY d   1       1.759  -0.699  -0.477  0.00  0.00    -0.082 A 
ATOM      7  C5  PXY d   1       1.836  -1.343   0.707  0.00  0.00     0.003 A 
ATOM      8  C6  PXY d   1       0.754  -1.286   1.581  0.00  0.00     0.003 A 
ENDROOT
TORSDOF 0
ENDMDL
