MODEL 1
REMARK minimizedAffinity 4.57265663
REMARK minimizedRMSD -1
REMARK  0 active torsions:
REMARK  status: ('A' for Active; 'I' for Inactive)
ROOT
ATOM      1  C4' PXY d   1      -2.419  -0.655  -1.916  0.00  0.00     0.077 C 
ATOM      2  C1' PXY d   1      -0.664   4.829  -2.421  0.00  0.00     0.077 C 
ATOM      3  C1  PXY d   1      -1.134   3.393  -2.297  0.00  0.00    -0.082 A 
ATOM      4  C2  PXY d   1      -0.836   2.699  -1.211  0.00  0.00     0.003 A 
ATOM      5  C3  PXY d   1      -1.226   1.390  -1.096  0.00  0.00     0.003 A 
ATOM      6  C4  PXY d   1      -1.974   0.801  -2.080  0.00  0.00    -0.082 A 
ATOM      7  C5  PXY d   1      -2.291   1.506  -3.187  0.00  0.00     0.003 A 
ATOM      8  C6  PXY d   1      -1.851   2.821  -3.302  0.00  0.00     0.003 A 
ENDROOT
TORSDOF 0
ENDMDL
