MODEL 1
REMARK minimizedAffinity 6.36664486
REMARK minimizedRMSD -1
REMARK  0 active torsions:
REMARK  status: ('A' for Active; 'I' for Inactive)
ROOT
ATOM      1  C4' PXY d   1      -0.340   6.000  -2.998  0.00  0.00     0.077 C 
ATOM      2  C1' PXY d   1      -4.910   2.716  -1.675  0.00  0.00     0.077 C 
ATOM      3  C1  PXY d   1      -3.719   3.588  -2.023  0.00  0.00    -0.082 A 
ATOM      4  C2  PXY d   1      -2.632   3.035  -2.537  0.00  0.00     0.003 A 
ATOM      5  C3  PXY d   1      -1.535   3.804  -2.828  0.00  0.00     0.003 A 
ATOM      6  C4  PXY d   1      -1.569   5.160  -2.640  0.00  0.00    -0.082 A 
ATOM      7  C5  PXY d   1      -2.679   5.732  -2.126  0.00  0.00     0.003 A 
ATOM      8  C6  PXY d   1      -3.767   4.929  -1.799  0.00  0.00     0.003 A 
ENDROOT
TORSDOF 0
ENDMDL
