MODEL 1
REMARK minimizedAffinity 4.21892977
REMARK minimizedRMSD -1
REMARK  0 active torsions:
REMARK  status: ('A' for Active; 'I' for Inactive)
ROOT
ATOM      1  C4' PXY d   1      -2.036  -1.254   0.205  0.00  0.00     0.077 C 
ATOM      2  C1' PXY d   1       3.135   1.251  -0.429  0.00  0.00     0.077 C 
ATOM      3  C1  PXY d   1       1.777   0.595  -0.275  0.00  0.00    -0.082 A 
ATOM      4  C2  PXY d   1       1.137   0.678   0.880  0.00  0.00     0.003 A 
ATOM      5  C3  PXY d   1      -0.077   0.063   1.045  0.00  0.00     0.003 A 
ATOM      6  C4  PXY d   1      -0.667  -0.598   0.002  0.00  0.00    -0.082 A 
ATOM      7  C5  PXY d   1      -0.025  -0.678  -1.183  0.00  0.00     0.003 A 
ATOM      8  C6  PXY d   1       1.226  -0.083  -1.318  0.00  0.00     0.003 A 
ENDROOT
TORSDOF 0
ENDMDL
