MODEL 1
REMARK minimizedAffinity -2.88571191
REMARK minimizedRMSD -1
REMARK  0 active torsions:
REMARK  status: ('A' for Active; 'I' for Inactive)
ROOT
ATOM      1  C4' PXY d   1      -4.224  -5.994  -2.771  0.00  0.00     0.077 C 
ATOM      2  C1' PXY d   1      -3.931  -5.789   2.999  0.00  0.00     0.077 C 
ATOM      3  C1  PXY d   1      -4.019  -5.849   1.486  0.00  0.00    -0.082 A 
ATOM      4  C2  PXY d   1      -2.911  -5.811   0.764  0.00  0.00     0.003 A 
ATOM      5  C3  PXY d   1      -2.974  -5.832  -0.605  0.00  0.00     0.003 A 
ATOM      6  C4  PXY d   1      -4.182  -5.946  -1.241  0.00  0.00    -0.082 A 
ATOM      7  C5  PXY d   1      -5.316  -5.996  -0.511  0.00  0.00     0.003 A 
ATOM      8  C6  PXY d   1      -5.233  -5.932   0.877  0.00  0.00     0.003 A 
ENDROOT
TORSDOF 0
ENDMDL
