MODEL 1
REMARK minimizedAffinity -4.35702944
REMARK minimizedRMSD -1
REMARK  0 active torsions:
REMARK  status: ('A' for Active; 'I' for Inactive)
ROOT
ATOM      1  C4' PXY d   1      -2.205   1.384  -2.244  0.00  0.00     0.077 C 
ATOM      2  C1' PXY d   1       2.301  -0.988   0.491  0.00  0.00     0.077 C 
ATOM      3  C1  PXY d   1       1.115  -0.362  -0.215  0.00  0.00    -0.082 A 
ATOM      4  C2  PXY d   1       0.730  -0.832  -1.390  0.00  0.00     0.003 A 
ATOM      5  C3  PXY d   1      -0.321  -0.257  -2.057  0.00  0.00     0.003 A 
ATOM      6  C4  PXY d   1      -1.018   0.776  -1.491  0.00  0.00    -0.082 A 
ATOM      7  C5  PXY d   1      -0.638   1.255  -0.287  0.00  0.00     0.003 A 
ATOM      8  C6  PXY d   1       0.457   0.684   0.355  0.00  0.00     0.003 A 
ENDROOT
TORSDOF 0
ENDMDL
