MODEL 1
REMARK minimizedAffinity -5.59365034
REMARK minimizedRMSD -1
REMARK  0 active torsions:
REMARK  status: ('A' for Active; 'I' for Inactive)
ROOT
ATOM      1  C4' PXY d   1       2.143  -0.743  -0.000  0.00  0.00     0.077 C 
ATOM      2  C1' PXY d   1      -2.403   1.136  -3.036  0.00  0.00     0.077 C 
ATOM      3  C1  PXY d   1      -1.212   0.632  -2.246  0.00  0.00    -0.082 A 
ATOM      4  C2  PXY d   1      -0.940   1.159  -1.064  0.00  0.00     0.003 A 
ATOM      5  C3  PXY d   1       0.152   0.738  -0.351  0.00  0.00     0.003 A 
ATOM      6  C4  PXY d   1       0.944  -0.272  -0.829  0.00  0.00    -0.082 A 
ATOM      7  C5  PXY d   1       0.667  -0.823  -2.029  0.00  0.00     0.003 A 
ATOM      8  C6  PXY d   1      -0.422  -0.352  -2.756  0.00  0.00     0.003 A 
ENDROOT
TORSDOF 0
ENDMDL
