MODEL 1
REMARK minimizedAffinity -2.38690376
REMARK minimizedRMSD -1
REMARK  0 active torsions:
REMARK  status: ('A' for Active; 'I' for Inactive)
ROOT
ATOM      1  C4' PXY d   1      -1.988   1.493  -2.879  0.00  0.00     0.077 C 
ATOM      2  C1' PXY d   1       2.203  -0.924   0.284  0.00  0.00     0.077 C 
ATOM      3  C1  PXY d   1       1.111  -0.292  -0.556  0.00  0.00    -0.082 A 
ATOM      4  C2  PXY d   1       0.302   0.602  -0.012  0.00  0.00     0.003 A 
ATOM      5  C3  PXY d   1      -0.712   1.159  -0.749  0.00  0.00     0.003 A 
ATOM      6  C4  PXY d   1      -0.865   0.837  -2.071  0.00  0.00    -0.082 A 
ATOM      7  C5  PXY d   1      -0.037  -0.067  -2.636  0.00  0.00     0.003 A 
ATOM      8  C6  PXY d   1       0.959  -0.652  -1.860  0.00  0.00     0.003 A 
ENDROOT
TORSDOF 0
ENDMDL
