MODEL 1
REMARK minimizedAffinity -3.7159493
REMARK minimizedRMSD -1
REMARK  0 active torsions:
REMARK  status: ('A' for Active; 'I' for Inactive)
ROOT
ATOM      1  C4' PXY d   1      -2.411   1.717  -2.522  0.00  0.00     0.077 C 
ATOM      2  C1' PXY d   1       2.158  -0.697   0.068  0.00  0.00     0.077 C 
ATOM      3  C1  PXY d   1       0.956  -0.059  -0.600  0.00  0.00    -0.082 A 
ATOM      4  C2  PXY d   1       0.455  -0.599  -1.698  0.00  0.00     0.003 A 
ATOM      5  C3  PXY d   1      -0.612  -0.017  -2.333  0.00  0.00     0.003 A 
ATOM      6  C4  PXY d   1      -1.205   1.101  -1.808  0.00  0.00    -0.082 A 
ATOM      7  C5  PXY d   1      -0.705   1.652  -0.682  0.00  0.00     0.003 A 
ATOM      8  C6  PXY d   1       0.404   1.069  -0.076  0.00  0.00     0.003 A 
ENDROOT
TORSDOF 0
ENDMDL
