MODEL 1
REMARK minimizedAffinity -3.39861894
REMARK minimizedRMSD -1
REMARK  0 active torsions:
REMARK  status: ('A' for Active; 'I' for Inactive)
ROOT
ATOM      1  C4' PXY d   1      -1.334   1.723  -1.252  0.00  0.00     0.077 C 
ATOM      2  C1' PXY d   1       2.347  -1.920   1.316  0.00  0.00     0.077 C 
ATOM      3  C1  PXY d   1       1.372  -0.967   0.651  0.00  0.00    -0.082 A 
ATOM      4  C2  PXY d   1       1.507  -0.685  -0.634  0.00  0.00     0.003 A 
ATOM      5  C3  PXY d   1       0.654   0.199  -1.243  0.00  0.00     0.003 A 
ATOM      6  C4  PXY d   1      -0.380   0.760  -0.542  0.00  0.00    -0.082 A 
ATOM      7  C5  PXY d   1      -0.530   0.468   0.768  0.00  0.00     0.003 A 
ATOM      8  C6  PXY d   1       0.371  -0.400   1.377  0.00  0.00     0.003 A 
ENDROOT
TORSDOF 0
ENDMDL
