MODEL 1
REMARK minimizedAffinity -1.83843648
REMARK minimizedRMSD -1
REMARK  0 active torsions:
REMARK  status: ('A' for Active; 'I' for Inactive)
ROOT
ATOM      1  C4' PXY d   1      -2.529   2.084  -2.056  0.00  0.00     0.077 C 
ATOM      2  C1' PXY d   1       1.926  -0.981  -0.013  0.00  0.00     0.077 C 
ATOM      3  C1  PXY d   1       0.751  -0.181  -0.539  0.00  0.00    -0.082 A 
ATOM      4  C2  PXY d   1       0.653   0.064  -1.835  0.00  0.00     0.003 A 
ATOM      5  C3  PXY d   1      -0.386   0.813  -2.324  0.00  0.00     0.003 A 
ATOM      6  C4  PXY d   1      -1.364   1.273  -1.482  0.00  0.00    -0.082 A 
ATOM      7  C5  PXY d   1      -1.277   1.018  -0.160  0.00  0.00     0.003 A 
ATOM      8  C6  PXY d   1      -0.193   0.291   0.321  0.00  0.00     0.003 A 
ENDROOT
TORSDOF 0
ENDMDL
