MODEL 1
REMARK minimizedAffinity 7.21453333
REMARK minimizedRMSD -1
REMARK  0 active torsions:
REMARK  status: ('A' for Active; 'I' for Inactive)
ROOT
ATOM      1  C4' PXY d   1      -2.275  -3.091  -1.045  0.00  0.00     0.077 C 
ATOM      2  C1' PXY d   1      -1.829   2.183   1.279  0.00  0.00     0.077 C 
ATOM      3  C1  PXY d   1      -1.935   0.796   0.675  0.00  0.00    -0.082 A 
ATOM      4  C2  PXY d   1      -2.625   0.619  -0.439  0.00  0.00     0.003 A 
ATOM      5  C3  PXY d   1      -2.758  -0.633  -0.981  0.00  0.00     0.003 A 
ATOM      6  C4  PXY d   1      -2.134  -1.707  -0.405  0.00  0.00    -0.082 A 
ATOM      7  C5  PXY d   1      -1.419  -1.533   0.726  0.00  0.00     0.003 A 
ATOM      8  C6  PXY d   1      -1.330  -0.260   1.283  0.00  0.00     0.003 A 
ENDROOT
TORSDOF 0
ENDMDL
