MODEL 1
REMARK minimizedAffinity -6.40908718
REMARK minimizedRMSD -1
REMARK  2 active torsions:
REMARK  status: ('A' for Active; 'I' for Inactive)
REMARK    1  A    between atoms: C1_2  and  C2_3 
REMARK    2  A    between atoms: C2_3  and  C3_4 
ROOT
ATOM      1  C3  UNL d   1      -0.193  -0.083   0.051  0.00  0.00    -0.075 A 
ATOM      2  C4  UNL d   1       0.560  -0.947  -0.757  0.00  0.00     0.002 A 
ATOM      3  C5  UNL d   1       0.362  -2.326  -0.696  0.00  0.00     0.002 A 
ATOM      4  C6  UNL d   1      -0.583  -2.859   0.177  0.00  0.00    -0.004 A 
ATOM      5  C7  UNL d   1      -1.326  -2.012   0.997  0.00  0.00     0.002 A 
ATOM      6  C8  UNL d   1      -1.132  -0.631   0.935  0.00  0.00     0.002 A 
ENDROOT
BRANCH   1   7
ATOM      7  C2  UNL d   1      -0.004   1.413  -0.031  0.00  0.00     0.056 C 
BRANCH   7   8
ATOM      8  C1  UNL d   1       1.433   1.844  -0.341  0.00  0.00     0.007 C 
ATOM      9  C   UNL d   1       1.935   2.959   0.567  0.00  0.00     0.009 C 
ENDBRANCH   7   8
ENDBRANCH   1   7
TORSDOF 2
ENDMDL
