MODEL 1
REMARK minimizedAffinity -3.55013084
REMARK minimizedRMSD -1
REMARK  2 active torsions:
REMARK  status: ('A' for Active; 'I' for Inactive)
REMARK    1  A    between atoms: C1_2  and  C2_3 
REMARK    2  A    between atoms: C2_3  and  C3_4 
ROOT
ATOM      1  C3  UNL d   1      -0.154  -0.785  -0.905  0.00  0.00    -0.075 A 
ATOM      2  C4  UNL d   1      -0.500  -2.141  -0.991  0.00  0.00     0.002 A 
ATOM      3  C5  UNL d   1      -0.339  -2.838  -2.189  0.00  0.00     0.002 A 
ATOM      4  C6  UNL d   1       0.158  -2.187  -3.316  0.00  0.00    -0.004 A 
ATOM      5  C7  UNL d   1       0.488  -0.836  -3.246  0.00  0.00     0.002 A 
ATOM      6  C8  UNL d   1       0.333  -0.137  -2.048  0.00  0.00     0.002 A 
ENDROOT
BRANCH   1   7
ATOM      7  C2  UNL d   1      -0.298  -0.032   0.396  0.00  0.00     0.056 C 
BRANCH   7   8
ATOM      8  C1  UNL d   1      -0.260  -0.925   1.641  0.00  0.00     0.007 C 
ATOM      9  C   UNL d   1      -1.644  -1.315   2.142  0.00  0.00     0.009 C 
ENDBRANCH   7   8
ENDBRANCH   1   7
TORSDOF 2
ENDMDL
