MODEL 1
REMARK minimizedAffinity -4.61118126
REMARK minimizedRMSD -1
REMARK  2 active torsions:
REMARK  status: ('A' for Active; 'I' for Inactive)
REMARK    1  A    between atoms: C1_2  and  C2_3 
REMARK    2  A    between atoms: C2_3  and  C3_4 
ROOT
ATOM      1  C3  UNL d   1      -0.340  -0.377  -0.210  0.00  0.00    -0.075 A 
ATOM      2  C4  UNL d   1      -0.846  -0.529   1.089  0.00  0.00     0.002 A 
ATOM      3  C5  UNL d   1      -1.302  -1.771   1.531  0.00  0.00     0.002 A 
ATOM      4  C6  UNL d   1      -1.268  -2.873   0.679  0.00  0.00    -0.004 A 
ATOM      5  C7  UNL d   1      -0.783  -2.730  -0.619  0.00  0.00     0.002 A 
ATOM      6  C8  UNL d   1      -0.322  -1.489  -1.063  0.00  0.00     0.002 A 
ENDROOT
BRANCH   1   7
ATOM      7  C2  UNL d   1       0.183   0.957  -0.685  0.00  0.00     0.056 C 
BRANCH   7   8
ATOM      8  C1  UNL d   1       0.052   2.081   0.348  0.00  0.00     0.007 C 
ATOM      9  C   UNL d   1       1.219   3.060   0.320  0.00  0.00     0.009 C 
ENDBRANCH   7   8
ENDBRANCH   1   7
TORSDOF 2
ENDMDL
