MODEL 1
REMARK minimizedAffinity -5.30296516
REMARK minimizedRMSD -1
REMARK  2 active torsions:
REMARK  status: ('A' for Active; 'I' for Inactive)
REMARK    1  A    between atoms: C1_2  and  C2_3 
REMARK    2  A    between atoms: C2_3  and  C3_4 
ROOT
ATOM      1  C3  UNL d   1      -0.222  -0.359   0.229  0.00  0.00    -0.075 A 
ATOM      2  C4  UNL d   1       0.704  -1.138  -0.479  0.00  0.00     0.002 A 
ATOM      3  C5  UNL d   1       0.656  -2.531  -0.410  0.00  0.00     0.002 A 
ATOM      4  C6  UNL d   1      -0.309  -3.161   0.373  0.00  0.00    -0.004 A 
ATOM      5  C7  UNL d   1      -1.224  -2.396   1.093  0.00  0.00     0.002 A 
ATOM      6  C8  UNL d   1      -1.181  -1.002   1.023  0.00  0.00     0.002 A 
ENDROOT
BRANCH   1   7
ATOM      7  C2  UNL d   1      -0.194   1.148   0.136  0.00  0.00     0.056 C 
BRANCH   7   8
ATOM      8  C1  UNL d   1       1.106   1.781   0.642  0.00  0.00     0.007 C 
ATOM      9  C   UNL d   1       1.289   3.223   0.189  0.00  0.00     0.009 C 
ENDBRANCH   7   8
ENDBRANCH   1   7
TORSDOF 2
ENDMDL
