MODEL 1
REMARK minimizedAffinity -5.51938868
REMARK minimizedRMSD -1
REMARK  2 active torsions:
REMARK  status: ('A' for Active; 'I' for Inactive)
REMARK    1  A    between atoms: C1_2  and  C2_3 
REMARK    2  A    between atoms: C2_3  and  C3_4 
ROOT
ATOM      1  C3  UNL d   1      -0.199   0.479  -0.171  0.00  0.00    -0.075 A 
ATOM      2  C4  UNL d   1       0.090  -0.781  -0.717  0.00  0.00     0.002 A 
ATOM      3  C5  UNL d   1      -0.503  -1.931  -0.196  0.00  0.00     0.002 A 
ATOM      4  C6  UNL d   1      -1.382  -1.839   0.881  0.00  0.00    -0.004 A 
ATOM      5  C7  UNL d   1      -1.663  -0.595   1.441  0.00  0.00     0.002 A 
ATOM      6  C8  UNL d   1      -1.075   0.558   0.920  0.00  0.00     0.002 A 
ENDROOT
BRANCH   1   7
ATOM      7  C2  UNL d   1       0.417   1.731  -0.749  0.00  0.00     0.056 C 
BRANCH   7   8
ATOM      8  C1  UNL d   1       0.392   2.933   0.201  0.00  0.00     0.007 C 
ATOM      9  C   UNL d   1       1.657   3.778   0.134  0.00  0.00     0.009 C 
ENDBRANCH   7   8
ENDBRANCH   1   7
TORSDOF 2
ENDMDL
