MODEL 1
REMARK minimizedAffinity -3.74443769
REMARK minimizedRMSD -1
REMARK  2 active torsions:
REMARK  status: ('A' for Active; 'I' for Inactive)
REMARK    1  A    between atoms: C1_2  and  C2_3 
REMARK    2  A    between atoms: C2_3  and  C3_4 
ROOT
ATOM      1  C3  UNL d   1      -0.537  -0.021  -0.165  0.00  0.00    -0.075 A 
ATOM      2  C4  UNL d   1      -1.252  -0.461   0.958  0.00  0.00     0.002 A 
ATOM      3  C5  UNL d   1      -1.481  -1.822   1.164  0.00  0.00     0.002 A 
ATOM      4  C6  UNL d   1      -1.009  -2.757   0.246  0.00  0.00    -0.004 A 
ATOM      5  C7  UNL d   1      -0.312  -2.330  -0.883  0.00  0.00     0.002 A 
ATOM      6  C8  UNL d   1      -0.077  -0.970  -1.089  0.00  0.00     0.002 A 
ENDROOT
BRANCH   1   7
ATOM      7  C2  UNL d   1      -0.260   1.448  -0.378  0.00  0.00     0.056 C 
BRANCH   7   8
ATOM      8  C1  UNL d   1       1.058   1.930   0.235  0.00  0.00     0.007 C 
ATOM      9  C   UNL d   1       1.061   3.417   0.563  0.00  0.00     0.009 C 
ENDBRANCH   7   8
ENDBRANCH   1   7
TORSDOF 2
ENDMDL
