MODEL 1
REMARK minimizedAffinity -5.79730701
REMARK minimizedRMSD -1
REMARK  2 active torsions:
REMARK  status: ('A' for Active; 'I' for Inactive)
REMARK    1  A    between atoms: C1_2  and  C2_3 
REMARK    2  A    between atoms: C2_3  and  C3_4 
ROOT
ATOM      1  C3  UNL d   1       0.149  -0.853  -0.165  0.00  0.00    -0.075 A 
ATOM      2  C4  UNL d   1       0.358  -0.705  -1.544  0.00  0.00     0.002 A 
ATOM      3  C5  UNL d   1       0.312  -1.813  -2.390  0.00  0.00     0.002 A 
ATOM      4  C6  UNL d   1       0.066  -3.081  -1.870  0.00  0.00    -0.004 A 
ATOM      5  C7  UNL d   1      -0.127  -3.243  -0.500  0.00  0.00     0.002 A 
ATOM      6  C8  UNL d   1      -0.085  -2.135   0.349  0.00  0.00     0.002 A 
ENDROOT
BRANCH   1   7
ATOM      7  C2  UNL d   1       0.169   0.346   0.753  0.00  0.00     0.056 C 
BRANCH   7   8
ATOM      8  C1  UNL d   1       0.108   1.692   0.023  0.00  0.00     0.007 C 
ATOM      9  C   UNL d   1       0.917   2.784   0.709  0.00  0.00     0.009 C 
ENDBRANCH   7   8
ENDBRANCH   1   7
TORSDOF 2
ENDMDL
