MODEL 1
REMARK minimizedAffinity -5.1104207
REMARK minimizedRMSD -1
REMARK  2 active torsions:
REMARK  status: ('A' for Active; 'I' for Inactive)
REMARK    1  A    between atoms: C1_2  and  C2_3 
REMARK    2  A    between atoms: C2_3  and  C3_4 
ROOT
ATOM      1  C3  UNL d   1      -0.007  -1.688  -0.037  0.00  0.00    -0.075 A 
ATOM      2  C4  UNL d   1      -0.932  -2.533   0.592  0.00  0.00     0.002 A 
ATOM      3  C5  UNL d   1      -1.848  -2.021   1.512  0.00  0.00     0.002 A 
ATOM      4  C6  UNL d   1      -1.844  -0.663   1.821  0.00  0.00    -0.004 A 
ATOM      5  C7  UNL d   1      -0.918   0.183   1.214  0.00  0.00     0.002 A 
ATOM      6  C8  UNL d   1      -0.003  -0.326   0.290  0.00  0.00     0.002 A 
ENDROOT
BRANCH   1   7
ATOM      7  C2  UNL d   1       0.968  -2.231  -1.055  0.00  0.00     0.056 C 
BRANCH   7   8
ATOM      8  C1  UNL d   1       0.635  -1.851  -2.502  0.00  0.00     0.007 C 
ATOM      9  C   UNL d   1       1.674  -2.335  -3.504  0.00  0.00     0.009 C 
ENDBRANCH   7   8
ENDBRANCH   1   7
TORSDOF 2
ENDMDL
