MODEL 1
REMARK minimizedAffinity -5.17840862
REMARK minimizedRMSD -1
REMARK  2 active torsions:
REMARK  status: ('A' for Active; 'I' for Inactive)
REMARK    1  A    between atoms: C1_2  and  C2_3 
REMARK    2  A    between atoms: C2_3  and  C3_4 
ROOT
ATOM      1  C3  UNL d   1       0.582   1.051   0.485  0.00  0.00    -0.075 A 
ATOM      2  C4  UNL d   1       1.714   0.595   1.176  0.00  0.00     0.002 A 
ATOM      3  C5  UNL d   1       2.740   1.478   1.516  0.00  0.00     0.002 A 
ATOM      4  C6  UNL d   1       2.652   2.822   1.161  0.00  0.00    -0.004 A 
ATOM      5  C7  UNL d   1       1.540   3.283   0.461  0.00  0.00     0.002 A 
ATOM      6  C8  UNL d   1       0.510   2.403   0.123  0.00  0.00     0.002 A 
ENDROOT
BRANCH   1   7
ATOM      7  C2  UNL d   1      -0.545   0.107   0.140  0.00  0.00     0.056 C 
BRANCH   7   8
ATOM      8  C1  UNL d   1      -1.271  -0.469   1.360  0.00  0.00     0.007 C 
ATOM      9  C   UNL d   1      -1.447  -1.981   1.295  0.00  0.00     0.009 C 
ENDBRANCH   7   8
ENDBRANCH   1   7
TORSDOF 2
ENDMDL
