MODEL 1
REMARK minimizedAffinity -1.67394483
REMARK minimizedRMSD -1
REMARK  2 active torsions:
REMARK  status: ('A' for Active; 'I' for Inactive)
REMARK    1  A    between atoms: C1_2  and  C2_3 
REMARK    2  A    between atoms: C2_3  and  C3_4 
ROOT
ATOM      1  C3  UNL d   1      -0.896  -2.344  -0.156  0.00  0.00    -0.075 A 
ATOM      2  C4  UNL d   1      -0.183  -1.167  -0.424  0.00  0.00     0.002 A 
ATOM      3  C5  UNL d   1      -0.179  -0.117   0.496  0.00  0.00     0.002 A 
ATOM      4  C6  UNL d   1      -0.893  -0.227   1.686  0.00  0.00    -0.004 A 
ATOM      5  C7  UNL d   1      -1.619  -1.386   1.955  0.00  0.00     0.002 A 
ATOM      6  C8  UNL d   1      -1.621  -2.439   1.039  0.00  0.00     0.002 A 
ENDROOT
BRANCH   1   7
ATOM      7  C2  UNL d   1      -0.881  -3.495  -1.133  0.00  0.00     0.056 C 
BRANCH   7   8
ATOM      8  C1  UNL d   1      -0.805  -3.066  -2.602  0.00  0.00     0.007 C 
ATOM      9  C   UNL d   1      -2.063  -3.401  -3.392  0.00  0.00     0.009 C 
ENDBRANCH   7   8
ENDBRANCH   1   7
TORSDOF 2
ENDMDL
