MODEL 1
REMARK minimizedAffinity -3.68828559
REMARK minimizedRMSD -1
REMARK  2 active torsions:
REMARK  status: ('A' for Active; 'I' for Inactive)
REMARK    1  A    between atoms: C1_2  and  C2_3 
REMARK    2  A    between atoms: C2_3  and  C3_4 
ROOT
ATOM      1  C3  UNL d   1      -0.349   0.177   0.162  0.00  0.00    -0.075 A 
ATOM      2  C4  UNL d   1      -1.432  -0.164   0.985  0.00  0.00     0.002 A 
ATOM      3  C5  UNL d   1      -1.805  -1.499   1.147  0.00  0.00     0.002 A 
ATOM      4  C6  UNL d   1      -1.110  -2.506   0.481  0.00  0.00    -0.004 A 
ATOM      5  C7  UNL d   1      -0.043  -2.177  -0.353  0.00  0.00     0.002 A 
ATOM      6  C8  UNL d   1       0.336  -0.843  -0.513  0.00  0.00     0.002 A 
ENDROOT
BRANCH   1   7
ATOM      7  C2  UNL d   1       0.080   1.617   0.006  0.00  0.00     0.056 C 
BRANCH   7   8
ATOM      8  C1  UNL d   1       1.594   1.831   0.103  0.00  0.00     0.007 C 
ATOM      9  C   UNL d   1       1.972   3.168   0.726  0.00  0.00     0.009 C 
ENDBRANCH   7   8
ENDBRANCH   1   7
TORSDOF 2
ENDMDL
