MODEL 1
REMARK minimizedAffinity 1.50901437
REMARK minimizedRMSD -1
REMARK  0 active torsions:
REMARK  status: ('A' for Active; 'I' for Inactive)
ROOT
ATOM      1  C   UNL d   1      -2.549   0.252  -1.580  0.00  0.00     0.077 C 
ATOM      2  C1  UNL d   1      -2.061   0.222  -0.162  0.00  0.00    -0.074 A 
ATOM      3  C2  UNL d   1      -1.254   1.247   0.342  0.00  0.00    -0.005 A 
ATOM      4  C3  UNL d   1      -0.815   1.210   1.666  0.00  0.00     0.006 A 
ATOM      5  C4  UNL d   1      -1.178   0.150   2.497  0.00  0.00    -0.005 A 
ATOM      6  C5  UNL d   1      -1.984  -0.884   2.011  0.00  0.00    -0.074 A 
ATOM      7  C6  UNL d   1      -2.391  -2.026   2.893  0.00  0.00     0.077 C 
ATOM      8  C7  UNL d   1      -2.427  -0.836   0.682  0.00  0.00    -0.001 A 
ENDROOT
TORSDOF 0
ENDMDL
