MODEL 1
REMARK minimizedAffinity 5.4197588
REMARK minimizedRMSD -1
REMARK  0 active torsions:
REMARK  status: ('A' for Active; 'I' for Inactive)
ROOT
ATOM      1  C   UNL d   1       2.763  -2.147   5.343  0.00  0.00     0.077 C 
ATOM      2  C1  UNL d   1       1.633  -1.766   4.434  0.00  0.00    -0.074 A 
ATOM      3  C2  UNL d   1       0.313  -2.103   4.748  0.00  0.00    -0.005 A 
ATOM      4  C3  UNL d   1      -0.729  -1.733   3.898  0.00  0.00     0.006 A 
ATOM      5  C4  UNL d   1      -0.462  -1.025   2.726  0.00  0.00    -0.005 A 
ATOM      6  C5  UNL d   1       0.852  -0.678   2.395  0.00  0.00    -0.074 A 
ATOM      7  C6  UNL d   1       1.156   0.092   1.144  0.00  0.00     0.077 C 
ATOM      8  C7  UNL d   1       1.893  -1.047   3.258  0.00  0.00    -0.001 A 
ENDROOT
TORSDOF 0
ENDMDL
