MODEL 1
REMARK minimizedAffinity -2.21458673
REMARK minimizedRMSD -1
REMARK  0 active torsions:
REMARK  status: ('A' for Active; 'I' for Inactive)
ROOT
ATOM      1  C   UNL d   1      -0.679   0.287   1.113  0.00  0.00     0.077 C 
ATOM      2  C1  UNL d   1      -0.729  -0.608   2.316  0.00  0.00    -0.074 A 
ATOM      3  C2  UNL d   1      -1.929  -1.199   2.723  0.00  0.00    -0.005 A 
ATOM      4  C3  UNL d   1      -1.958  -2.036   3.838  0.00  0.00     0.006 A 
ATOM      5  C4  UNL d   1      -0.789  -2.290   4.556  0.00  0.00    -0.005 A 
ATOM      6  C5  UNL d   1       0.420  -1.708   4.164  0.00  0.00    -0.074 A 
ATOM      7  C6  UNL d   1       1.688  -1.979   4.919  0.00  0.00     0.077 C 
ATOM      8  C7  UNL d   1       0.443  -0.874   3.038  0.00  0.00    -0.001 A 
ENDROOT
TORSDOF 0
ENDMDL
