MODEL 1
REMARK minimizedAffinity -1.00379908
REMARK minimizedRMSD -1
REMARK  0 active torsions:
REMARK  status: ('A' for Active; 'I' for Inactive)
ROOT
ATOM      1  C   UNL d   1       3.502  -3.733  -4.500  0.00  0.00     0.077 C 
ATOM      2  C1  UNL d   1       2.274  -4.527  -4.167  0.00  0.00    -0.074 A 
ATOM      3  C2  UNL d   1       1.996  -4.903  -2.849  0.00  0.00    -0.005 A 
ATOM      4  C3  UNL d   1       0.845  -5.633  -2.553  0.00  0.00     0.006 A 
ATOM      5  C4  UNL d   1      -0.039  -5.994  -3.571  0.00  0.00    -0.005 A 
ATOM      6  C5  UNL d   1       0.222  -5.626  -4.895  0.00  0.00    -0.074 A 
ATOM      7  C6  UNL d   1      -0.722  -5.998  -6.000  0.00  0.00     0.077 C 
ATOM      8  C7  UNL d   1       1.378  -4.887  -5.183  0.00  0.00    -0.001 A 
ENDROOT
TORSDOF 0
ENDMDL
