MODEL 1
REMARK minimizedAffinity -1.72344875
REMARK minimizedRMSD -1
REMARK  0 active torsions:
REMARK  status: ('A' for Active; 'I' for Inactive)
ROOT
ATOM      1  C   UNL d   1       1.696  -1.860   4.874  0.00  0.00     0.077 C 
ATOM      2  C1  UNL d   1       0.767  -1.358   3.809  0.00  0.00    -0.074 A 
ATOM      3  C2  UNL d   1       1.258  -0.693   2.681  0.00  0.00    -0.005 A 
ATOM      4  C3  UNL d   1       0.383  -0.240   1.694  0.00  0.00     0.006 A 
ATOM      5  C4  UNL d   1      -0.991  -0.448   1.825  0.00  0.00    -0.005 A 
ATOM      6  C5  UNL d   1      -1.501  -1.112   2.945  0.00  0.00    -0.074 A 
ATOM      7  C6  UNL d   1      -2.974  -1.352   3.096  0.00  0.00     0.077 C 
ATOM      8  C7  UNL d   1      -0.614  -1.570   3.929  0.00  0.00    -0.001 A 
ENDROOT
TORSDOF 0
ENDMDL
