MODEL 1
REMARK minimizedAffinity -4.45881462
REMARK minimizedRMSD -1
REMARK  0 active torsions:
REMARK  status: ('A' for Active; 'I' for Inactive)
ROOT
ATOM      1  C   UNL d   1      -3.029  -1.130   3.023  0.00  0.00     0.077 C 
ATOM      2  C1  UNL d   1      -1.569  -1.019   2.696  0.00  0.00    -0.074 A 
ATOM      3  C2  UNL d   1      -1.146  -0.569   1.441  0.00  0.00    -0.005 A 
ATOM      4  C3  UNL d   1       0.214  -0.462   1.154  0.00  0.00     0.006 A 
ATOM      5  C4  UNL d   1       1.164  -0.803   2.118  0.00  0.00    -0.005 A 
ATOM      6  C5  UNL d   1       0.760  -1.254   3.378  0.00  0.00    -0.074 A 
ATOM      7  C6  UNL d   1       1.768  -1.616   4.429  0.00  0.00     0.077 C 
ATOM      8  C7  UNL d   1      -0.609  -1.352   3.661  0.00  0.00    -0.001 A 
ENDROOT
TORSDOF 0
ENDMDL
