MODEL 1
REMARK minimizedAffinity 0.82543838
REMARK minimizedRMSD -1
REMARK  0 active torsions:
REMARK  status: ('A' for Active; 'I' for Inactive)
ROOT
ATOM      1  C   UNL d   1      -1.293  -5.585  -6.000  0.00  0.00     0.077 C 
ATOM      2  C1  UNL d   1       0.007  -5.557  -5.252  0.00  0.00    -0.074 A 
ATOM      3  C2  UNL d   1       0.084  -5.999  -3.927  0.00  0.00    -0.005 A 
ATOM      4  C3  UNL d   1       1.302  -5.976  -3.247  0.00  0.00     0.006 A 
ATOM      5  C4  UNL d   1       2.453  -5.510  -3.884  0.00  0.00    -0.005 A 
ATOM      6  C5  UNL d   1       2.395  -5.064  -5.208  0.00  0.00    -0.074 A 
ATOM      7  C6  UNL d   1       3.625  -4.569  -5.910  0.00  0.00     0.077 C 
ATOM      8  C7  UNL d   1       1.170  -5.097  -5.887  0.00  0.00    -0.001 A 
ENDROOT
TORSDOF 0
ENDMDL
