MODEL 1
REMARK minimizedAffinity 0.86096096
REMARK minimizedRMSD -1
REMARK  0 active torsions:
REMARK  status: ('A' for Active; 'I' for Inactive)
ROOT
ATOM      1  C   UNL d   1      -0.510  -5.920  -5.998  0.00  0.00     0.077 C 
ATOM      2  C1  UNL d   1       0.265  -5.544  -4.771  0.00  0.00    -0.074 A 
ATOM      3  C2  UNL d   1      -0.127  -5.996  -3.507  0.00  0.00    -0.005 A 
ATOM      4  C3  UNL d   1       0.609  -5.645  -2.375  0.00  0.00     0.006 A 
ATOM      5  C4  UNL d   1       1.742  -4.840  -2.496  0.00  0.00    -0.005 A 
ATOM      6  C5  UNL d   1       2.150  -4.379  -3.752  0.00  0.00    -0.074 A 
ATOM      7  C6  UNL d   1       3.371  -3.521  -3.900  0.00  0.00     0.077 C 
ATOM      8  C7  UNL d   1       1.409  -4.742  -4.885  0.00  0.00    -0.001 A 
ENDROOT
TORSDOF 0
ENDMDL
