MODEL 1
REMARK minimizedAffinity 7.17744637
REMARK minimizedRMSD -1
REMARK  0 active torsions:
REMARK  status: ('A' for Active; 'I' for Inactive)
ROOT
ATOM      1  C   UNL d   1       1.826  -1.448   5.579  0.00  0.00     0.077 C 
ATOM      2  C1  UNL d   1       1.657  -1.134   4.122  0.00  0.00    -0.074 A 
ATOM      3  C2  UNL d   1       2.621  -1.520   3.186  0.00  0.00    -0.005 A 
ATOM      4  C3  UNL d   1       2.445  -1.229   1.834  0.00  0.00     0.006 A 
ATOM      5  C4  UNL d   1       1.305  -0.550   1.404  0.00  0.00    -0.005 A 
ATOM      6  C5  UNL d   1       0.329  -0.156   2.325  0.00  0.00    -0.074 A 
ATOM      7  C6  UNL d   1      -0.908   0.566   1.878  0.00  0.00     0.077 C 
ATOM      8  C7  UNL d   1       0.510  -0.458   3.682  0.00  0.00    -0.001 A 
ENDROOT
TORSDOF 0
ENDMDL
