MODEL 1
REMARK minimizedAffinity 1.95599902
REMARK minimizedRMSD -1
REMARK  0 active torsions:
REMARK  status: ('A' for Active; 'I' for Inactive)
ROOT
ATOM      1  C   UNL d   1       1.431  -2.349   4.496  0.00  0.00     0.077 C 
ATOM      2  C1  UNL d   1       0.986  -1.501   3.342  0.00  0.00    -0.074 A 
ATOM      3  C2  UNL d   1      -0.335  -1.546   2.885  0.00  0.00    -0.005 A 
ATOM      4  C3  UNL d   1      -0.737  -0.744   1.816  0.00  0.00     0.006 A 
ATOM      5  C4  UNL d   1       0.176   0.108   1.195  0.00  0.00    -0.005 A 
ATOM      6  C5  UNL d   1       1.501   0.167   1.639  0.00  0.00    -0.074 A 
ATOM      7  C6  UNL d   1       2.493   1.085   0.988  0.00  0.00     0.077 C 
ATOM      8  C7  UNL d   1       1.896  -0.636   2.718  0.00  0.00    -0.001 A 
ENDROOT
TORSDOF 0
ENDMDL
