MODEL 1
REMARK minimizedAffinity 0.717748165
REMARK minimizedRMSD -1
REMARK  0 active torsions:
REMARK  status: ('A' for Active; 'I' for Inactive)
ROOT
ATOM      1  C   UNL d   1       0.538  -0.020   1.408  0.00  0.00     0.077 C 
ATOM      2  C1  UNL d   1       0.338  -0.977   2.546  0.00  0.00    -0.074 A 
ATOM      3  C2  UNL d   1      -0.868  -1.669   2.700  0.00  0.00    -0.005 A 
ATOM      4  C3  UNL d   1      -1.035  -2.564   3.757  0.00  0.00     0.006 A 
ATOM      5  C4  UNL d   1      -0.001  -2.775   4.669  0.00  0.00    -0.005 A 
ATOM      6  C5  UNL d   1       1.212  -2.093   4.530  0.00  0.00    -0.074 A 
ATOM      7  C6  UNL d   1       2.338  -2.316   5.496  0.00  0.00     0.077 C 
ATOM      8  C7  UNL d   1       1.376  -1.201   3.462  0.00  0.00    -0.001 A 
ENDROOT
TORSDOF 0
ENDMDL
