MODEL 1
REMARK minimizedAffinity 5.18502331
REMARK minimizedRMSD -1
REMARK  3 active torsions:
REMARK  status: ('A' for Active; 'I' for Inactive)
REMARK    1  A    between atoms: C3'_2  and  C2'_3 
REMARK    2  A    between atoms: C2'_3  and  C1'_4 
REMARK    3  A    between atoms: C1'_4  and  C1_5 
ROOT
ATOM      1  C1  N4B d   1       0.066   3.469   1.053  0.00  0.00    -0.075 A 
ATOM      2  C2  N4B d   1      -0.876   2.786   1.853  0.00  0.00     0.002 A 
ATOM      3  C3  N4B d   1      -0.476   2.179   3.018  0.00  0.00     0.002 A 
ATOM      4  C4  N4B d   1       0.859   2.225   3.392  0.00  0.00    -0.004 A 
ATOM      5  C5  N4B d   1       1.758   2.909   2.626  0.00  0.00     0.002 A 
ATOM      6  C6  N4B d   1       1.368   3.527   1.455  0.00  0.00     0.002 A 
ENDROOT
BRANCH   1   7
ATOM      7  C1' N4B d   1      -0.309   4.075  -0.272  0.00  0.00     0.057 C 
BRANCH   7   8
ATOM      8  C2' N4B d   1      -0.424   2.967  -1.314  0.00  0.00     0.009 C 
BRANCH   8   9
ATOM      9  C3' N4B d   1      -0.938   1.671  -0.711  0.00  0.00     0.004 C 
ATOM     10  C4' N4B d   1      -0.193   0.466  -1.204  0.00  0.00     0.003 C 
ENDBRANCH   8   9
ENDBRANCH   7   8
ENDBRANCH   1   7
TORSDOF 3
ENDMDL
