MODEL 1
REMARK minimizedAffinity 4.14516735
REMARK minimizedRMSD -1
REMARK  3 active torsions:
REMARK  status: ('A' for Active; 'I' for Inactive)
REMARK    1  A    between atoms: C3'_2  and  C2'_3 
REMARK    2  A    between atoms: C2'_3  and  C1'_4 
REMARK    3  A    between atoms: C1'_4  and  C1_5 
ROOT
ATOM      1  C1  N4B d   1      -0.703   1.171  -0.811  0.00  0.00    -0.075 A 
ATOM      2  C2  N4B d   1      -2.101   1.013  -0.687  0.00  0.00     0.002 A 
ATOM      3  C3  N4B d   1      -2.683  -0.199  -0.967  0.00  0.00     0.002 A 
ATOM      4  C4  N4B d   1      -1.894  -1.257  -1.389  0.00  0.00    -0.004 A 
ATOM      5  C5  N4B d   1      -0.541  -1.104  -1.483  0.00  0.00     0.002 A 
ATOM      6  C6  N4B d   1       0.058   0.107  -1.200  0.00  0.00     0.002 A 
ENDROOT
BRANCH   1   7
ATOM      7  C1' N4B d   1      -0.032   2.500  -0.599  0.00  0.00     0.057 C 
BRANCH   7   8
ATOM      8  C2' N4B d   1      -0.817   3.298   0.438  0.00  0.00     0.009 C 
BRANCH   8   9
ATOM      9  C3' N4B d   1      -1.069   4.726  -0.015  0.00  0.00     0.004 C 
ATOM     10  C4' N4B d   1      -0.715   4.949  -1.456  0.00  0.00     0.003 C 
ENDBRANCH   8   9
ENDBRANCH   7   8
ENDBRANCH   1   7
TORSDOF 3
ENDMDL
