MODEL 1
REMARK minimizedAffinity 0.00706312014
REMARK minimizedRMSD -1
REMARK  3 active torsions:
REMARK  status: ('A' for Active; 'I' for Inactive)
REMARK    1  A    between atoms: C3'_2  and  C2'_3 
REMARK    2  A    between atoms: C2'_3  and  C1'_4 
REMARK    3  A    between atoms: C1'_4  and  C1_5 
ROOT
ATOM      1  C1  N4B d   1       0.683   2.391   1.287  0.00  0.00    -0.075 A 
ATOM      2  C2  N4B d   1      -0.312   1.957   0.384  0.00  0.00     0.002 A 
ATOM      3  C3  N4B d   1      -0.697   2.768  -0.655  0.00  0.00     0.002 A 
ATOM      4  C4  N4B d   1      -0.118   4.020  -0.799  0.00  0.00    -0.004 A 
ATOM      5  C5  N4B d   1       0.861   4.421   0.063  0.00  0.00     0.002 A 
ATOM      6  C6  N4B d   1       1.261   3.614   1.109  0.00  0.00     0.002 A 
ENDROOT
BRANCH   1   7
ATOM      7  C1' N4B d   1       1.077   1.575   2.488  0.00  0.00     0.057 C 
BRANCH   7   8
ATOM      8  C2' N4B d   1       0.006   1.721   3.565  0.00  0.00     0.009 C 
BRANCH   8   9
ATOM      9  C3' N4B d   1       0.050   0.581   4.568  0.00  0.00     0.004 C 
ATOM     10  C4' N4B d   1       0.988  -0.516   4.161  0.00  0.00     0.003 C 
ENDBRANCH   8   9
ENDBRANCH   7   8
ENDBRANCH   1   7
TORSDOF 3
ENDMDL
