MODEL 1
REMARK minimizedAffinity 1.89804864
REMARK minimizedRMSD -1
REMARK  0 active torsions:
REMARK  status: ('A' for Active; 'I' for Inactive)
ROOT
ATOM      1  C   UNL d   1      -4.663   3.933  -5.996  0.00  0.00     0.020 A 
ATOM      2  C1  UNL d   1      -3.275   4.060  -5.997  0.00  0.00     0.020 A 
ATOM      3  C2  UNL d   1      -2.469   2.920  -5.998  0.00  0.00     0.034 A 
ATOM      4  C3  UNL d   1      -3.051   1.647  -5.998  0.00  0.00     0.017 A 
ATOM      5  C4  UNL d   1      -4.445   1.520  -5.998  0.00  0.00     0.017 A 
ATOM      6  C5  UNL d   1      -5.247   2.665  -5.997  0.00  0.00     0.034 A 
ATOM      7 Cl   UNL d   1      -5.235  -0.017  -5.998  0.00  0.00    -0.070 Cl
ATOM      8 Cl1  UNL d   1      -1.993   0.280  -5.999  0.00  0.00    -0.070 Cl
ENDROOT
TORSDOF 0
ENDMDL
