MODEL 1
REMARK minimizedAffinity -1.01781702
REMARK minimizedRMSD -1
REMARK  0 active torsions:
REMARK  status: ('A' for Active; 'I' for Inactive)
ROOT
ATOM      1  C   UNL d   1      -2.531   0.474  -5.971  0.00  0.00     0.020 A 
ATOM      2  C1  UNL d   1      -3.877   0.113  -5.973  0.00  0.00     0.020 A 
ATOM      3  C2  UNL d   1      -4.865   1.100  -5.982  0.00  0.00     0.034 A 
ATOM      4  C3  UNL d   1      -4.507   2.453  -5.989  0.00  0.00     0.017 A 
ATOM      5  C4  UNL d   1      -3.155   2.815  -5.987  0.00  0.00     0.017 A 
ATOM      6  C5  UNL d   1      -2.170   1.822  -5.978  0.00  0.00     0.034 A 
ATOM      7 Cl   UNL d   1      -2.636   4.463  -5.995  0.00  0.00    -0.070 Cl
ATOM      8 Cl1  UNL d   1      -5.781   3.621  -6.000  0.00  0.00    -0.070 Cl
ENDROOT
TORSDOF 0
ENDMDL
