MODEL 1
REMARK minimizedAffinity -0.633985162
REMARK minimizedRMSD -1
REMARK  0 active torsions:
REMARK  status: ('A' for Active; 'I' for Inactive)
ROOT
ATOM      1  C   UNL d   1      -2.672   0.506  -5.981  0.00  0.00     0.020 A 
ATOM      2  C1  UNL d   1      -4.010   0.113  -5.992  0.00  0.00     0.020 A 
ATOM      3  C2  UNL d   1      -5.020   1.077  -5.997  0.00  0.00     0.034 A 
ATOM      4  C3  UNL d   1      -4.695   2.438  -5.992  0.00  0.00     0.017 A 
ATOM      5  C4  UNL d   1      -3.351   2.831  -5.981  0.00  0.00     0.017 A 
ATOM      6  C5  UNL d   1      -2.344   1.862  -5.976  0.00  0.00     0.034 A 
ATOM      7 Cl   UNL d   1      -2.872   4.492  -5.975  0.00  0.00    -0.070 Cl
ATOM      8 Cl1  UNL d   1      -5.995   3.576  -6.000  0.00  0.00    -0.070 Cl
ENDROOT
TORSDOF 0
ENDMDL
