MODEL 1
REMARK minimizedAffinity 7.54703045
REMARK minimizedRMSD -1
REMARK  0 active torsions:
REMARK  status: ('A' for Active; 'I' for Inactive)
ROOT
ATOM      1  C   UNL d   1      -3.740  -5.738  -6.000  0.00  0.00     0.020 A 
ATOM      2  C1  UNL d   1      -4.842  -4.885  -6.000  0.00  0.00     0.020 A 
ATOM      3  C2  UNL d   1      -4.820  -3.716  -5.236  0.00  0.00     0.034 A 
ATOM      4  C3  UNL d   1      -3.694  -3.398  -4.468  0.00  0.00     0.017 A 
ATOM      5  C4  UNL d   1      -2.588  -4.256  -4.469  0.00  0.00     0.017 A 
ATOM      6  C5  UNL d   1      -2.615  -5.425  -5.236  0.00  0.00     0.034 A 
ATOM      7 Cl   UNL d   1      -1.162  -3.931  -3.547  0.00  0.00    -0.070 Cl
ATOM      8 Cl1  UNL d   1      -3.735  -1.937  -3.547  0.00  0.00    -0.070 Cl
ENDROOT
TORSDOF 0
ENDMDL
