MODEL 1
REMARK minimizedAffinity -1.35567486
REMARK minimizedRMSD -1
REMARK  0 active torsions:
REMARK  status: ('A' for Active; 'I' for Inactive)
ROOT
ATOM      1  C   UNL d   1      -3.005   1.738  -5.960  0.00  0.00     0.020 A 
ATOM      2  C1  UNL d   1      -4.375   1.483  -5.988  0.00  0.00     0.020 A 
ATOM      3  C2  UNL d   1      -5.283   2.544  -6.000  0.00  0.00     0.034 A 
ATOM      4  C3  UNL d   1      -4.821   3.866  -5.982  0.00  0.00     0.017 A 
ATOM      5  C4  UNL d   1      -3.445   4.121  -5.953  0.00  0.00     0.017 A 
ATOM      6  C5  UNL d   1      -2.541   3.054  -5.942  0.00  0.00     0.034 A 
ATOM      7 Cl   UNL d   1      -2.800   5.724  -5.930  0.00  0.00    -0.070 Cl
ATOM      8 Cl1  UNL d   1      -6.000   5.129  -5.998  0.00  0.00    -0.070 Cl
ENDROOT
TORSDOF 0
ENDMDL
