MODEL 1
REMARK minimizedAffinity 2.51834512
REMARK minimizedRMSD -1
REMARK  0 active torsions:
REMARK  status: ('A' for Active; 'I' for Inactive)
ROOT
ATOM      1  C   UNL d   1       1.293   1.230  -0.304  0.00  0.00     0.020 A 
ATOM      2  C1  UNL d   1       0.749   0.060  -0.833  0.00  0.00     0.020 A 
ATOM      3  C2  UNL d   1       1.588  -0.988  -1.220  0.00  0.00     0.034 A 
ATOM      4  C3  UNL d   1       2.975  -0.867  -1.078  0.00  0.00     0.017 A 
ATOM      5  C4  UNL d   1       3.520   0.308  -0.547  0.00  0.00     0.017 A 
ATOM      6  C5  UNL d   1       2.675   1.353  -0.162  0.00  0.00     0.034 A 
ATOM      7 Cl   UNL d   1       5.222   0.530  -0.342  0.00  0.00    -0.070 Cl
ATOM      8 Cl1  UNL d   1       3.953  -2.202  -1.577  0.00  0.00    -0.070 Cl
ENDROOT
TORSDOF 0
ENDMDL
