MODEL 1
REMARK minimizedAffinity -3.46202421
REMARK minimizedRMSD -1
REMARK  0 active torsions:
REMARK  status: ('A' for Active; 'I' for Inactive)
ROOT
ATOM      1  C   UNL d   1      -4.394  -0.102  -5.997  0.00  0.00     0.020 A 
ATOM      2  C1  UNL d   1      -3.021   0.144  -5.993  0.00  0.00     0.020 A 
ATOM      3  C2  UNL d   1      -2.548   1.458  -5.991  0.00  0.00     0.034 A 
ATOM      4  C3  UNL d   1      -3.447   2.530  -5.993  0.00  0.00     0.017 A 
ATOM      5  C4  UNL d   1      -4.824   2.282  -5.997  0.00  0.00     0.017 A 
ATOM      6  C5  UNL d   1      -5.293   0.965  -5.999  0.00  0.00     0.034 A 
ATOM      7 Cl   UNL d   1      -5.995   3.554  -5.999  0.00  0.00    -0.070 Cl
ATOM      8 Cl1  UNL d   1      -2.791   4.129  -5.990  0.00  0.00    -0.070 Cl
ENDROOT
TORSDOF 0
ENDMDL
