MODEL 1
REMARK minimizedAffinity -1.81937563
REMARK minimizedRMSD -1
REMARK  0 active torsions:
REMARK  status: ('A' for Active; 'I' for Inactive)
ROOT
ATOM      1  C   UNL d   1      -4.697  -0.451  -5.976  0.00  0.00     0.020 A 
ATOM      2  C1  UNL d   1      -3.308  -0.329  -5.976  0.00  0.00     0.020 A 
ATOM      3  C2  UNL d   1      -2.718   0.937  -5.982  0.00  0.00     0.034 A 
ATOM      4  C3  UNL d   1      -3.518   2.086  -5.990  0.00  0.00     0.017 A 
ATOM      5  C4  UNL d   1      -4.912   1.962  -5.990  0.00  0.00     0.017 A 
ATOM      6  C5  UNL d   1      -5.497   0.692  -5.983  0.00  0.00     0.034 A 
ATOM      7 Cl   UNL d   1      -5.964   3.334  -5.998  0.00  0.00    -0.070 Cl
ATOM      8 Cl1  UNL d   1      -2.721   3.619  -5.997  0.00  0.00    -0.070 Cl
ENDROOT
TORSDOF 0
ENDMDL
