MODEL 1
REMARK minimizedAffinity -1.94510221
REMARK minimizedRMSD -1
REMARK  0 active torsions:
REMARK  status: ('A' for Active; 'I' for Inactive)
ROOT
ATOM      1  C   UNL d   1      -5.431   3.611  -5.364  0.00  0.00     0.020 A 
ATOM      2  C1  UNL d   1      -4.073   3.749  -5.647  0.00  0.00     0.020 A 
ATOM      3  C2  UNL d   1      -3.280   2.616  -5.838  0.00  0.00     0.034 A 
ATOM      4  C3  UNL d   1      -3.845   1.338  -5.747  0.00  0.00     0.017 A 
ATOM      5  C4  UNL d   1      -5.209   1.200  -5.463  0.00  0.00     0.017 A 
ATOM      6  C5  UNL d   1      -5.998   2.339  -5.273  0.00  0.00     0.034 A 
ATOM      7 Cl   UNL d   1      -5.978  -0.343  -5.335  0.00  0.00    -0.070 Cl
ATOM      8 Cl1  UNL d   1      -2.806  -0.020  -5.995  0.00  0.00    -0.070 Cl
ENDROOT
TORSDOF 0
ENDMDL
