MODEL 1
REMARK minimizedAffinity -2.28185129
REMARK minimizedRMSD -1
REMARK  0 active torsions:
REMARK  status: ('A' for Active; 'I' for Inactive)
ROOT
ATOM      1  C   UNL d   1      -1.766  -4.284  -5.993  0.00  0.00     0.020 A 
ATOM      2  C1  UNL d   1      -3.018  -4.896  -5.993  0.00  0.00     0.020 A 
ATOM      3  C2  UNL d   1      -4.177  -4.117  -5.995  0.00  0.00     0.034 A 
ATOM      4  C3  UNL d   1      -4.085  -2.720  -5.997  0.00  0.00     0.017 A 
ATOM      5  C4  UNL d   1      -2.828  -2.106  -5.997  0.00  0.00     0.017 A 
ATOM      6  C5  UNL d   1      -1.671  -2.891  -5.995  0.00  0.00     0.034 A 
ATOM      7 Cl   UNL d   1      -2.635  -0.388  -5.999  0.00  0.00    -0.070 Cl
ATOM      8 Cl1  UNL d   1      -5.559  -1.819  -6.000  0.00  0.00    -0.070 Cl
ENDROOT
TORSDOF 0
ENDMDL
