MODEL 1
REMARK minimizedAffinity 4.88123035
REMARK minimizedRMSD -1
REMARK  0 active torsions:
REMARK  status: ('A' for Active; 'I' for Inactive)
ROOT
ATOM      1  C   UNL d   1      -3.180  -0.423  -5.919  0.00  0.00     0.020 A 
ATOM      2  C1  UNL d   1      -4.562  -0.605  -5.902  0.00  0.00     0.020 A 
ATOM      3  C2  UNL d   1      -5.413   0.502  -5.910  0.00  0.00     0.034 A 
ATOM      4  C3  UNL d   1      -4.882   1.797  -5.935  0.00  0.00     0.017 A 
ATOM      5  C4  UNL d   1      -3.494   1.979  -5.952  0.00  0.00     0.017 A 
ATOM      6  C5  UNL d   1      -2.647   0.867  -5.944  0.00  0.00     0.034 A 
ATOM      7 Cl   UNL d   1      -2.766   3.546  -5.983  0.00  0.00    -0.070 Cl
ATOM      8 Cl1  UNL d   1      -5.993   3.121  -5.944  0.00  0.00    -0.070 Cl
ENDROOT
TORSDOF 0
ENDMDL
