MODEL 1
REMARK minimizedAffinity 0.164134756
REMARK minimizedRMSD -1
REMARK  0 active torsions:
REMARK  status: ('A' for Active; 'I' for Inactive)
ROOT
ATOM      1  C   UNL d   1      -5.307   3.830  -5.999  0.00  0.00     0.020 A 
ATOM      2  C1  UNL d   1      -3.955   4.172  -5.999  0.00  0.00     0.020 A 
ATOM      3  C2  UNL d   1      -2.982   3.170  -5.999  0.00  0.00     0.034 A 
ATOM      4  C3  UNL d   1      -3.359   1.822  -5.999  0.00  0.00     0.017 A 
ATOM      5  C4  UNL d   1      -4.717   1.481  -5.999  0.00  0.00     0.017 A 
ATOM      6  C5  UNL d   1      -5.687   2.488  -5.999  0.00  0.00     0.034 A 
ATOM      7 Cl   UNL d   1      -5.259  -0.160  -5.999  0.00  0.00    -0.070 Cl
ATOM      8 Cl1  UNL d   1      -2.103   0.636  -5.999  0.00  0.00    -0.070 Cl
ENDROOT
TORSDOF 0
ENDMDL
