MODEL 1
REMARK minimizedAffinity -2.67265701
REMARK minimizedRMSD -1
REMARK  0 active torsions:
REMARK  status: ('A' for Active; 'I' for Inactive)
ROOT
ATOM      1  C   UNL d   1      -4.505  -0.674  -5.989  0.00  0.00     0.020 A 
ATOM      2  C1  UNL d   1      -5.711   0.025  -6.000  0.00  0.00     0.020 A 
ATOM      3  C2  UNL d   1      -5.709   1.422  -5.992  0.00  0.00     0.034 A 
ATOM      4  C3  UNL d   1      -4.498   2.123  -5.973  0.00  0.00     0.017 A 
ATOM      5  C4  UNL d   1      -3.288   1.420  -5.962  0.00  0.00     0.017 A 
ATOM      6  C5  UNL d   1      -3.296   0.022  -5.970  0.00  0.00     0.034 A 
ATOM      7 Cl   UNL d   1      -1.753   2.216  -5.938  0.00  0.00    -0.070 Cl
ATOM      8 Cl1  UNL d   1      -4.569   3.849  -5.965  0.00  0.00    -0.070 Cl
ENDROOT
TORSDOF 0
ENDMDL
