MODEL 1
REMARK minimizedAffinity -3.07293868
REMARK minimizedRMSD -1
REMARK  0 active torsions:
REMARK  status: ('A' for Active; 'I' for Inactive)
ROOT
ATOM      1  C   UNL d   1      -4.172   3.981  -6.000  0.00  0.00     0.020 A 
ATOM      2  C1  UNL d   1      -5.541   3.716  -6.000  0.00  0.00     0.020 A 
ATOM      3  C2  UNL d   1      -5.997   2.396  -5.997  0.00  0.00     0.034 A 
ATOM      4  C3  UNL d   1      -5.083   1.336  -5.994  0.00  0.00     0.017 A 
ATOM      5  C4  UNL d   1      -3.709   1.602  -5.994  0.00  0.00     0.017 A 
ATOM      6  C5  UNL d   1      -3.259   2.926  -5.997  0.00  0.00     0.034 A 
ATOM      7 Cl   UNL d   1      -2.521   0.347  -5.990  0.00  0.00    -0.070 Cl
ATOM      8 Cl1  UNL d   1      -5.717  -0.272  -5.989  0.00  0.00    -0.070 Cl
ENDROOT
TORSDOF 0
ENDMDL
