MODEL 1
REMARK minimizedAffinity 0.585159302
REMARK minimizedRMSD -1
REMARK  0 active torsions:
REMARK  status: ('A' for Active; 'I' for Inactive)
ROOT
ATOM      1  C   UNL d   1      -4.383  -0.250  -6.000  0.00  0.00     0.020 A 
ATOM      2  C1  UNL d   1      -2.996  -0.390  -6.000  0.00  0.00     0.020 A 
ATOM      3  C2  UNL d   1      -2.180   0.744  -6.000  0.00  0.00     0.034 A 
ATOM      4  C3  UNL d   1      -2.750   2.022  -6.000  0.00  0.00     0.017 A 
ATOM      5  C4  UNL d   1      -4.143   2.161  -5.999  0.00  0.00     0.017 A 
ATOM      6  C5  UNL d   1      -4.955   1.023  -5.999  0.00  0.00     0.034 A 
ATOM      7 Cl   UNL d   1      -4.920   3.705  -5.999  0.00  0.00    -0.070 Cl
ATOM      8 Cl1  UNL d   1      -1.681   3.379  -5.999  0.00  0.00    -0.070 Cl
ENDROOT
TORSDOF 0
ENDMDL
