MODEL 1
REMARK minimizedAffinity -2.86620975
REMARK minimizedRMSD -1
REMARK  0 active torsions:
REMARK  status: ('A' for Active; 'I' for Inactive)
ROOT
ATOM      1  C   UNL d   1      -4.866  -0.102  -5.822  0.00  0.00     0.020 A 
ATOM      2  C1  UNL d   1      -3.658  -0.774  -6.000  0.00  0.00     0.020 A 
ATOM      3  C2  UNL d   1      -2.456  -0.062  -6.000  0.00  0.00     0.034 A 
ATOM      4  C3  UNL d   1      -2.461   1.326  -5.822  0.00  0.00     0.017 A 
ATOM      5  C4  UNL d   1      -3.675   2.000  -5.643  0.00  0.00     0.017 A 
ATOM      6  C5  UNL d   1      -4.875   1.282  -5.644  0.00  0.00     0.034 A 
ATOM      7 Cl   UNL d   1      -3.761   3.712  -5.418  0.00  0.00    -0.070 Cl
ATOM      8 Cl1  UNL d   1      -0.938   2.143  -5.833  0.00  0.00    -0.070 Cl
ENDROOT
TORSDOF 0
ENDMDL
