MODEL 1
REMARK minimizedAffinity -1.14245117
REMARK minimizedRMSD -1
REMARK  0 active torsions:
REMARK  status: ('A' for Active; 'I' for Inactive)
ROOT
ATOM      1  C   UNL d   1      -4.438  -0.317  -5.992  0.00  0.00     0.020 A 
ATOM      2  C1  UNL d   1      -5.636   0.397  -5.976  0.00  0.00     0.020 A 
ATOM      3  C2  UNL d   1      -5.616   1.793  -5.968  0.00  0.00     0.034 A 
ATOM      4  C3  UNL d   1      -4.396   2.480  -5.975  0.00  0.00     0.017 A 
ATOM      5  C4  UNL d   1      -3.195   1.762  -5.990  0.00  0.00     0.017 A 
ATOM      6  C5  UNL d   1      -3.220   0.364  -5.999  0.00  0.00     0.034 A 
ATOM      7 Cl   UNL d   1      -1.651   2.539  -6.000  0.00  0.00    -0.070 Cl
ATOM      8 Cl1  UNL d   1      -4.446   4.207  -5.964  0.00  0.00    -0.070 Cl
ENDROOT
TORSDOF 0
ENDMDL
