MODEL 1
REMARK minimizedAffinity -0.947919309
REMARK minimizedRMSD -1
REMARK  0 active torsions:
REMARK  status: ('A' for Active; 'I' for Inactive)
ROOT
ATOM      1  C   UNL d   1      -3.984   3.330  -5.999  0.00  0.00     0.020 A 
ATOM      2  C1  UNL d   1      -5.374   3.217  -5.999  0.00  0.00     0.020 A 
ATOM      3  C2  UNL d   1      -5.972   1.955  -5.999  0.00  0.00     0.034 A 
ATOM      4  C3  UNL d   1      -5.181   0.801  -5.999  0.00  0.00     0.017 A 
ATOM      5  C4  UNL d   1      -3.786   0.915  -5.999  0.00  0.00     0.017 A 
ATOM      6  C5  UNL d   1      -3.192   2.181  -5.999  0.00  0.00     0.034 A 
ATOM      7 Cl   UNL d   1      -2.743  -0.463  -5.999  0.00  0.00    -0.070 Cl
ATOM      8 Cl1  UNL d   1      -5.988  -0.727  -5.998  0.00  0.00    -0.070 Cl
ENDROOT
TORSDOF 0
ENDMDL
