MODEL 1
REMARK minimizedAffinity -2.37990522
REMARK minimizedRMSD -1
REMARK  0 active torsions:
REMARK  status: ('A' for Active; 'I' for Inactive)
ROOT
ATOM      1  C   UNL d   1      -5.998   2.232  -5.799  0.00  0.00     0.020 A 
ATOM      2  C1  UNL d   1      -4.878   3.062  -5.801  0.00  0.00     0.020 A 
ATOM      3  C2  UNL d   1      -3.597   2.508  -5.862  0.00  0.00     0.034 A 
ATOM      4  C3  UNL d   1      -3.434   1.119  -5.920  0.00  0.00     0.017 A 
ATOM      5  C4  UNL d   1      -4.559   0.286  -5.918  0.00  0.00     0.017 A 
ATOM      6  C5  UNL d   1      -5.838   0.847  -5.857  0.00  0.00     0.034 A 
ATOM      7 Cl   UNL d   1      -4.437  -1.437  -5.988  0.00  0.00    -0.070 Cl
ATOM      8 Cl1  UNL d   1      -1.822   0.502  -5.993  0.00  0.00    -0.070 Cl
ENDROOT
TORSDOF 0
ENDMDL
