MODEL 1
REMARK minimizedAffinity 0.812685072
REMARK minimizedRMSD -1
REMARK  1 active torsions:
REMARK  status: ('A' for Active; 'I' for Inactive)
REMARK    1  A    between atoms: C1_2  and  C2_3 
ROOT
ATOM      1  C2  UNL d   1       3.592  -4.291  -5.010  0.00  0.00    -0.077 A 
ATOM      2  C3  UNL d   1       3.815  -5.260  -4.022  0.00  0.00     0.002 A 
ATOM      3  C4  UNL d   1       5.001  -5.997  -4.010  0.00  0.00     0.002 A 
ATOM      4  C5  UNL d   1       5.975  -5.769  -4.979  0.00  0.00    -0.004 A 
ATOM      5  C6  UNL d   1       5.762  -4.808  -5.967  0.00  0.00     0.002 A 
ATOM      6  C7  UNL d   1       4.577  -4.072  -5.982  0.00  0.00     0.002 A 
ENDROOT
BRANCH   1   7
ATOM      7  C1  UNL d   1       2.335  -3.461  -4.996  0.00  0.00     0.055 C 
ATOM      8  C   UNL d   1       2.391  -2.390  -3.916  0.00  0.00     0.019 C 
ENDBRANCH   1   7
TORSDOF 1
ENDMDL
