MODEL 1
REMARK minimizedAffinity -1.54299402
REMARK minimizedRMSD -1
REMARK  1 active torsions:
REMARK  status: ('A' for Active; 'I' for Inactive)
REMARK    1  A    between atoms: C1_2  and  C2_3 
ROOT
ATOM      1  C2  UNL d   1       3.524   4.894  -5.995  0.00  0.00    -0.077 A 
ATOM      2  C3  UNL d   1       2.313   5.601  -5.997  0.00  0.00     0.002 A 
ATOM      3  C4  UNL d   1       1.096   4.917  -5.999  0.00  0.00     0.002 A 
ATOM      4  C5  UNL d   1       1.077   3.524  -5.995  0.00  0.00    -0.004 A 
ATOM      5  C6  UNL d   1       2.276   2.812  -5.995  0.00  0.00     0.002 A 
ATOM      6  C7  UNL d   1       3.494   3.493  -5.994  0.00  0.00     0.002 A 
ENDROOT
BRANCH   1   7
ATOM      7  C1  UNL d   1       4.838   5.629  -5.943  0.00  0.00     0.055 C 
ATOM      8  C   UNL d   1       5.860   4.878  -5.103  0.00  0.00     0.019 C 
ENDBRANCH   1   7
TORSDOF 1
ENDMDL
