MODEL 1
REMARK minimizedAffinity -2.20861387
REMARK minimizedRMSD -1
REMARK  1 active torsions:
REMARK  status: ('A' for Active; 'I' for Inactive)
REMARK    1  A    between atoms: C1_2  and  C2_3 
ROOT
ATOM      1  C2  UNL d   1      -1.722   4.796  -5.965  0.00  0.00    -0.077 A 
ATOM      2  C3  UNL d   1      -0.668   5.720  -5.984  0.00  0.00     0.002 A 
ATOM      3  C4  UNL d   1       0.657   5.280  -6.000  0.00  0.00     0.002 A 
ATOM      4  C5  UNL d   1       0.940   3.916  -6.000  0.00  0.00    -0.004 A 
ATOM      5  C6  UNL d   1      -0.102   2.989  -5.978  0.00  0.00     0.002 A 
ATOM      6  C7  UNL d   1      -1.427   3.427  -5.962  0.00  0.00     0.002 A 
ENDROOT
BRANCH   1   7
ATOM      7  C1  UNL d   1      -3.152   5.269  -5.998  0.00  0.00     0.055 C 
ATOM      8  C   UNL d   1      -4.123   4.097  -5.978  0.00  0.00     0.019 C 
ENDBRANCH   1   7
TORSDOF 1
ENDMDL
