MODEL 1
REMARK minimizedAffinity -0.685667157
REMARK minimizedRMSD -1
REMARK  1 active torsions:
REMARK  status: ('A' for Active; 'I' for Inactive)
REMARK    1  A    between atoms: C1_2  and  C2_3 
ROOT
ATOM      1  C2  UNL d   1      -1.193   3.706  -5.962  0.00  0.00    -0.077 A 
ATOM      2  C3  UNL d   1      -1.441   5.085  -5.977  0.00  0.00     0.002 A 
ATOM      3  C4  UNL d   1      -0.380   5.994  -5.988  0.00  0.00     0.002 A 
ATOM      4  C5  UNL d   1       0.934   5.532  -5.989  0.00  0.00    -0.004 A 
ATOM      5  C6  UNL d   1       1.191   4.162  -5.972  0.00  0.00     0.002 A 
ATOM      6  C7  UNL d   1       0.133   3.253  -5.960  0.00  0.00     0.002 A 
ENDROOT
BRANCH   1   7
ATOM      7  C1  UNL d   1      -2.335   2.724  -6.000  0.00  0.00     0.055 C 
ATOM      8  C   UNL d   1      -3.640   3.377  -5.567  0.00  0.00     0.019 C 
ENDBRANCH   1   7
TORSDOF 1
ENDMDL
