MODEL 1
REMARK minimizedAffinity -0.331996471
REMARK minimizedRMSD -1
REMARK  1 active torsions:
REMARK  status: ('A' for Active; 'I' for Inactive)
REMARK    1  A    between atoms: C1_2  and  C2_3 
ROOT
ATOM      1  C2  UNL d   1      -0.306   3.547  -5.964  0.00  0.00    -0.077 A 
ATOM      2  C3  UNL d   1      -1.345   2.606  -5.957  0.00  0.00     0.002 A 
ATOM      3  C4  UNL d   1      -2.677   3.025  -5.970  0.00  0.00     0.002 A 
ATOM      4  C5  UNL d   1      -2.982   4.385  -5.994  0.00  0.00    -0.004 A 
ATOM      5  C6  UNL d   1      -1.955   5.328  -6.000  0.00  0.00     0.002 A 
ATOM      6  C7  UNL d   1      -0.623   4.911  -5.986  0.00  0.00     0.002 A 
ENDROOT
BRANCH   1   7
ATOM      7  C1  UNL d   1       1.131   3.097  -6.000  0.00  0.00     0.055 C 
ATOM      8  C   UNL d   1       2.083   4.283  -5.989  0.00  0.00     0.019 C 
ENDBRANCH   1   7
TORSDOF 1
ENDMDL
