MODEL 1
REMARK minimizedAffinity -0.297056288
REMARK minimizedRMSD -1
REMARK  1 active torsions:
REMARK  status: ('A' for Active; 'I' for Inactive)
REMARK    1  A    between atoms: C1_2  and  C2_3 
ROOT
ATOM      1  C2  UNL d   1      -0.902   3.893  -5.942  0.00  0.00    -0.077 A 
ATOM      2  C3  UNL d   1      -2.126   3.212  -5.879  0.00  0.00     0.002 A 
ATOM      3  C4  UNL d   1      -3.329   3.921  -5.871  0.00  0.00     0.002 A 
ATOM      4  C5  UNL d   1      -3.320   5.312  -5.932  0.00  0.00    -0.004 A 
ATOM      5  C6  UNL d   1      -2.108   5.999  -5.993  0.00  0.00     0.002 A 
ATOM      6  C7  UNL d   1      -0.904   5.293  -5.999  0.00  0.00     0.002 A 
ENDROOT
BRANCH   1   7
ATOM      7  C1  UNL d   1       0.395   3.129  -6.000  0.00  0.00     0.055 C 
ATOM      8  C   UNL d   1       1.592   4.069  -6.000  0.00  0.00     0.019 C 
ENDBRANCH   1   7
TORSDOF 1
ENDMDL
