MODEL 1
REMARK minimizedAffinity 4.86880255
REMARK minimizedRMSD -1
REMARK  1 active torsions:
REMARK  status: ('A' for Active; 'I' for Inactive)
REMARK    1  A    between atoms: C1_2  and  C2_3 
ROOT
ATOM      1  C2  UNL d   1       0.322   1.937  -5.999  0.00  0.00    -0.077 A 
ATOM      2  C3  UNL d   1       1.653   2.379  -5.996  0.00  0.00     0.002 A 
ATOM      3  C4  UNL d   1       1.943   3.745  -5.990  0.00  0.00     0.002 A 
ATOM      4  C5  UNL d   1       0.909   4.678  -5.984  0.00  0.00    -0.004 A 
ATOM      5  C6  UNL d   1      -0.417   4.248  -5.990  0.00  0.00     0.002 A 
ATOM      6  C7  UNL d   1      -0.709   2.884  -5.997  0.00  0.00     0.002 A 
ENDROOT
BRANCH   1   7
ATOM      7  C1  UNL d   1       0.007   0.464  -5.956  0.00  0.00     0.055 C 
ATOM      8  C   UNL d   1      -0.358   0.018  -4.547  0.00  0.00     0.019 C 
ENDBRANCH   1   7
TORSDOF 1
ENDMDL
