MODEL 1
REMARK minimizedAffinity 9.88793945
REMARK minimizedRMSD -1
REMARK  1 active torsions:
REMARK  status: ('A' for Active; 'I' for Inactive)
REMARK    1  A    between atoms: C1_2  and  C2_3 
ROOT
ATOM      1  C2  UNL d   1      -3.534  -1.837   3.305  0.00  0.00    -0.077 A 
ATOM      2  C3  UNL d   1      -4.730  -2.200   2.669  0.00  0.00     0.002 A 
ATOM      3  C4  UNL d   1      -5.957  -1.992   3.302  0.00  0.00     0.002 A 
ATOM      4  C5  UNL d   1      -6.000  -1.418   4.571  0.00  0.00    -0.004 A 
ATOM      5  C6  UNL d   1      -4.816  -1.055   5.212  0.00  0.00     0.002 A 
ATOM      6  C7  UNL d   1      -3.588  -1.263   4.581  0.00  0.00     0.002 A 
ENDROOT
BRANCH   1   7
ATOM      7  C1  UNL d   1      -2.212  -2.015   2.604  0.00  0.00     0.055 C 
ATOM      8  C   UNL d   1      -1.810  -0.754   1.852  0.00  0.00     0.019 C 
ENDBRANCH   1   7
TORSDOF 1
ENDMDL
