MODEL 1
REMARK minimizedAffinity -1.74956799
REMARK minimizedRMSD -1
REMARK  1 active torsions:
REMARK  status: ('A' for Active; 'I' for Inactive)
REMARK    1  A    between atoms: C1_2  and  C2_3 
ROOT
ATOM      1  C2  UNL d   1       0.653   4.614  -5.318  0.00  0.00    -0.077 A 
ATOM      2  C3  UNL d   1       0.396   4.151  -4.020  0.00  0.00     0.002 A 
ATOM      3  C4  UNL d   1      -0.832   4.409  -3.408  0.00  0.00     0.002 A 
ATOM      4  C5  UNL d   1      -1.813   5.128  -4.087  0.00  0.00    -0.004 A 
ATOM      5  C6  UNL d   1      -1.566   5.595  -5.377  0.00  0.00     0.002 A 
ATOM      6  C7  UNL d   1      -0.339   5.339  -5.990  0.00  0.00     0.002 A 
ENDROOT
BRANCH   1   7
ATOM      7  C1  UNL d   1       1.958   4.294  -5.999  0.00  0.00     0.055 C 
ATOM      8  C   UNL d   1       2.229   2.796  -6.000  0.00  0.00     0.019 C 
ENDBRANCH   1   7
TORSDOF 1
ENDMDL
