MODEL 1
REMARK minimizedAffinity -0.198480904
REMARK minimizedRMSD -1
REMARK  1 active torsions:
REMARK  status: ('A' for Active; 'I' for Inactive)
REMARK    1  A    between atoms: C1_2  and  C2_3 
ROOT
ATOM      1  C2  UNL d   1      -3.733  -5.046  -1.263  0.00  0.00    -0.077 A 
ATOM      2  C3  UNL d   1      -4.339  -3.891  -1.777  0.00  0.00     0.002 A 
ATOM      3  C4  UNL d   1      -4.402  -3.681  -3.156  0.00  0.00     0.002 A 
ATOM      4  C5  UNL d   1      -3.865  -4.622  -4.031  0.00  0.00    -0.004 A 
ATOM      5  C6  UNL d   1      -3.258  -5.773  -3.529  0.00  0.00     0.002 A 
ATOM      6  C7  UNL d   1      -3.193  -5.984  -2.151  0.00  0.00     0.002 A 
ENDROOT
BRANCH   1   7
ATOM      7  C1  UNL d   1      -3.708  -5.298   0.222  0.00  0.00     0.055 C 
ATOM      8  C   UNL d   1      -4.977  -5.999   0.686  0.00  0.00     0.019 C 
ENDBRANCH   1   7
TORSDOF 1
ENDMDL
