MODEL 1
REMARK minimizedAffinity 2.12344956
REMARK minimizedRMSD -1
REMARK  1 active torsions:
REMARK  status: ('A' for Active; 'I' for Inactive)
REMARK    1  A    between atoms: C1_2  and  C2_3 
ROOT
ATOM      1  C2  UNL d   1      -1.494  -0.694   1.731  0.00  0.00    -0.077 A 
ATOM      2  C3  UNL d   1      -2.704  -0.011   1.920  0.00  0.00     0.002 A 
ATOM      3  C4  UNL d   1      -3.780  -0.641   2.548  0.00  0.00     0.002 A 
ATOM      4  C5  UNL d   1      -3.655  -1.955   2.996  0.00  0.00    -0.004 A 
ATOM      5  C6  UNL d   1      -2.457  -2.643   2.811  0.00  0.00     0.002 A 
ATOM      6  C7  UNL d   1      -1.381  -2.015   2.182  0.00  0.00     0.002 A 
ENDROOT
BRANCH   1   7
ATOM      7  C1  UNL d   1      -0.316   0.001   1.098  0.00  0.00     0.055 C 
ATOM      8  C   UNL d   1      -0.137  -0.424  -0.352  0.00  0.00     0.019 C 
ENDBRANCH   1   7
TORSDOF 1
ENDMDL
