MODEL 1
REMARK minimizedAffinity 1.60819364
REMARK minimizedRMSD -1
REMARK  1 active torsions:
REMARK  status: ('A' for Active; 'I' for Inactive)
REMARK    1  A    between atoms: C1_2  and  C2_3 
ROOT
ATOM      1  C2  UNL d   1      -2.046   5.172  -5.878  0.00  0.00    -0.077 A 
ATOM      2  C3  UNL d   1      -2.219   3.782  -5.941  0.00  0.00     0.002 A 
ATOM      3  C4  UNL d   1      -3.501   3.230  -5.974  0.00  0.00     0.002 A 
ATOM      4  C5  UNL d   1      -4.620   4.061  -5.948  0.00  0.00    -0.004 A 
ATOM      5  C6  UNL d   1      -4.458   5.444  -5.883  0.00  0.00     0.002 A 
ATOM      6  C7  UNL d   1      -3.177   5.997  -5.849  0.00  0.00     0.002 A 
ENDROOT
BRANCH   1   7
ATOM      7  C1  UNL d   1      -0.664   5.771  -5.892  0.00  0.00     0.055 C 
ATOM      8  C   UNL d   1       0.405   4.693  -5.998  0.00  0.00     0.019 C 
ENDBRANCH   1   7
TORSDOF 1
ENDMDL
