MODEL 1
REMARK minimizedAffinity 1.05207002
REMARK minimizedRMSD -1
REMARK  1 active torsions:
REMARK  status: ('A' for Active; 'I' for Inactive)
REMARK    1  A    between atoms: C1_2  and  C2_3 
ROOT
ATOM      1  C2  UNL d   1      -0.126   1.254   0.291  0.00  0.00    -0.077 A 
ATOM      2  C3  UNL d   1       0.456   0.244  -0.489  0.00  0.00     0.002 A 
ATOM      3  C4  UNL d   1       1.202   0.570  -1.623  0.00  0.00     0.002 A 
ATOM      4  C5  UNL d   1       1.376   1.904  -1.985  0.00  0.00    -0.004 A 
ATOM      5  C6  UNL d   1       0.801   2.915  -1.217  0.00  0.00     0.002 A 
ATOM      6  C7  UNL d   1       0.054   2.592  -0.083  0.00  0.00     0.002 A 
ENDROOT
BRANCH   1   7
ATOM      7  C1  UNL d   1      -0.889   0.907   1.543  0.00  0.00     0.055 C 
ATOM      8  C   UNL d   1      -2.347   1.331   1.437  0.00  0.00     0.019 C 
ENDBRANCH   1   7
TORSDOF 1
ENDMDL
