MODEL 1
REMARK minimizedAffinity 4.51020765
REMARK minimizedRMSD -1
REMARK  1 active torsions:
REMARK  status: ('A' for Active; 'I' for Inactive)
REMARK    1  A    between atoms: C1_2  and  C2_3 
ROOT
ATOM      1  C2  UNL d   1       1.496  -0.951  -2.337  0.00  0.00    -0.077 A 
ATOM      2  C3  UNL d   1       1.904  -1.576  -3.524  0.00  0.00     0.002 A 
ATOM      3  C4  UNL d   1       3.057  -2.363  -3.547  0.00  0.00     0.002 A 
ATOM      4  C5  UNL d   1       3.808  -2.535  -2.387  0.00  0.00    -0.004 A 
ATOM      5  C6  UNL d   1       3.413  -1.916  -1.202  0.00  0.00     0.002 A 
ATOM      6  C7  UNL d   1       2.261  -1.128  -1.177  0.00  0.00     0.002 A 
ENDROOT
BRANCH   1   7
ATOM      7  C1  UNL d   1       0.226  -0.141  -2.298  0.00  0.00     0.055 C 
ATOM      8  C   UNL d   1      -1.002  -1.032  -2.418  0.00  0.00     0.019 C 
ENDBRANCH   1   7
TORSDOF 1
ENDMDL
