MODEL 1
REMARK minimizedAffinity 5.61127949
REMARK minimizedRMSD -1
REMARK  1 active torsions:
REMARK  status: ('A' for Active; 'I' for Inactive)
REMARK    1  A    between atoms: C1_2  and  C2_3 
ROOT
ATOM      1  C2  UNL d   1      -2.588  -1.909   2.542  0.00  0.00    -0.077 A 
ATOM      2  C3  UNL d   1      -3.652  -2.318   3.358  0.00  0.00     0.002 A 
ATOM      3  C4  UNL d   1      -4.811  -1.545   3.448  0.00  0.00     0.002 A 
ATOM      4  C5  UNL d   1      -4.919  -0.361   2.721  0.00  0.00    -0.004 A 
ATOM      5  C6  UNL d   1      -3.866   0.055   1.908  0.00  0.00     0.002 A 
ATOM      6  C7  UNL d   1      -2.706  -0.715   1.818  0.00  0.00     0.002 A 
ENDROOT
BRANCH   1   7
ATOM      7  C1  UNL d   1      -1.356  -2.765   2.406  0.00  0.00     0.055 C 
ATOM      8  C   UNL d   1      -0.999  -3.435   3.725  0.00  0.00     0.019 C 
ENDBRANCH   1   7
TORSDOF 1
ENDMDL
