MODEL 1
REMARK minimizedAffinity 1.91254163
REMARK minimizedRMSD -1
REMARK  0 active torsions:
REMARK  status: ('A' for Active; 'I' for Inactive)
ROOT
ATOM      1  N1  IND d   1      -2.281   0.932   2.731  0.00  0.00    -0.196 N 
ATOM      2  C2  IND d   1      -2.527   2.255   2.489  0.00  0.00     0.054 A 
ATOM      3  C3  IND d   1      -1.602   2.757   1.640  0.00  0.00    -0.031 A 
ATOM      4  C4  IND d   1       0.340   1.565   0.445  0.00  0.00     0.051 A 
ATOM      5  C5  IND d   1       0.988   0.363   0.376  0.00  0.00    -0.031 A 
ATOM      6  C6  IND d   1       0.569  -0.733   1.101  0.00  0.00     0.015 A 
ATOM      7  C7  IND d   1      -0.525  -0.672   1.917  0.00  0.00    -0.016 A 
ATOM      8  C8  IND d   1      -1.181   0.549   1.995  0.00  0.00    -0.047 A 
ATOM      9  C9  IND d   1      -0.735   1.677   1.294  0.00  0.00    -0.096 A 
ATOM     10  HN1 IND d   1      -2.737   0.424   3.254  0.00  0.00     0.298 HD
ENDROOT
TORSDOF 0
ENDMDL
