MODEL 1
REMARK minimizedAffinity 2.70733142
REMARK minimizedRMSD -1
REMARK  0 active torsions:
REMARK  status: ('A' for Active; 'I' for Inactive)
ROOT
ATOM      1  N1  IND d   1       1.560  -0.251   0.758  0.00  0.00    -0.196 N 
ATOM      2  C2  IND d   1       2.234   0.635  -0.035  0.00  0.00     0.054 A 
ATOM      3  C3  IND d   1       1.558   1.803  -0.117  0.00  0.00    -0.031 A 
ATOM      4  C4  IND d   1      -0.624   2.514   1.049  0.00  0.00     0.051 A 
ATOM      5  C5  IND d   1      -1.627   2.034   1.843  0.00  0.00    -0.031 A 
ATOM      6  C6  IND d   1      -1.618   0.742   2.329  0.00  0.00     0.015 A 
ATOM      7  C7  IND d   1      -0.594  -0.118   2.045  0.00  0.00    -0.016 A 
ATOM      8  C8  IND d   1       0.422   0.364   1.233  0.00  0.00    -0.047 A 
ATOM      9  C9  IND d   1       0.397   1.661   0.703  0.00  0.00    -0.096 A 
ATOM     10  HN1 IND d   1       1.804  -1.057   0.931  0.00  0.00     0.298 HD
ENDROOT
TORSDOF 0
ENDMDL
