MODEL 1
REMARK minimizedAffinity 1.1057806
REMARK minimizedRMSD -1
REMARK  0 active torsions:
REMARK  status: ('A' for Active; 'I' for Inactive)
ROOT
ATOM      1  N1  IND d   1       1.239  -0.385   1.422  0.00  0.00    -0.196 N 
ATOM      2  C2  IND d   1       2.051   0.648   1.043  0.00  0.00     0.054 A 
ATOM      3  C3  IND d   1       1.336   1.790   0.932  0.00  0.00    -0.031 A 
ATOM      4  C4  IND d   1      -1.155   2.216   1.422  0.00  0.00     0.051 A 
ATOM      5  C5  IND d   1      -2.312   1.571   1.759  0.00  0.00    -0.031 A 
ATOM      6  C6  IND d   1      -2.344   0.215   2.009  0.00  0.00     0.015 A 
ATOM      7  C7  IND d   1      -1.214  -0.549   1.941  0.00  0.00    -0.016 A 
ATOM      8  C8  IND d   1      -0.038   0.100   1.592  0.00  0.00    -0.047 A 
ATOM      9  C9  IND d   1      -0.007   1.469   1.296  0.00  0.00    -0.096 A 
ATOM     10  HN1 IND d   1       1.486  -1.202   1.534  0.00  0.00     0.298 HD
ENDROOT
TORSDOF 0
ENDMDL
