MODEL 1
REMARK minimizedAffinity 0.988760352
REMARK minimizedRMSD -1
REMARK  0 active torsions:
REMARK  status: ('A' for Active; 'I' for Inactive)
ROOT
ATOM      1  N1  IND d   1       1.514  -0.511   0.576  0.00  0.00    -0.196 N 
ATOM      2  C2  IND d   1       2.433   0.379   0.093  0.00  0.00     0.054 A 
ATOM      3  C3  IND d   1       1.959   1.641   0.184  0.00  0.00    -0.031 A 
ATOM      4  C4  IND d   1      -0.256   2.488   1.186  0.00  0.00     0.051 A 
ATOM      5  C5  IND d   1      -1.436   2.048   1.717  0.00  0.00    -0.031 A 
ATOM      6  C6  IND d   1      -1.697   0.706   1.901  0.00  0.00     0.015 A 
ATOM      7  C7  IND d   1      -0.779  -0.250   1.570  0.00  0.00    -0.016 A 
ATOM      8  C8  IND d   1       0.417   0.193   1.024  0.00  0.00    -0.047 A 
ATOM      9  C9  IND d   1       0.671   1.551   0.795  0.00  0.00    -0.096 A 
ATOM     10  HN1 IND d   1       1.605  -1.365   0.596  0.00  0.00     0.298 HD
ENDROOT
TORSDOF 0
ENDMDL
