MODEL 1
REMARK minimizedAffinity 6.74058056
REMARK minimizedRMSD -1
REMARK  0 active torsions:
REMARK  status: ('A' for Active; 'I' for Inactive)
ROOT
ATOM      1  N1  IND d   1       1.086  -0.507   1.147  0.00  0.00    -0.196 N 
ATOM      2  C2  IND d   1       0.263  -1.307   1.890  0.00  0.00     0.054 A 
ATOM      3  C3  IND d   1      -0.844  -0.627   2.262  0.00  0.00    -0.031 A 
ATOM      4  C4  IND d   1      -1.561   1.776   1.678  0.00  0.00     0.051 A 
ATOM      5  C5  IND d   1      -1.122   2.910   1.054  0.00  0.00    -0.031 A 
ATOM      6  C6  IND d   1       0.100   2.963   0.414  0.00  0.00     0.015 A 
ATOM      7  C7  IND d   1       0.926   1.876   0.364  0.00  0.00    -0.016 A 
ATOM      8  C8  IND d   1       0.486   0.725   1.003  0.00  0.00    -0.047 A 
ATOM      9  C9  IND d   1      -0.734   0.678   1.690  0.00  0.00    -0.096 A 
ATOM     10  HN1 IND d   1       1.849  -0.735   0.824  0.00  0.00     0.298 HD
ENDROOT
TORSDOF 0
ENDMDL
