MODEL 1
REMARK minimizedAffinity 5.83040571
REMARK minimizedRMSD -1
REMARK  0 active torsions:
REMARK  status: ('A' for Active; 'I' for Inactive)
ROOT
ATOM      1  N1  IND d   1      -2.756   1.251   1.998  0.00  0.00    -0.196 N 
ATOM      2  C2  IND d   1      -2.698   2.612   1.887  0.00  0.00     0.054 A 
ATOM      3  C3  IND d   1      -1.462   3.001   1.503  0.00  0.00    -0.031 A 
ATOM      4  C4  IND d   1       0.590   1.567   0.902  0.00  0.00     0.051 A 
ATOM      5  C5  IND d   1       1.034   0.275   0.886  0.00  0.00    -0.031 A 
ATOM      6  C6  IND d   1       0.219  -0.780   1.244  0.00  0.00     0.015 A 
ATOM      7  C7  IND d   1      -1.078  -0.582   1.623  0.00  0.00    -0.016 A 
ATOM      8  C8  IND d   1      -1.530   0.730   1.647  0.00  0.00    -0.047 A 
ATOM      9  C9  IND d   1      -0.695   1.809   1.326  0.00  0.00    -0.096 A 
ATOM     10  HN1 IND d   1      -3.443   0.796   2.245  0.00  0.00     0.298 HD
ENDROOT
TORSDOF 0
ENDMDL
