MODEL 1
REMARK minimizedAffinity 0.19577612
REMARK minimizedRMSD -1
REMARK  0 active torsions:
REMARK  status: ('A' for Active; 'I' for Inactive)
ROOT
ATOM      1  N1  IND d   1       1.052   1.657   0.783  0.00  0.00    -0.196 N 
ATOM      2  C2  IND d   1       1.667   0.503   0.385  0.00  0.00     0.054 A 
ATOM      3  C3  IND d   1       0.865  -0.561   0.615  0.00  0.00    -0.031 A 
ATOM      4  C4  IND d   1      -1.535  -0.629   1.543  0.00  0.00     0.051 A 
ATOM      5  C5  IND d   1      -2.506   0.169   2.080  0.00  0.00    -0.031 A 
ATOM      6  C6  IND d   1      -2.337   1.532   2.213  0.00  0.00     0.015 A 
ATOM      7  C7  IND d   1      -1.192   2.152   1.801  0.00  0.00    -0.016 A 
ATOM      8  C8  IND d   1      -0.201   1.344   1.261  0.00  0.00    -0.047 A 
ATOM      9  C9  IND d   1      -0.350  -0.046   1.163  0.00  0.00    -0.096 A 
ATOM     10  HN1 IND d   1       1.391   2.446   0.742  0.00  0.00     0.298 HD
ENDROOT
TORSDOF 0
ENDMDL
