MODEL 1
REMARK minimizedAffinity 2.53262949
REMARK minimizedRMSD -1
REMARK  0 active torsions:
REMARK  status: ('A' for Active; 'I' for Inactive)
ROOT
ATOM      1  N1  IND d   1      -1.563   2.681   1.730  0.00  0.00    -0.196 N 
ATOM      2  C2  IND d   1      -0.329   3.260   1.626  0.00  0.00     0.054 A 
ATOM      3  C3  IND d   1       0.623   2.313   1.476  0.00  0.00    -0.031 A 
ATOM      4  C4  IND d   1       0.373  -0.241   1.271  0.00  0.00     0.051 A 
ATOM      5  C5  IND d   1      -0.555  -1.242   1.343  0.00  0.00    -0.031 A 
ATOM      6  C6  IND d   1      -1.895  -0.981   1.548  0.00  0.00     0.015 A 
ATOM      7  C7  IND d   1      -2.359   0.298   1.679  0.00  0.00    -0.016 A 
ATOM      8  C8  IND d   1      -1.418   1.316   1.614  0.00  0.00    -0.047 A 
ATOM      9  C9  IND d   1      -0.052   1.054   1.448  0.00  0.00    -0.096 A 
ATOM     10  HN1 IND d   1      -2.306   3.099   1.847  0.00  0.00     0.298 HD
ENDROOT
TORSDOF 0
ENDMDL
