MODEL 1
REMARK minimizedAffinity 11.4815655
REMARK minimizedRMSD -1
REMARK  0 active torsions:
REMARK  status: ('A' for Active; 'I' for Inactive)
ROOT
ATOM      1  N1  IND d   1      -0.424  -1.937   3.140  0.00  0.00    -0.196 N 
ATOM      2  C2  IND d   1      -1.778  -2.108   3.078  0.00  0.00     0.054 A 
ATOM      3  C3  IND d   1      -2.379  -0.967   2.674  0.00  0.00    -0.031 A 
ATOM      4  C4  IND d   1      -1.327   1.273   1.963  0.00  0.00     0.051 A 
ATOM      5  C5  IND d   1      -0.128   1.923   1.887  0.00  0.00    -0.031 A 
ATOM      6  C6  IND d   1       1.059   1.307   2.228  0.00  0.00     0.015 A 
ATOM      7  C7  IND d   1       1.091   0.008   2.650  0.00  0.00    -0.016 A 
ATOM      8  C8  IND d   1      -0.126  -0.654   2.736  0.00  0.00    -0.047 A 
ATOM      9  C9  IND d   1      -1.337  -0.020   2.431  0.00  0.00    -0.096 A 
ATOM     10  HN1 IND d   1       0.147  -2.530   3.389  0.00  0.00     0.298 HD
ENDROOT
TORSDOF 0
ENDMDL
