MODEL 1
REMARK minimizedAffinity 0.660381377
REMARK minimizedRMSD -1
REMARK  0 active torsions:
REMARK  status: ('A' for Active; 'I' for Inactive)
ROOT
ATOM      1  N1  IND d   1      -2.027   1.261   1.955  0.00  0.00    -0.196 N 
ATOM      2  C2  IND d   1      -2.151   2.595   1.684  0.00  0.00     0.054 A 
ATOM      3  C3  IND d   1      -1.022   3.064   1.107  0.00  0.00    -0.031 A 
ATOM      4  C4  IND d   1       1.112   1.798   0.421  0.00  0.00     0.051 A 
ATOM      5  C5  IND d   1       1.708   0.571   0.497  0.00  0.00    -0.031 A 
ATOM      6  C6  IND d   1       1.075  -0.512   1.072  0.00  0.00     0.015 A 
ATOM      7  C7  IND d   1      -0.187  -0.410   1.585  0.00  0.00    -0.016 A 
ATOM      8  C8  IND d   1      -0.792   0.837   1.516  0.00  0.00    -0.047 A 
ATOM      9  C9  IND d   1      -0.139   1.950   0.972  0.00  0.00    -0.096 A 
ATOM     10  HN1 IND d   1      -2.621   0.769   2.336  0.00  0.00     0.298 HD
ENDROOT
TORSDOF 0
ENDMDL
