MODEL 1
REMARK minimizedAffinity 3.87877727
REMARK minimizedRMSD -1
REMARK  0 active torsions:
REMARK  status: ('A' for Active; 'I' for Inactive)
ROOT
ATOM      1  N1  IND d   1      -1.284  -1.305   1.912  0.00  0.00    -0.196 N 
ATOM      2  C2  IND d   1      -2.575  -0.893   1.735  0.00  0.00     0.054 A 
ATOM      3  C3  IND d   1      -2.607   0.402   1.347  0.00  0.00    -0.031 A 
ATOM      4  C4  IND d   1      -0.657   2.006   0.843  0.00  0.00     0.051 A 
ATOM      5  C5  IND d   1       0.706   2.095   0.897  0.00  0.00    -0.031 A 
ATOM      6  C6  IND d   1       1.491   1.033   1.298  0.00  0.00     0.015 A 
ATOM      7  C7  IND d   1       0.941  -0.167   1.650  0.00  0.00    -0.016 A 
ATOM      8  C8  IND d   1      -0.443  -0.259   1.603  0.00  0.00    -0.047 A 
ATOM      9  C9  IND d   1      -1.248   0.829   1.239  0.00  0.00    -0.096 A 
ATOM     10  HN1 IND d   1      -1.038  -2.087   2.173  0.00  0.00     0.298 HD
ENDROOT
TORSDOF 0
ENDMDL
