MODEL 1
REMARK minimizedAffinity 3.13189602
REMARK minimizedRMSD -1
REMARK  0 active torsions:
REMARK  status: ('A' for Active; 'I' for Inactive)
ROOT
ATOM      1  N1  IND d   1      -0.316   2.354   1.593  0.00  0.00    -0.196 N 
ATOM      2  C2  IND d   1       0.580   1.471   1.058  0.00  0.00     0.054 A 
ATOM      3  C3  IND d   1       0.142   0.202   1.218  0.00  0.00    -0.031 A 
ATOM      4  C4  IND d   1      -2.062  -0.651   2.236  0.00  0.00     0.051 A 
ATOM      5  C5  IND d   1      -3.184  -0.224   2.890  0.00  0.00    -0.031 A 
ATOM      6  C6  IND d   1      -3.412   1.113   3.148  0.00  0.00     0.015 A 
ATOM      7  C7  IND d   1      -2.530   2.076   2.749  0.00  0.00    -0.016 A 
ATOM      8  C8  IND d   1      -1.387   1.645   2.091  0.00  0.00    -0.047 A 
ATOM      9  C9  IND d   1      -1.128   0.287   1.865  0.00  0.00    -0.096 A 
ATOM     10  HN1 IND d   1      -0.226   3.209   1.614  0.00  0.00     0.298 HD
ENDROOT
TORSDOF 0
ENDMDL
