MODEL 1
REMARK minimizedAffinity -0.29676193
REMARK minimizedRMSD -1
REMARK  0 active torsions:
REMARK  status: ('A' for Active; 'I' for Inactive)
ROOT
ATOM      1  N1  IND d   1       1.419  -0.720   0.684  0.00  0.00    -0.196 N 
ATOM      2  C2  IND d   1       2.296   0.299   0.442  0.00  0.00     0.054 A 
ATOM      3  C3  IND d   1       1.707   1.493   0.679  0.00  0.00    -0.031 A 
ATOM      4  C4  IND d   1      -0.654   2.004   1.567  0.00  0.00     0.051 A 
ATOM      5  C5  IND d   1      -1.834   1.399   1.901  0.00  0.00    -0.031 A 
ATOM      6  C6  IND d   1      -1.992   0.030   1.847  0.00  0.00     0.015 A 
ATOM      7  C7  IND d   1      -0.968  -0.791   1.467  0.00  0.00    -0.016 A 
ATOM      8  C8  IND d   1       0.229  -0.181   1.121  0.00  0.00    -0.047 A 
ATOM      9  C9  IND d   1       0.382   1.212   1.133  0.00  0.00    -0.096 A 
ATOM     10  HN1 IND d   1       1.582  -1.558   0.581  0.00  0.00     0.298 HD
ENDROOT
TORSDOF 0
ENDMDL
