MODEL 1
REMARK minimizedAffinity -1.82940531
REMARK minimizedRMSD -1
REMARK  0 active torsions:
REMARK  status: ('A' for Active; 'I' for Inactive)
ROOT
ATOM      1  N1  IND d   1      -2.777   0.914   2.429  0.00  0.00    -0.196 N 
ATOM      2  C2  IND d   1      -2.391  -0.393   2.536  0.00  0.00     0.054 A 
ATOM      3  C3  IND d   1      -1.130  -0.550   2.076  0.00  0.00    -0.031 A 
ATOM      4  C4  IND d   1       0.523   1.218   1.197  0.00  0.00     0.051 A 
ATOM      5  C5  IND d   1       0.612   2.543   0.877  0.00  0.00    -0.031 A 
ATOM      6  C6  IND d   1      -0.444   3.412   1.065  0.00  0.00     0.015 A 
ATOM      7  C7  IND d   1      -1.630   2.987   1.592  0.00  0.00    -0.016 A 
ATOM      8  C8  IND d   1      -1.727   1.640   1.911  0.00  0.00    -0.047 A 
ATOM      9  C9  IND d   1      -0.674   0.746   1.684  0.00  0.00    -0.096 A 
ATOM     10  HN1 IND d   1      -3.546   1.229   2.648  0.00  0.00     0.298 HD
ENDROOT
TORSDOF 0
ENDMDL
