MODEL 1
REMARK minimizedAffinity 3.88279486
REMARK minimizedRMSD -1
REMARK  0 active torsions:
REMARK  status: ('A' for Active; 'I' for Inactive)
ROOT
ATOM      1  N1  IND d   1       4.523   2.558  -4.151  0.00  0.00    -0.196 N 
ATOM      2  C2  IND d   1       3.302   2.068  -3.779  0.00  0.00     0.054 A 
ATOM      3  C3  IND d   1       2.321   2.920  -4.152  0.00  0.00    -0.031 A 
ATOM      4  C4  IND d   1       2.481   5.124  -5.472  0.00  0.00     0.051 A 
ATOM      5  C5  IND d   1       3.388   6.000  -6.000  0.00  0.00    -0.031 A 
ATOM      6  C6  IND d   1       4.747   5.768  -5.939  0.00  0.00     0.015 A 
ATOM      7  C7  IND d   1       5.251   4.640  -5.356  0.00  0.00    -0.016 A 
ATOM      8  C8  IND d   1       4.334   3.751  -4.813  0.00  0.00    -0.047 A 
ATOM      9  C9  IND d   1       2.956   4.002  -4.834  0.00  0.00    -0.096 A 
ATOM     10  HN1 IND d   1       5.282   2.184  -3.997  0.00  0.00     0.298 HD
ENDROOT
TORSDOF 0
ENDMDL
