MODEL 1
REMARK minimizedAffinity 0.00561792636
REMARK minimizedRMSD -1
REMARK  0 active torsions:
REMARK  status: ('A' for Active; 'I' for Inactive)
ROOT
ATOM      1  N1  IND d   1       0.755   1.634   0.886  0.00  0.00    -0.196 N 
ATOM      2  C2  IND d   1       0.745   2.989   0.708  0.00  0.00     0.054 A 
ATOM      3  C3  IND d   1      -0.418   3.514   1.155  0.00  0.00    -0.031 A 
ATOM      4  C4  IND d   1      -2.402   2.348   2.309  0.00  0.00     0.051 A 
ATOM      5  C5  IND d   1      -2.869   1.113   2.660  0.00  0.00    -0.031 A 
ATOM      6  C6  IND d   1      -2.137  -0.035   2.436  0.00  0.00     0.015 A 
ATOM      7  C7  IND d   1      -0.899   0.012   1.860  0.00  0.00    -0.016 A 
ATOM      8  C8  IND d   1      -0.424   1.263   1.496  0.00  0.00    -0.047 A 
ATOM      9  C9  IND d   1      -1.181   2.427   1.682  0.00  0.00    -0.096 A 
ATOM     10  HN1 IND d   1       1.391   1.102   0.657  0.00  0.00     0.298 HD
ENDROOT
TORSDOF 0
ENDMDL
