MODEL 1
REMARK minimizedAffinity 8.65087414
REMARK minimizedRMSD -1
REMARK  0 active torsions:
REMARK  status: ('A' for Active; 'I' for Inactive)
ROOT
ATOM      1  N1  IND d   1      -3.319   2.946   2.951  0.00  0.00    -0.196 N 
ATOM      2  C2  IND d   1      -3.699   1.830   3.643  0.00  0.00     0.054 A 
ATOM      3  C3  IND d   1      -2.886   0.792   3.344  0.00  0.00    -0.031 A 
ATOM      4  C4  IND d   1      -0.808   0.727   1.825  0.00  0.00     0.051 A 
ATOM      5  C5  IND d   1      -0.089   1.492   0.951  0.00  0.00    -0.031 A 
ATOM      6  C6  IND d   1      -0.414   2.808   0.695  0.00  0.00     0.015 A 
ATOM      7  C7  IND d   1      -1.469   3.415   1.316  0.00  0.00    -0.016 A 
ATOM      8  C8  IND d   1      -2.206   2.639   2.200  0.00  0.00    -0.047 A 
ATOM      9  C9  IND d   1      -1.907   1.290   2.431  0.00  0.00    -0.096 A 
ATOM     10  HN1 IND d   1      -3.710   3.712   2.981  0.00  0.00     0.298 HD
ENDROOT
TORSDOF 0
ENDMDL
