MODEL 1
REMARK minimizedAffinity -3.53421259
REMARK minimizedRMSD -1
REMARK  3 active torsions:
REMARK  status: ('A' for Active; 'I' for Inactive)
REMARK    1  A    between atoms: C3'_2  and  C2'_3 
REMARK    2  A    between atoms: C2'_3  and  C1'_4 
REMARK    3  A    between atoms: C1'_4  and  C1_5 
ROOT
ATOM      1  C1  N4B d   1       1.421   0.515   0.664  0.00  0.00    -0.075 A 
ATOM      2  C2  N4B d   1       1.952  -0.371  -0.298  0.00  0.00     0.002 A 
ATOM      3  C3  N4B d   1       3.088  -1.090  -0.016  0.00  0.00     0.002 A 
ATOM      4  C4  N4B d   1       3.718  -0.924   1.208  0.00  0.00    -0.004 A 
ATOM      5  C5  N4B d   1       3.184  -0.085   2.142  0.00  0.00     0.002 A 
ATOM      6  C6  N4B d   1       2.041   0.640   1.874  0.00  0.00     0.002 A 
ENDROOT
BRANCH   1   7
ATOM      7  C1' N4B d   1       0.230   1.386   0.370  0.00  0.00     0.057 C 
BRANCH   7   8
ATOM      8  C2' N4B d   1      -0.415   1.814   1.685  0.00  0.00     0.009 C 
BRANCH   8   9
ATOM      9  C3' N4B d   1      -1.799   1.213   1.862  0.00  0.00     0.004 C 
ATOM     10  C4' N4B d   1      -1.774  -0.283   1.967  0.00  0.00     0.003 C 
ENDBRANCH   8   9
ENDBRANCH   7   8
ENDBRANCH   1   7
TORSDOF 3
ENDMDL
