MODEL 1
REMARK minimizedAffinity -0.0429455824
REMARK minimizedRMSD -1
REMARK  3 active torsions:
REMARK  status: ('A' for Active; 'I' for Inactive)
REMARK    1  A    between atoms: C3'_2  and  C2'_3 
REMARK    2  A    between atoms: C2'_3  and  C1'_4 
REMARK    3  A    between atoms: C1'_4  and  C1_5 
ROOT
ATOM      1  C1  N4B d   1      -1.908   1.696   2.199  0.00  0.00    -0.075 A 
ATOM      2  C2  N4B d   1      -0.714   2.393   1.910  0.00  0.00     0.002 A 
ATOM      3  C3  N4B d   1       0.423   1.698   1.578  0.00  0.00     0.002 A 
ATOM      4  C4  N4B d   1       0.395   0.312   1.547  0.00  0.00    -0.004 A 
ATOM      5  C5  N4B d   1      -0.768  -0.353   1.802  0.00  0.00     0.002 A 
ATOM      6  C6  N4B d   1      -1.920   0.332   2.133  0.00  0.00     0.002 A 
ENDROOT
BRANCH   1   7
ATOM      7  C1' N4B d   1      -3.154   2.408   2.650  0.00  0.00     0.057 C 
BRANCH   7   8
ATOM      8  C2' N4B d   1      -3.860   1.561   3.705  0.00  0.00     0.009 C 
BRANCH   8   9
ATOM      9  C3' N4B d   1      -4.962   2.335   4.410  0.00  0.00     0.004 C 
ATOM     10  C4' N4B d   1      -4.820   2.317   5.902  0.00  0.00     0.003 C 
ENDBRANCH   8   9
ENDBRANCH   7   8
ENDBRANCH   1   7
TORSDOF 3
ENDMDL
