MODEL 1
REMARK minimizedAffinity -3.69502163
REMARK minimizedRMSD -1
REMARK  3 active torsions:
REMARK  status: ('A' for Active; 'I' for Inactive)
REMARK    1  A    between atoms: C3'_2  and  C2'_3 
REMARK    2  A    between atoms: C2'_3  and  C1'_4 
REMARK    3  A    between atoms: C1'_4  and  C1_5 
ROOT
ATOM      1  C1  N4B d   1      -2.605   1.077   2.947  0.00  0.00    -0.075 A 
ATOM      2  C2  N4B d   1      -1.889   2.250   2.623  0.00  0.00     0.002 A 
ATOM      3  C3  N4B d   1      -0.703   2.163   1.937  0.00  0.00     0.002 A 
ATOM      4  C4  N4B d   1      -0.206   0.918   1.581  0.00  0.00    -0.004 A 
ATOM      5  C5  N4B d   1      -0.916  -0.209   1.875  0.00  0.00     0.002 A 
ATOM      6  C6  N4B d   1      -2.112  -0.136   2.561  0.00  0.00     0.002 A 
ENDROOT
BRANCH   1   7
ATOM      7  C1' N4B d   1      -3.863   1.116   3.771  0.00  0.00     0.057 C 
BRANCH   7   8
ATOM      8  C2' N4B d   1      -3.752   2.237   4.801  0.00  0.00     0.009 C 
BRANCH   8   9
ATOM      9  C3' N4B d   1      -4.821   2.130   5.874  0.00  0.00     0.004 C 
ATOM     10  C4' N4B d   1      -5.645   3.377   6.000  0.00  0.00     0.003 C 
ENDBRANCH   8   9
ENDBRANCH   7   8
ENDBRANCH   1   7
TORSDOF 3
ENDMDL
