MODEL 1
REMARK minimizedAffinity 6.48848629
REMARK minimizedRMSD -1
REMARK  3 active torsions:
REMARK  status: ('A' for Active; 'I' for Inactive)
REMARK    1  A    between atoms: C3'_2  and  C2'_3 
REMARK    2  A    between atoms: C2'_3  and  C1'_4 
REMARK    3  A    between atoms: C1'_4  and  C1_5 
ROOT
ATOM      1  C1  N4B d   1      -3.816   2.053   3.026  0.00  0.00    -0.075 A 
ATOM      2  C2  N4B d   1      -3.965   3.215   2.237  0.00  0.00     0.002 A 
ATOM      3  C3  N4B d   1      -2.918   3.662   1.469  0.00  0.00     0.002 A 
ATOM      4  C4  N4B d   1      -1.712   2.978   1.489  0.00  0.00    -0.004 A 
ATOM      5  C5  N4B d   1      -1.584   1.843   2.234  0.00  0.00     0.002 A 
ATOM      6  C6  N4B d   1      -2.630   1.379   3.007  0.00  0.00     0.002 A 
ENDROOT
BRANCH   1   7
ATOM      7  C1' N4B d   1      -4.905   1.574   3.947  0.00  0.00     0.057 C 
BRANCH   7   8
ATOM      8  C2' N4B d   1      -4.648   2.117   5.350  0.00  0.00     0.009 C 
BRANCH   8   9
ATOM      9  C3' N4B d   1      -5.918   2.641   5.998  0.00  0.00     0.004 C 
ATOM     10  C4' N4B d   1      -5.998   4.138   5.993  0.00  0.00     0.003 C 
ENDBRANCH   8   9
ENDBRANCH   7   8
ENDBRANCH   1   7
TORSDOF 3
ENDMDL
