MODEL 1
REMARK minimizedAffinity 4.85516882
REMARK minimizedRMSD -1
REMARK  3 active torsions:
REMARK  status: ('A' for Active; 'I' for Inactive)
REMARK    1  A    between atoms: C3'_2  and  C2'_3 
REMARK    2  A    between atoms: C2'_3  and  C1'_4 
REMARK    3  A    between atoms: C1'_4  and  C1_5 
ROOT
ATOM      1  C1  N4B d   1      -1.391   1.596   1.945  0.00  0.00    -0.075 A 
ATOM      2  C2  N4B d   1      -0.168   2.143   1.497  0.00  0.00     0.002 A 
ATOM      3  C3  N4B d   1       0.919   1.328   1.303  0.00  0.00     0.002 A 
ATOM      4  C4  N4B d   1       0.814  -0.030   1.566  0.00  0.00    -0.004 A 
ATOM      5  C5  N4B d   1      -0.377  -0.555   1.974  0.00  0.00     0.002 A 
ATOM      6  C6  N4B d   1      -1.479   0.253   2.170  0.00  0.00     0.002 A 
ENDROOT
BRANCH   1   7
ATOM      7  C1' N4B d   1      -2.582   2.460   2.254  0.00  0.00     0.057 C 
BRANCH   7   8
ATOM      8  C2' N4B d   1      -3.538   1.691   3.161  0.00  0.00     0.009 C 
BRANCH   8   9
ATOM      9  C3' N4B d   1      -4.527   2.610   3.855  0.00  0.00     0.004 C 
ATOM     10  C4' N4B d   1      -5.444   1.878   4.789  0.00  0.00     0.003 C 
ENDBRANCH   8   9
ENDBRANCH   7   8
ENDBRANCH   1   7
TORSDOF 3
ENDMDL
