MODEL 1
REMARK minimizedAffinity 5.61513233
REMARK minimizedRMSD -1
REMARK  3 active torsions:
REMARK  status: ('A' for Active; 'I' for Inactive)
REMARK    1  A    between atoms: C3'_2  and  C2'_3 
REMARK    2  A    between atoms: C2'_3  and  C1'_4 
REMARK    3  A    between atoms: C1'_4  and  C1_5 
ROOT
ATOM      1  C1  N4B d   1       1.203   2.195   0.844  0.00  0.00    -0.075 A 
ATOM      2  C2  N4B d   1      -0.103   2.624   1.167  0.00  0.00     0.002 A 
ATOM      3  C3  N4B d   1      -1.025   1.721   1.637  0.00  0.00     0.002 A 
ATOM      4  C4  N4B d   1      -0.671   0.387   1.774  0.00  0.00    -0.004 A 
ATOM      5  C5  N4B d   1       0.600  -0.014   1.484  0.00  0.00     0.002 A 
ATOM      6  C6  N4B d   1       1.538   0.883   1.014  0.00  0.00     0.002 A 
ENDROOT
BRANCH   1   7
ATOM      7  C1' N4B d   1       2.220   3.128   0.245  0.00  0.00     0.057 C 
BRANCH   7   8
ATOM      8  C2' N4B d   1       2.165   4.465   0.977  0.00  0.00     0.009 C 
BRANCH   8   9
ATOM      9  C3' N4B d   1       3.208   5.440   0.459  0.00  0.00     0.004 C 
ATOM     10  C4' N4B d   1       4.129   5.932   1.535  0.00  0.00     0.003 C 
ENDBRANCH   8   9
ENDBRANCH   7   8
ENDBRANCH   1   7
TORSDOF 3
ENDMDL
