MODEL 1
REMARK minimizedAffinity 7.87193251
REMARK minimizedRMSD -1
REMARK  3 active torsions:
REMARK  status: ('A' for Active; 'I' for Inactive)
REMARK    1  A    between atoms: C3'_2  and  C2'_3 
REMARK    2  A    between atoms: C2'_3  and  C1'_4 
REMARK    3  A    between atoms: C1'_4  and  C1_5 
ROOT
ATOM      1  C1  N4B d   1      -0.113   0.060   2.371  0.00  0.00    -0.075 A 
ATOM      2  C2  N4B d   1      -1.042   1.118   2.262  0.00  0.00     0.002 A 
ATOM      3  C3  N4B d   1      -0.694   2.271   1.604  0.00  0.00     0.002 A 
ATOM      4  C4  N4B d   1       0.577   2.397   1.064  0.00  0.00    -0.004 A 
ATOM      5  C5  N4B d   1       1.460   1.360   1.151  0.00  0.00     0.002 A 
ATOM      6  C6  N4B d   1       1.123   0.193   1.807  0.00  0.00     0.002 A 
ENDROOT
BRANCH   1   7
ATOM      7  C1' N4B d   1      -0.417  -1.187   3.156  0.00  0.00     0.057 C 
BRANCH   7   8
ATOM      8  C2' N4B d   1      -1.764  -1.746   2.706  0.00  0.00     0.009 C 
BRANCH   8   9
ATOM      9  C3' N4B d   1      -2.764  -1.805   3.848  0.00  0.00     0.004 C 
ATOM     10  C4' N4B d   1      -4.166  -1.508   3.407  0.00  0.00     0.003 C 
ENDBRANCH   8   9
ENDBRANCH   7   8
ENDBRANCH   1   7
TORSDOF 3
ENDMDL
