MODEL 1
REMARK minimizedAffinity -3.2439332
REMARK minimizedRMSD -1
REMARK  3 active torsions:
REMARK  status: ('A' for Active; 'I' for Inactive)
REMARK    1  A    between atoms: C3'_2  and  C2'_3 
REMARK    2  A    between atoms: C2'_3  and  C1'_4 
REMARK    3  A    between atoms: C1'_4  and  C1_5 
ROOT
ATOM      1  C1  N4B d   1      -2.415   0.843   2.345  0.00  0.00    -0.075 A 
ATOM      2  C2  N4B d   1      -1.533   1.858   1.916  0.00  0.00     0.002 A 
ATOM      3  C3  N4B d   1      -0.247   1.542   1.550  0.00  0.00     0.002 A 
ATOM      4  C4  N4B d   1       0.182   0.225   1.624  0.00  0.00    -0.004 A 
ATOM      5  C5  N4B d   1      -0.684  -0.753   2.016  0.00  0.00     0.002 A 
ATOM      6  C6  N4B d   1      -1.980  -0.450   2.382  0.00  0.00     0.002 A 
ENDROOT
BRANCH   1   7
ATOM      7  C1' N4B d   1      -3.803   1.152   2.837  0.00  0.00     0.057 C 
BRANCH   7   8
ATOM      8  C2' N4B d   1      -3.715   1.768   4.230  0.00  0.00     0.009 C 
BRANCH   8   9
ATOM      9  C3' N4B d   1      -5.049   2.337   4.684  0.00  0.00     0.004 C 
ATOM     10  C4' N4B d   1      -4.957   3.050   6.000  0.00  0.00     0.003 C 
ENDBRANCH   8   9
ENDBRANCH   7   8
ENDBRANCH   1   7
TORSDOF 3
ENDMDL
