MODEL 1
REMARK minimizedAffinity -0.917620897
REMARK minimizedRMSD -1
REMARK  3 active torsions:
REMARK  status: ('A' for Active; 'I' for Inactive)
REMARK    1  A    between atoms: C3'_2  and  C2'_3 
REMARK    2  A    between atoms: C2'_3  and  C1'_4 
REMARK    3  A    between atoms: C1'_4  and  C1_5 
ROOT
ATOM      1  C1  N4B d   1      -2.540   1.943   3.143  0.00  0.00    -0.075 A 
ATOM      2  C2  N4B d   1      -2.641   2.901   2.110  0.00  0.00     0.002 A 
ATOM      3  C3  N4B d   1      -1.513   3.311   1.441  0.00  0.00     0.002 A 
ATOM      4  C4  N4B d   1      -0.278   2.793   1.799  0.00  0.00    -0.004 A 
ATOM      5  C5  N4B d   1      -0.192   1.849   2.781  0.00  0.00     0.002 A 
ATOM      6  C6  N4B d   1      -1.318   1.426   3.459  0.00  0.00     0.002 A 
ENDROOT
BRANCH   1   7
ATOM      7  C1' N4B d   1      -3.733   1.529   3.960  0.00  0.00     0.057 C 
BRANCH   7   8
ATOM      8  C2' N4B d   1      -3.769   2.349   5.246  0.00  0.00     0.009 C 
BRANCH   8   9
ATOM      9  C3' N4B d   1      -5.124   2.275   5.929  0.00  0.00     0.004 C 
ATOM     10  C4' N4B d   1      -5.813   3.606   5.998  0.00  0.00     0.003 C 
ENDBRANCH   8   9
ENDBRANCH   7   8
ENDBRANCH   1   7
TORSDOF 3
ENDMDL
