MODEL 1
REMARK minimizedAffinity -4.80998421
REMARK minimizedRMSD -1
REMARK  1 active torsions:
REMARK  status: ('A' for Active; 'I' for Inactive)
REMARK    1  A    between atoms: N_2  and  C1_3 
ROOT
ATOM      1  C1  UNL d   1       1.807  -3.232   0.162  0.00  0.00     0.143 A 
ATOM      2  C2  UNL d   1       0.431  -3.027   0.314  0.00  0.00    -0.057 A 
ATOM      3  C3  UNL d   1      -0.093  -1.746   0.522  0.00  0.00     0.033 A 
ATOM      4  C4  UNL d   1       0.755  -0.647   0.613  0.00  0.00    -0.042 A 
ATOM      5  C5  UNL d   1       2.127  -0.830   0.490  0.00  0.00     0.033 A 
ATOM      6  C6  UNL d   1       2.644  -2.111   0.275  0.00  0.00    -0.057 A 
ENDROOT
BRANCH   1   7
ATOM      7  N   UNL d   1       2.398  -4.493   0.050  0.00  0.00    -0.732 N 
ATOM      8  C   UNL d   1       3.835  -4.627  -0.051  0.00  0.00     0.284 C 
ATOM      9  H3  UNL d   1       1.957  -5.183   0.655  0.00  0.00     0.395 HD
ENDBRANCH   1   7
TORSDOF 1
ENDMDL
