MODEL 1
REMARK minimizedAffinity -0.242156714
REMARK minimizedRMSD -1
REMARK  1 active torsions:
REMARK  status: ('A' for Active; 'I' for Inactive)
REMARK    1  A    between atoms: N_2  and  C1_3 
ROOT
ATOM      1  C1  UNL d   1      -1.304   0.102   1.390  0.00  0.00     0.143 A 
ATOM      2  C2  UNL d   1      -1.535   1.245   2.164  0.00  0.00    -0.057 A 
ATOM      3  C3  UNL d   1      -2.623   2.087   1.907  0.00  0.00     0.033 A 
ATOM      4  C4  UNL d   1      -3.486   1.816   0.851  0.00  0.00    -0.042 A 
ATOM      5  C5  UNL d   1      -3.262   0.700   0.053  0.00  0.00     0.033 A 
ATOM      6  C6  UNL d   1      -2.177  -0.142   0.319  0.00  0.00    -0.057 A 
ENDROOT
BRANCH   1   7
ATOM      7  N   UNL d   1      -0.184  -0.721   1.533  0.00  0.00    -0.732 N 
ATOM      8  C   UNL d   1       0.306  -1.500   0.416  0.00  0.00     0.284 C 
ATOM      9  H3  UNL d   1       0.549  -0.287   2.090  0.00  0.00     0.395 HD
ENDBRANCH   1   7
TORSDOF 1
ENDMDL
