MODEL 1
REMARK minimizedAffinity -2.51218128
REMARK minimizedRMSD -1
REMARK  1 active torsions:
REMARK  status: ('A' for Active; 'I' for Inactive)
REMARK    1  A    between atoms: N_2  and  C1_3 
ROOT
ATOM      1  C1  UNL d   1       2.661  -3.252  -0.140  0.00  0.00     0.143 A 
ATOM      2  C2  UNL d   1       1.423  -3.890  -0.268  0.00  0.00    -0.057 A 
ATOM      3  C3  UNL d   1       0.229  -3.228   0.045  0.00  0.00     0.033 A 
ATOM      4  C4  UNL d   1       0.256  -1.921   0.520  0.00  0.00    -0.042 A 
ATOM      5  C5  UNL d   1       1.477  -1.275   0.679  0.00  0.00     0.033 A 
ATOM      6  C6  UNL d   1       2.665  -1.940   0.358  0.00  0.00    -0.057 A 
ENDROOT
BRANCH   1   7
ATOM      7  N   UNL d   1       3.889  -3.888  -0.341  0.00  0.00    -0.732 N 
ATOM      8  C   UNL d   1       4.151  -5.185   0.247  0.00  0.00     0.284 C 
ATOM      9  H3  UNL d   1       4.226  -3.788  -1.295  0.00  0.00     0.395 HD
ENDBRANCH   1   7
TORSDOF 1
ENDMDL
