MODEL 1
REMARK minimizedAffinity -1.91067636
REMARK minimizedRMSD -1
REMARK  1 active torsions:
REMARK  status: ('A' for Active; 'I' for Inactive)
REMARK    1  A    between atoms: N_2  and  C1_3 
ROOT
ATOM      1  C1  UNL d   1       0.538  -1.472   1.359  0.00  0.00     0.143 A 
ATOM      2  C2  UNL d   1       0.770  -2.841   1.525  0.00  0.00    -0.057 A 
ATOM      3  C3  UNL d   1       1.632  -3.540   0.671  0.00  0.00     0.033 A 
ATOM      4  C4  UNL d   1       2.257  -2.885  -0.385  0.00  0.00    -0.042 A 
ATOM      5  C5  UNL d   1       2.021  -1.529  -0.584  0.00  0.00     0.033 A 
ATOM      6  C6  UNL d   1       1.165  -0.836   0.276  0.00  0.00    -0.057 A 
ENDROOT
BRANCH   1   7
ATOM      7  N   UNL d   1      -0.383  -0.742   2.114  0.00  0.00    -0.732 N 
ATOM      8  C   UNL d   1      -1.553  -0.161   1.490  0.00  0.00     0.284 C 
ATOM      9  H3  UNL d   1      -0.564  -1.165   3.022  0.00  0.00     0.395 HD
ENDBRANCH   1   7
TORSDOF 1
ENDMDL
