MODEL 1
REMARK minimizedAffinity -2.31227875
REMARK minimizedRMSD -1
REMARK  1 active torsions:
REMARK  status: ('A' for Active; 'I' for Inactive)
REMARK    1  A    between atoms: N_2  and  C1_3 
ROOT
ATOM      1  C1  UNL d   1       1.124  -2.388   0.179  0.00  0.00     0.143 A 
ATOM      2  C2  UNL d   1      -0.004  -1.840   0.800  0.00  0.00    -0.057 A 
ATOM      3  C3  UNL d   1      -0.063  -0.480   1.128  0.00  0.00     0.033 A 
ATOM      4  C4  UNL d   1       1.020   0.352   0.866  0.00  0.00    -0.042 A 
ATOM      5  C5  UNL d   1       2.160  -0.175   0.272  0.00  0.00     0.033 A 
ATOM      6  C6  UNL d   1       2.211  -1.533  -0.059  0.00  0.00    -0.057 A 
ENDROOT
BRANCH   1   7
ATOM      7  N   UNL d   1       1.283  -3.751  -0.082  0.00  0.00    -0.732 N 
ATOM      8  C   UNL d   1       2.603  -4.336  -0.172  0.00  0.00     0.284 C 
ATOM      9  H3  UNL d   1       0.608  -4.324   0.419  0.00  0.00     0.395 HD
ENDBRANCH   1   7
TORSDOF 1
ENDMDL
