MODEL 1
REMARK minimizedAffinity -4.5045948
REMARK minimizedRMSD -1
REMARK  1 active torsions:
REMARK  status: ('A' for Active; 'I' for Inactive)
REMARK    1  A    between atoms: N_2  and  C1_3 
ROOT
ATOM      1  C1  UNL d   1       2.612  -3.480  -0.073  0.00  0.00     0.143 A 
ATOM      2  C2  UNL d   1       2.901  -2.156   0.275  0.00  0.00    -0.057 A 
ATOM      3  C3  UNL d   1       1.896  -1.182   0.327  0.00  0.00     0.033 A 
ATOM      4  C4  UNL d   1       0.584  -1.510   0.002  0.00  0.00    -0.042 A 
ATOM      5  C5  UNL d   1       0.278  -2.814  -0.372  0.00  0.00     0.033 A 
ATOM      6  C6  UNL d   1       1.285  -3.783  -0.415  0.00  0.00    -0.057 A 
ENDROOT
BRANCH   1   7
ATOM      7  N   UNL d   1       3.583  -4.470  -0.238  0.00  0.00    -0.732 N 
ATOM      8  C   UNL d   1       3.702  -5.552   0.716  0.00  0.00     0.284 C 
ATOM      9  H3  UNL d   1       3.682  -4.760  -1.209  0.00  0.00     0.395 HD
ENDBRANCH   1   7
TORSDOF 1
ENDMDL
