MODEL 1
REMARK minimizedAffinity -5.17615271
REMARK minimizedRMSD -1
REMARK  1 active torsions:
REMARK  status: ('A' for Active; 'I' for Inactive)
REMARK    1  A    between atoms: N_2  and  C1_3 
ROOT
ATOM      1  C1  UNL d   1       2.157  -3.071   0.498  0.00  0.00     0.143 A 
ATOM      2  C2  UNL d   1       0.818  -3.125   0.897  0.00  0.00    -0.057 A 
ATOM      3  C3  UNL d   1       0.039  -1.965   0.985  0.00  0.00     0.033 A 
ATOM      4  C4  UNL d   1       0.596  -0.723   0.702  0.00  0.00    -0.042 A 
ATOM      5  C5  UNL d   1       1.933  -0.642   0.327  0.00  0.00     0.033 A 
ATOM      6  C6  UNL d   1       2.704  -1.805   0.235  0.00  0.00    -0.057 A 
ENDROOT
BRANCH   1   7
ATOM      7  N   UNL d   1       3.011  -4.177   0.487  0.00  0.00    -0.732 N 
ATOM      8  C   UNL d   1       4.133  -4.233  -0.426  0.00  0.00     0.284 C 
ATOM      9  H3  UNL d   1       3.219  -4.516   1.423  0.00  0.00     0.395 HD
ENDBRANCH   1   7
TORSDOF 1
ENDMDL
