MODEL 1
REMARK minimizedAffinity -3.62927556
REMARK minimizedRMSD -1
REMARK  1 active torsions:
REMARK  status: ('A' for Active; 'I' for Inactive)
REMARK    1  A    between atoms: N_2  and  C1_3 
ROOT
ATOM      1  C1  UNL d   1       2.775  -2.884  -0.119  0.00  0.00     0.143 A 
ATOM      2  C2  UNL d   1       1.491  -3.410   0.055  0.00  0.00    -0.057 A 
ATOM      3  C3  UNL d   1       0.406  -2.585   0.377  0.00  0.00     0.033 A 
ATOM      4  C4  UNL d   1       0.593  -1.219   0.560  0.00  0.00    -0.042 A 
ATOM      5  C5  UNL d   1       1.865  -0.678   0.417  0.00  0.00     0.033 A 
ATOM      6  C6  UNL d   1       2.944  -1.505   0.089  0.00  0.00    -0.057 A 
ENDROOT
BRANCH   1   7
ATOM      7  N   UNL d   1       3.912  -3.664  -0.342  0.00  0.00    -0.732 N 
ATOM      8  C   UNL d   1       3.984  -5.021   0.157  0.00  0.00     0.284 C 
ATOM      9  H3  UNL d   1       4.286  -3.546  -1.281  0.00  0.00     0.395 HD
ENDBRANCH   1   7
TORSDOF 1
ENDMDL
