MODEL 1
REMARK minimizedAffinity -2.74347758
REMARK minimizedRMSD -1
REMARK  1 active torsions:
REMARK  status: ('A' for Active; 'I' for Inactive)
REMARK    1  A    between atoms: N_2  and  C1_3 
ROOT
ATOM      1  C1  UNL d   1       1.199  -3.065   0.316  0.00  0.00     0.143 A 
ATOM      2  C2  UNL d   1       1.710  -1.846  -0.143  0.00  0.00    -0.057 A 
ATOM      3  C3  UNL d   1       1.080  -0.634   0.163  0.00  0.00     0.033 A 
ATOM      4  C4  UNL d   1      -0.092  -0.621   0.912  0.00  0.00    -0.042 A 
ATOM      5  C5  UNL d   1      -0.631  -1.823   1.357  0.00  0.00     0.033 A 
ATOM      6  C6  UNL d   1       0.006  -3.030   1.054  0.00  0.00    -0.057 A 
ENDROOT
BRANCH   1   7
ATOM      7  N   UNL d   1       1.724  -4.311  -0.037  0.00  0.00    -0.732 N 
ATOM      8  C   UNL d   1       3.153  -4.539  -0.025  0.00  0.00     0.284 C 
ATOM      9  H3  UNL d   1       1.177  -5.083   0.337  0.00  0.00     0.395 HD
ENDBRANCH   1   7
TORSDOF 1
ENDMDL
