MODEL 1
REMARK minimizedAffinity 1.23978257
REMARK minimizedRMSD -1
REMARK  1 active torsions:
REMARK  status: ('A' for Active; 'I' for Inactive)
REMARK    1  A    between atoms: N_2  and  C1_3 
ROOT
ATOM      1  C1  UNL d   1       2.090  -2.355   0.316  0.00  0.00     0.143 A 
ATOM      2  C2  UNL d   1       0.991  -3.154   0.650  0.00  0.00    -0.057 A 
ATOM      3  C3  UNL d   1      -0.212  -2.587   1.089  0.00  0.00     0.033 A 
ATOM      4  C4  UNL d   1      -0.326  -1.208   1.231  0.00  0.00    -0.042 A 
ATOM      5  C5  UNL d   1       0.761  -0.396   0.929  0.00  0.00     0.033 A 
ATOM      6  C6  UNL d   1       1.957  -0.968   0.484  0.00  0.00    -0.057 A 
ENDROOT
BRANCH   1   7
ATOM      7  N   UNL d   1       3.344  -2.864  -0.033  0.00  0.00    -0.732 N 
ATOM      8  C   UNL d   1       3.628  -4.277   0.098  0.00  0.00     0.284 C 
ATOM      9  H3  UNL d   1       3.711  -2.443  -0.883  0.00  0.00     0.395 HD
ENDBRANCH   1   7
TORSDOF 1
ENDMDL
