MODEL 1
REMARK minimizedAffinity -5.36967659
REMARK minimizedRMSD -1
REMARK  1 active torsions:
REMARK  status: ('A' for Active; 'I' for Inactive)
REMARK    1  A    between atoms: C1_2  and  C2_3 
ROOT
ATOM      1  C2  UNL d   1       0.142   0.067   0.007  0.00  0.00    -0.077 A 
ATOM      2  C3  UNL d   1       1.247   0.834  -0.388  0.00  0.00     0.002 A 
ATOM      3  C4  UNL d   1       2.387   0.215  -0.906  0.00  0.00     0.002 A 
ATOM      4  C5  UNL d   1       2.431  -1.171  -1.036  0.00  0.00    -0.004 A 
ATOM      5  C6  UNL d   1       1.337  -1.942  -0.644  0.00  0.00     0.002 A 
ATOM      6  C7  UNL d   1       0.198  -1.326  -0.126  0.00  0.00     0.002 A 
ENDROOT
BRANCH   1   7
ATOM      7  C1  UNL d   1      -1.107   0.736   0.520  0.00  0.00     0.055 C 
ATOM      8  C   UNL d   1      -1.272   0.526   2.018  0.00  0.00     0.019 C 
ENDBRANCH   1   7
TORSDOF 1
ENDMDL
