MODEL 1
REMARK minimizedAffinity -4.57794857
REMARK minimizedRMSD -1
REMARK  1 active torsions:
REMARK  status: ('A' for Active; 'I' for Inactive)
REMARK    1  A    between atoms: C1_2  and  C2_3 
ROOT
ATOM      1  C2  UNL d   1       0.817  -0.411  -0.666  0.00  0.00    -0.077 A 
ATOM      2  C3  UNL d   1       0.834   0.952  -0.993  0.00  0.00     0.002 A 
ATOM      3  C4  UNL d   1      -0.205   1.790  -0.582  0.00  0.00     0.002 A 
ATOM      4  C5  UNL d   1      -1.265   1.274   0.161  0.00  0.00    -0.004 A 
ATOM      5  C6  UNL d   1      -1.292  -0.081   0.489  0.00  0.00     0.002 A 
ATOM      6  C7  UNL d   1      -0.255  -0.919   0.078  0.00  0.00     0.002 A 
ENDROOT
BRANCH   1   7
ATOM      7  C1  UNL d   1       1.961  -1.306  -1.066  0.00  0.00     0.055 C 
ATOM      8  C   UNL d   1       3.275  -0.540  -1.109  0.00  0.00     0.019 C 
ENDBRANCH   1   7
TORSDOF 1
ENDMDL
