MODEL 1
REMARK minimizedAffinity -4.12191772
REMARK minimizedRMSD -1
REMARK  1 active torsions:
REMARK  status: ('A' for Active; 'I' for Inactive)
REMARK    1  A    between atoms: C1_2  and  C2_3 
ROOT
ATOM      1  C2  UNL d   1       0.946  -0.177  -0.714  0.00  0.00    -0.077 A 
ATOM      2  C3  UNL d   1       0.867   1.025  -1.431  0.00  0.00     0.002 A 
ATOM      3  C4  UNL d   1       1.839   1.346  -2.380  0.00  0.00     0.002 A 
ATOM      4  C5  UNL d   1       2.894   0.469  -2.625  0.00  0.00    -0.004 A 
ATOM      5  C6  UNL d   1       2.982  -0.728  -1.916  0.00  0.00     0.002 A 
ATOM      6  C7  UNL d   1       2.012  -1.051  -0.966  0.00  0.00     0.002 A 
ENDROOT
BRANCH   1   7
ATOM      7  C1  UNL d   1      -0.128  -0.549   0.275  0.00  0.00     0.055 C 
ATOM      8  C   UNL d   1      -1.387   0.279   0.062  0.00  0.00     0.019 C 
ENDBRANCH   1   7
TORSDOF 1
ENDMDL
