MODEL 1
REMARK minimizedAffinity -1.71270084
REMARK minimizedRMSD -1
REMARK  1 active torsions:
REMARK  status: ('A' for Active; 'I' for Inactive)
REMARK    1  A    between atoms: C1_2  and  C2_3 
ROOT
ATOM      1  C2  UNL d   1       0.473   0.259  -0.534  0.00  0.00    -0.077 A 
ATOM      2  C3  UNL d   1       1.676   0.956  -0.356  0.00  0.00     0.002 A 
ATOM      3  C4  UNL d   1       2.893   0.272  -0.337  0.00  0.00     0.002 A 
ATOM      4  C5  UNL d   1       2.918  -1.112  -0.499  0.00  0.00    -0.004 A 
ATOM      5  C6  UNL d   1       1.727  -1.814  -0.675  0.00  0.00     0.002 A 
ATOM      6  C7  UNL d   1       0.509  -1.132  -0.693  0.00  0.00     0.002 A 
ENDROOT
BRANCH   1   7
ATOM      7  C1  UNL d   1      -0.836   1.001  -0.604  0.00  0.00     0.055 C 
ATOM      8  C   UNL d   1      -0.723   2.242  -1.477  0.00  0.00     0.019 C 
ENDBRANCH   1   7
TORSDOF 1
ENDMDL
