MODEL 1
REMARK minimizedAffinity -5.39244986
REMARK minimizedRMSD -1
REMARK  1 active torsions:
REMARK  status: ('A' for Active; 'I' for Inactive)
REMARK    1  A    between atoms: C1_2  and  C2_3 
ROOT
ATOM      1  C2  UNL d   1       0.475  -0.205   0.299  0.00  0.00    -0.077 A 
ATOM      2  C3  UNL d   1       1.604   0.353   0.915  0.00  0.00     0.002 A 
ATOM      3  C4  UNL d   1       2.860   0.247   0.314  0.00  0.00     0.002 A 
ATOM      4  C5  UNL d   1       2.998  -0.410  -0.906  0.00  0.00    -0.004 A 
ATOM      5  C6  UNL d   1       1.881  -0.970  -1.526  0.00  0.00     0.002 A 
ATOM      6  C7  UNL d   1       0.625  -0.867  -0.926  0.00  0.00     0.002 A 
ENDROOT
BRANCH   1   7
ATOM      7  C1  UNL d   1      -0.888  -0.049   0.921  0.00  0.00     0.055 C 
ATOM      8  C   UNL d   1      -1.909   0.438  -0.097  0.00  0.00     0.019 C 
ENDBRANCH   1   7
TORSDOF 1
ENDMDL
