MODEL 1
REMARK minimizedAffinity -5.91604376
REMARK minimizedRMSD -1
REMARK  1 active torsions:
REMARK  status: ('A' for Active; 'I' for Inactive)
REMARK    1  A    between atoms: C1_2  and  C2_3 
ROOT
ATOM      1  C2  UNL d   1       0.547  -0.044  -0.605  0.00  0.00    -0.077 A 
ATOM      2  C3  UNL d   1       1.012   1.014  -1.399  0.00  0.00     0.002 A 
ATOM      3  C4  UNL d   1       2.238   0.914  -2.060  0.00  0.00     0.002 A 
ATOM      4  C5  UNL d   1       3.006  -0.242  -1.938  0.00  0.00    -0.004 A 
ATOM      5  C6  UNL d   1       2.553  -1.299  -1.148  0.00  0.00     0.002 A 
ATOM      6  C7  UNL d   1       1.329  -1.200  -0.485  0.00  0.00     0.002 A 
ENDROOT
BRANCH   1   7
ATOM      7  C1  UNL d   1      -0.797   0.042   0.070  0.00  0.00     0.055 C 
ATOM      8  C   UNL d   1      -0.684   0.671   1.451  0.00  0.00     0.019 C 
ENDBRANCH   1   7
TORSDOF 1
ENDMDL
