MODEL 1
REMARK minimizedAffinity -4.49112082
REMARK minimizedRMSD -1
REMARK  1 active torsions:
REMARK  status: ('A' for Active; 'I' for Inactive)
REMARK    1  A    between atoms: C1_2  and  C2_3 
ROOT
ATOM      1  C2  UNL d   1       0.156   0.229  -1.046  0.00  0.00    -0.077 A 
ATOM      2  C3  UNL d   1       0.186   1.348  -1.889  0.00  0.00     0.002 A 
ATOM      3  C4  UNL d   1       1.183   1.476  -2.858  0.00  0.00     0.002 A 
ATOM      4  C5  UNL d   1       2.154   0.486  -2.996  0.00  0.00    -0.004 A 
ATOM      5  C6  UNL d   1       2.134  -0.630  -2.161  0.00  0.00     0.002 A 
ATOM      6  C7  UNL d   1       1.139  -0.759  -1.190  0.00  0.00     0.002 A 
ENDROOT
BRANCH   1   7
ATOM      7  C1  UNL d   1      -0.947   0.066  -0.033  0.00  0.00     0.055 C 
ATOM      8  C   UNL d   1      -0.401   0.083   1.388  0.00  0.00     0.019 C 
ENDBRANCH   1   7
TORSDOF 1
ENDMDL
