MODEL 1
REMARK minimizedAffinity -4.9477272
REMARK minimizedRMSD -1
REMARK  1 active torsions:
REMARK  status: ('A' for Active; 'I' for Inactive)
REMARK    1  A    between atoms: C1_2  and  C2_3 
ROOT
ATOM      1  C2  UNL d   1       0.264  -0.077  -0.384  0.00  0.00    -0.077 A 
ATOM      2  C3  UNL d   1       1.149   0.962  -0.701  0.00  0.00     0.002 A 
ATOM      3  C4  UNL d   1       2.437   0.677  -1.160  0.00  0.00     0.002 A 
ATOM      4  C5  UNL d   1       2.849  -0.645  -1.309  0.00  0.00    -0.004 A 
ATOM      5  C6  UNL d   1       1.976  -1.686  -0.993  0.00  0.00     0.002 A 
ATOM      6  C7  UNL d   1       0.689  -1.403  -0.534  0.00  0.00     0.002 A 
ENDROOT
BRANCH   1   7
ATOM      7  C1  UNL d   1      -1.142   0.228   0.064  0.00  0.00     0.055 C 
ATOM      8  C   UNL d   1      -1.189   0.573   1.545  0.00  0.00     0.019 C 
ENDBRANCH   1   7
TORSDOF 1
ENDMDL
