MODEL 1
REMARK minimizedAffinity -3.4065516
REMARK minimizedRMSD -1
REMARK  1 active torsions:
REMARK  status: ('A' for Active; 'I' for Inactive)
REMARK    1  A    between atoms: C1_2  and  C2_3 
ROOT
ATOM      1  C2  UNL d   1       0.617  -0.121  -0.221  0.00  0.00    -0.077 A 
ATOM      2  C3  UNL d   1      -0.383   0.809  -0.535  0.00  0.00     0.002 A 
ATOM      3  C4  UNL d   1      -0.077   1.953  -1.275  0.00  0.00     0.002 A 
ATOM      4  C5  UNL d   1       1.228   2.174  -1.711  0.00  0.00    -0.004 A 
ATOM      5  C6  UNL d   1       2.230   1.255  -1.402  0.00  0.00     0.002 A 
ATOM      6  C7  UNL d   1       1.926   0.113  -0.661  0.00  0.00     0.002 A 
ENDROOT
BRANCH   1   7
ATOM      7  C1  UNL d   1       0.279  -1.380   0.535  0.00  0.00     0.055 C 
ATOM      8  C   UNL d   1      -0.001  -2.537  -0.413  0.00  0.00     0.019 C 
ENDBRANCH   1   7
TORSDOF 1
ENDMDL
