MODEL 1
REMARK minimizedAffinity -4.33000183
REMARK minimizedRMSD -1
REMARK  1 active torsions:
REMARK  status: ('A' for Active; 'I' for Inactive)
REMARK    1  A    between atoms: C1_2  and  C2_3 
ROOT
ATOM      1  C2  UNL d   1       0.185  -0.248   0.009  0.00  0.00    -0.077 A 
ATOM      2  C3  UNL d   1       0.831  -1.487   0.126  0.00  0.00     0.002 A 
ATOM      3  C4  UNL d   1       2.115  -1.666  -0.392  0.00  0.00     0.002 A 
ATOM      4  C5  UNL d   1       2.765  -0.610  -1.027  0.00  0.00    -0.004 A 
ATOM      5  C6  UNL d   1       2.131   0.625  -1.150  0.00  0.00     0.002 A 
ATOM      6  C7  UNL d   1       0.847   0.806  -0.634  0.00  0.00     0.002 A 
ENDROOT
BRANCH   1   7
ATOM      7  C1  UNL d   1      -1.180  -0.039   0.611  0.00  0.00     0.055 C 
ATOM      8  C   UNL d   1      -1.122   0.910   1.799  0.00  0.00     0.019 C 
ENDBRANCH   1   7
TORSDOF 1
ENDMDL
