MODEL 1
REMARK minimizedAffinity -5.75233698
REMARK minimizedRMSD -1
REMARK  1 active torsions:
REMARK  status: ('A' for Active; 'I' for Inactive)
REMARK    1  A    between atoms: C1_2  and  C2_3 
ROOT
ATOM      1  C2  UNL d   1       0.427  -0.057   0.025  0.00  0.00    -0.077 A 
ATOM      2  C3  UNL d   1       1.427   0.809  -0.440  0.00  0.00     0.002 A 
ATOM      3  C4  UNL d   1       2.630   0.299  -0.932  0.00  0.00     0.002 A 
ATOM      4  C5  UNL d   1       2.842  -1.078  -0.967  0.00  0.00    -0.004 A 
ATOM      5  C6  UNL d   1       1.855  -1.947  -0.504  0.00  0.00     0.002 A 
ATOM      6  C7  UNL d   1       0.652  -1.439  -0.012  0.00  0.00     0.002 A 
ENDROOT
BRANCH   1   7
ATOM      7  C1  UNL d   1      -0.891   0.489   0.510  0.00  0.00     0.055 C 
ATOM      8  C   UNL d   1      -0.781   1.018   1.933  0.00  0.00     0.019 C 
ENDBRANCH   1   7
TORSDOF 1
ENDMDL
