MODEL 1
REMARK minimizedAffinity -1.97661257
REMARK minimizedRMSD -1
REMARK  1 active torsions:
REMARK  status: ('A' for Active; 'I' for Inactive)
REMARK    1  A    between atoms: C1_2  and  C2_3 
ROOT
ATOM      1  C2  UNL d   1       0.483  -0.137  -0.752  0.00  0.00    -0.077 A 
ATOM      2  C3  UNL d   1      -0.806  -0.107  -0.203  0.00  0.00     0.002 A 
ATOM      3  C4  UNL d   1      -1.660   0.967  -0.460  0.00  0.00     0.002 A 
ATOM      4  C5  UNL d   1      -1.235   2.017  -1.271  0.00  0.00    -0.004 A 
ATOM      5  C6  UNL d   1       0.046   1.998  -1.821  0.00  0.00     0.002 A 
ATOM      6  C7  UNL d   1       0.901   0.926  -1.564  0.00  0.00     0.002 A 
ENDROOT
BRANCH   1   7
ATOM      7  C1  UNL d   1       1.387  -1.318  -0.516  0.00  0.00     0.055 C 
ATOM      8  C   UNL d   1       2.387  -1.486  -1.650  0.00  0.00     0.019 C 
ENDBRANCH   1   7
TORSDOF 1
ENDMDL
