MODEL 1
REMARK minimizedAffinity 0.888860881
REMARK minimizedRMSD -1
REMARK  1 active torsions:
REMARK  status: ('A' for Active; 'I' for Inactive)
REMARK    1  A    between atoms: C1_2  and  C2_3 
ROOT
ATOM      1  C2  UNL d   1      -1.564  -0.297   0.639  0.00  0.00    -0.077 A 
ATOM      2  C3  UNL d   1      -0.911  -1.517   0.414  0.00  0.00     0.002 A 
ATOM      3  C4  UNL d   1       0.255  -1.564  -0.351  0.00  0.00     0.002 A 
ATOM      4  C5  UNL d   1       0.782  -0.394  -0.894  0.00  0.00    -0.004 A 
ATOM      5  C6  UNL d   1       0.139   0.825  -0.678  0.00  0.00     0.002 A 
ATOM      6  C7  UNL d   1      -1.028   0.873   0.086  0.00  0.00     0.002 A 
ENDROOT
BRANCH   1   7
ATOM      7  C1  UNL d   1      -2.795  -0.237   1.505  0.00  0.00     0.055 C 
ATOM      8  C   UNL d   1      -2.446   0.135   2.939  0.00  0.00     0.019 C 
ENDBRANCH   1   7
TORSDOF 1
ENDMDL
