MODEL 1
REMARK minimizedAffinity -3.16832471
REMARK minimizedRMSD -1
REMARK  1 active torsions:
REMARK  status: ('A' for Active; 'I' for Inactive)
REMARK    1  A    between atoms: C1_2  and  C2_3 
ROOT
ATOM      1  C2  UNL d   1      -1.406   0.793   1.187  0.00  0.00    -0.077 A 
ATOM      2  C3  UNL d   1      -0.256   0.075   0.830  0.00  0.00     0.002 A 
ATOM      3  C4  UNL d   1       0.446   0.398  -0.333  0.00  0.00     0.002 A 
ATOM      4  C5  UNL d   1       0.009   1.443  -1.145  0.00  0.00    -0.004 A 
ATOM      5  C6  UNL d   1      -1.135   2.162  -0.799  0.00  0.00     0.002 A 
ATOM      6  C7  UNL d   1      -1.838   1.839   0.362  0.00  0.00     0.002 A 
ENDROOT
BRANCH   1   7
ATOM      7  C1  UNL d   1      -2.137   0.478   2.466  0.00  0.00     0.055 C 
ATOM      8  C   UNL d   1      -2.097   1.654   3.431  0.00  0.00     0.019 C 
ENDBRANCH   1   7
TORSDOF 1
ENDMDL
