MODEL 1
REMARK minimizedAffinity 0.346401036
REMARK minimizedRMSD -1
REMARK  1 active torsions:
REMARK  status: ('A' for Active; 'I' for Inactive)
REMARK    1  A    between atoms: C1_2  and  C2_3 
ROOT
ATOM      1  C2  UNL d   1       0.399  -0.329  -1.220  0.00  0.00    -0.077 A 
ATOM      2  C3  UNL d   1       1.292  -1.408  -1.166  0.00  0.00     0.002 A 
ATOM      3  C4  UNL d   1       0.989  -2.540  -0.406  0.00  0.00     0.002 A 
ATOM      4  C5  UNL d   1      -0.209  -2.604   0.302  0.00  0.00    -0.004 A 
ATOM      5  C6  UNL d   1      -1.103  -1.535   0.257  0.00  0.00     0.002 A 
ATOM      6  C7  UNL d   1      -0.801  -0.403  -0.501  0.00  0.00     0.002 A 
ENDROOT
BRANCH   1   7
ATOM      7  C1  UNL d   1       0.702   0.871  -2.078  0.00  0.00     0.055 C 
ATOM      8  C   UNL d   1       1.279   0.457  -3.424  0.00  0.00     0.019 C 
ENDBRANCH   1   7
TORSDOF 1
ENDMDL
