MODEL 1
REMARK minimizedAffinity -1.00927949
REMARK minimizedRMSD -1
REMARK  0 active torsions:
REMARK  status: ('A' for Active; 'I' for Inactive)
ROOT
ATOM      1  C2' OXE d   1      -1.613  -0.812   3.618  0.00  0.00     0.078 C 
ATOM      2  C1' OXE d   1      -2.959  -0.263   1.217  0.00  0.00     0.078 C 
ATOM      3  C1  OXE d   1      -1.483   0.041   1.281  0.00  0.00    -0.078 A 
ATOM      4  C2  OXE d   1      -0.842  -0.187   2.475  0.00  0.00    -0.078 A 
ATOM      5  C3  OXE d   1       0.530   0.025   2.572  0.00  0.00     0.003 A 
ATOM      6  C4  OXE d   1       1.234   0.612   1.513  0.00  0.00    -0.002 A 
ATOM      7  C5  OXE d   1       0.592   0.889   0.302  0.00  0.00    -0.002 A 
ATOM      8  C6  OXE d   1      -0.754   0.571   0.155  0.00  0.00     0.003 A 
ENDROOT
TORSDOF 0
ENDMDL
