MODEL 1
REMARK minimizedAffinity 1.38691342
REMARK minimizedRMSD -1
REMARK  0 active torsions:
REMARK  status: ('A' for Active; 'I' for Inactive)
ROOT
ATOM      1  C2' OXE d   1       0.738   1.591   1.421  0.00  0.00     0.078 C 
ATOM      2  C1' OXE d   1       2.213  -0.356   2.805  0.00  0.00     0.078 C 
ATOM      3  C1  OXE d   1       0.718  -0.535   2.719  0.00  0.00    -0.078 A 
ATOM      4  C2  OXE d   1      -0.001   0.446   2.080  0.00  0.00    -0.078 A 
ATOM      5  C3  OXE d   1      -1.377   0.303   1.925  0.00  0.00     0.003 A 
ATOM      6  C4  OXE d   1      -2.054  -0.754   2.546  0.00  0.00    -0.002 A 
ATOM      7  C5  OXE d   1      -1.345  -1.743   3.235  0.00  0.00    -0.002 A 
ATOM      8  C6  OXE d   1       0.042  -1.672   3.295  0.00  0.00     0.003 A 
ENDROOT
TORSDOF 0
ENDMDL
