MODEL 1
REMARK minimizedAffinity -3.80921268
REMARK minimizedRMSD -1
REMARK  0 active torsions:
REMARK  status: ('A' for Active; 'I' for Inactive)
ROOT
ATOM      1  C2' OXE d   1      -0.411   0.187  -0.173  0.00  0.00     0.078 C 
ATOM      2  C1' OXE d   1      -3.162   0.197   0.387  0.00  0.00     0.078 C 
ATOM      3  C1  OXE d   1      -2.208   0.067   1.548  0.00  0.00    -0.078 A 
ATOM      4  C2  OXE d   1      -0.865   0.017   1.260  0.00  0.00    -0.078 A 
ATOM      5  C3  OXE d   1       0.060  -0.048   2.298  0.00  0.00     0.003 A 
ATOM      6  C4  OXE d   1      -0.368  -0.216   3.621  0.00  0.00    -0.002 A 
ATOM      7  C5  OXE d   1      -1.732  -0.206   3.932  0.00  0.00    -0.002 A 
ATOM      8  C6  OXE d   1      -2.662  -0.023   2.914  0.00  0.00     0.003 A 
ENDROOT
TORSDOF 0
ENDMDL
