MODEL 1
REMARK minimizedAffinity 7.69104433
REMARK minimizedRMSD -1
REMARK  0 active torsions:
REMARK  status: ('A' for Active; 'I' for Inactive)
ROOT
ATOM      1  C2' OXE d   1      -1.250   0.075  -0.021  0.00  0.00     0.078 C 
ATOM      2  C1' OXE d   1       0.713   1.400   1.484  0.00  0.00     0.078 C 
ATOM      3  C1  OXE d   1      -0.113   0.346   2.178  0.00  0.00    -0.078 A 
ATOM      4  C2  OXE d   1      -1.102  -0.264   1.446  0.00  0.00    -0.078 A 
ATOM      5  C3  OXE d   1      -1.857  -1.282   2.022  0.00  0.00     0.003 A 
ATOM      6  C4  OXE d   1      -1.721  -1.583   3.383  0.00  0.00    -0.002 A 
ATOM      7  C5  OXE d   1      -0.746  -0.945   4.157  0.00  0.00    -0.002 A 
ATOM      8  C6  OXE d   1       0.094  -0.010   3.560  0.00  0.00     0.003 A 
ENDROOT
TORSDOF 0
ENDMDL
