MODEL 1
REMARK minimizedAffinity -3.41006923
REMARK minimizedRMSD -1
REMARK  0 active torsions:
REMARK  status: ('A' for Active; 'I' for Inactive)
ROOT
ATOM      1  C2' OXE d   1       5.994  -1.509   5.487  0.00  0.00     0.078 C 
ATOM      2  C1' OXE d   1       5.980  -1.538   2.680  0.00  0.00     0.078 C 
ATOM      3  C1  OXE d   1       5.817  -2.854   3.398  0.00  0.00    -0.078 A 
ATOM      4  C2  OXE d   1       5.871  -2.837   4.771  0.00  0.00    -0.078 A 
ATOM      5  C3  OXE d   1       5.671  -4.015   5.484  0.00  0.00     0.003 A 
ATOM      6  C4  OXE d   1       5.568  -5.240   4.814  0.00  0.00    -0.002 A 
ATOM      7  C5  OXE d   1       5.550  -5.285   3.416  0.00  0.00    -0.002 A 
ATOM      8  C6  OXE d   1       5.630  -4.099   2.695  0.00  0.00     0.003 A 
ENDROOT
TORSDOF 0
ENDMDL
