MODEL 1
REMARK minimizedAffinity 2.59976411
REMARK minimizedRMSD -1
REMARK  0 active torsions:
REMARK  status: ('A' for Active; 'I' for Inactive)
ROOT
ATOM      1  C2' OXE d   1      -2.895  -1.078   0.784  0.00  0.00     0.078 C 
ATOM      2  C1' OXE d   1      -1.206   0.757  -0.506  0.00  0.00     0.078 C 
ATOM      3  C1  OXE d   1      -0.953   0.473   0.953  0.00  0.00    -0.078 A 
ATOM      4  C2  OXE d   1      -1.813  -0.391   1.588  0.00  0.00    -0.078 A 
ATOM      5  C3  OXE d   1      -1.591  -0.729   2.920  0.00  0.00     0.003 A 
ATOM      6  C4  OXE d   1      -0.594  -0.082   3.659  0.00  0.00    -0.002 A 
ATOM      7  C5  OXE d   1       0.268   0.831   3.042  0.00  0.00    -0.002 A 
ATOM      8  C6  OXE d   1       0.129   1.087   1.682  0.00  0.00     0.003 A 
ENDROOT
TORSDOF 0
ENDMDL
