MODEL 1
REMARK minimizedAffinity 9.19023514
REMARK minimizedRMSD -1
REMARK  0 active torsions:
REMARK  status: ('A' for Active; 'I' for Inactive)
ROOT
ATOM      1  C2' OXE d   1      -1.393   0.705   1.123  0.00  0.00     0.078 C 
ATOM      2  C1' OXE d   1      -0.776  -0.938   3.314  0.00  0.00     0.078 C 
ATOM      3  C1  OXE d   1       0.368  -0.421   2.478  0.00  0.00    -0.078 A 
ATOM      4  C2  OXE d   1       0.054   0.344   1.381  0.00  0.00    -0.078 A 
ATOM      5  C3  OXE d   1       1.074   0.891   0.608  0.00  0.00     0.003 A 
ATOM      6  C4  OXE d   1       2.409   0.544   0.847  0.00  0.00    -0.002 A 
ATOM      7  C5  OXE d   1       2.748  -0.266   1.936  0.00  0.00    -0.002 A 
ATOM      8  C6  OXE d   1       1.745  -0.721   2.785  0.00  0.00     0.003 A 
ENDROOT
TORSDOF 0
ENDMDL
