MODEL 1
REMARK minimizedAffinity 9.56213093
REMARK minimizedRMSD -1
REMARK  0 active torsions:
REMARK  status: ('A' for Active; 'I' for Inactive)
ROOT
ATOM      1  C2' OXE d   1      -2.971  -1.136   1.197  0.00  0.00     0.078 C 
ATOM      2  C1' OXE d   1      -1.870   0.670  -0.648  0.00  0.00     0.078 C 
ATOM      3  C1  OXE d   1      -1.209   0.553   0.703  0.00  0.00    -0.078 A 
ATOM      4  C2  OXE d   1      -1.782  -0.299   1.616  0.00  0.00    -0.078 A 
ATOM      5  C3  OXE d   1      -1.181  -0.485   2.858  0.00  0.00     0.003 A 
ATOM      6  C4  OXE d   1      -0.088   0.301   3.241  0.00  0.00    -0.002 A 
ATOM      7  C5  OXE d   1       0.488   1.204   2.340  0.00  0.00    -0.002 A 
ATOM      8  C6  OXE d   1      -0.033   1.310   1.056  0.00  0.00     0.003 A 
ENDROOT
TORSDOF 0
ENDMDL
