MODEL 1
REMARK minimizedAffinity 9.01210022
REMARK minimizedRMSD -1
REMARK  0 active torsions:
REMARK  status: ('A' for Active; 'I' for Inactive)
ROOT
ATOM      1  C2' OXE d   1      -3.136   1.042   3.300  0.00  0.00     0.078 C 
ATOM      2  C1' OXE d   1      -0.424   0.504   2.811  0.00  0.00     0.078 C 
ATOM      3  C1  OXE d   1      -1.385   0.385   1.654  0.00  0.00    -0.078 A 
ATOM      4  C2  OXE d   1      -2.717   0.604   1.914  0.00  0.00    -0.078 A 
ATOM      5  C3  OXE d   1      -3.638   0.561   0.871  0.00  0.00     0.003 A 
ATOM      6  C4  OXE d   1      -3.244   0.145  -0.406  0.00  0.00    -0.002 A 
ATOM      7  C5  OXE d   1      -1.899  -0.122  -0.683  0.00  0.00    -0.002 A 
ATOM      8  C6  OXE d   1      -0.952   0.035   0.324  0.00  0.00     0.003 A 
ENDROOT
TORSDOF 0
ENDMDL
