MODEL 1
REMARK minimizedAffinity 3.7589395
REMARK minimizedRMSD -1
REMARK  0 active torsions:
REMARK  status: ('A' for Active; 'I' for Inactive)
ROOT
ATOM      1  C2' OXE d   1      -0.337  -1.674   3.795  0.00  0.00     0.078 C 
ATOM      2  C1' OXE d   1      -2.070  -0.708   1.809  0.00  0.00     0.078 C 
ATOM      3  C1  OXE d   1      -1.551   0.275   2.829  0.00  0.00    -0.078 A 
ATOM      4  C2  OXE d   1      -0.741  -0.215   3.824  0.00  0.00    -0.078 A 
ATOM      5  C3  OXE d   1      -0.190   0.658   4.758  0.00  0.00     0.003 A 
ATOM      6  C4  OXE d   1      -0.577   2.003   4.784  0.00  0.00    -0.002 A 
ATOM      7  C5  OXE d   1      -1.432   2.515   3.803  0.00  0.00    -0.002 A 
ATOM      8  C6  OXE d   1      -1.893   1.676   2.795  0.00  0.00     0.003 A 
ENDROOT
TORSDOF 0
ENDMDL
