MODEL 1
REMARK minimizedAffinity 16.4616661
REMARK minimizedRMSD -1
REMARK  0 active torsions:
REMARK  status: ('A' for Active; 'I' for Inactive)
ROOT
ATOM      1  C2' OXE d   1       2.290   5.490  -4.157  0.00  0.00     0.078 C 
ATOM      2  C1' OXE d   1       4.731   4.147  -4.500  0.00  0.00     0.078 C 
ATOM      3  C1  OXE d   1       3.478   3.463  -4.986  0.00  0.00    -0.078 A 
ATOM      4  C2  OXE d   1       2.283   4.107  -4.772  0.00  0.00    -0.078 A 
ATOM      5  C3  OXE d   1       1.102   3.546  -5.249  0.00  0.00     0.003 A 
ATOM      6  C4  OXE d   1       1.102   2.262  -5.808  0.00  0.00    -0.002 A 
ATOM      7  C5  OXE d   1       2.304   1.572  -5.999  0.00  0.00    -0.002 A 
ATOM      8  C6  OXE d   1       3.502   2.175  -5.634  0.00  0.00     0.003 A 
ENDROOT
TORSDOF 0
ENDMDL
