MODEL 1
REMARK minimizedAffinity 0.243345439
REMARK minimizedRMSD -1
REMARK  0 active torsions:
REMARK  status: ('A' for Active; 'I' for Inactive)
ROOT
ATOM      1  C2' OXE d   1       2.067   3.390  -1.278  0.00  0.00     0.078 C 
ATOM      2  C1' OXE d   1       4.332   1.828  -1.838  0.00  0.00     0.078 C 
ATOM      3  C1  OXE d   1       4.011   2.964  -2.777  0.00  0.00    -0.078 A 
ATOM      4  C2  OXE d   1       2.875   3.694  -2.521  0.00  0.00    -0.078 A 
ATOM      5  C3  OXE d   1       2.563   4.787  -3.324  0.00  0.00     0.003 A 
ATOM      6  C4  OXE d   1       3.310   5.056  -4.478  0.00  0.00    -0.002 A 
ATOM      7  C5  OXE d   1       4.448   4.300  -4.779  0.00  0.00    -0.002 A 
ATOM      8  C6  OXE d   1       4.835   3.280  -3.917  0.00  0.00     0.003 A 
ENDROOT
TORSDOF 0
ENDMDL
