MODEL 1
REMARK minimizedAffinity 9.49783993
REMARK minimizedRMSD -1
REMARK  0 active torsions:
REMARK  status: ('A' for Active; 'I' for Inactive)
ROOT
ATOM      1  C2' OXE d   1       1.183  -0.007   3.664  0.00  0.00     0.078 C 
ATOM      2  C1' OXE d   1       0.061  -2.575   3.495  0.00  0.00     0.078 C 
ATOM      3  C1  OXE d   1      -0.703  -1.431   2.876  0.00  0.00    -0.078 A 
ATOM      4  C2  OXE d   1      -0.169  -0.171   3.005  0.00  0.00    -0.078 A 
ATOM      5  C3  OXE d   1      -0.806   0.912   2.405  0.00  0.00     0.003 A 
ATOM      6  C4  OXE d   1      -2.061   0.753   1.805  0.00  0.00    -0.002 A 
ATOM      7  C5  OXE d   1      -2.641  -0.515   1.699  0.00  0.00    -0.002 A 
ATOM      8  C6  OXE d   1      -1.957  -1.622   2.190  0.00  0.00     0.003 A 
ENDROOT
TORSDOF 0
ENDMDL
