MODEL 1
REMARK minimizedAffinity 1.64421427
REMARK minimizedRMSD -1
REMARK  0 active torsions:
REMARK  status: ('A' for Active; 'I' for Inactive)
ROOT
ATOM      1  C2' OXE d   1      -0.936  -0.030   0.220  0.00  0.00     0.078 C 
ATOM      2  C1' OXE d   1      -3.465  -0.136   1.435  0.00  0.00     0.078 C 
ATOM      3  C1  OXE d   1      -2.261  -0.452   2.287  0.00  0.00    -0.078 A 
ATOM      4  C2  OXE d   1      -1.032  -0.444   1.673  0.00  0.00    -0.078 A 
ATOM      5  C3  OXE d   1       0.116  -0.675   2.425  0.00  0.00     0.003 A 
ATOM      6  C4  OXE d   1       0.018  -1.066   3.766  0.00  0.00    -0.002 A 
ATOM      7  C5  OXE d   1      -1.228  -1.120   4.401  0.00  0.00    -0.002 A 
ATOM      8  C6  OXE d   1      -2.371  -0.776   3.688  0.00  0.00     0.003 A 
ENDROOT
TORSDOF 0
ENDMDL
