MODEL 1
REMARK minimizedAffinity 8.3832283
REMARK minimizedRMSD -1
REMARK  0 active torsions:
REMARK  status: ('A' for Active; 'I' for Inactive)
ROOT
ATOM      1  C2' OXE d   1       0.237   0.245   4.126  0.00  0.00     0.078 C 
ATOM      2  C1' OXE d   1      -2.067  -1.332   4.422  0.00  0.00     0.078 C 
ATOM      3  C1  OXE d   1      -1.742  -0.813   3.043  0.00  0.00    -0.078 A 
ATOM      4  C2  OXE d   1      -0.638  -0.003   2.916  0.00  0.00    -0.078 A 
ATOM      5  C3  OXE d   1      -0.263   0.457   1.658  0.00  0.00     0.003 A 
ATOM      6  C4  OXE d   1      -1.083   0.231   0.546  0.00  0.00    -0.002 A 
ATOM      7  C5  OXE d   1      -2.233  -0.557   0.661  0.00  0.00    -0.002 A 
ATOM      8  C6  OXE d   1      -2.552  -1.121   1.891  0.00  0.00     0.003 A 
ENDROOT
TORSDOF 0
ENDMDL
