MODEL 1
REMARK minimizedAffinity 3.80899668
REMARK minimizedRMSD -1
REMARK  0 active torsions:
REMARK  status: ('A' for Active; 'I' for Inactive)
ROOT
ATOM      1  C2' OXE d   1      -1.229   0.324  -0.384  0.00  0.00     0.078 C 
ATOM      2  C1' OXE d   1       0.855   1.356   1.190  0.00  0.00     0.078 C 
ATOM      3  C1  OXE d   1      -0.095   0.377   1.834  0.00  0.00    -0.078 A 
ATOM      4  C2  OXE d   1      -1.139  -0.087   1.070  0.00  0.00    -0.078 A 
ATOM      5  C3  OXE d   1      -2.012  -1.033   1.599  0.00  0.00     0.003 A 
ATOM      6  C4  OXE d   1      -1.928  -1.401   2.947  0.00  0.00    -0.002 A 
ATOM      7  C5  OXE d   1      -0.895  -0.910   3.754  0.00  0.00    -0.002 A 
ATOM      8  C6  OXE d   1       0.052  -0.055   3.202  0.00  0.00     0.003 A 
ENDROOT
TORSDOF 0
ENDMDL
