MODEL 1
REMARK minimizedAffinity 7.64286947
REMARK minimizedRMSD -1
REMARK  0 active torsions:
REMARK  status: ('A' for Active; 'I' for Inactive)
ROOT
ATOM      1  C2' OXE d   1       1.130   1.088  -0.847  0.00  0.00     0.078 C 
ATOM      2  C1' OXE d   1       2.752   0.115   1.227  0.00  0.00     0.078 C 
ATOM      3  C1  OXE d   1       1.298   0.373   1.533  0.00  0.00    -0.078 A 
ATOM      4  C2  OXE d   1       0.522   0.894   0.526  0.00  0.00    -0.078 A 
ATOM      5  C3  OXE d   1      -0.838   1.099   0.739  0.00  0.00     0.003 A 
ATOM      6  C4  OXE d   1      -1.389   0.926   2.014  0.00  0.00    -0.002 A 
ATOM      7  C5  OXE d   1      -0.608   0.434   3.065  0.00  0.00    -0.002 A 
ATOM      8  C6  OXE d   1       0.725   0.113   2.831  0.00  0.00     0.003 A 
ENDROOT
TORSDOF 0
ENDMDL
