MODEL 1
REMARK minimizedAffinity 10.1895533
REMARK minimizedRMSD -1
REMARK  0 active torsions:
REMARK  status: ('A' for Active; 'I' for Inactive)
ROOT
ATOM      1  C2' OXE d   1      -0.825   1.657   2.292  0.00  0.00     0.078 C 
ATOM      2  C1' OXE d   1       1.185   1.928   4.232  0.00  0.00     0.078 C 
ATOM      3  C1  OXE d   1       1.570   2.130   2.788  0.00  0.00    -0.078 A 
ATOM      4  C2  OXE d   1       0.590   1.949   1.842  0.00  0.00    -0.078 A 
ATOM      5  C3  OXE d   1       0.877   2.176   0.499  0.00  0.00     0.003 A 
ATOM      6  C4  OXE d   1       2.191   2.436   0.090  0.00  0.00    -0.002 A 
ATOM      7  C5  OXE d   1       3.212   2.585   1.034  0.00  0.00    -0.002 A 
ATOM      8  C6  OXE d   1       2.911   2.477   2.387  0.00  0.00     0.003 A 
ENDROOT
TORSDOF 0
ENDMDL
