MODEL 1
REMARK minimizedAffinity -4.0022316
REMARK minimizedRMSD -1
REMARK  0 active torsions:
REMARK  status: ('A' for Active; 'I' for Inactive)
ROOT
ATOM      1  C1  DEN d   1      -0.044  -1.647  -2.471  0.00  0.00     0.130 A 
ATOM      2  C2  DEN d   1       0.877  -1.015  -3.412  0.00  0.00    -0.031 A 
ATOM      3  C3  DEN d   1       1.602   0.052  -2.695  0.00  0.00     0.027 A 
ATOM      4  C4  DEN d   1       1.393   0.782  -0.230  0.00  0.00     0.027 A 
ATOM      5  C5  DEN d   1       0.735   0.549   0.958  0.00  0.00    -0.003 A 
ATOM      6  C6  DEN d   1      -0.244  -0.401   1.076  0.00  0.00     0.001 A 
ATOM      7  C7  DEN d   1      -0.563  -1.185  -0.001  0.00  0.00     0.017 A 
ATOM      8  C8  DEN d   1       0.091  -0.952  -1.204  0.00  0.00    -0.094 A 
ATOM      9  C9  DEN d   1       1.087   0.006  -1.300  0.00  0.00    -0.072 A 
ENDROOT
TORSDOF 0
ENDMDL
