MODEL 1
REMARK minimizedAffinity -5.53024006
REMARK minimizedRMSD -1
REMARK  0 active torsions:
REMARK  status: ('A' for Active; 'I' for Inactive)
ROOT
ATOM      1  C1  DEN d   1      -0.808  -1.089  -0.526  0.00  0.00     0.130 A 
ATOM      2  C2  DEN d   1       0.016  -0.352  -1.480  0.00  0.00    -0.031 A 
ATOM      3  C3  DEN d   1       0.949   0.499  -0.714  0.00  0.00     0.027 A 
ATOM      4  C4  DEN d   1       1.200   0.742   1.841  0.00  0.00     0.027 A 
ATOM      5  C5  DEN d   1       0.713   0.327   3.061  0.00  0.00    -0.003 A 
ATOM      6  C6  DEN d   1      -0.328  -0.556   3.170  0.00  0.00     0.001 A 
ATOM      7  C7  DEN d   1      -0.888  -1.088   2.038  0.00  0.00     0.017 A 
ATOM      8  C8  DEN d   1      -0.408  -0.669   0.805  0.00  0.00    -0.094 A 
ATOM      9  C9  DEN d   1       0.654   0.215   0.716  0.00  0.00    -0.072 A 
ENDROOT
TORSDOF 0
ENDMDL
