MODEL 1
REMARK minimizedAffinity -0.370710552
REMARK minimizedRMSD -1
REMARK  0 active torsions:
REMARK  status: ('A' for Active; 'I' for Inactive)
ROOT
ATOM      1  C1  DEN d   1      -2.374  -0.077  -0.585  0.00  0.00     0.130 A 
ATOM      2  C2  DEN d   1      -2.465   0.025   0.869  0.00  0.00    -0.031 A 
ATOM      3  C3  DEN d   1      -1.102   0.230   1.398  0.00  0.00     0.027 A 
ATOM      4  C4  DEN d   1       1.128   0.403   0.113  0.00  0.00     0.027 A 
ATOM      5  C5  DEN d   1       1.711   0.364  -1.134  0.00  0.00    -0.003 A 
ATOM      6  C6  DEN d   1       0.984   0.144  -2.274  0.00  0.00     0.001 A 
ATOM      7  C7  DEN d   1      -0.376  -0.001  -2.193  0.00  0.00     0.017 A 
ATOM      8  C8  DEN d   1      -0.970   0.029  -0.938  0.00  0.00    -0.094 A 
ATOM      9  C9  DEN d   1      -0.219   0.265   0.201  0.00  0.00    -0.072 A 
ENDROOT
TORSDOF 0
ENDMDL
