MODEL 1
REMARK minimizedAffinity 2.18570352
REMARK minimizedRMSD -1
REMARK  0 active torsions:
REMARK  status: ('A' for Active; 'I' for Inactive)
ROOT
ATOM      1  C1  DEN d   1      -0.913  -0.360  -2.502  0.00  0.00     0.130 A 
ATOM      2  C2  DEN d   1      -0.535   0.774  -1.663  0.00  0.00    -0.031 A 
ATOM      3  C3  DEN d   1       0.934   0.917  -1.724  0.00  0.00     0.027 A 
ATOM      4  C4  DEN d   1       2.649  -0.496  -3.034  0.00  0.00     0.027 A 
ATOM      5  C5  DEN d   1       2.804  -1.573  -3.878  0.00  0.00    -0.003 A 
ATOM      6  C6  DEN d   1       1.745  -2.336  -4.292  0.00  0.00     0.001 A 
ATOM      7  C7  DEN d   1       0.475  -2.005  -3.899  0.00  0.00     0.017 A 
ATOM      8  C8  DEN d   1       0.311  -0.924  -3.041  0.00  0.00    -0.094 A 
ATOM      9  C9  DEN d   1       1.393  -0.158  -2.644  0.00  0.00    -0.072 A 
ENDROOT
TORSDOF 0
ENDMDL
