MODEL 1
REMARK minimizedAffinity 6.87354994
REMARK minimizedRMSD -1
REMARK  0 active torsions:
REMARK  status: ('A' for Active; 'I' for Inactive)
ROOT
ATOM      1  C1  DEN d   1       2.815  -1.408  -5.724  0.00  0.00     0.130 A 
ATOM      2  C2  DEN d   1       3.583  -1.020  -4.544  0.00  0.00    -0.031 A 
ATOM      3  C3  DEN d   1       2.760  -1.302  -3.351  0.00  0.00     0.027 A 
ATOM      4  C4  DEN d   1       0.386  -2.301  -3.217  0.00  0.00     0.027 A 
ATOM      5  C5  DEN d   1      -0.675  -2.777  -3.955  0.00  0.00    -0.003 A 
ATOM      6  C6  DEN d   1      -0.661  -2.798  -5.325  0.00  0.00     0.001 A 
ATOM      7  C7  DEN d   1       0.455  -2.377  -5.998  0.00  0.00     0.017 A 
ATOM      8  C8  DEN d   1       1.526  -1.889  -5.261  0.00  0.00    -0.094 A 
ATOM      9  C9  DEN d   1       1.497  -1.887  -3.877  0.00  0.00    -0.072 A 
ENDROOT
TORSDOF 0
ENDMDL
