MODEL 1
REMARK minimizedAffinity -1.78689134
REMARK minimizedRMSD -1
REMARK  0 active torsions:
REMARK  status: ('A' for Active; 'I' for Inactive)
ROOT
ATOM      1  C1  DEN d   1      -1.345  -0.737   2.106  0.00  0.00     0.130 A 
ATOM      2  C2  DEN d   1      -0.756  -0.282   3.363  0.00  0.00    -0.031 A 
ATOM      3  C3  DEN d   1       0.414   0.559   3.041  0.00  0.00     0.027 A 
ATOM      4  C4  DEN d   1       1.363   1.202   0.730  0.00  0.00     0.027 A 
ATOM      5  C5  DEN d   1       1.209   1.046  -0.629  0.00  0.00    -0.003 A 
ATOM      6  C6  DEN d   1       0.221   0.265  -1.168  0.00  0.00     0.001 A 
ATOM      7  C7  DEN d   1      -0.679  -0.355  -0.342  0.00  0.00     0.017 A 
ATOM      8  C8  DEN d   1      -0.525  -0.209   1.030  0.00  0.00    -0.094 A 
ATOM      9  C9  DEN d   1       0.472   0.595   1.555  0.00  0.00    -0.072 A 
ENDROOT
TORSDOF 0
ENDMDL
