MODEL 1
REMARK minimizedAffinity 0.976754904
REMARK minimizedRMSD -1
REMARK  0 active torsions:
REMARK  status: ('A' for Active; 'I' for Inactive)
ROOT
ATOM      1  C1  DEN d   1       1.832   0.774   1.311  0.00  0.00     0.130 A 
ATOM      2  C2  DEN d   1       1.389   0.769   2.703  0.00  0.00    -0.031 A 
ATOM      3  C3  DEN d   1      -0.038   0.389   2.726  0.00  0.00     0.027 A 
ATOM      4  C4  DEN d   1      -1.594  -0.194   0.753  0.00  0.00     0.027 A 
ATOM      5  C5  DEN d   1      -1.672  -0.316  -0.617  0.00  0.00    -0.003 A 
ATOM      6  C6  DEN d   1      -0.606  -0.052  -1.436  0.00  0.00     0.001 A 
ATOM      7  C7  DEN d   1       0.598   0.303  -0.888  0.00  0.00     0.017 A 
ATOM      8  C8  DEN d   1       0.683   0.435   0.491  0.00  0.00    -0.094 A 
ATOM      9  C9  DEN d   1      -0.403   0.152   1.303  0.00  0.00    -0.072 A 
ENDROOT
TORSDOF 0
ENDMDL
