MODEL 1
REMARK minimizedAffinity 0.766288519
REMARK minimizedRMSD -1
REMARK  0 active torsions:
REMARK  status: ('A' for Active; 'I' for Inactive)
ROOT
ATOM      1  C1  DEN d   1      -1.211  -1.189  -0.925  0.00  0.00     0.130 A 
ATOM      2  C2  DEN d   1      -1.228   0.202  -0.480  0.00  0.00    -0.031 A 
ATOM      3  C3  DEN d   1      -0.298   0.966  -1.334  0.00  0.00     0.027 A 
ATOM      4  C4  DEN d   1       1.156   0.138  -3.297  0.00  0.00     0.027 A 
ATOM      5  C5  DEN d   1       1.516  -0.965  -4.040  0.00  0.00    -0.003 A 
ATOM      6  C6  DEN d   1       1.023  -2.216  -3.777  0.00  0.00     0.001 A 
ATOM      7  C7  DEN d   1       0.106  -2.386  -2.773  0.00  0.00     0.017 A 
ATOM      8  C8  DEN d   1      -0.257  -1.280  -2.016  0.00  0.00    -0.094 A 
ATOM      9  C9  DEN d   1       0.244  -0.022  -2.305  0.00  0.00    -0.072 A 
ENDROOT
TORSDOF 0
ENDMDL
