MODEL 1
REMARK minimizedAffinity -6.08646345
REMARK minimizedRMSD -1
REMARK  0 active torsions:
REMARK  status: ('A' for Active; 'I' for Inactive)
ROOT
ATOM      1  C1  DEN d   1      -0.752   0.059  -0.935  0.00  0.00     0.130 A 
ATOM      2  C2  DEN d   1       0.289   0.819  -1.621  0.00  0.00    -0.031 A 
ATOM      3  C3  DEN d   1       1.414   1.002  -0.683  0.00  0.00     0.027 A 
ATOM      4  C4  DEN d   1       1.646   0.182   1.752  0.00  0.00     0.027 A 
ATOM      5  C5  DEN d   1       1.017  -0.495   2.773  0.00  0.00    -0.003 A 
ATOM      6  C6  DEN d   1      -0.249  -1.002   2.642  0.00  0.00     0.001 A 
ATOM      7  C7  DEN d   1      -0.910  -0.878   1.448  0.00  0.00     0.017 A 
ATOM      8  C8  DEN d   1      -0.285  -0.190   0.416  0.00  0.00    -0.094 A 
ATOM      9  C9  DEN d   1       1.000   0.304   0.564  0.00  0.00    -0.072 A 
ENDROOT
TORSDOF 0
ENDMDL
