MODEL 1
REMARK minimizedAffinity 0.451281041
REMARK minimizedRMSD -1
REMARK  0 active torsions:
REMARK  status: ('A' for Active; 'I' for Inactive)
ROOT
ATOM      1  C1  DEN d   1       1.871   0.155  -0.638  0.00  0.00     0.130 A 
ATOM      2  C2  DEN d   1       0.569   0.755  -0.358  0.00  0.00    -0.031 A 
ATOM      3  C3  DEN d   1      -0.356   0.365  -1.441  0.00  0.00     0.027 A 
ATOM      4  C4  DEN d   1       0.097  -1.105  -3.511  0.00  0.00     0.027 A 
ATOM      5  C5  DEN d   1       1.054  -1.831  -4.184  0.00  0.00    -0.003 A 
ATOM      6  C6  DEN d   1       2.349  -1.917  -3.745  0.00  0.00     0.001 A 
ATOM      7  C7  DEN d   1       2.710  -1.303  -2.575  0.00  0.00     0.017 A 
ATOM      8  C8  DEN d   1       1.753  -0.564  -1.894  0.00  0.00    -0.094 A 
ATOM      9  C9  DEN d   1       0.446  -0.499  -2.348  0.00  0.00    -0.072 A 
ENDROOT
TORSDOF 0
ENDMDL
