MODEL 1
REMARK minimizedAffinity -4.84071207
REMARK minimizedRMSD -1
REMARK  0 active torsions:
REMARK  status: ('A' for Active; 'I' for Inactive)
ROOT
ATOM      1  C1  DEN d   1      -1.652  -0.274   3.331  0.00  0.00     0.130 A 
ATOM      2  C2  DEN d   1      -2.888  -0.338   2.555  0.00  0.00    -0.031 A 
ATOM      3  C3  DEN d   1      -2.542  -0.157   1.130  0.00  0.00     0.027 A 
ATOM      4  C4  DEN d   1      -0.226   0.210   0.057  0.00  0.00     0.027 A 
ATOM      5  C5  DEN d   1       1.121   0.349   0.312  0.00  0.00    -0.003 A 
ATOM      6  C6  DEN d   1       1.629   0.325   1.584  0.00  0.00     0.001 A 
ATOM      7  C7  DEN d   1       0.790   0.112   2.646  0.00  0.00     0.017 A 
ATOM      8  C8  DEN d   1      -0.569  -0.022   2.397  0.00  0.00    -0.094 A 
ATOM      9  C9  DEN d   1      -1.062  -0.007   1.103  0.00  0.00    -0.072 A 
ENDROOT
TORSDOF 0
ENDMDL
