MODEL 1
REMARK minimizedAffinity -3.70587015
REMARK minimizedRMSD -1
REMARK  0 active torsions:
REMARK  status: ('A' for Active; 'I' for Inactive)
ROOT
ATOM      1  C1  DEN d   1      -2.084   0.089   3.224  0.00  0.00     0.130 A 
ATOM      2  C2  DEN d   1      -3.209  -0.242   2.354  0.00  0.00    -0.031 A 
ATOM      3  C3  DEN d   1      -2.682  -0.465   0.992  0.00  0.00     0.027 A 
ATOM      4  C4  DEN d   1      -0.246  -0.335   0.153  0.00  0.00     0.027 A 
ATOM      5  C5  DEN d   1       1.056  -0.078   0.522  0.00  0.00    -0.003 A 
ATOM      6  C6  DEN d   1       1.395   0.283   1.799  0.00  0.00     0.001 A 
ATOM      7  C7  DEN d   1       0.426   0.353   2.765  0.00  0.00     0.017 A 
ATOM      8  C8  DEN d   1      -0.890   0.102   2.399  0.00  0.00    -0.094 A 
ATOM      9  C9  DEN d   1      -1.211  -0.273   1.106  0.00  0.00    -0.072 A 
ENDROOT
TORSDOF 0
ENDMDL
