MODEL 1
REMARK minimizedAffinity -3.70537329
REMARK minimizedRMSD -1
REMARK  0 active torsions:
REMARK  status: ('A' for Active; 'I' for Inactive)
ROOT
ATOM      1  C1  DEN d   1       2.166   0.465  -3.179  0.00  0.00     0.130 A 
ATOM      2  C2  DEN d   1       2.704  -0.774  -3.734  0.00  0.00    -0.031 A 
ATOM      3  C3  DEN d   1       1.985  -1.903  -3.111  0.00  0.00     0.027 A 
ATOM      4  C4  DEN d   1       0.098  -1.854  -1.353  0.00  0.00     0.027 A 
ATOM      5  C5  DEN d   1      -0.686  -1.035  -0.570  0.00  0.00    -0.003 A 
ATOM      6  C6  DEN d   1      -0.552   0.328  -0.577  0.00  0.00     0.001 A 
ATOM      7  C7  DEN d   1       0.357   0.917  -1.416  0.00  0.00     0.017 A 
ATOM      8  C8  DEN d   1       1.156   0.097  -2.203  0.00  0.00    -0.094 A 
ATOM      9  C9  DEN d   1       0.997  -1.278  -2.191  0.00  0.00    -0.072 A 
ENDROOT
TORSDOF 0
ENDMDL
