MODEL 1
REMARK minimizedAffinity -1.04149711
REMARK minimizedRMSD -1
REMARK  0 active torsions:
REMARK  status: ('A' for Active; 'I' for Inactive)
ROOT
ATOM      1  C1  DEN d   1       0.129  -1.295   0.396  0.00  0.00     0.130 A 
ATOM      2  C2  DEN d   1       0.388  -0.015   1.050  0.00  0.00    -0.031 A 
ATOM      3  C3  DEN d   1       1.067   0.866   0.078  0.00  0.00     0.027 A 
ATOM      4  C4  DEN d   1       1.733   0.377  -2.365  0.00  0.00     0.027 A 
ATOM      5  C5  DEN d   1       1.731  -0.576  -3.360  0.00  0.00    -0.003 A 
ATOM      6  C6  DEN d   1       1.230  -1.835  -3.164  0.00  0.00     0.001 A 
ATOM      7  C7  DEN d   1       0.668  -2.162  -1.958  0.00  0.00     0.017 A 
ATOM      8  C8  DEN d   1       0.673  -1.210  -0.948  0.00  0.00    -0.094 A 
ATOM      9  C9  DEN d   1       1.174   0.062  -1.169  0.00  0.00    -0.072 A 
ENDROOT
TORSDOF 0
ENDMDL
