MODEL 1
REMARK minimizedAffinity -0.129813999
REMARK minimizedRMSD -1
REMARK  2 active torsions:
REMARK  status: ('A' for Active; 'I' for Inactive)
REMARK    1  A    between atoms: C2'_3  and  C1'_4 
REMARK    2  A    between atoms: C1'_4  and  C1_5 
ROOT
ATOM      1  C1  I4B d   1       0.294   0.356   0.407  0.00  0.00    -0.075 A 
ATOM      2  C2  I4B d   1       0.973   0.339  -0.786  0.00  0.00     0.003 A 
ATOM      3  C3  I4B d   1       1.014  -0.842  -1.566  0.00  0.00     0.002 A 
ATOM      4  C4  I4B d   1       0.409  -1.989  -1.095  0.00  0.00    -0.004 A 
ATOM      5  C5  I4B d   1      -0.299  -1.964   0.104  0.00  0.00     0.002 A 
ATOM      6  C6  I4B d   1      -0.367  -0.781   0.854  0.00  0.00     0.003 A 
ENDROOT
BRANCH   1   7
ATOM      7  C1' I4B d   1       0.299   1.610   1.222  0.00  0.00     0.060 C 
BRANCH   7   8
ATOM      8  C2' I4B d   1       0.363   1.217   2.684  0.00  0.00    -0.013 C 
ATOM      9  C4' I4B d   1       1.574   1.809   3.355  0.00  0.00     0.013 C 
ATOM     10  C3' I4B d   1      -0.902   1.681   3.343  0.00  0.00     0.013 C 
ENDBRANCH   7   8
ENDBRANCH   1   7
TORSDOF 2
ENDMDL
