MODEL 1
REMARK minimizedAffinity -2.69473195
REMARK minimizedRMSD -1
REMARK  2 active torsions:
REMARK  status: ('A' for Active; 'I' for Inactive)
REMARK    1  A    between atoms: C2'_3  and  C1'_4 
REMARK    2  A    between atoms: C1'_4  and  C1_5 
ROOT
ATOM      1  C1  I4B d   1      -1.563   0.233   2.017  0.00  0.00    -0.075 A 
ATOM      2  C2  I4B d   1      -2.771  -0.001   1.408  0.00  0.00     0.003 A 
ATOM      3  C3  I4B d   1      -3.955   0.576   1.927  0.00  0.00     0.002 A 
ATOM      4  C4  I4B d   1      -3.894   1.334   3.079  0.00  0.00    -0.004 A 
ATOM      5  C5  I4B d   1      -2.666   1.589   3.682  0.00  0.00     0.002 A 
ATOM      6  C6  I4B d   1      -1.491   1.046   3.142  0.00  0.00     0.003 A 
ENDROOT
BRANCH   1   7
ATOM      7  C1' I4B d   1      -0.337  -0.418   1.461  0.00  0.00     0.060 C 
BRANCH   7   8
ATOM      8  C2' I4B d   1      -0.503  -0.521  -0.041  0.00  0.00    -0.013 C 
ATOM      9  C4' I4B d   1       0.173   0.627  -0.744  0.00  0.00     0.013 C 
ATOM     10  C3' I4B d   1       0.066  -1.837  -0.481  0.00  0.00     0.013 C 
ENDBRANCH   7   8
ENDBRANCH   1   7
TORSDOF 2
ENDMDL
