MODEL 1
REMARK minimizedAffinity 3.43916965
REMARK minimizedRMSD -1
REMARK  2 active torsions:
REMARK  status: ('A' for Active; 'I' for Inactive)
REMARK    1  A    between atoms: C2'_3  and  C1'_4 
REMARK    2  A    between atoms: C1'_4  and  C1_5 
ROOT
ATOM      1  C1  I4B d   1      -4.002   2.881  -5.559  0.00  0.00    -0.075 A 
ATOM      2  C2  I4B d   1      -5.360   2.930  -5.757  0.00  0.00     0.003 A 
ATOM      3  C3  I4B d   1      -6.000   4.169  -5.999  0.00  0.00     0.002 A 
ATOM      4  C4  I4B d   1      -5.257   5.332  -5.985  0.00  0.00    -0.004 A 
ATOM      5  C5  I4B d   1      -3.878   5.278  -5.806  0.00  0.00     0.002 A 
ATOM      6  C6  I4B d   1      -3.244   4.043  -5.604  0.00  0.00     0.003 A 
ENDROOT
BRANCH   1   7
ATOM      7  C1' I4B d   1      -3.364   1.559  -5.273  0.00  0.00     0.060 C 
BRANCH   7   8
ATOM      8  C2' I4B d   1      -2.026   1.820  -4.610  0.00  0.00    -0.013 C 
ATOM      9  C4' I4B d   1      -1.422   0.546  -4.081  0.00  0.00     0.013 C 
ATOM     10  C3' I4B d   1      -1.127   2.466  -5.622  0.00  0.00     0.013 C 
ENDBRANCH   7   8
ENDBRANCH   1   7
TORSDOF 2
ENDMDL
