MODEL 1
REMARK minimizedAffinity 0.58694315
REMARK minimizedRMSD -1
REMARK  2 active torsions:
REMARK  status: ('A' for Active; 'I' for Inactive)
REMARK    1  A    between atoms: C2'_3  and  C1'_4 
REMARK    2  A    between atoms: C1'_4  and  C1_5 
ROOT
ATOM      1  C1  I4B d   1       1.392   1.708   0.895  0.00  0.00    -0.075 A 
ATOM      2  C2  I4B d   1       0.456   1.022   1.628  0.00  0.00     0.003 A 
ATOM      3  C3  I4B d   1       0.617   0.872   3.027  0.00  0.00     0.002 A 
ATOM      4  C4  I4B d   1       1.746   1.375   3.639  0.00  0.00    -0.004 A 
ATOM      5  C5  I4B d   1       2.683   2.090   2.898  0.00  0.00     0.002 A 
ATOM      6  C6  I4B d   1       2.499   2.268   1.519  0.00  0.00     0.003 A 
ENDROOT
BRANCH   1   7
ATOM      7  C1' I4B d   1       1.207   1.819  -0.585  0.00  0.00     0.060 C 
BRANCH   7   8
ATOM      8  C2' I4B d   1       1.971   0.686  -1.238  0.00  0.00    -0.013 C 
ATOM      9  C4' I4B d   1       1.478   0.431  -2.638  0.00  0.00     0.013 C 
ATOM     10  C3' I4B d   1       3.427   1.045  -1.234  0.00  0.00     0.013 C 
ENDBRANCH   7   8
ENDBRANCH   1   7
TORSDOF 2
ENDMDL
