MODEL 1
REMARK minimizedAffinity -3.88653898
REMARK minimizedRMSD -1
REMARK  2 active torsions:
REMARK  status: ('A' for Active; 'I' for Inactive)
REMARK    1  A    between atoms: C2'_3  and  C1'_4 
REMARK    2  A    between atoms: C1'_4  and  C1_5 
ROOT
ATOM      1  C1  I4B d   1      -1.430   0.325   1.621  0.00  0.00    -0.075 A 
ATOM      2  C2  I4B d   1      -2.639   0.130   1.001  0.00  0.00     0.003 A 
ATOM      3  C3  I4B d   1      -3.826   0.644   1.577  0.00  0.00     0.002 A 
ATOM      4  C4  I4B d   1      -3.765   1.297   2.791  0.00  0.00    -0.004 A 
ATOM      5  C5  I4B d   1      -2.536   1.513   3.407  0.00  0.00     0.002 A 
ATOM      6  C6  I4B d   1      -1.359   1.035   2.812  0.00  0.00     0.003 A 
ENDROOT
BRANCH   1   7
ATOM      7  C1' I4B d   1      -0.200  -0.259   1.002  0.00  0.00     0.060 C 
BRANCH   7   8
ATOM      8  C2' I4B d   1      -0.010   0.385  -0.357  0.00  0.00    -0.013 C 
ATOM      9  C4' I4B d   1       0.931   1.558  -0.277  0.00  0.00     0.013 C 
ATOM     10  C3' I4B d   1       0.508  -0.662  -1.297  0.00  0.00     0.013 C 
ENDBRANCH   7   8
ENDBRANCH   1   7
TORSDOF 2
ENDMDL
