MODEL 1
REMARK minimizedAffinity 7.52256393
REMARK minimizedRMSD -1
REMARK  2 active torsions:
REMARK  status: ('A' for Active; 'I' for Inactive)
REMARK    1  A    between atoms: C2'_3  and  C1'_4 
REMARK    2  A    between atoms: C1'_4  and  C1_5 
ROOT
ATOM      1  C1  I4B d   1      -0.790  -1.645  -0.783  0.00  0.00    -0.075 A 
ATOM      2  C2  I4B d   1      -0.267  -1.174  -1.961  0.00  0.00     0.003 A 
ATOM      3  C3  I4B d   1       0.722  -0.162  -1.948  0.00  0.00     0.002 A 
ATOM      4  C4  I4B d   1       1.120   0.384  -0.744  0.00  0.00    -0.004 A 
ATOM      5  C5  I4B d   1       0.606  -0.111   0.451  0.00  0.00     0.002 A 
ATOM      6  C6  I4B d   1      -0.347  -1.140   0.433  0.00  0.00     0.003 A 
ENDROOT
BRANCH   1   7
ATOM      7  C1' I4B d   1      -1.858  -2.691  -0.835  0.00  0.00     0.060 C 
BRANCH   7   8
ATOM      8  C2' I4B d   1      -2.491  -2.782   0.539  0.00  0.00    -0.013 C 
ATOM      9  C4' I4B d   1      -3.927  -2.331   0.508  0.00  0.00     0.013 C 
ATOM     10  C3' I4B d   1      -2.379  -4.202   1.008  0.00  0.00     0.013 C 
ENDBRANCH   7   8
ENDBRANCH   1   7
TORSDOF 2
ENDMDL
