MODEL 1
REMARK minimizedAffinity -3.04560351
REMARK minimizedRMSD -1
REMARK  0 active torsions:
REMARK  status: ('A' for Active; 'I' for Inactive)
ROOT
ATOM      1  C   UNL d   1       0.754   1.355   2.173  0.00  0.00     0.020 A 
ATOM      2  C1  UNL d   1      -0.607   1.493   2.438  0.00  0.00     0.020 A 
ATOM      3  C2  UNL d   1      -1.547   0.884   1.604  0.00  0.00     0.034 A 
ATOM      4  C3  UNL d   1      -1.126   0.133   0.500  0.00  0.00     0.017 A 
ATOM      5  C4  UNL d   1       0.241  -0.005   0.234  0.00  0.00     0.017 A 
ATOM      6  C5  UNL d   1       1.178   0.607   1.073  0.00  0.00     0.034 A 
ATOM      7 Cl   UNL d   1       0.837  -0.916  -1.108  0.00  0.00    -0.070 Cl
ATOM      8 Cl1  UNL d   1      -2.342  -0.594  -0.488  0.00  0.00    -0.070 Cl
ENDROOT
TORSDOF 0
ENDMDL
