MODEL 1
REMARK minimizedAffinity -3.45624471
REMARK minimizedRMSD -1
REMARK  0 active torsions:
REMARK  status: ('A' for Active; 'I' for Inactive)
ROOT
ATOM      1  C   UNL d   1      -0.669   1.108   2.684  0.00  0.00     0.020 A 
ATOM      2  C1  UNL d   1       0.669   1.095   2.292  0.00  0.00     0.020 A 
ATOM      3  C2  UNL d   1       1.016   0.675   1.007  0.00  0.00     0.034 A 
ATOM      4  C3  UNL d   1       0.025   0.266   0.108  0.00  0.00     0.017 A 
ATOM      5  C4  UNL d   1      -1.318   0.279   0.502  0.00  0.00     0.017 A 
ATOM      6  C5  UNL d   1      -1.661   0.701   1.790  0.00  0.00     0.034 A 
ATOM      7 Cl   UNL d   1      -2.598  -0.211  -0.551  0.00  0.00    -0.070 Cl
ATOM      8 Cl1  UNL d   1       0.526  -0.242  -1.466  0.00  0.00    -0.070 Cl
ENDROOT
TORSDOF 0
ENDMDL
