MODEL 1
REMARK minimizedAffinity -4.35621119
REMARK minimizedRMSD -1
REMARK  0 active torsions:
REMARK  status: ('A' for Active; 'I' for Inactive)
ROOT
ATOM      1  C   UNL d   1       0.754   0.759   2.183  0.00  0.00     0.020 A 
ATOM      2  C1  UNL d   1      -0.525   1.161   2.566  0.00  0.00     0.020 A 
ATOM      3  C2  UNL d   1      -1.604   0.972   1.699  0.00  0.00     0.034 A 
ATOM      4  C3  UNL d   1      -1.406   0.381   0.446  0.00  0.00     0.017 A 
ATOM      5  C4  UNL d   1      -0.121  -0.021   0.063  0.00  0.00     0.017 A 
ATOM      6  C5  UNL d   1       0.956   0.169   0.935  0.00  0.00     0.034 A 
ATOM      7 Cl   UNL d   1       0.202  -0.758  -1.467  0.00  0.00    -0.070 Cl
ATOM      8 Cl1  UNL d   1      -2.785   0.179  -0.575  0.00  0.00    -0.070 Cl
ENDROOT
TORSDOF 0
ENDMDL
