MODEL 1
REMARK minimizedAffinity -5.08840275
REMARK minimizedRMSD -1
REMARK  0 active torsions:
REMARK  status: ('A' for Active; 'I' for Inactive)
ROOT
ATOM      1  C   UNL d   1       0.096   1.007   3.527  0.00  0.00     0.020 A 
ATOM      2  C1  UNL d   1       1.322   0.435   3.193  0.00  0.00     0.020 A 
ATOM      3  C2  UNL d   1       1.536  -0.056   1.904  0.00  0.00     0.034 A 
ATOM      4  C3  UNL d   1       0.521   0.023   0.943  0.00  0.00     0.017 A 
ATOM      5  C4  UNL d   1      -0.710   0.598   1.279  0.00  0.00     0.017 A 
ATOM      6  C5  UNL d   1      -0.918   1.088   2.572  0.00  0.00     0.034 A 
ATOM      7 Cl   UNL d   1      -2.010   0.732   0.148  0.00  0.00    -0.070 Cl
ATOM      8 Cl1  UNL d   1       0.855  -0.604  -0.632  0.00  0.00    -0.070 Cl
ENDROOT
TORSDOF 0
ENDMDL
