MODEL 1
REMARK minimizedAffinity -3.64738297
REMARK minimizedRMSD -1
REMARK  0 active torsions:
REMARK  status: ('A' for Active; 'I' for Inactive)
ROOT
ATOM      1  C   UNL d   1       0.268   1.527   2.190  0.00  0.00     0.020 A 
ATOM      2  C1  UNL d   1      -1.014   1.134   2.569  0.00  0.00     0.020 A 
ATOM      3  C2  UNL d   1      -1.773   0.321   1.724  0.00  0.00     0.034 A 
ATOM      4  C3  UNL d   1      -1.250  -0.101   0.496  0.00  0.00     0.017 A 
ATOM      5  C4  UNL d   1       0.038   0.295   0.117  0.00  0.00     0.017 A 
ATOM      6  C5  UNL d   1       0.793   1.109   0.967  0.00  0.00     0.034 A 
ATOM      7 Cl   UNL d   1       0.751  -0.185  -1.383  0.00  0.00    -0.070 Cl
ATOM      8 Cl1  UNL d   1      -2.244  -1.105  -0.498  0.00  0.00    -0.070 Cl
ENDROOT
TORSDOF 0
ENDMDL
