MODEL 1
REMARK minimizedAffinity 0.584218383
REMARK minimizedRMSD -1
REMARK  0 active torsions:
REMARK  status: ('A' for Active; 'I' for Inactive)
ROOT
ATOM      1  C   UNL d   1      -2.253   0.386   1.616  0.00  0.00     0.020 A 
ATOM      2  C1  UNL d   1      -1.395   0.074   2.670  0.00  0.00     0.020 A 
ATOM      3  C2  UNL d   1      -0.060  -0.245   2.413  0.00  0.00     0.034 A 
ATOM      4  C3  UNL d   1       0.421  -0.252   1.098  0.00  0.00     0.017 A 
ATOM      5  C4  UNL d   1      -0.441   0.062   0.041  0.00  0.00     0.017 A 
ATOM      6  C5  UNL d   1      -1.777   0.380   0.305  0.00  0.00     0.034 A 
ATOM      7 Cl   UNL d   1       0.080   0.074  -1.607  0.00  0.00    -0.070 Cl
ATOM      8 Cl1  UNL d   1       2.083  -0.655   0.853  0.00  0.00    -0.070 Cl
ENDROOT
TORSDOF 0
ENDMDL
