MODEL 1
REMARK minimizedAffinity -4.719594
REMARK minimizedRMSD -1
REMARK  0 active torsions:
REMARK  status: ('A' for Active; 'I' for Inactive)
ROOT
ATOM      1  C   UNL d   1      -2.360   0.551   0.637  0.00  0.00     0.020 A 
ATOM      2  C1  UNL d   1      -1.861   0.272   1.909  0.00  0.00     0.020 A 
ATOM      3  C2  UNL d   1      -0.611  -0.334   2.051  0.00  0.00     0.034 A 
ATOM      4  C3  UNL d   1       0.144  -0.663   0.919  0.00  0.00     0.017 A 
ATOM      5  C4  UNL d   1      -0.357  -0.383  -0.357  0.00  0.00     0.017 A 
ATOM      6  C5  UNL d   1      -1.609   0.225  -0.493  0.00  0.00     0.034 A 
ATOM      7 Cl   UNL d   1       0.517  -0.759  -1.800  0.00  0.00    -0.070 Cl
ATOM      8 Cl1  UNL d   1       1.682  -1.411   1.169  0.00  0.00    -0.070 Cl
ENDROOT
TORSDOF 0
ENDMDL
