MODEL 1
REMARK minimizedAffinity -2.32396531
REMARK minimizedRMSD -1
REMARK  0 active torsions:
REMARK  status: ('A' for Active; 'I' for Inactive)
ROOT
ATOM      1  C   UNL d   1       1.546  -1.721  -1.012  0.00  0.00     0.020 A 
ATOM      2  C1  UNL d   1       2.187  -1.531   0.212  0.00  0.00     0.020 A 
ATOM      3  C2  UNL d   1       1.596  -0.733   1.194  0.00  0.00     0.034 A 
ATOM      4  C3  UNL d   1       0.360  -0.121   0.953  0.00  0.00     0.017 A 
ATOM      5  C4  UNL d   1      -0.283  -0.312  -0.275  0.00  0.00     0.017 A 
ATOM      6  C5  UNL d   1       0.314  -1.112  -1.255  0.00  0.00     0.034 A 
ATOM      7 Cl   UNL d   1      -1.809   0.411  -0.645  0.00  0.00    -0.070 Cl
ATOM      8 Cl1  UNL d   1      -0.313   0.853   2.212  0.00  0.00    -0.070 Cl
ENDROOT
TORSDOF 0
ENDMDL
