MODEL 1
REMARK minimizedAffinity -3.40651608
REMARK minimizedRMSD -1
REMARK  0 active torsions:
REMARK  status: ('A' for Active; 'I' for Inactive)
ROOT
ATOM      1  C   UNL d   1      -1.015  -0.811  -0.867  0.00  0.00     0.020 A 
ATOM      2  C1  UNL d   1       0.241  -1.407  -0.983  0.00  0.00     0.020 A 
ATOM      3  C2  UNL d   1       1.259  -1.071  -0.088  0.00  0.00     0.034 A 
ATOM      4  C3  UNL d   1       1.023  -0.136   0.927  0.00  0.00     0.017 A 
ATOM      5  C4  UNL d   1      -0.237   0.461   1.043  0.00  0.00     0.017 A 
ATOM      6  C5  UNL d   1      -1.253   0.120   0.144  0.00  0.00     0.034 A 
ATOM      7 Cl   UNL d   1      -0.603   1.622   2.270  0.00  0.00    -0.070 Cl
ATOM      8 Cl1  UNL d   1       2.328   0.232   1.998  0.00  0.00    -0.070 Cl
ENDROOT
TORSDOF 0
ENDMDL
