MODEL 1
REMARK minimizedAffinity 0.00489202002
REMARK minimizedRMSD -1
REMARK  0 active torsions:
REMARK  status: ('A' for Active; 'I' for Inactive)
ROOT
ATOM      1  C   UNL d   1       1.911  -0.862   1.171  0.00  0.00     0.020 A 
ATOM      2  C1  UNL d   1       2.425   0.183   0.404  0.00  0.00     0.020 A 
ATOM      3  C2  UNL d   1       1.562   1.008  -0.321  0.00  0.00     0.034 A 
ATOM      4  C3  UNL d   1       0.180   0.788  -0.281  0.00  0.00     0.017 A 
ATOM      5  C4  UNL d   1      -0.335  -0.261   0.489  0.00  0.00     0.017 A 
ATOM      6  C5  UNL d   1       0.534  -1.083   1.213  0.00  0.00     0.034 A 
ATOM      7 Cl   UNL d   1      -2.028  -0.593   0.589  0.00  0.00    -0.070 Cl
ATOM      8 Cl1  UNL d   1      -0.828   1.847  -1.201  0.00  0.00    -0.070 Cl
ENDROOT
TORSDOF 0
ENDMDL
