MODEL 1
REMARK minimizedAffinity -1.947752
REMARK minimizedRMSD -1
REMARK  0 active torsions:
REMARK  status: ('A' for Active; 'I' for Inactive)
ROOT
ATOM      1  C   UNL d   1       1.035  -0.748   0.814  0.00  0.00     0.020 A 
ATOM      2  C1  UNL d   1       0.256   0.377   0.546  0.00  0.00     0.020 A 
ATOM      3  C2  UNL d   1       0.284   0.960  -0.723  0.00  0.00     0.034 A 
ATOM      4  C3  UNL d   1       1.093   0.417  -1.729  0.00  0.00     0.017 A 
ATOM      5  C4  UNL d   1       1.873  -0.712  -1.459  0.00  0.00     0.017 A 
ATOM      6  C5  UNL d   1       1.841  -1.292  -0.187  0.00  0.00     0.034 A 
ATOM      7 Cl   UNL d   1       2.895  -1.438  -2.649  0.00  0.00    -0.070 Cl
ATOM      8 Cl1  UNL d   1       1.078   1.189  -3.275  0.00  0.00    -0.070 Cl
ENDROOT
TORSDOF 0
ENDMDL
