MODEL 1
REMARK minimizedAffinity -4.99057722
REMARK minimizedRMSD -1
REMARK  0 active torsions:
REMARK  status: ('A' for Active; 'I' for Inactive)
ROOT
ATOM      1  C   UNL d   1      -0.425   1.001   3.091  0.00  0.00     0.020 A 
ATOM      2  C1  UNL d   1       0.861   0.588   2.746  0.00  0.00     0.020 A 
ATOM      3  C2  UNL d   1       1.074  -0.118   1.560  0.00  0.00     0.034 A 
ATOM      4  C3  UNL d   1      -0.002  -0.413   0.715  0.00  0.00     0.017 A 
ATOM      5  C4  UNL d   1      -1.293   0.002   1.061  0.00  0.00     0.017 A 
ATOM      6  C5  UNL d   1      -1.500   0.708   2.250  0.00  0.00     0.034 A 
ATOM      7 Cl   UNL d   1      -2.669  -0.325   0.069  0.00  0.00    -0.070 Cl
ATOM      8 Cl1  UNL d   1       0.334  -1.290  -0.736  0.00  0.00    -0.070 Cl
ENDROOT
TORSDOF 0
ENDMDL
