MODEL 1
REMARK minimizedAffinity -5.6234827
REMARK minimizedRMSD -1
REMARK  3 active torsions:
REMARK  status: ('A' for Active; 'I' for Inactive)
REMARK    1  A    between atoms: C3'_2  and  C2'_3 
REMARK    2  A    between atoms: C2'_3  and  C1'_4 
REMARK    3  A    between atoms: C1'_4  and  C1_5 
ROOT
ATOM      1  C1  N4B d   1      -0.699  -0.270  -0.341  0.00  0.00    -0.075 A 
ATOM      2  C2  N4B d   1      -1.905  -0.277  -1.076  0.00  0.00     0.002 A 
ATOM      3  C3  N4B d   1      -2.933  -1.106  -0.700  0.00  0.00     0.002 A 
ATOM      4  C4  N4B d   1      -2.772  -1.948   0.390  0.00  0.00    -0.004 A 
ATOM      5  C5  N4B d   1      -1.613  -1.918   1.109  0.00  0.00     0.002 A 
ATOM      6  C6  N4B d   1      -0.573  -1.086   0.746  0.00  0.00     0.002 A 
ENDROOT
BRANCH   1   7
ATOM      7  C1' N4B d   1       0.484   0.557  -0.764  0.00  0.00     0.057 C 
BRANCH   7   8
ATOM      8  C2' N4B d   1       1.643   0.300   0.194  0.00  0.00     0.009 C 
BRANCH   8   9
ATOM      9  C3' N4B d   1       2.564   1.504   0.308  0.00  0.00     0.004 C 
ATOM     10  C4' N4B d   1       2.470   2.181   1.643  0.00  0.00     0.003 C 
ENDBRANCH   8   9
ENDBRANCH   7   8
ENDBRANCH   1   7
TORSDOF 3
ENDMDL
