MODEL 1
REMARK minimizedAffinity -6.33519173
REMARK minimizedRMSD -1
REMARK  3 active torsions:
REMARK  status: ('A' for Active; 'I' for Inactive)
REMARK    1  A    between atoms: C3'_2  and  C2'_3 
REMARK    2  A    between atoms: C2'_3  and  C1'_4 
REMARK    3  A    between atoms: C1'_4  and  C1_5 
ROOT
ATOM      1  C1  N4B d   1      -0.650  -0.892   0.352  0.00  0.00    -0.075 A 
ATOM      2  C2  N4B d   1      -1.520  -1.685   1.133  0.00  0.00     0.002 A 
ATOM      3  C3  N4B d   1      -2.851  -1.769   0.808  0.00  0.00     0.002 A 
ATOM      4  C4  N4B d   1      -3.338  -1.057  -0.278  0.00  0.00    -0.004 A 
ATOM      5  C5  N4B d   1      -2.487  -0.313  -1.043  0.00  0.00     0.002 A 
ATOM      6  C6  N4B d   1      -1.146  -0.223  -0.730  0.00  0.00     0.002 A 
ENDROOT
BRANCH   1   7
ATOM      7  C1' N4B d   1       0.796  -0.702   0.719  0.00  0.00     0.057 C 
BRANCH   7   8
ATOM      8  C2' N4B d   1       1.491   0.094  -0.382  0.00  0.00     0.009 C 
BRANCH   8   9
ATOM      9  C3' N4B d   1       2.238   1.295   0.171  0.00  0.00     0.004 C 
ATOM     10  C4' N4B d   1       3.327   1.773  -0.743  0.00  0.00     0.003 C 
ENDBRANCH   8   9
ENDBRANCH   7   8
ENDBRANCH   1   7
TORSDOF 3
ENDMDL
