MODEL 1
REMARK minimizedAffinity -1.18412662
REMARK minimizedRMSD -1
REMARK  3 active torsions:
REMARK  status: ('A' for Active; 'I' for Inactive)
REMARK    1  A    between atoms: C3'_2  and  C2'_3 
REMARK    2  A    between atoms: C2'_3  and  C1'_4 
REMARK    3  A    between atoms: C1'_4  and  C1_5 
ROOT
ATOM      1  C1  N4B d   1       0.944   0.463  -0.169  0.00  0.00    -0.075 A 
ATOM      2  C2  N4B d   1       1.932   1.469  -0.237  0.00  0.00     0.002 A 
ATOM      3  C3  N4B d   1       2.459   1.993   0.917  0.00  0.00     0.002 A 
ATOM      4  C4  N4B d   1       2.002   1.542   2.147  0.00  0.00    -0.004 A 
ATOM      5  C5  N4B d   1       1.066   0.552   2.204  0.00  0.00     0.002 A 
ATOM      6  C6  N4B d   1       0.530   0.013   1.052  0.00  0.00     0.002 A 
ENDROOT
BRANCH   1   7
ATOM      7  C1' N4B d   1       0.276  -0.080  -1.402  0.00  0.00     0.057 C 
BRANCH   7   8
ATOM      8  C2' N4B d   1      -1.235   0.076  -1.264  0.00  0.00     0.009 C 
BRANCH   8   9
ATOM      9  C3' N4B d   1      -1.978  -1.181  -1.684  0.00  0.00     0.004 C 
ATOM     10  C4' N4B d   1      -2.647  -1.872  -0.534  0.00  0.00     0.003 C 
ENDBRANCH   8   9
ENDBRANCH   7   8
ENDBRANCH   1   7
TORSDOF 3
ENDMDL
