MODEL 1
REMARK minimizedAffinity -4.68002987
REMARK minimizedRMSD -1
REMARK  3 active torsions:
REMARK  status: ('A' for Active; 'I' for Inactive)
REMARK    1  A    between atoms: C3'_2  and  C2'_3 
REMARK    2  A    between atoms: C2'_3  and  C1'_4 
REMARK    3  A    between atoms: C1'_4  and  C1_5 
ROOT
ATOM      1  C1  N4B d   1      -0.570  -0.586  -0.643  0.00  0.00    -0.075 A 
ATOM      2  C2  N4B d   1      -1.512  -1.578  -0.293  0.00  0.00     0.002 A 
ATOM      3  C3  N4B d   1      -2.783  -1.533  -0.812  0.00  0.00     0.002 A 
ATOM      4  C4  N4B d   1      -3.139  -0.498  -1.664  0.00  0.00    -0.004 A 
ATOM      5  C5  N4B d   1      -2.216   0.443  -2.017  0.00  0.00     0.002 A 
ATOM      6  C6  N4B d   1      -0.934   0.407  -1.507  0.00  0.00     0.002 A 
ENDROOT
BRANCH   1   7
ATOM      7  C1' N4B d   1       0.805  -0.545  -0.034  0.00  0.00     0.057 C 
BRANCH   7   8
ATOM      8  C2' N4B d   1       1.132   0.890   0.369  0.00  0.00     0.009 C 
BRANCH   8   9
ATOM      9  C3' N4B d   1       2.630   1.135   0.429  0.00  0.00     0.004 C 
ATOM     10  C4' N4B d   1       2.986   2.357   1.222  0.00  0.00     0.003 C 
ENDBRANCH   8   9
ENDBRANCH   7   8
ENDBRANCH   1   7
TORSDOF 3
ENDMDL
