MODEL 1
REMARK minimizedAffinity -5.95657873
REMARK minimizedRMSD -1
REMARK  3 active torsions:
REMARK  status: ('A' for Active; 'I' for Inactive)
REMARK    1  A    between atoms: C3'_2  and  C2'_3 
REMARK    2  A    between atoms: C2'_3  and  C1'_4 
REMARK    3  A    between atoms: C1'_4  and  C1_5 
ROOT
ATOM      1  C1  N4B d   1      -0.264  -0.424   0.009  0.00  0.00    -0.075 A 
ATOM      2  C2  N4B d   1      -1.237  -0.036  -0.938  0.00  0.00     0.002 A 
ATOM      3  C3  N4B d   1      -2.509  -0.549  -0.865  0.00  0.00     0.002 A 
ATOM      4  C4  N4B d   1      -2.824  -1.462   0.130  0.00  0.00    -0.004 A 
ATOM      5  C5  N4B d   1      -1.886  -1.812   1.056  0.00  0.00     0.002 A 
ATOM      6  C6  N4B d   1      -0.605  -1.301   0.998  0.00  0.00     0.002 A 
ENDROOT
BRANCH   1   7
ATOM      7  C1' N4B d   1       1.163   0.044  -0.081  0.00  0.00     0.057 C 
BRANCH   7   8
ATOM      8  C2' N4B d   1       1.419   1.082   1.007  0.00  0.00     0.009 C 
BRANCH   8   9
ATOM      9  C3' N4B d   1       2.506   2.066   0.609  0.00  0.00     0.004 C 
ATOM     10  C4' N4B d   1       2.190   3.475   1.015  0.00  0.00     0.003 C 
ENDBRANCH   8   9
ENDBRANCH   7   8
ENDBRANCH   1   7
TORSDOF 3
ENDMDL
