MODEL 1
REMARK minimizedAffinity -4.88554192
REMARK minimizedRMSD -1
REMARK  3 active torsions:
REMARK  status: ('A' for Active; 'I' for Inactive)
REMARK    1  A    between atoms: C3'_2  and  C2'_3 
REMARK    2  A    between atoms: C2'_3  and  C1'_4 
REMARK    3  A    between atoms: C1'_4  and  C1_5 
ROOT
ATOM      1  C1  N4B d   1       0.076   0.190  -0.038  0.00  0.00    -0.075 A 
ATOM      2  C2  N4B d   1      -0.234   0.339  -1.408  0.00  0.00     0.002 A 
ATOM      3  C3  N4B d   1      -1.519   0.137  -1.847  0.00  0.00     0.002 A 
ATOM      4  C4  N4B d   1      -2.503  -0.233  -0.942  0.00  0.00    -0.004 A 
ATOM      5  C5  N4B d   1      -2.201  -0.350   0.383  0.00  0.00     0.002 A 
ATOM      6  C6  N4B d   1      -0.914  -0.146   0.839  0.00  0.00     0.002 A 
ENDROOT
BRANCH   1   7
ATOM      7  C1' N4B d   1       1.484   0.317   0.476  0.00  0.00     0.057 C 
BRANCH   7   8
ATOM      8  C2' N4B d   1       1.873   1.792   0.511  0.00  0.00     0.009 C 
BRANCH   8   9
ATOM      9  C3' N4B d   1       1.894   2.341   1.927  0.00  0.00     0.004 C 
ATOM     10  C4' N4B d   1       2.736   1.518   2.856  0.00  0.00     0.003 C 
ENDBRANCH   8   9
ENDBRANCH   7   8
ENDBRANCH   1   7
TORSDOF 3
ENDMDL
