MODEL 1
REMARK minimizedAffinity -5.65265512
REMARK minimizedRMSD -1
REMARK  3 active torsions:
REMARK  status: ('A' for Active; 'I' for Inactive)
REMARK    1  A    between atoms: C3'_2  and  C2'_3 
REMARK    2  A    between atoms: C2'_3  and  C1'_4 
REMARK    3  A    between atoms: C1'_4  and  C1_5 
ROOT
ATOM      1  C1  N4B d   1      -1.050  -0.882  -0.056  0.00  0.00    -0.075 A 
ATOM      2  C2  N4B d   1      -2.383  -1.011  -0.504  0.00  0.00     0.002 A 
ATOM      3  C3  N4B d   1      -3.188  -1.998   0.011  0.00  0.00     0.002 A 
ATOM      4  C4  N4B d   1      -2.679  -2.874   0.957  0.00  0.00    -0.004 A 
ATOM      5  C5  N4B d   1      -1.398  -2.727   1.403  0.00  0.00     0.002 A 
ATOM      6  C6  N4B d   1      -0.579  -1.738   0.897  0.00  0.00     0.002 A 
ENDROOT
BRANCH   1   7
ATOM      7  C1' N4B d   1      -0.106   0.126  -0.653  0.00  0.00     0.057 C 
BRANCH   7   8
ATOM      8  C2' N4B d   1       1.148   0.209   0.212  0.00  0.00     0.009 C 
BRANCH   8   9
ATOM      9  C3' N4B d   1       1.781   1.589   0.163  0.00  0.00     0.004 C 
ATOM     10  C4' N4B d   1       3.081   1.659   0.906  0.00  0.00     0.003 C 
ENDBRANCH   8   9
ENDBRANCH   7   8
ENDBRANCH   1   7
TORSDOF 3
ENDMDL
