MODEL 1
REMARK minimizedAffinity -5.5783
REMARK minimizedRMSD -1
REMARK  0 active torsions:
REMARK  status: ('A' for Active; 'I' for Inactive)
ROOT
ATOM      1  C1  DEN d   1       0.302  -0.498  -0.671  0.00  0.00     0.130 A 
ATOM      2  C2  DEN d   1      -1.003  -0.742  -0.062  0.00  0.00    -0.031 A 
ATOM      3  C3  DEN d   1      -1.159   0.191   1.072  0.00  0.00     0.027 A 
ATOM      4  C4  DEN d   1       0.482   1.983   1.936  0.00  0.00     0.027 A 
ATOM      5  C5  DEN d   1       1.722   2.554   1.748  0.00  0.00    -0.003 A 
ATOM      6  C6  DEN d   1       2.582   2.128   0.771  0.00  0.00     0.001 A 
ATOM      7  C7  DEN d   1       2.195   1.131  -0.086  0.00  0.00     0.017 A 
ATOM      8  C8  DEN d   1       0.950   0.546   0.101  0.00  0.00    -0.094 A 
ATOM      9  C9  DEN d   1       0.090   0.999   1.087  0.00  0.00    -0.072 A 
ENDROOT
TORSDOF 0
ENDMDL
