MODEL 1
REMARK minimizedAffinity -4.07858324
REMARK minimizedRMSD -1
REMARK  0 active torsions:
REMARK  status: ('A' for Active; 'I' for Inactive)
ROOT
ATOM      1  C1  DEN d   1       0.446  -0.241   0.095  0.00  0.00     0.130 A 
ATOM      2  C2  DEN d   1      -1.010  -0.147   0.175  0.00  0.00    -0.031 A 
ATOM      3  C3  DEN d   1      -1.347   1.106   0.881  0.00  0.00     0.027 A 
ATOM      4  C4  DEN d   1       0.233   2.900   1.849  0.00  0.00     0.027 A 
ATOM      5  C5  DEN d   1       1.551   3.253   2.034  0.00  0.00    -0.003 A 
ATOM      6  C6  DEN d   1       2.585   2.456   1.619  0.00  0.00     0.001 A 
ATOM      7  C7  DEN d   1       2.318   1.286   0.958  0.00  0.00     0.017 A 
ATOM      8  C8  DEN d   1       0.991   0.920   0.774  0.00  0.00    -0.094 A 
ATOM      9  C9  DEN d   1      -0.040   1.746   1.190  0.00  0.00    -0.072 A 
ENDROOT
TORSDOF 0
ENDMDL
