MODEL 1
REMARK minimizedAffinity -0.758842468
REMARK minimizedRMSD -1
REMARK  0 active torsions:
REMARK  status: ('A' for Active; 'I' for Inactive)
ROOT
ATOM      1  C1  DEN d   1      -3.103  -0.524  -2.419  0.00  0.00     0.130 A 
ATOM      2  C2  DEN d   1      -2.765  -1.636  -3.304  0.00  0.00    -0.031 A 
ATOM      3  C3  DEN d   1      -1.498  -2.228  -2.830  0.00  0.00     0.027 A 
ATOM      4  C4  DEN d   1      -0.038  -1.539  -0.818  0.00  0.00     0.027 A 
ATOM      5  C5  DEN d   1       0.090  -0.646   0.222  0.00  0.00    -0.003 A 
ATOM      6  C6  DEN d   1      -0.812   0.363   0.434  0.00  0.00     0.001 A 
ATOM      7  C7  DEN d   1      -1.907   0.476  -0.381  0.00  0.00     0.017 A 
ATOM      8  C8  DEN d   1      -2.039  -0.416  -1.437  0.00  0.00    -0.094 A 
ATOM      9  C9  DEN d   1      -1.123  -1.437  -1.627  0.00  0.00    -0.072 A 
ENDROOT
TORSDOF 0
ENDMDL
