MODEL 1
REMARK minimizedAffinity -2.84461951
REMARK minimizedRMSD -1
REMARK  0 active torsions:
REMARK  status: ('A' for Active; 'I' for Inactive)
ROOT
ATOM      1  C1  DEN d   1       1.571  -0.921  -1.120  0.00  0.00     0.130 A 
ATOM      2  C2  DEN d   1       0.137  -0.864  -0.848  0.00  0.00    -0.031 A 
ATOM      3  C3  DEN d   1      -0.142   0.398  -0.134  0.00  0.00     0.027 A 
ATOM      4  C4  DEN d   1       1.497   2.261   0.570  0.00  0.00     0.027 A 
ATOM      5  C5  DEN d   1       2.817   2.654   0.568  0.00  0.00    -0.003 A 
ATOM      6  C6  DEN d   1       3.811   1.874   0.038  0.00  0.00     0.001 A 
ATOM      7  C7  DEN d   1       3.494   0.680  -0.553  0.00  0.00     0.017 A 
ATOM      8  C8  DEN d   1       2.166   0.273  -0.549  0.00  0.00    -0.094 A 
ATOM      9  C9  DEN d   1       1.174   1.081  -0.019  0.00  0.00    -0.072 A 
ENDROOT
TORSDOF 0
ENDMDL
