MODEL 1
REMARK minimizedAffinity -6.21259832
REMARK minimizedRMSD -1
REMARK  0 active torsions:
REMARK  status: ('A' for Active; 'I' for Inactive)
ROOT
ATOM      1  C1  DEN d   1       0.400  -0.758  -0.232  0.00  0.00     0.130 A 
ATOM      2  C2  DEN d   1      -1.024  -0.646   0.074  0.00  0.00    -0.031 A 
ATOM      3  C3  DEN d   1      -1.244   0.646   0.755  0.00  0.00     0.027 A 
ATOM      4  C4  DEN d   1       0.471   2.476   1.356  0.00  0.00     0.027 A 
ATOM      5  C5  DEN d   1       1.802   2.826   1.308  0.00  0.00    -0.003 A 
ATOM      6  C6  DEN d   1       2.757   1.999   0.778  0.00  0.00     0.001 A 
ATOM      7  C7  DEN d   1       2.387   0.797   0.234  0.00  0.00     0.017 A 
ATOM      8  C8  DEN d   1       1.047   0.434   0.285  0.00  0.00    -0.094 A 
ATOM      9  C9  DEN d   1       0.096   1.290   0.814  0.00  0.00    -0.072 A 
ENDROOT
TORSDOF 0
ENDMDL
