MODEL 1
REMARK minimizedAffinity -3.93202591
REMARK minimizedRMSD -1
REMARK  0 active torsions:
REMARK  status: ('A' for Active; 'I' for Inactive)
ROOT
ATOM      1  C1  DEN d   1       1.558   2.110   0.332  0.00  0.00     0.130 A 
ATOM      2  C2  DEN d   1       1.851   2.398   1.733  0.00  0.00    -0.031 A 
ATOM      3  C3  DEN d   1       0.919   1.612   2.566  0.00  0.00     0.027 A 
ATOM      4  C4  DEN d   1      -0.938  -0.017   1.826  0.00  0.00     0.027 A 
ATOM      5  C5  DEN d   1      -1.573  -0.578   0.740  0.00  0.00    -0.003 A 
ATOM      6  C6  DEN d   1      -1.234  -0.259  -0.548  0.00  0.00     0.001 A 
ATOM      7  C7  DEN d   1      -0.202   0.612  -0.783  0.00  0.00     0.017 A 
ATOM      8  C8  DEN d   1       0.437   1.187   0.307  0.00  0.00    -0.094 A 
ATOM      9  C9  DEN d   1       0.088   0.842   1.602  0.00  0.00    -0.072 A 
ENDROOT
TORSDOF 0
ENDMDL
