MODEL 1
REMARK minimizedAffinity -4.74807405
REMARK minimizedRMSD -1
REMARK  0 active torsions:
REMARK  status: ('A' for Active; 'I' for Inactive)
ROOT
ATOM      1  C1  DEN d   1       2.288   1.771   0.532  0.00  0.00     0.130 A 
ATOM      2  C2  DEN d   1       1.816   2.783   1.473  0.00  0.00    -0.031 A 
ATOM      3  C3  DEN d   1       0.451   2.413   1.896  0.00  0.00     0.027 A 
ATOM      4  C4  DEN d   1      -0.970   0.378   1.193  0.00  0.00     0.027 A 
ATOM      5  C5  DEN d   1      -1.000  -0.752   0.406  0.00  0.00    -0.003 A 
ATOM      6  C6  DEN d   1       0.042  -1.099  -0.413  0.00  0.00     0.001 A 
ATOM      7  C7  DEN d   1       1.177  -0.332  -0.430  0.00  0.00     0.017 A 
ATOM      8  C8  DEN d   1       1.212   0.812   0.355  0.00  0.00    -0.094 A 
ATOM      9  C9  DEN d   1       0.153   1.140   1.186  0.00  0.00    -0.072 A 
ENDROOT
TORSDOF 0
ENDMDL
