MODEL 1
REMARK minimizedAffinity -4.53231478
REMARK minimizedRMSD -1
REMARK  0 active torsions:
REMARK  status: ('A' for Active; 'I' for Inactive)
ROOT
ATOM      1  C1  DEN d   1       2.037   1.646  -0.427  0.00  0.00     0.130 A 
ATOM      2  C2  DEN d   1       1.963   2.839   0.413  0.00  0.00    -0.031 A 
ATOM      3  C3  DEN d   1       0.798   2.695   1.309  0.00  0.00     0.027 A 
ATOM      4  C4  DEN d   1      -0.886   0.749   1.482  0.00  0.00     0.027 A 
ATOM      5  C5  DEN d   1      -1.239  -0.479   0.967  0.00  0.00    -0.003 A 
ATOM      6  C6  DEN d   1      -0.551  -1.064  -0.063  0.00  0.00     0.001 A 
ATOM      7  C7  DEN d   1       0.554  -0.442  -0.582  0.00  0.00     0.017 A 
ATOM      8  C8  DEN d   1       0.912   0.800  -0.072  0.00  0.00    -0.094 A 
ATOM      9  C9  DEN d   1       0.211   1.369   0.977  0.00  0.00    -0.072 A 
ENDROOT
TORSDOF 0
ENDMDL
