MODEL 1
REMARK minimizedAffinity -5.87885237
REMARK minimizedRMSD -1
REMARK  0 active torsions:
REMARK  status: ('A' for Active; 'I' for Inactive)
ROOT
ATOM      1  C1  DEN d   1       2.331   2.279   1.049  0.00  0.00     0.130 A 
ATOM      2  C2  DEN d   1       3.366   1.535   0.338  0.00  0.00    -0.031 A 
ATOM      3  C3  DEN d   1       2.761   0.294  -0.184  0.00  0.00     0.027 A 
ATOM      4  C4  DEN d   1       0.331  -0.543   0.037  0.00  0.00     0.027 A 
ATOM      5  C5  DEN d   1      -0.910  -0.260   0.563  0.00  0.00    -0.003 A 
ATOM      6  C6  DEN d   1      -1.148   0.863   1.310  0.00  0.00     0.001 A 
ATOM      7  C7  DEN d   1      -0.140   1.768   1.515  0.00  0.00     0.017 A 
ATOM      8  C8  DEN d   1       1.116   1.486   0.994  0.00  0.00    -0.094 A 
ATOM      9  C9  DEN d   1       1.333   0.351   0.231  0.00  0.00    -0.072 A 
ENDROOT
TORSDOF 0
ENDMDL
