MODEL 1
REMARK minimizedAffinity -0.31691891
REMARK minimizedRMSD -1
REMARK  0 active torsions:
REMARK  status: ('A' for Active; 'I' for Inactive)
ROOT
ATOM      1  C1  DEN d   1      -0.406  -0.158   1.943  0.00  0.00     0.130 A 
ATOM      2  C2  DEN d   1      -0.975   0.293   0.676  0.00  0.00    -0.031 A 
ATOM      3  C3  DEN d   1      -0.271   1.527   0.273  0.00  0.00     0.027 A 
ATOM      4  C4  DEN d   1       1.639   2.773   1.479  0.00  0.00     0.027 A 
ATOM      5  C5  DEN d   1       2.449   2.777   2.593  0.00  0.00    -0.003 A 
ATOM      6  C6  DEN d   1       2.342   1.830   3.577  0.00  0.00     0.001 A 
ATOM      7  C7  DEN d   1       1.435   0.813   3.444  0.00  0.00     0.017 A 
ATOM      8  C8  DEN d   1       0.609   0.806   2.327  0.00  0.00    -0.094 A 
ATOM      9  C9  DEN d   1       0.741   1.765   1.337  0.00  0.00    -0.072 A 
ENDROOT
TORSDOF 0
ENDMDL
