MODEL 1
REMARK minimizedAffinity -5.46007824
REMARK minimizedRMSD -1
REMARK  0 active torsions:
REMARK  status: ('A' for Active; 'I' for Inactive)
ROOT
ATOM      1  C1  DEN d   1      -1.011  -0.076   0.175  0.00  0.00     0.130 A 
ATOM      2  C2  DEN d   1      -0.450  -1.199  -0.573  0.00  0.00    -0.031 A 
ATOM      3  C3  DEN d   1       0.993  -0.949  -0.758  0.00  0.00     0.027 A 
ATOM      4  C4  DEN d   1       2.409   1.053   0.041  0.00  0.00     0.027 A 
ATOM      5  C5  DEN d   1       2.373   2.260   0.704  0.00  0.00    -0.003 A 
ATOM      6  C6  DEN d   1       1.211   2.784   1.204  0.00  0.00     0.001 A 
ATOM      7  C7  DEN d   1       0.043   2.078   1.087  0.00  0.00     0.017 A 
ATOM      8  C8  DEN d   1       0.069   0.864   0.413  0.00  0.00    -0.094 A 
ATOM      9  C9  DEN d   1       1.257   0.346  -0.074  0.00  0.00    -0.072 A 
ENDROOT
TORSDOF 0
ENDMDL
