MODEL 1
REMARK minimizedAffinity -3.29111695
REMARK minimizedRMSD -1
REMARK  0 active torsions:
REMARK  status: ('A' for Active; 'I' for Inactive)
ROOT
ATOM      1  C1  BNZ d   1       1.452  -1.942   0.371  0.00  0.00     0.000 A 
ATOM      2  C2  BNZ d   1       0.916  -1.103  -0.569  0.00  0.00     0.000 A 
ATOM      3  C3  BNZ d   1      -0.131  -0.281  -0.257  0.00  0.00     0.000 A 
ATOM      4  C4  BNZ d   1      -0.665  -0.327   0.980  0.00  0.00     0.000 A 
ATOM      5  C5  BNZ d   1      -0.141  -1.174   1.936  0.00  0.00     0.000 A 
ATOM      6  C6  BNZ d   1       0.937  -1.973   1.630  0.00  0.00     0.000 A 
ENDROOT
TORSDOF 0
ENDMDL
