MODEL 1
REMARK minimizedAffinity -4.32205391
REMARK minimizedRMSD -1
REMARK  0 active torsions:
REMARK  status: ('A' for Active; 'I' for Inactive)
ROOT
ATOM      1  C1  BNZ d   1       0.685  -2.802   2.531  0.00  0.00     0.000 A 
ATOM      2  C2  BNZ d   1       1.561  -3.140   1.535  0.00  0.00     0.000 A 
ATOM      3  C3  BNZ d   1       1.709  -2.345   0.433  0.00  0.00     0.000 A 
ATOM      4  C4  BNZ d   1       0.952  -1.236   0.310  0.00  0.00     0.000 A 
ATOM      5  C5  BNZ d   1       0.057  -0.886   1.301  0.00  0.00     0.000 A 
ATOM      6  C6  BNZ d   1      -0.061  -1.668   2.427  0.00  0.00     0.000 A 
ENDROOT
TORSDOF 0
ENDMDL
