MODEL 1
REMARK minimizedAffinity -4.90460157
REMARK minimizedRMSD -1
REMARK  0 active torsions:
REMARK  status: ('A' for Active; 'I' for Inactive)
ROOT
ATOM      1  C1  BNZ d   1       0.978  -1.491   0.311  0.00  0.00     0.000 A 
ATOM      2  C2  BNZ d   1      -0.007  -0.932   1.082  0.00  0.00     0.000 A 
ATOM      3  C3  BNZ d   1      -0.374  -1.502   2.270  0.00  0.00     0.000 A 
ATOM      4  C4  BNZ d   1       0.215  -2.649   2.665  0.00  0.00     0.000 A 
ATOM      5  C5  BNZ d   1       1.203  -3.229   1.894  0.00  0.00     0.000 A 
ATOM      6  C6  BNZ d   1       1.597  -2.633   0.719  0.00  0.00     0.000 A 
ENDROOT
TORSDOF 0
ENDMDL
