MODEL 1
REMARK minimizedAffinity -3.34923267
REMARK minimizedRMSD -1
REMARK  0 active torsions:
REMARK  status: ('A' for Active; 'I' for Inactive)
ROOT
ATOM      1  C1  BNZ d   1       1.002  -0.425  -0.635  0.00  0.00     0.000 A 
ATOM      2  C2  BNZ d   1       2.263  -0.935  -0.476  0.00  0.00     0.000 A 
ATOM      3  C3  BNZ d   1       2.503  -1.946   0.412  0.00  0.00     0.000 A 
ATOM      4  C4  BNZ d   1       1.491  -2.418   1.168  0.00  0.00     0.000 A 
ATOM      5  C5  BNZ d   1       0.216  -1.907   1.027  0.00  0.00     0.000 A 
ATOM      6  C6  BNZ d   1      -0.029  -0.916   0.104  0.00  0.00     0.000 A 
ENDROOT
TORSDOF 0
ENDMDL
