MODEL 1
REMARK minimizedAffinity -4.86130714
REMARK minimizedRMSD -1
REMARK  0 active torsions:
REMARK  status: ('A' for Active; 'I' for Inactive)
ROOT
ATOM      1  C1  BNZ d   1       1.809  -2.255   0.824  0.00  0.00     0.000 A 
ATOM      2  C2  BNZ d   1       1.334  -2.835   1.971  0.00  0.00     0.000 A 
ATOM      3  C3  BNZ d   1       0.118  -2.478   2.483  0.00  0.00     0.000 A 
ATOM      4  C4  BNZ d   1      -0.602  -1.515   1.872  0.00  0.00     0.000 A 
ATOM      5  C5  BNZ d   1      -0.132  -0.914   0.721  0.00  0.00     0.000 A 
ATOM      6  C6  BNZ d   1       1.075  -1.304   0.187  0.00  0.00     0.000 A 
ENDROOT
TORSDOF 0
ENDMDL
