MODEL 1
REMARK minimizedAffinity -4.13163519
REMARK minimizedRMSD -1
REMARK  0 active torsions:
REMARK  status: ('A' for Active; 'I' for Inactive)
ROOT
ATOM      1  C1  BNZ d   1       1.016  -2.623   1.784  0.00  0.00     0.000 A 
ATOM      2  C2  BNZ d   1       0.032  -1.732   1.447  0.00  0.00     0.000 A 
ATOM      3  C3  BNZ d   1       0.292  -0.689   0.602  0.00  0.00     0.000 A 
ATOM      4  C4  BNZ d   1       1.542  -0.516   0.127  0.00  0.00     0.000 A 
ATOM      5  C5  BNZ d   1       2.547  -1.401   0.465  0.00  0.00     0.000 A 
ATOM      6  C6  BNZ d   1       2.273  -2.472   1.285  0.00  0.00     0.000 A 
ENDROOT
TORSDOF 0
ENDMDL
