MODEL 1
REMARK minimizedAffinity -3.99948239
REMARK minimizedRMSD -1
REMARK  0 active torsions:
REMARK  status: ('A' for Active; 'I' for Inactive)
ROOT
ATOM      1  C1  BNZ d   1      -1.919   1.998  -4.671  0.00  0.00     0.000 A 
ATOM      2  C2  BNZ d   1      -3.091   1.290  -4.701  0.00  0.00     0.000 A 
ATOM      3  C3  BNZ d   1      -3.814   1.087  -3.559  0.00  0.00     0.000 A 
ATOM      4  C4  BNZ d   1      -3.346   1.557  -2.385  0.00  0.00     0.000 A 
ATOM      5  C5  BNZ d   1      -2.161   2.264  -2.337  0.00  0.00     0.000 A 
ATOM      6  C6  BNZ d   1      -1.455   2.500  -3.495  0.00  0.00     0.000 A 
ENDROOT
TORSDOF 0
ENDMDL
