MODEL 1
REMARK minimizedAffinity -4.53903532
REMARK minimizedRMSD -1
REMARK  0 active torsions:
REMARK  status: ('A' for Active; 'I' for Inactive)
ROOT
ATOM      1  C1  BNZ d   1       1.695  -0.019  -0.294  0.00  0.00     0.000 A 
ATOM      2  C2  BNZ d   1       0.330  -0.121  -0.329  0.00  0.00     0.000 A 
ATOM      3  C3  BNZ d   1      -0.313  -1.141   0.316  0.00  0.00     0.000 A 
ATOM      4  C4  BNZ d   1       0.412  -2.079   0.960  0.00  0.00     0.000 A 
ATOM      5  C5  BNZ d   1       1.789  -1.995   0.996  0.00  0.00     0.000 A 
ATOM      6  C6  BNZ d   1       2.430  -0.946   0.379  0.00  0.00     0.000 A 
ENDROOT
TORSDOF 0
ENDMDL
