MODEL 1
REMARK minimizedAffinity -4.35516214
REMARK minimizedRMSD -1
REMARK  0 active torsions:
REMARK  status: ('A' for Active; 'I' for Inactive)
ROOT
ATOM      1  C1  BNZ d   1      -1.145  -0.161  -2.303  0.00  0.00     0.000 A 
ATOM      2  C2  BNZ d   1      -2.021   0.886  -2.409  0.00  0.00     0.000 A 
ATOM      3  C3  BNZ d   1      -2.151   1.795  -1.397  0.00  0.00     0.000 A 
ATOM      4  C4  BNZ d   1      -1.436   1.634  -0.265  0.00  0.00     0.000 A 
ATOM      5  C5  BNZ d   1      -0.555   0.578  -0.139  0.00  0.00     0.000 A 
ATOM      6  C6  BNZ d   1      -0.398  -0.313  -1.176  0.00  0.00     0.000 A 
ENDROOT
TORSDOF 0
ENDMDL
