MODEL 1
REMARK minimizedAffinity -4.85100079
REMARK minimizedRMSD -1
REMARK  0 active torsions:
REMARK  status: ('A' for Active; 'I' for Inactive)
ROOT
ATOM      1  C1  BNZ d   1       1.781  -2.377   1.082  0.00  0.00     0.000 A 
ATOM      2  C2  BNZ d   1       1.051  -2.979   2.072  0.00  0.00     0.000 A 
ATOM      3  C3  BNZ d   1      -0.275  -2.689   2.238  0.00  0.00     0.000 A 
ATOM      4  C4  BNZ d   1      -0.857  -1.770   1.442  0.00  0.00     0.000 A 
ATOM      5  C5  BNZ d   1      -0.132  -1.147   0.446  0.00  0.00     0.000 A 
ATOM      6  C6  BNZ d   1       1.192  -1.470   0.256  0.00  0.00     0.000 A 
ENDROOT
TORSDOF 0
ENDMDL
