MODEL 1
REMARK minimizedAffinity -1.55092728
REMARK minimizedRMSD -1
REMARK  0 active torsions:
REMARK  status: ('A' for Active; 'I' for Inactive)
ROOT
ATOM      1  C1  BNZ d   1       0.749  -1.100  -0.115  0.00  0.00     0.000 A 
ATOM      2  C2  BNZ d   1       1.267  -0.004  -0.752  0.00  0.00     0.000 A 
ATOM      3  C3  BNZ d   1       0.562   1.165  -0.818  0.00  0.00     0.000 A 
ATOM      4  C4  BNZ d   1      -0.675   1.224  -0.283  0.00  0.00     0.000 A 
ATOM      5  C5  BNZ d   1      -1.215   0.125   0.354  0.00  0.00     0.000 A 
ATOM      6  C6  BNZ d   1      -0.486  -1.038   0.453  0.00  0.00     0.000 A 
ENDROOT
TORSDOF 0
ENDMDL
