MODEL 1
REMARK minimizedAffinity -1.62709057
REMARK minimizedRMSD -1
REMARK  0 active torsions:
REMARK  status: ('A' for Active; 'I' for Inactive)
ROOT
ATOM      1  C1  BNZ d   1      -1.494  -0.151   0.957  0.00  0.00     0.000 A 
ATOM      2  C2  BNZ d   1      -1.976   1.022   0.440  0.00  0.00     0.000 A 
ATOM      3  C3  BNZ d   1      -1.316   1.664  -0.570  0.00  0.00     0.000 A 
ATOM      4  C4  BNZ d   1      -0.156   1.156  -1.034  0.00  0.00     0.000 A 
ATOM      5  C5  BNZ d   1       0.347  -0.021  -0.516  0.00  0.00     0.000 A 
ATOM      6  C6  BNZ d   1      -0.340  -0.686   0.474  0.00  0.00     0.000 A 
ENDROOT
TORSDOF 0
ENDMDL
