MODEL 1
REMARK minimizedAffinity -2.39018035
REMARK minimizedRMSD -1
REMARK  0 active torsions:
REMARK  status: ('A' for Active; 'I' for Inactive)
ROOT
ATOM      1  C1  BNZ d   1      -1.917   1.119  -1.867  0.00  0.00     0.000 A 
ATOM      2  C2  BNZ d   1      -1.566   1.534  -0.611  0.00  0.00     0.000 A 
ATOM      3  C3  BNZ d   1      -0.587   0.888   0.092  0.00  0.00     0.000 A 
ATOM      4  C4  BNZ d   1       0.010  -0.195  -0.446  0.00  0.00     0.000 A 
ATOM      5  C5  BNZ d   1      -0.340  -0.632  -1.708  0.00  0.00     0.000 A 
ATOM      6  C6  BNZ d   1      -1.298   0.045  -2.428  0.00  0.00     0.000 A 
ENDROOT
TORSDOF 0
ENDMDL
