MODEL 1
REMARK minimizedAffinity 6.46138477
REMARK minimizedRMSD -1
REMARK  0 active torsions:
REMARK  status: ('A' for Active; 'I' for Inactive)
ROOT
ATOM      1  C   UNL d   1      -2.708  -0.540  -2.282  0.00  0.00     0.023 A 
ATOM      2  C1  UNL d   1      -2.706   0.824  -1.989  0.00  0.00     0.003 A 
ATOM      3  C2  UNL d   1      -3.473   1.705  -2.754  0.00  0.00     0.048 A 
ATOM      4  C3  UNL d   1      -4.242   1.215  -3.810  0.00  0.00     0.023 A 
ATOM      5  C4  UNL d   1      -4.248  -0.149  -4.105  0.00  0.00     0.048 A 
ATOM      6  C5  UNL d   1      -3.478  -1.026  -3.338  0.00  0.00     0.003 A 
ATOM      7  I   UNL d   1      -5.385   2.523  -4.950  0.00  0.00    -0.146 I 
ENDROOT
TORSDOF 0
ENDMDL
