MODEL 1
REMARK minimizedAffinity 7.99431896
REMARK minimizedRMSD -1
REMARK  0 active torsions:
REMARK  status: ('A' for Active; 'I' for Inactive)
ROOT
ATOM      1  C   UNL d   1      -5.300   3.854   0.709  0.00  0.00     0.023 A 
ATOM      2  C1  UNL d   1      -5.230   2.752   1.562  0.00  0.00     0.003 A 
ATOM      3  C2  UNL d   1      -4.187   1.832   1.431  0.00  0.00     0.048 A 
ATOM      4  C3  UNL d   1      -3.219   2.020   0.446  0.00  0.00     0.023 A 
ATOM      5  C4  UNL d   1      -3.285   3.122  -0.409  0.00  0.00     0.048 A 
ATOM      6  C5  UNL d   1      -4.329   4.038  -0.275  0.00  0.00     0.003 A 
ATOM      7  I   UNL d   1      -1.666   0.652   0.249  0.00  0.00    -0.146 I 
ENDROOT
TORSDOF 0
ENDMDL
