MODEL 1
REMARK minimizedAffinity 1.17302573
REMARK minimizedRMSD -1
REMARK  0 active torsions:
REMARK  status: ('A' for Active; 'I' for Inactive)
ROOT
ATOM      1  C   UNL d   1       1.180  -3.025   3.380  0.00  0.00     0.023 A 
ATOM      2  C1  UNL d   1       1.878  -3.990   4.107  0.00  0.00     0.003 A 
ATOM      3  C2  UNL d   1       3.261  -3.883   4.262  0.00  0.00     0.048 A 
ATOM      4  C3  UNL d   1       3.941  -2.809   3.689  0.00  0.00     0.023 A 
ATOM      5  C4  UNL d   1       3.246  -1.840   2.962  0.00  0.00     0.048 A 
ATOM      6  C5  UNL d   1       1.863  -1.952   2.809  0.00  0.00     0.003 A 
ATOM      7  I   UNL d   1       6.000  -2.647   3.920  0.00  0.00    -0.146 I 
ENDROOT
TORSDOF 0
ENDMDL
