MODEL 1
REMARK minimizedAffinity 9.34500885
REMARK minimizedRMSD -1
REMARK  0 active torsions:
REMARK  status: ('A' for Active; 'I' for Inactive)
ROOT
ATOM      1  C   UNL d   1       0.947  -2.049   2.306  0.00  0.00     0.023 A 
ATOM      2  C1  UNL d   1       0.944  -3.205   3.086  0.00  0.00     0.003 A 
ATOM      3  C2  UNL d   1       2.049  -3.515   3.881  0.00  0.00     0.048 A 
ATOM      4  C3  UNL d   1       3.153  -2.663   3.893  0.00  0.00     0.023 A 
ATOM      5  C4  UNL d   1       3.160  -1.505   3.115  0.00  0.00     0.048 A 
ATOM      6  C5  UNL d   1       2.053  -1.200   2.320  0.00  0.00     0.003 A 
ATOM      7  I   UNL d   1       4.799  -3.122   5.077  0.00  0.00    -0.146 I 
ENDROOT
TORSDOF 0
ENDMDL
