MODEL 1
REMARK minimizedAffinity 9.58179855
REMARK minimizedRMSD -1
REMARK  0 active torsions:
REMARK  status: ('A' for Active; 'I' for Inactive)
ROOT
ATOM      1  C   UNL d   1       1.269  -2.768   2.639  0.00  0.00     0.023 A 
ATOM      2  C1  UNL d   1       1.880  -1.536   2.872  0.00  0.00     0.003 A 
ATOM      3  C2  UNL d   1       3.105  -1.479   3.541  0.00  0.00     0.048 A 
ATOM      4  C3  UNL d   1       3.713  -2.657   3.972  0.00  0.00     0.023 A 
ATOM      5  C4  UNL d   1       3.105  -3.892   3.740  0.00  0.00     0.048 A 
ATOM      6  C5  UNL d   1       1.880  -3.945   3.072  0.00  0.00     0.003 A 
ATOM      7  I   UNL d   1       5.536  -2.575   4.967  0.00  0.00    -0.146 I 
ENDROOT
TORSDOF 0
ENDMDL
