MODEL 1
REMARK minimizedAffinity 7.63289261
REMARK minimizedRMSD -1
REMARK  0 active torsions:
REMARK  status: ('A' for Active; 'I' for Inactive)
ROOT
ATOM      1  C   UNL d   1       2.669  -5.911  -1.267  0.00  0.00     0.023 A 
ATOM      2  C1  UNL d   1       2.256  -5.973  -2.598  0.00  0.00     0.003 A 
ATOM      3  C2  UNL d   1       3.203  -5.998  -3.623  0.00  0.00     0.048 A 
ATOM      4  C3  UNL d   1       4.562  -5.962  -3.311  0.00  0.00     0.023 A 
ATOM      5  C4  UNL d   1       4.980  -5.900  -1.981  0.00  0.00     0.048 A 
ATOM      6  C5  UNL d   1       4.029  -5.874  -0.959  0.00  0.00     0.003 A 
ATOM      7  I   UNL d   1       5.974  -5.999  -4.836  0.00  0.00    -0.146 I 
ENDROOT
TORSDOF 0
ENDMDL
