MODEL 1
REMARK minimizedAffinity 3.56333327
REMARK minimizedRMSD -1
REMARK  0 active torsions:
REMARK  status: ('A' for Active; 'I' for Inactive)
ROOT
ATOM      1  C   UNL d   1       2.423  -1.998   2.626  0.00  0.00     0.023 A 
ATOM      2  C1  UNL d   1       2.239  -1.595   3.948  0.00  0.00     0.003 A 
ATOM      3  C2  UNL d   1       1.864  -2.527   4.918  0.00  0.00     0.048 A 
ATOM      4  C3  UNL d   1       1.676  -3.861   4.558  0.00  0.00     0.023 A 
ATOM      5  C4  UNL d   1       1.860  -4.269   3.236  0.00  0.00     0.048 A 
ATOM      6  C5  UNL d   1       2.234  -3.333   2.270  0.00  0.00     0.003 A 
ATOM      7  I   UNL d   1       1.118  -5.251   5.999  0.00  0.00    -0.146 I 
ENDROOT
TORSDOF 0
ENDMDL
