MODEL 1
REMARK minimizedAffinity 3.35439968
REMARK minimizedRMSD -1
REMARK  0 active torsions:
REMARK  status: ('A' for Active; 'I' for Inactive)
ROOT
ATOM      1  C   UNL d   1       1.947  -2.045   2.691  0.00  0.00     0.023 A 
ATOM      2  C1  UNL d   1       0.762  -2.728   2.962  0.00  0.00     0.003 A 
ATOM      3  C2  UNL d   1       0.746  -3.753   3.910  0.00  0.00     0.048 A 
ATOM      4  C3  UNL d   1       1.919  -4.089   4.585  0.00  0.00     0.023 A 
ATOM      5  C4  UNL d   1       3.108  -3.408   4.318  0.00  0.00     0.048 A 
ATOM      6  C5  UNL d   1       3.119  -2.384   3.368  0.00  0.00     0.003 A 
ATOM      7  I   UNL d   1       1.898  -5.614   5.997  0.00  0.00    -0.146 I 
ENDROOT
TORSDOF 0
ENDMDL
