MODEL 1
REMARK minimizedAffinity 2.80555081
REMARK minimizedRMSD -1
REMARK  0 active torsions:
REMARK  status: ('A' for Active; 'I' for Inactive)
ROOT
ATOM      1  C   UNL d   1       2.364  -6.000  -5.913  0.00  0.00     0.023 A 
ATOM      2  C1  UNL d   1       1.394  -5.993  -4.910  0.00  0.00     0.003 A 
ATOM      3  C2  UNL d   1       1.776  -5.985  -3.567  0.00  0.00     0.048 A 
ATOM      4  C3  UNL d   1       3.130  -5.983  -3.234  0.00  0.00     0.023 A 
ATOM      5  C4  UNL d   1       4.104  -5.989  -4.234  0.00  0.00     0.048 A 
ATOM      6  C5  UNL d   1       3.717  -5.998  -5.575  0.00  0.00     0.003 A 
ATOM      7  I   UNL d   1       3.701  -5.971  -1.236  0.00  0.00    -0.146 I 
ENDROOT
TORSDOF 0
ENDMDL
