MODEL 1
REMARK minimizedAffinity -3.10652733
REMARK minimizedRMSD -1
REMARK  1 active torsions:
REMARK  status: ('A' for Active; 'I' for Inactive)
REMARK    1  A    between atoms: C1_2  and  C2_3 
ROOT
ATOM      1  C2  UNL d   1       0.431   0.026  -1.573  0.00  0.00    -0.076 A 
ATOM      2  C3  UNL d   1       0.003   0.738  -2.708  0.00  0.00     0.004 A 
ATOM      3  C4  UNL d   1       0.846   0.915  -3.803  0.00  0.00    -0.003 A 
ATOM      4  C5  UNL d   1       2.130   0.382  -3.783  0.00  0.00     0.000 A 
ATOM      5  C6  UNL d   1       2.565  -0.342  -2.674  0.00  0.00     0.000 A 
ATOM      6  C7  UNL d   1       1.723  -0.543  -1.567  0.00  0.00    -0.073 A 
ATOM      7  C8  UNL d   1       2.246  -1.327  -0.395  0.00  0.00     0.078 C 
ENDROOT
BRANCH   1   8
ATOM      8  C1  UNL d   1      -0.517  -0.110  -0.404  0.00  0.00     0.053 C 
ATOM      9  C   UNL d   1      -0.235   0.901   0.696  0.00  0.00     0.018 C 
ENDBRANCH   1   8
TORSDOF 1
ENDMDL
