MODEL 1
REMARK minimizedAffinity -1.28648818
REMARK minimizedRMSD -1
REMARK  1 active torsions:
REMARK  status: ('A' for Active; 'I' for Inactive)
REMARK    1  A    between atoms: C1_2  and  C2_3 
ROOT
ATOM      1  C2  UNL d   1       0.603   0.233   0.914  0.00  0.00    -0.076 A 
ATOM      2  C3  UNL d   1       0.523  -0.432  -0.323  0.00  0.00     0.004 A 
ATOM      3  C4  UNL d   1      -0.696  -0.574  -0.984  0.00  0.00    -0.003 A 
ATOM      4  C5  UNL d   1      -1.855  -0.053  -0.419  0.00  0.00     0.000 A 
ATOM      5  C6  UNL d   1      -1.792   0.624   0.798  0.00  0.00     0.000 A 
ATOM      6  C7  UNL d   1      -0.568   0.791   1.469  0.00  0.00    -0.073 A 
ATOM      7  C8  UNL d   1      -0.559   1.525   2.782  0.00  0.00     0.078 C 
ENDROOT
BRANCH   1   8
ATOM      8  C1  UNL d   1       1.948   0.332   1.597  0.00  0.00     0.053 C 
ATOM      9  C   UNL d   1       2.865  -0.831   1.251  0.00  0.00     0.018 C 
ENDBRANCH   1   8
TORSDOF 1
ENDMDL
