MODEL 1
REMARK minimizedAffinity -6.12161922
REMARK minimizedRMSD -1
REMARK  1 active torsions:
REMARK  status: ('A' for Active; 'I' for Inactive)
REMARK    1  A    between atoms: C1_2  and  C2_3 
ROOT
ATOM      1  C2  UNL d   1       0.026  -0.205   0.611  0.00  0.00    -0.076 A 
ATOM      2  C3  UNL d   1      -1.228   0.428   0.549  0.00  0.00     0.004 A 
ATOM      3  C4  UNL d   1      -1.763   1.072   1.663  0.00  0.00    -0.003 A 
ATOM      4  C5  UNL d   1      -1.052   1.094   2.858  0.00  0.00     0.000 A 
ATOM      5  C6  UNL d   1       0.201   0.488   2.933  0.00  0.00     0.000 A 
ATOM      6  C7  UNL d   1       0.762  -0.152   1.814  0.00  0.00    -0.073 A 
ATOM      7  C8  UNL d   1       2.115  -0.795   1.953  0.00  0.00     0.078 C 
ENDROOT
BRANCH   1   8
ATOM      8  C1  UNL d   1       0.543  -0.911  -0.622  0.00  0.00     0.053 C 
ATOM      9  C   UNL d   1       0.419  -0.060  -1.876  0.00  0.00     0.018 C 
ENDBRANCH   1   8
TORSDOF 1
ENDMDL
