MODEL 1
REMARK minimizedAffinity 1.64400208
REMARK minimizedRMSD -1
REMARK  1 active torsions:
REMARK  status: ('A' for Active; 'I' for Inactive)
REMARK    1  A    between atoms: C1_2  and  C2_3 
ROOT
ATOM      1  C2  UNL d   1       0.159   0.541   1.269  0.00  0.00    -0.076 A 
ATOM      2  C3  UNL d   1      -0.158  -0.108   0.063  0.00  0.00     0.004 A 
ATOM      3  C4  UNL d   1      -1.482  -0.270  -0.338  0.00  0.00    -0.003 A 
ATOM      4  C5  UNL d   1      -2.513   0.216   0.459  0.00  0.00     0.000 A 
ATOM      5  C6  UNL d   1      -2.217   0.878   1.650  0.00  0.00     0.000 A 
ATOM      6  C7  UNL d   1      -0.886   1.064   2.061  0.00  0.00    -0.073 A 
ATOM      7  C8  UNL d   1      -0.625   1.781   3.358  0.00  0.00     0.078 C 
ENDROOT
BRANCH   1   8
ATOM      8  C1  UNL d   1       1.612   0.663   1.667  0.00  0.00     0.053 C 
ATOM      9  C   UNL d   1       2.414  -0.586   1.336  0.00  0.00     0.018 C 
ENDBRANCH   1   8
TORSDOF 1
ENDMDL
