MODEL 1
REMARK minimizedAffinity -4.70431948
REMARK minimizedRMSD -1
REMARK  1 active torsions:
REMARK  status: ('A' for Active; 'I' for Inactive)
REMARK    1  A    between atoms: C1_2  and  C2_3 
ROOT
ATOM      1  C2  UNL d   1       0.084  -0.459   0.731  0.00  0.00    -0.076 A 
ATOM      2  C3  UNL d   1      -0.156  -1.178  -0.453  0.00  0.00     0.004 A 
ATOM      3  C4  UNL d   1      -1.453  -1.363  -0.929  0.00  0.00    -0.003 A 
ATOM      4  C5  UNL d   1      -2.531  -0.833  -0.230  0.00  0.00     0.000 A 
ATOM      5  C6  UNL d   1      -2.310  -0.102   0.937  0.00  0.00     0.000 A 
ATOM      6  C7  UNL d   1      -1.008   0.109   1.422  0.00  0.00    -0.073 A 
ATOM      7  C8  UNL d   1      -0.828   0.900   2.689  0.00  0.00     0.078 C 
ENDROOT
BRANCH   1   8
ATOM      8  C1  UNL d   1       1.509  -0.313   1.213  0.00  0.00     0.053 C 
ATOM      9  C   UNL d   1       2.285  -1.619   1.143  0.00  0.00     0.018 C 
ENDBRANCH   1   8
TORSDOF 1
ENDMDL
