MODEL 1
REMARK minimizedAffinity 5.89891434
REMARK minimizedRMSD -1
REMARK  0 active torsions:
REMARK  status: ('A' for Active; 'I' for Inactive)
ROOT
ATOM      1  N1  IND d   1       1.503   1.845   1.918  0.00  0.00    -0.196 N 
ATOM      2  C2  IND d   1       2.103   2.312   0.783  0.00  0.00     0.054 A 
ATOM      3  C3  IND d   1       1.341   2.039  -0.300  0.00  0.00    -0.031 A 
ATOM      4  C4  IND d   1      -0.976   0.924  -0.429  0.00  0.00     0.051 A 
ATOM      5  C5  IND d   1      -1.913   0.296   0.342  0.00  0.00    -0.031 A 
ATOM      6  C6  IND d   1      -1.758   0.151   1.705  0.00  0.00     0.015 A 
ATOM      7  C7  IND d   1      -0.660   0.642   2.353  0.00  0.00    -0.016 A 
ATOM      8  C8  IND d   1       0.297   1.274   1.573  0.00  0.00    -0.047 A 
ATOM      9  C9  IND d   1       0.165   1.386   0.183  0.00  0.00    -0.096 A 
ATOM     10  HN1 IND d   1       1.824   1.898   2.714  0.00  0.00     0.298 HD
ENDROOT
TORSDOF 0
ENDMDL
