MODEL 1
REMARK minimizedAffinity 2.82560945
REMARK minimizedRMSD -1
REMARK  0 active torsions:
REMARK  status: ('A' for Active; 'I' for Inactive)
ROOT
ATOM      1  N1  IND d   1      -0.571   1.478  -1.044  0.00  0.00    -0.196 N 
ATOM      2  C2  IND d   1      -1.252   0.542  -1.772  0.00  0.00     0.054 A 
ATOM      3  C3  IND d   1      -1.774  -0.401  -0.956  0.00  0.00    -0.031 A 
ATOM      4  C4  IND d   1      -1.722  -0.550   1.614  0.00  0.00     0.051 A 
ATOM      5  C5  IND d   1      -1.189   0.055   2.717  0.00  0.00    -0.031 A 
ATOM      6  C6  IND d   1      -0.410   1.190   2.622  0.00  0.00     0.015 A 
ATOM      7  C7  IND d   1      -0.142   1.771   1.415  0.00  0.00    -0.016 A 
ATOM      8  C8  IND d   1      -0.676   1.155   0.291  0.00  0.00    -0.047 A 
ATOM      9  C9  IND d   1      -1.432  -0.021   0.378  0.00  0.00    -0.096 A 
ATOM     10  HN1 IND d   1      -0.149   2.154  -1.366  0.00  0.00     0.298 HD
ENDROOT
TORSDOF 0
ENDMDL
