MODEL 1
REMARK minimizedAffinity 9.4903841
REMARK minimizedRMSD -1
REMARK  0 active torsions:
REMARK  status: ('A' for Active; 'I' for Inactive)
ROOT
ATOM      1  N1  IND d   1       1.301   1.992   2.709  0.00  0.00    -0.196 N 
ATOM      2  C2  IND d   1       2.200   1.663   1.734  0.00  0.00     0.054 A 
ATOM      3  C3  IND d   1       1.594   0.954   0.755  0.00  0.00    -0.031 A 
ATOM      4  C4  IND d   1      -0.885   0.309   0.498  0.00  0.00     0.051 A 
ATOM      5  C5  IND d   1      -2.083   0.356   1.154  0.00  0.00    -0.031 A 
ATOM      6  C6  IND d   1      -2.218   0.965   2.384  0.00  0.00     0.015 A 
ATOM      7  C7  IND d   1      -1.157   1.563   3.003  0.00  0.00    -0.016 A 
ATOM      8  C8  IND d   1       0.063   1.511   2.344  0.00  0.00    -0.047 A 
ATOM      9  C9  IND d   1       0.215   0.857   1.115  0.00  0.00    -0.096 A 
ATOM     10  HN1 IND d   1       1.479   2.427   3.429  0.00  0.00     0.298 HD
ENDROOT
TORSDOF 0
ENDMDL
