MODEL 1
REMARK minimizedAffinity 0.688239217
REMARK minimizedRMSD -1
REMARK  0 active torsions:
REMARK  status: ('A' for Active; 'I' for Inactive)
ROOT
ATOM      1  N1  IND d   1      -0.387  -5.994   4.423  0.00  0.00    -0.196 N 
ATOM      2  C2  IND d   1       0.733  -5.989   3.639  0.00  0.00     0.054 A 
ATOM      3  C3  IND d   1       0.391  -5.998   2.331  0.00  0.00    -0.031 A 
ATOM      4  C4  IND d   1      -1.943  -5.918   1.249  0.00  0.00     0.051 A 
ATOM      5  C5  IND d   1      -3.275  -5.949   1.557  0.00  0.00    -0.031 A 
ATOM      6  C6  IND d   1      -3.721  -5.994   2.862  0.00  0.00     0.015 A 
ATOM      7  C7  IND d   1      -2.848  -5.999   3.913  0.00  0.00    -0.016 A 
ATOM      8  C8  IND d   1      -1.495  -5.975   3.604  0.00  0.00    -0.047 A 
ATOM      9  C9  IND d   1      -1.036  -5.972   2.281  0.00  0.00    -0.096 A 
ATOM     10  HN1 IND d   1      -0.398  -6.006   5.283  0.00  0.00     0.298 HD
ENDROOT
TORSDOF 0
ENDMDL
