MODEL 1
REMARK minimizedAffinity 8.62858582
REMARK minimizedRMSD -1
REMARK  0 active torsions:
REMARK  status: ('A' for Active; 'I' for Inactive)
ROOT
ATOM      1  N1  IND d   1       0.392   1.603   1.207  0.00  0.00    -0.196 N 
ATOM      2  C2  IND d   1       1.107   1.137   0.139  0.00  0.00     0.054 A 
ATOM      3  C3  IND d   1       0.897  -0.189  -0.024  0.00  0.00    -0.031 A 
ATOM      4  C4  IND d   1      -0.659  -1.771   1.280  0.00  0.00     0.051 A 
ATOM      5  C5  IND d   1      -1.489  -1.813   2.366  0.00  0.00    -0.031 A 
ATOM      6  C6  IND d   1      -1.741  -0.695   3.134  0.00  0.00     0.015 A 
ATOM      7  C7  IND d   1      -1.179   0.514   2.838  0.00  0.00    -0.016 A 
ATOM      8  C8  IND d   1      -0.331   0.559   1.741  0.00  0.00    -0.047 A 
ATOM      9  C9  IND d   1      -0.037  -0.582   0.982  0.00  0.00    -0.096 A 
ATOM     10  HN1 IND d   1       0.394   2.413   1.497  0.00  0.00     0.298 HD
ENDROOT
TORSDOF 0
ENDMDL
