MODEL 1
REMARK minimizedAffinity 6.71887589
REMARK minimizedRMSD -1
REMARK  0 active torsions:
REMARK  status: ('A' for Active; 'I' for Inactive)
ROOT
ATOM      1  N1  IND d   1      -0.535  -5.992   1.584  0.00  0.00    -0.196 N 
ATOM      2  C2  IND d   1      -1.646  -5.988   2.381  0.00  0.00     0.054 A 
ATOM      3  C3  IND d   1      -1.290  -5.999   3.685  0.00  0.00    -0.031 A 
ATOM      4  C4  IND d   1       1.058  -5.919   4.739  0.00  0.00     0.051 A 
ATOM      5  C5  IND d   1       2.385  -5.949   4.416  0.00  0.00    -0.031 A 
ATOM      6  C6  IND d   1       2.816  -5.993   3.106  0.00  0.00     0.015 A 
ATOM      7  C7  IND d   1       1.931  -5.997   2.065  0.00  0.00    -0.016 A 
ATOM      8  C8  IND d   1       0.582  -5.974   2.389  0.00  0.00    -0.047 A 
ATOM      9  C9  IND d   1       0.138  -5.972   3.718  0.00  0.00    -0.096 A 
ATOM     10  HN1 IND d   1      -0.535  -6.003   0.724  0.00  0.00     0.298 HD
ENDROOT
TORSDOF 0
ENDMDL
