MODEL 1
REMARK minimizedAffinity 4.62009859
REMARK minimizedRMSD -1
REMARK  0 active torsions:
REMARK  status: ('A' for Active; 'I' for Inactive)
ROOT
ATOM      1  N1  IND d   1       0.150  -5.906   2.398  0.00  0.00    -0.196 N 
ATOM      2  C2  IND d   1      -1.035  -5.922   3.079  0.00  0.00     0.054 A 
ATOM      3  C3  IND d   1      -0.812  -5.983   4.411  0.00  0.00    -0.031 A 
ATOM      4  C4  IND d   1       1.418  -5.964   5.697  0.00  0.00     0.051 A 
ATOM      5  C5  IND d   1       2.771  -5.994   5.508  0.00  0.00    -0.031 A 
ATOM      6  C6  IND d   1       3.331  -5.994   4.247  0.00  0.00     0.015 A 
ATOM      7  C7  IND d   1       2.556  -5.952   3.123  0.00  0.00    -0.016 A 
ATOM      8  C8  IND d   1       1.181  -5.928   3.311  0.00  0.00    -0.047 A 
ATOM      9  C9  IND d   1       0.606  -5.971   4.588  0.00  0.00    -0.096 A 
ATOM     10  HN1 IND d   1       0.237  -5.887   1.543  0.00  0.00     0.298 HD
ENDROOT
TORSDOF 0
ENDMDL
