MODEL 1
REMARK minimizedAffinity 11.0043507
REMARK minimizedRMSD -1
REMARK  0 active torsions:
REMARK  status: ('A' for Active; 'I' for Inactive)
ROOT
ATOM      1  N1  IND d   1       1.503  -5.037   5.970  0.00  0.00    -0.196 N 
ATOM      2  C2  IND d   1       2.588  -4.206   5.999  0.00  0.00     0.054 A 
ATOM      3  C3  IND d   1       2.957  -3.870   4.743  0.00  0.00    -0.031 A 
ATOM      4  C4  IND d   1       1.860  -4.485   2.496  0.00  0.00     0.051 A 
ATOM      5  C5  IND d   1       0.865  -5.252   1.958  0.00  0.00    -0.031 A 
ATOM      6  C6  IND d   1       0.013  -5.999   2.745  0.00  0.00     0.015 A 
ATOM      7  C7  IND d   1       0.117  -5.998   4.107  0.00  0.00    -0.016 A 
ATOM      8  C8  IND d   1       1.131  -5.226   4.657  0.00  0.00    -0.047 A 
ATOM      9  C9  IND d   1       2.026  -4.500   3.861  0.00  0.00    -0.096 A 
ATOM     10  HN1 IND d   1       1.117  -5.382   6.657  0.00  0.00     0.298 HD
ENDROOT
TORSDOF 0
ENDMDL
