MODEL 1
REMARK minimizedAffinity 0.211727798
REMARK minimizedRMSD -1
REMARK  0 active torsions:
REMARK  status: ('A' for Active; 'I' for Inactive)
ROOT
ATOM      1  N1  IND d   1      -0.828  -5.986   0.332  0.00  0.00    -0.196 N 
ATOM      2  C2  IND d   1      -2.142  -5.984   0.710  0.00  0.00     0.054 A 
ATOM      3  C3  IND d   1      -2.244  -5.999   2.058  0.00  0.00    -0.031 A 
ATOM      4  C4  IND d   1      -0.387  -5.928   3.840  0.00  0.00     0.051 A 
ATOM      5  C5  IND d   1       0.972  -5.959   3.981  0.00  0.00    -0.031 A 
ATOM      6  C6  IND d   1       1.817  -5.999   2.892  0.00  0.00     0.015 A 
ATOM      7  C7  IND d   1       1.334  -5.998   1.614  0.00  0.00    -0.016 A 
ATOM      8  C8  IND d   1      -0.046  -5.973   1.467  0.00  0.00    -0.047 A 
ATOM      9  C9  IND d   1      -0.910  -5.975   2.569  0.00  0.00    -0.096 A 
ATOM     10  HN1 IND d   1      -0.538  -5.995  -0.477  0.00  0.00     0.298 HD
ENDROOT
TORSDOF 0
ENDMDL
