MODEL 1
REMARK minimizedAffinity 4.22180128
REMARK minimizedRMSD -1
REMARK  0 active torsions:
REMARK  status: ('A' for Active; 'I' for Inactive)
ROOT
ATOM      1  N1  IND d   1       2.536  -5.999   4.737  0.00  0.00    -0.196 N 
ATOM      2  C2  IND d   1       1.842  -5.985   5.915  0.00  0.00     0.054 A 
ATOM      3  C3  IND d   1       0.512  -5.946   5.676  0.00  0.00    -0.031 A 
ATOM      4  C4  IND d   1      -0.750  -6.000   3.433  0.00  0.00     0.051 A 
ATOM      5  C5  IND d   1      -0.547  -5.976   2.082  0.00  0.00    -0.031 A 
ATOM      6  C6  IND d   1       0.720  -5.962   1.535  0.00  0.00     0.015 A 
ATOM      7  C7  IND d   1       1.836  -5.981   2.323  0.00  0.00    -0.016 A 
ATOM      8  C8  IND d   1       1.633  -5.998   3.696  0.00  0.00    -0.047 A 
ATOM      9  C9  IND d   1       0.350  -5.970   4.257  0.00  0.00    -0.096 A 
ATOM     10  HN1 IND d   1       3.392  -6.006   4.659  0.00  0.00     0.298 HD
ENDROOT
TORSDOF 0
ENDMDL
