MODEL 1
REMARK minimizedAffinity 13.7345781
REMARK minimizedRMSD -1
REMARK  0 active torsions:
REMARK  status: ('A' for Active; 'I' for Inactive)
ROOT
ATOM      1  N1  IND d   1      -0.430   0.946  -1.251  0.00  0.00    -0.196 N 
ATOM      2  C2  IND d   1       0.310   1.083  -0.109  0.00  0.00     0.054 A 
ATOM      3  C3  IND d   1      -0.097   0.194   0.824  0.00  0.00    -0.031 A 
ATOM      4  C4  IND d   1      -1.889  -1.647   0.658  0.00  0.00     0.051 A 
ATOM      5  C5  IND d   1      -2.856  -2.137  -0.174  0.00  0.00    -0.031 A 
ATOM      6  C6  IND d   1      -3.066  -1.616  -1.435  0.00  0.00     0.015 A 
ATOM      7  C7  IND d   1      -2.305  -0.588  -1.916  0.00  0.00    -0.016 A 
ATOM      8  C8  IND d   1      -1.328  -0.083  -1.071  0.00  0.00    -0.047 A 
ATOM      9  C9  IND d   1      -1.138  -0.580   0.225  0.00  0.00    -0.096 A 
ATOM     10  HN1 IND d   1      -0.347   1.422  -1.962  0.00  0.00     0.298 HD
ENDROOT
TORSDOF 0
ENDMDL
