MODEL 1
REMARK minimizedAffinity 9.01792145
REMARK minimizedRMSD -1
REMARK  0 active torsions:
REMARK  status: ('A' for Active; 'I' for Inactive)
ROOT
ATOM      1  N1  IND d   1       2.251  -5.879   2.736  0.00  0.00    -0.196 N 
ATOM      2  C2  IND d   1       1.663  -5.882   1.502  0.00  0.00     0.054 A 
ATOM      3  C3  IND d   1       0.318  -5.945   1.623  0.00  0.00    -0.031 A 
ATOM      4  C4  IND d   1      -1.135  -5.949   3.748  0.00  0.00     0.051 A 
ATOM      5  C5  IND d   1      -1.049  -5.994   5.112  0.00  0.00    -0.031 A 
ATOM      6  C6  IND d   1       0.166  -6.000   5.766  0.00  0.00     0.015 A 
ATOM      7  C7  IND d   1       1.345  -5.950   5.079  0.00  0.00    -0.016 A 
ATOM      8  C8  IND d   1       1.262  -5.912   3.694  0.00  0.00    -0.047 A 
ATOM      9  C9  IND d   1       0.033  -5.948   3.023  0.00  0.00    -0.096 A 
ATOM     10  HN1 IND d   1       3.098  -5.861   2.888  0.00  0.00     0.298 HD
ENDROOT
TORSDOF 0
ENDMDL
