MODEL 1
REMARK minimizedAffinity 7.48760271
REMARK minimizedRMSD -1
REMARK  0 active torsions:
REMARK  status: ('A' for Active; 'I' for Inactive)
ROOT
ATOM      1  N1  IND d   1      -0.539  -5.950   3.830  0.00  0.00    -0.196 N 
ATOM      2  C2  IND d   1      -0.759  -5.941   2.481  0.00  0.00     0.054 A 
ATOM      3  C3  IND d   1       0.416  -5.918   1.813  0.00  0.00    -0.031 A 
ATOM      4  C4  IND d   1       2.820  -5.994   2.729  0.00  0.00     0.051 A 
ATOM      5  C5  IND d   1       3.529  -5.973   3.897  0.00  0.00    -0.031 A 
ATOM      6  C6  IND d   1       2.906  -5.945   5.128  0.00  0.00     0.015 A 
ATOM      7  C7  IND d   1       1.544  -5.949   5.237  0.00  0.00    -0.016 A 
ATOM      8  C8  IND d   1       0.821  -5.964   4.052  0.00  0.00    -0.047 A 
ATOM      9  C9  IND d   1       1.448  -5.949   2.800  0.00  0.00    -0.096 A 
ATOM     10  HN1 IND d   1      -1.147  -5.948   4.438  0.00  0.00     0.298 HD
ENDROOT
TORSDOF 0
ENDMDL
