MODEL 1
REMARK minimizedAffinity 6.6592927
REMARK minimizedRMSD -1
REMARK  0 active torsions:
REMARK  status: ('A' for Active; 'I' for Inactive)
ROOT
ATOM      1  N1  IND d   1       0.661  -5.928   5.859  0.00  0.00    -0.196 N 
ATOM      2  C2  IND d   1       2.022  -5.944   5.991  0.00  0.00     0.054 A 
ATOM      3  C3  IND d   1       2.612  -5.999   4.776  0.00  0.00    -0.031 A 
ATOM      4  C4  IND d   1       1.540  -5.967   2.435  0.00  0.00     0.051 A 
ATOM      5  C5  IND d   1       0.328  -5.995   1.805  0.00  0.00    -0.031 A 
ATOM      6  C6  IND d   1      -0.860  -5.998   2.508  0.00  0.00     0.015 A 
ATOM      7  C7  IND d   1      -0.879  -5.964   3.874  0.00  0.00    -0.016 A 
ATOM      8  C8  IND d   1       0.351  -5.943   4.517  0.00  0.00    -0.047 A 
ATOM      9  C9  IND d   1       1.559  -5.982   3.810  0.00  0.00    -0.096 A 
ATOM     10  HN1 IND d   1       0.095  -5.912   6.506  0.00  0.00     0.298 HD
ENDROOT
TORSDOF 0
ENDMDL
