MODEL 1
REMARK minimizedAffinity 12.1460352
REMARK minimizedRMSD -1
REMARK  0 active torsions:
REMARK  status: ('A' for Active; 'I' for Inactive)
ROOT
ATOM      1  N1  IND d   1      -0.210   1.553  -0.166  0.00  0.00    -0.196 N 
ATOM      2  C2  IND d   1       0.141   1.496   1.154  0.00  0.00     0.054 A 
ATOM      3  C3  IND d   1      -0.395   0.401   1.737  0.00  0.00    -0.031 A 
ATOM      4  C4  IND d   1      -1.796  -1.488   0.689  0.00  0.00     0.051 A 
ATOM      5  C5  IND d   1      -2.405  -1.858  -0.477  0.00  0.00    -0.031 A 
ATOM      6  C6  IND d   1      -2.308  -1.096  -1.623  0.00  0.00     0.015 A 
ATOM      7  C7  IND d   1      -1.587   0.064  -1.649  0.00  0.00    -0.016 A 
ATOM      8  C8  IND d   1      -0.974   0.447  -0.464  0.00  0.00    -0.047 A 
ATOM      9  C9  IND d   1      -1.104  -0.301   0.713  0.00  0.00    -0.096 A 
ATOM     10  HN1 IND d   1       0.010   2.175  -0.717  0.00  0.00     0.298 HD
ENDROOT
TORSDOF 0
ENDMDL
