MODEL 1
REMARK minimizedAffinity 9.01364708
REMARK minimizedRMSD -1
REMARK  0 active torsions:
REMARK  status: ('A' for Active; 'I' for Inactive)
ROOT
ATOM      1  N1  IND d   1      -0.897  -5.995   3.474  0.00  0.00    -0.196 N 
ATOM      2  C2  IND d   1      -0.860  -5.975   2.108  0.00  0.00     0.054 A 
ATOM      3  C3  IND d   1       0.420  -5.935   1.673  0.00  0.00    -0.031 A 
ATOM      4  C4  IND d   1       2.609  -6.000   3.025  0.00  0.00     0.051 A 
ATOM      5  C5  IND d   1       3.085  -5.984   4.306  0.00  0.00    -0.031 A 
ATOM      6  C6  IND d   1       2.241  -5.973   5.398  0.00  0.00     0.015 A 
ATOM      7  C7  IND d   1       0.883  -5.990   5.248  0.00  0.00    -0.016 A 
ATOM      8  C8  IND d   1       0.396  -5.999   3.948  0.00  0.00    -0.047 A 
ATOM      9  C9  IND d   1       1.248  -5.967   2.837  0.00  0.00    -0.096 A 
ATOM     10  HN1 IND d   1      -1.609  -6.004   3.957  0.00  0.00     0.298 HD
ENDROOT
TORSDOF 0
ENDMDL
