MODEL 1
REMARK minimizedAffinity 9.94818687
REMARK minimizedRMSD -1
REMARK  0 active torsions:
REMARK  status: ('A' for Active; 'I' for Inactive)
ROOT
ATOM      1  N1  IND d   1      -0.071  -5.932   2.285  0.00  0.00    -0.196 N 
ATOM      2  C2  IND d   1       0.979  -5.941   1.409  0.00  0.00     0.054 A 
ATOM      3  C3  IND d   1       2.152  -5.929   2.081  0.00  0.00    -0.031 A 
ATOM      4  C4  IND d   1       2.585  -5.995   4.617  0.00  0.00     0.051 A 
ATOM      5  C5  IND d   1       1.940  -5.958   5.822  0.00  0.00    -0.031 A 
ATOM      6  C6  IND d   1       0.563  -5.913   5.910  0.00  0.00     0.015 A 
ATOM      7  C7  IND d   1      -0.223  -5.914   4.793  0.00  0.00    -0.016 A 
ATOM      8  C8  IND d   1       0.429  -5.944   3.568  0.00  0.00    -0.047 A 
ATOM      9  C9  IND d   1       1.827  -5.947   3.472  0.00  0.00    -0.096 A 
ATOM     10  HN1 IND d   1      -0.903  -5.921   2.070  0.00  0.00     0.298 HD
ENDROOT
TORSDOF 0
ENDMDL
