MODEL 1
REMARK minimizedAffinity -0.902557909
REMARK minimizedRMSD -1
REMARK  0 active torsions:
REMARK  status: ('A' for Active; 'I' for Inactive)
ROOT
ATOM      1  C   UNL d   1      -2.152   2.136   0.754  0.00  0.00     0.077 C 
ATOM      2  C1  UNL d   1      -0.704   1.758   0.843  0.00  0.00    -0.074 A 
ATOM      3  C2  UNL d   1      -0.262   0.499   0.421  0.00  0.00    -0.005 A 
ATOM      4  C3  UNL d   1       1.089   0.165   0.501  0.00  0.00     0.006 A 
ATOM      5  C4  UNL d   1       2.012   1.083   1.003  0.00  0.00    -0.005 A 
ATOM      6  C5  UNL d   1       1.589   2.346   1.429  0.00  0.00    -0.074 A 
ATOM      7  C6  UNL d   1       2.569   3.349   1.962  0.00  0.00     0.077 C 
ATOM      8  C7  UNL d   1       0.231   2.678   1.339  0.00  0.00    -0.001 A 
ENDROOT
TORSDOF 0
ENDMDL
