MODEL 1
REMARK minimizedAffinity 8.76417732
REMARK minimizedRMSD -1
REMARK  0 active torsions:
REMARK  status: ('A' for Active; 'I' for Inactive)
ROOT
ATOM      1  C   UNL d   1      -1.450   3.342   3.453  0.00  0.00     0.077 C 
ATOM      2  C1  UNL d   1      -0.230   2.896   2.704  0.00  0.00    -0.074 A 
ATOM      3  C2  UNL d   1       1.033   3.412   3.014  0.00  0.00    -0.005 A 
ATOM      4  C3  UNL d   1       2.160   2.980   2.315  0.00  0.00     0.006 A 
ATOM      5  C4  UNL d   1       2.037   2.029   1.302  0.00  0.00    -0.005 A 
ATOM      6  C5  UNL d   1       0.783   1.500   0.979  0.00  0.00    -0.074 A 
ATOM      7  C6  UNL d   1       0.634   0.470  -0.101  0.00  0.00     0.077 C 
ATOM      8  C7  UNL d   1      -0.344   1.935   1.690  0.00  0.00    -0.001 A 
ENDROOT
TORSDOF 0
ENDMDL
