MODEL 1
REMARK minimizedAffinity 0.825712323
REMARK minimizedRMSD -1
REMARK  0 active torsions:
REMARK  status: ('A' for Active; 'I' for Inactive)
ROOT
ATOM      1  C   UNL d   1       2.580   3.422   2.991  0.00  0.00     0.077 C 
ATOM      2  C1  UNL d   1       1.093   3.353   2.804  0.00  0.00    -0.074 A 
ATOM      3  C2  UNL d   1       0.225   3.477   3.893  0.00  0.00    -0.005 A 
ATOM      4  C3  UNL d   1      -1.155   3.421   3.703  0.00  0.00     0.006 A 
ATOM      5  C4  UNL d   1      -1.681   3.239   2.423  0.00  0.00    -0.005 A 
ATOM      6  C5  UNL d   1      -0.829   3.114   1.322  0.00  0.00    -0.074 A 
ATOM      7  C6  UNL d   1      -1.378   2.928  -0.062  0.00  0.00     0.077 C 
ATOM      8  C7  UNL d   1       0.557   3.179   1.520  0.00  0.00    -0.001 A 
ENDROOT
TORSDOF 0
ENDMDL
