MODEL 1
REMARK minimizedAffinity 0.0912909731
REMARK minimizedRMSD -1
REMARK  0 active torsions:
REMARK  status: ('A' for Active; 'I' for Inactive)
ROOT
ATOM      1  C   UNL d   1      -0.912   2.776  -6.000  0.00  0.00     0.077 C 
ATOM      2  C1  UNL d   1      -2.191   3.560  -5.992  0.00  0.00    -0.074 A 
ATOM      3  C2  UNL d   1      -2.176   4.958  -5.996  0.00  0.00    -0.005 A 
ATOM      4  C3  UNL d   1      -3.373   5.674  -5.998  0.00  0.00     0.006 A 
ATOM      5  C4  UNL d   1      -4.595   5.000  -5.996  0.00  0.00    -0.005 A 
ATOM      6  C5  UNL d   1      -4.629   3.602  -5.992  0.00  0.00    -0.074 A 
ATOM      7  C6  UNL d   1      -5.934   2.862  -6.000  0.00  0.00     0.077 C 
ATOM      8  C7  UNL d   1      -3.422   2.890  -5.997  0.00  0.00    -0.001 A 
ENDROOT
TORSDOF 0
ENDMDL
