MODEL 1
REMARK minimizedAffinity 1.50297976
REMARK minimizedRMSD -1
REMARK  0 active torsions:
REMARK  status: ('A' for Active; 'I' for Inactive)
ROOT
ATOM      1  C   UNL d   1      -2.506  -0.498   0.749  0.00  0.00     0.077 C 
ATOM      2  C1  UNL d   1      -1.411   0.506   0.952  0.00  0.00    -0.074 A 
ATOM      3  C2  UNL d   1      -1.685   1.771   1.480  0.00  0.00    -0.005 A 
ATOM      4  C3  UNL d   1      -0.654   2.692   1.672  0.00  0.00     0.006 A 
ATOM      5  C4  UNL d   1       0.659   2.356   1.338  0.00  0.00    -0.005 A 
ATOM      6  C5  UNL d   1       0.952   1.095   0.810  0.00  0.00    -0.074 A 
ATOM      7  C6  UNL d   1       2.359   0.715   0.455  0.00  0.00     0.077 C 
ATOM      8  C7  UNL d   1      -0.088   0.174   0.626  0.00  0.00    -0.001 A 
ENDROOT
TORSDOF 0
ENDMDL
