MODEL 1
REMARK minimizedAffinity 3.9889195
REMARK minimizedRMSD -1
REMARK  0 active torsions:
REMARK  status: ('A' for Active; 'I' for Inactive)
ROOT
ATOM      1  C   UNL d   1      -2.220  -1.470  -0.535  0.00  0.00     0.077 C 
ATOM      2  C1  UNL d   1      -2.472  -2.947  -0.480  0.00  0.00    -0.074 A 
ATOM      3  C2  UNL d   1      -1.523  -3.857  -0.958  0.00  0.00    -0.005 A 
ATOM      4  C3  UNL d   1      -1.768  -5.228  -0.892  0.00  0.00     0.006 A 
ATOM      5  C4  UNL d   1      -2.961  -5.704  -0.348  0.00  0.00    -0.005 A 
ATOM      6  C5  UNL d   1      -3.922  -4.809   0.137  0.00  0.00    -0.074 A 
ATOM      7  C6  UNL d   1      -5.205  -5.304   0.734  0.00  0.00     0.077 C 
ATOM      8  C7  UNL d   1      -3.666  -3.433   0.073  0.00  0.00    -0.001 A 
ENDROOT
TORSDOF 0
ENDMDL
