MODEL 1
REMARK minimizedAffinity 4.19249344
REMARK minimizedRMSD -1
REMARK  0 active torsions:
REMARK  status: ('A' for Active; 'I' for Inactive)
ROOT
ATOM      1  C   UNL d   1       1.592  -0.030  -0.212  0.00  0.00     0.077 C 
ATOM      2  C1  UNL d   1       1.183   1.161   0.602  0.00  0.00    -0.074 A 
ATOM      3  C2  UNL d   1      -0.137   1.625   0.585  0.00  0.00    -0.005 A 
ATOM      4  C3  UNL d   1      -0.505   2.728   1.355  0.00  0.00     0.006 A 
ATOM      5  C4  UNL d   1       0.441   3.377   2.149  0.00  0.00    -0.005 A 
ATOM      6  C5  UNL d   1       1.765   2.927   2.180  0.00  0.00    -0.074 A 
ATOM      7  C6  UNL d   1       2.792   3.608   3.036  0.00  0.00     0.077 C 
ATOM      8  C7  UNL d   1       2.125   1.814   1.409  0.00  0.00    -0.001 A 
ENDROOT
TORSDOF 0
ENDMDL
