MODEL 1
REMARK minimizedAffinity 7.3543601
REMARK minimizedRMSD -1
REMARK  0 active torsions:
REMARK  status: ('A' for Active; 'I' for Inactive)
ROOT
ATOM      1  C   UNL d   1      -3.179   0.755   0.329  0.00  0.00     0.077 C 
ATOM      2  C1  UNL d   1      -1.787   1.135   0.738  0.00  0.00    -0.074 A 
ATOM      3  C2  UNL d   1      -1.536   2.342   1.398  0.00  0.00    -0.005 A 
ATOM      4  C3  UNL d   1      -0.237   2.678   1.780  0.00  0.00     0.006 A 
ATOM      5  C4  UNL d   1       0.822   1.812   1.506  0.00  0.00    -0.005 A 
ATOM      6  C5  UNL d   1       0.590   0.600   0.847  0.00  0.00    -0.074 A 
ATOM      7  C6  UNL d   1       1.716  -0.346   0.553  0.00  0.00     0.077 C 
ATOM      8  C7  UNL d   1      -0.718   0.267   0.473  0.00  0.00    -0.001 A 
ENDROOT
TORSDOF 0
ENDMDL
