MODEL 1
REMARK minimizedAffinity 2.76181889
REMARK minimizedRMSD -1
REMARK  0 active torsions:
REMARK  status: ('A' for Active; 'I' for Inactive)
ROOT
ATOM      1  C   UNL d   1      -1.849  -1.376   0.627  0.00  0.00     0.077 C 
ATOM      2  C1  UNL d   1      -1.291   0.014   0.700  0.00  0.00    -0.074 A 
ATOM      3  C2  UNL d   1      -2.099   1.128   0.446  0.00  0.00    -0.005 A 
ATOM      4  C3  UNL d   1      -1.568   2.415   0.528  0.00  0.00     0.006 A 
ATOM      5  C4  UNL d   1      -0.226   2.602   0.863  0.00  0.00    -0.005 A 
ATOM      6  C5  UNL d   1       0.596   1.500   1.121  0.00  0.00    -0.074 A 
ATOM      7  C6  UNL d   1       2.038   1.684   1.492  0.00  0.00     0.077 C 
ATOM      8  C7  UNL d   1       0.054   0.211   1.044  0.00  0.00    -0.001 A 
ENDROOT
TORSDOF 0
ENDMDL
