MODEL 1
REMARK minimizedAffinity -0.74470681
REMARK minimizedRMSD -1
REMARK  0 active torsions:
REMARK  status: ('A' for Active; 'I' for Inactive)
ROOT
ATOM      1  C   UNL d   1      -1.713   2.528   1.094  0.00  0.00     0.077 C 
ATOM      2  C1  UNL d   1      -0.314   1.989   1.126  0.00  0.00    -0.074 A 
ATOM      3  C2  UNL d   1       0.028   0.834   0.415  0.00  0.00    -0.005 A 
ATOM      4  C3  UNL d   1       1.336   0.350   0.446  0.00  0.00     0.006 A 
ATOM      5  C4  UNL d   1       2.313   1.015   1.188  0.00  0.00    -0.005 A 
ATOM      6  C5  UNL d   1       1.990   2.171   1.905  0.00  0.00    -0.074 A 
ATOM      7  C6  UNL d   1       3.031   2.903   2.699  0.00  0.00     0.077 C 
ATOM      8  C7  UNL d   1       0.675   2.655   1.863  0.00  0.00    -0.001 A 
ENDROOT
TORSDOF 0
ENDMDL
