MODEL 1
REMARK minimizedAffinity 6.53298903
REMARK minimizedRMSD -1
REMARK  0 active torsions:
REMARK  status: ('A' for Active; 'I' for Inactive)
ROOT
ATOM      1  C   UNL d   1      -1.097   2.781  -0.892  0.00  0.00     0.077 C 
ATOM      2  C1  UNL d   1      -1.494   2.096   0.382  0.00  0.00    -0.074 A 
ATOM      3  C2  UNL d   1      -1.766   0.725   0.406  0.00  0.00    -0.005 A 
ATOM      4  C3  UNL d   1      -2.125   0.100   1.600  0.00  0.00     0.006 A 
ATOM      5  C4  UNL d   1      -2.215   0.838   2.781  0.00  0.00    -0.005 A 
ATOM      6  C5  UNL d   1      -1.946   2.211   2.776  0.00  0.00    -0.074 A 
ATOM      7  C6  UNL d   1      -2.028   3.018   4.038  0.00  0.00     0.077 C 
ATOM      8  C7  UNL d   1      -1.579   2.830   1.574  0.00  0.00    -0.001 A 
ENDROOT
TORSDOF 0
ENDMDL
