MODEL 1
REMARK minimizedAffinity 4.82316923
REMARK minimizedRMSD -1
REMARK  0 active torsions:
REMARK  status: ('A' for Active; 'I' for Inactive)
ROOT
ATOM      1  C   UNL d   1       2.216  -1.089  -0.491  0.00  0.00     0.077 C 
ATOM      2  C1  UNL d   1       1.107  -0.210   0.007  0.00  0.00    -0.074 A 
ATOM      3  C2  UNL d   1       1.245   1.182   0.024  0.00  0.00    -0.005 A 
ATOM      4  C3  UNL d   1       0.201   1.986   0.480  0.00  0.00     0.006 A 
ATOM      5  C4  UNL d   1      -0.989   1.409   0.924  0.00  0.00    -0.005 A 
ATOM      6  C5  UNL d   1      -1.146   0.019   0.914  0.00  0.00    -0.074 A 
ATOM      7  C6  UNL d   1      -2.422  -0.618   1.378  0.00  0.00     0.077 C 
ATOM      8  C7  UNL d   1      -0.095  -0.783   0.447  0.00  0.00    -0.001 A 
ENDROOT
TORSDOF 0
ENDMDL
