MODEL 1
REMARK minimizedAffinity 7.21379566
REMARK minimizedRMSD -1
REMARK  0 active torsions:
REMARK  status: ('A' for Active; 'I' for Inactive)
ROOT
ATOM      1  C   UNL d   1       3.214   2.260   2.170  0.00  0.00     0.077 C 
ATOM      2  C1  UNL d   1       2.209   1.526   1.332  0.00  0.00    -0.074 A 
ATOM      3  C2  UNL d   1       2.614   0.549   0.416  0.00  0.00    -0.005 A 
ATOM      4  C3  UNL d   1       1.668  -0.132  -0.350  0.00  0.00     0.006 A 
ATOM      5  C4  UNL d   1       0.310   0.156  -0.208  0.00  0.00    -0.005 A 
ATOM      6  C5  UNL d   1      -0.113   1.129   0.703  0.00  0.00    -0.074 A 
ATOM      7  C6  UNL d   1      -1.570   1.444   0.875  0.00  0.00     0.077 C 
ATOM      8  C7  UNL d   1       0.843   1.804   1.474  0.00  0.00    -0.001 A 
ENDROOT
TORSDOF 0
ENDMDL
