MODEL 1
REMARK minimizedAffinity 1.84468293
REMARK minimizedRMSD -1
REMARK  0 active torsions:
REMARK  status: ('A' for Active; 'I' for Inactive)
ROOT
ATOM      1  C   UNL d   1       5.999   3.330   2.286  0.00  0.00     0.077 C 
ATOM      2  C1  UNL d   1       4.640   2.895   1.823  0.00  0.00    -0.074 A 
ATOM      3  C2  UNL d   1       3.490   3.255   2.532  0.00  0.00    -0.005 A 
ATOM      4  C3  UNL d   1       2.232   2.851   2.085  0.00  0.00     0.006 A 
ATOM      5  C4  UNL d   1       2.112   2.083   0.925  0.00  0.00    -0.005 A 
ATOM      6  C5  UNL d   1       3.251   1.714   0.203  0.00  0.00    -0.074 A 
ATOM      7  C6  UNL d   1       3.140   0.898  -1.051  0.00  0.00     0.077 C 
ATOM      8  C7  UNL d   1       4.511   2.130   0.655  0.00  0.00    -0.001 A 
ENDROOT
TORSDOF 0
ENDMDL
