MODEL 1
REMARK minimizedAffinity 7.0206871
REMARK minimizedRMSD -1
REMARK  0 active torsions:
REMARK  status: ('A' for Active; 'I' for Inactive)
ROOT
ATOM      1  C   UNL d   1      -1.315   3.319   1.412  0.00  0.00     0.077 C 
ATOM      2  C1  UNL d   1      -1.038   1.933   0.910  0.00  0.00    -0.074 A 
ATOM      3  C2  UNL d   1      -2.045   0.963   0.887  0.00  0.00    -0.005 A 
ATOM      4  C3  UNL d   1      -1.775  -0.319   0.408  0.00  0.00     0.006 A 
ATOM      5  C4  UNL d   1      -0.498  -0.643  -0.052  0.00  0.00    -0.005 A 
ATOM      6  C5  UNL d   1       0.521   0.314  -0.037  0.00  0.00    -0.074 A 
ATOM      7  C6  UNL d   1       1.896  -0.014  -0.537  0.00  0.00     0.077 C 
ATOM      8  C7  UNL d   1       0.240   1.602   0.439  0.00  0.00    -0.001 A 
ENDROOT
TORSDOF 0
ENDMDL
