MODEL 1
REMARK minimizedAffinity 5.09648275
REMARK minimizedRMSD -1
REMARK  0 active torsions:
REMARK  status: ('A' for Active; 'I' for Inactive)
ROOT
ATOM      1  C   UNL d   1      -0.278   1.517   2.743  0.00  0.00     0.172 C 
ATOM      2  N   UNL d   1      -0.359   2.328   1.551  0.00  0.00    -0.070 N 
ATOM      3  C1  UNL d   1      -0.125   3.676   1.486  0.00  0.00    -0.004 A 
ATOM      4  C2  UNL d   1      -0.304   4.072   0.178  0.00  0.00    -0.047 A 
ATOM      5  C3  UNL d   1      -0.659   2.923  -0.568  0.00  0.00    -0.047 A 
ATOM      6  C4  UNL d   1      -0.686   1.858   0.307  0.00  0.00    -0.004 A 
ENDROOT
TORSDOF 0
ENDMDL
