MODEL 1
REMARK minimizedAffinity 2.84365821
REMARK minimizedRMSD -1
REMARK  0 active torsions:
REMARK  status: ('A' for Active; 'I' for Inactive)
ROOT
ATOM      1  C   UNL d   1      -2.828  -1.608  -2.241  0.00  0.00     0.172 C 
ATOM      2  N   UNL d   1      -3.377  -0.364  -1.755  0.00  0.00    -0.070 N 
ATOM      3  C1  UNL d   1      -3.906   0.633  -2.530  0.00  0.00    -0.004 A 
ATOM      4  C2  UNL d   1      -4.320   1.645  -1.692  0.00  0.00    -0.047 A 
ATOM      5  C3  UNL d   1      -4.030   1.243  -0.367  0.00  0.00    -0.047 A 
ATOM      6  C4  UNL d   1      -3.446  -0.005  -0.435  0.00  0.00    -0.004 A 
ENDROOT
TORSDOF 0
ENDMDL
