MODEL 1
REMARK minimizedAffinity 9.12271976
REMARK minimizedRMSD -1
REMARK  0 active torsions:
REMARK  status: ('A' for Active; 'I' for Inactive)
ROOT
ATOM      1  C   UNL d   1       2.095  -2.011   4.580  0.00  0.00     0.172 C 
ATOM      2  N   UNL d   1       0.770  -1.549   4.924  0.00  0.00    -0.070 N 
ATOM      3  C1  UNL d   1       0.048  -0.611   4.236  0.00  0.00    -0.004 A 
ATOM      4  C2  UNL d   1      -1.159  -0.451   4.881  0.00  0.00    -0.047 A 
ATOM      5  C3  UNL d   1      -1.162  -1.323   5.996  0.00  0.00    -0.047 A 
ATOM      6  C4  UNL d   1       0.044  -1.991   5.998  0.00  0.00    -0.004 A 
ENDROOT
TORSDOF 0
ENDMDL
