MODEL 1
REMARK minimizedAffinity 2.96899152
REMARK minimizedRMSD -1
REMARK  0 active torsions:
REMARK  status: ('A' for Active; 'I' for Inactive)
ROOT
ATOM      1  C   UNL d   1      -0.017   4.356   0.281  0.00  0.00     0.172 C 
ATOM      2  N   UNL d   1       0.319   3.726   1.537  0.00  0.00    -0.070 N 
ATOM      3  C1  UNL d   1       1.495   3.886   2.220  0.00  0.00    -0.004 A 
ATOM      4  C2  UNL d   1       1.425   3.121   3.365  0.00  0.00    -0.047 A 
ATOM      5  C3  UNL d   1       0.164   2.478   3.368  0.00  0.00    -0.047 A 
ATOM      6  C4  UNL d   1      -0.500   2.870   2.225  0.00  0.00    -0.004 A 
ENDROOT
TORSDOF 0
ENDMDL
