MODEL 1
REMARK minimizedAffinity 3.38026071
REMARK minimizedRMSD -1
REMARK  0 active torsions:
REMARK  status: ('A' for Active; 'I' for Inactive)
ROOT
ATOM      1  C   UNL d   1       2.651  -1.869   0.023  0.00  0.00     0.172 C 
ATOM      2  N   UNL d   1       3.980  -2.189  -0.442  0.00  0.00    -0.070 N 
ATOM      3  C1  UNL d   1       4.670  -3.338  -0.158  0.00  0.00    -0.004 A 
ATOM      4  C2  UNL d   1       5.895  -3.260  -0.786  0.00  0.00    -0.047 A 
ATOM      5  C3  UNL d   1       5.943  -2.022  -1.469  0.00  0.00    -0.047 A 
ATOM      6  C4  UNL d   1       4.745  -1.379  -1.239  0.00  0.00    -0.004 A 
ENDROOT
TORSDOF 0
ENDMDL
