MODEL 1
REMARK minimizedAffinity 5.41915035
REMARK minimizedRMSD -1
REMARK  0 active torsions:
REMARK  status: ('A' for Active; 'I' for Inactive)
ROOT
ATOM      1  C   UNL d   1      -2.724  -1.373  -1.445  0.00  0.00     0.172 C 
ATOM      2  N   UNL d   1      -3.560  -0.674  -0.497  0.00  0.00    -0.070 N 
ATOM      3  C1  UNL d   1      -4.593   0.168  -0.813  0.00  0.00    -0.004 A 
ATOM      4  C2  UNL d   1      -5.137   0.630   0.366  0.00  0.00    -0.047 A 
ATOM      5  C3  UNL d   1      -4.404   0.046   1.427  0.00  0.00    -0.047 A 
ATOM      6  C4  UNL d   1      -3.434  -0.756   0.864  0.00  0.00    -0.004 A 
ENDROOT
TORSDOF 0
ENDMDL
