MODEL 1
REMARK minimizedAffinity 2.56873298
REMARK minimizedRMSD -1
REMARK  0 active torsions:
REMARK  status: ('A' for Active; 'I' for Inactive)
ROOT
ATOM      1  C   UNL d   1       0.219   4.499  -0.944  0.00  0.00     0.172 C 
ATOM      2  N   UNL d   1      -0.094   3.255  -0.280  0.00  0.00    -0.070 N 
ATOM      3  C1  UNL d   1      -0.373   2.067  -0.901  0.00  0.00    -0.004 A 
ATOM      4  C2  UNL d   1      -0.617   1.126   0.076  0.00  0.00    -0.047 A 
ATOM      5  C3  UNL d   1      -0.481   1.772   1.328  0.00  0.00    -0.047 A 
ATOM      6  C4  UNL d   1      -0.157   3.089   1.078  0.00  0.00    -0.004 A 
ENDROOT
TORSDOF 0
ENDMDL
