MODEL 1
REMARK minimizedAffinity 5.09699392
REMARK minimizedRMSD -1
REMARK  0 active torsions:
REMARK  status: ('A' for Active; 'I' for Inactive)
ROOT
ATOM      1  C   UNL d   1      -0.603   1.919   2.566  0.00  0.00     0.172 C 
ATOM      2  N   UNL d   1      -0.654   2.741   1.380  0.00  0.00    -0.070 N 
ATOM      3  C1  UNL d   1      -0.944   2.302   0.116  0.00  0.00    -0.004 A 
ATOM      4  C2  UNL d   1      -0.892   3.388  -0.731  0.00  0.00    -0.047 A 
ATOM      5  C3  UNL d   1      -0.557   4.519   0.051  0.00  0.00    -0.047 A 
ATOM      6  C4  UNL d   1      -0.416   4.090   1.354  0.00  0.00    -0.004 A 
ENDROOT
TORSDOF 0
ENDMDL
