MODEL 1
REMARK minimizedAffinity 1.89928687
REMARK minimizedRMSD -1
REMARK  0 active torsions:
REMARK  status: ('A' for Active; 'I' for Inactive)
ROOT
ATOM      1  C   UNL d   1       5.242  -3.347  -3.887  0.00  0.00     0.172 C 
ATOM      2  N   UNL d   1       5.043  -2.848  -2.547  0.00  0.00    -0.070 N 
ATOM      3  C1  UNL d   1       4.414  -3.518  -1.531  0.00  0.00    -0.004 A 
ATOM      4  C2  UNL d   1       4.430  -2.706  -0.417  0.00  0.00    -0.047 A 
ATOM      5  C3  UNL d   1       5.090  -1.507  -0.776  0.00  0.00    -0.047 A 
ATOM      6  C4  UNL d   1       5.459  -1.622  -2.100  0.00  0.00    -0.004 A 
ENDROOT
TORSDOF 0
ENDMDL
