MODEL 1
REMARK minimizedAffinity 4.47545242
REMARK minimizedRMSD -1
REMARK  0 active torsions:
REMARK  status: ('A' for Active; 'I' for Inactive)
ROOT
ATOM      1  C   UNL d   1       1.049  -0.704   1.536  0.00  0.00     0.078 C 
ATOM      2  C1  UNL d   1       2.297  -0.731   0.705  0.00  0.00    -0.077 A 
ATOM      3  C2  UNL d   1       3.550  -0.949   1.291  0.00  0.00    -0.001 A 
ATOM      4  C3  UNL d   1       4.704  -0.961   0.506  0.00  0.00     0.003 A 
ATOM      5  C4  UNL d   1       4.617  -0.755  -0.869  0.00  0.00    -0.005 A 
ATOM      6  C5  UNL d   1       3.375  -0.534  -1.461  0.00  0.00     0.003 A 
ATOM      7  C6  UNL d   1       2.220  -0.522  -0.678  0.00  0.00    -0.001 A 
ENDROOT
TORSDOF 0
ENDMDL
