MODEL 1
REMARK minimizedAffinity 6.32499933
REMARK minimizedRMSD -1
REMARK  0 active torsions:
REMARK  status: ('A' for Active; 'I' for Inactive)
ROOT
ATOM      1  C   UNL d   1      -1.973   0.376   1.765  0.00  0.00     0.078 C 
ATOM      2  C1  UNL d   1      -0.482   0.321   1.917  0.00  0.00    -0.077 A 
ATOM      3  C2  UNL d   1       0.171   1.084   2.893  0.00  0.00    -0.001 A 
ATOM      4  C3  UNL d   1       1.561   1.031   3.017  0.00  0.00     0.003 A 
ATOM      5  C4  UNL d   1       2.308   0.217   2.167  0.00  0.00    -0.005 A 
ATOM      6  C5  UNL d   1       1.667  -0.544   1.192  0.00  0.00     0.003 A 
ATOM      7  C6  UNL d   1       0.278  -0.492   1.067  0.00  0.00    -0.001 A 
ENDROOT
TORSDOF 0
ENDMDL
