MODEL 1
REMARK minimizedAffinity -0.065964736
REMARK minimizedRMSD -1
REMARK  0 active torsions:
REMARK  status: ('A' for Active; 'I' for Inactive)
ROOT
ATOM      1  C   UNL d   1       1.346   4.253   0.653  0.00  0.00     0.078 C 
ATOM      2  C1  UNL d   1       1.470   2.864   0.100  0.00  0.00    -0.077 A 
ATOM      3  C2  UNL d   1       1.082   1.750   0.855  0.00  0.00    -0.001 A 
ATOM      4  C3  UNL d   1       1.212   0.463   0.332  0.00  0.00     0.003 A 
ATOM      5  C4  UNL d   1       1.730   0.277  -0.948  0.00  0.00    -0.005 A 
ATOM      6  C5  UNL d   1       2.121   1.379  -1.706  0.00  0.00     0.003 A 
ATOM      7  C6  UNL d   1       1.992   2.667  -1.184  0.00  0.00    -0.001 A 
ENDROOT
TORSDOF 0
ENDMDL
