MODEL 1
REMARK minimizedAffinity 6.51642609
REMARK minimizedRMSD -1
REMARK  0 active torsions:
REMARK  status: ('A' for Active; 'I' for Inactive)
ROOT
ATOM      1  C   UNL d   1       0.335   0.927   2.905  0.00  0.00     0.078 C 
ATOM      2  C1  UNL d   1       1.106  -0.041   3.751  0.00  0.00    -0.077 A 
ATOM      3  C2  UNL d   1       0.832  -1.414   3.708  0.00  0.00    -0.001 A 
ATOM      4  C3  UNL d   1       1.551  -2.303   4.508  0.00  0.00     0.003 A 
ATOM      5  C4  UNL d   1       2.548  -1.829   5.359  0.00  0.00    -0.005 A 
ATOM      6  C5  UNL d   1       2.826  -0.464   5.411  0.00  0.00     0.003 A 
ATOM      7  C6  UNL d   1       2.108   0.426   4.611  0.00  0.00    -0.001 A 
ENDROOT
TORSDOF 0
ENDMDL
