MODEL 1
REMARK minimizedAffinity 10.0314493
REMARK minimizedRMSD -1
REMARK  0 active torsions:
REMARK  status: ('A' for Active; 'I' for Inactive)
ROOT
ATOM      1  C   UNL d   1      -0.718   2.183   2.201  0.00  0.00     0.078 C 
ATOM      2  C1  UNL d   1       0.055   0.962   2.601  0.00  0.00    -0.077 A 
ATOM      3  C2  UNL d   1      -0.334  -0.311   2.167  0.00  0.00    -0.001 A 
ATOM      4  C3  UNL d   1       0.389  -1.440   2.555  0.00  0.00     0.003 A 
ATOM      5  C4  UNL d   1       1.504  -1.308   3.380  0.00  0.00    -0.005 A 
ATOM      6  C5  UNL d   1       1.897  -0.045   3.819  0.00  0.00     0.003 A 
ATOM      7  C6  UNL d   1       1.176   1.085   3.432  0.00  0.00    -0.001 A 
ENDROOT
TORSDOF 0
ENDMDL
