MODEL 1
REMARK minimizedAffinity 2.55197263
REMARK minimizedRMSD -1
REMARK  0 active torsions:
REMARK  status: ('A' for Active; 'I' for Inactive)
ROOT
ATOM      1  C   UNL d   1      -0.480  -5.248  -3.476  0.00  0.00     0.078 C 
ATOM      2  C1  UNL d   1      -0.375  -3.793  -3.825  0.00  0.00    -0.077 A 
ATOM      3  C2  UNL d   1      -1.174  -2.838  -3.185  0.00  0.00    -0.001 A 
ATOM      4  C3  UNL d   1      -1.072  -1.489  -3.527  0.00  0.00     0.003 A 
ATOM      5  C4  UNL d   1      -0.172  -1.082  -4.510  0.00  0.00    -0.005 A 
ATOM      6  C5  UNL d   1       0.626  -2.026  -5.154  0.00  0.00     0.003 A 
ATOM      7  C6  UNL d   1       0.525  -3.376  -4.814  0.00  0.00    -0.001 A 
ENDROOT
TORSDOF 0
ENDMDL
