MODEL 1
REMARK minimizedAffinity 6.99735689
REMARK minimizedRMSD -1
REMARK  0 active torsions:
REMARK  status: ('A' for Active; 'I' for Inactive)
ROOT
ATOM      1  C   UNL d   1      -5.045  -3.608  -6.000  0.00  0.00     0.078 C 
ATOM      2  C1  UNL d   1      -3.816  -3.755  -5.153  0.00  0.00    -0.077 A 
ATOM      3  C2  UNL d   1      -3.325  -2.679  -4.403  0.00  0.00    -0.001 A 
ATOM      4  C3  UNL d   1      -2.174  -2.827  -3.626  0.00  0.00     0.003 A 
ATOM      5  C4  UNL d   1      -1.506  -4.049  -3.593  0.00  0.00    -0.005 A 
ATOM      6  C5  UNL d   1      -1.986  -5.125  -4.337  0.00  0.00     0.003 A 
ATOM      7  C6  UNL d   1      -3.136  -4.978  -5.114  0.00  0.00    -0.001 A 
ENDROOT
TORSDOF 0
ENDMDL
