MODEL 1
REMARK minimizedAffinity 4.36077452
REMARK minimizedRMSD -1
REMARK  0 active torsions:
REMARK  status: ('A' for Active; 'I' for Inactive)
ROOT
ATOM      1  C   UNL d   1      -5.623   1.717  -0.765  0.00  0.00     0.078 C 
ATOM      2  C1  UNL d   1      -5.716   3.184  -0.466  0.00  0.00    -0.077 A 
ATOM      3  C2  UNL d   1      -5.588   4.137  -1.484  0.00  0.00    -0.001 A 
ATOM      4  C3  UNL d   1      -5.668   5.499  -1.190  0.00  0.00     0.003 A 
ATOM      5  C4  UNL d   1      -5.874   5.920   0.122  0.00  0.00    -0.005 A 
ATOM      6  C5  UNL d   1      -6.000   4.980   1.142  0.00  0.00     0.003 A 
ATOM      7  C6  UNL d   1      -5.921   3.617   0.850  0.00  0.00    -0.001 A 
ENDROOT
TORSDOF 0
ENDMDL
