MODEL 1
REMARK minimizedAffinity 6.09684277
REMARK minimizedRMSD -1
REMARK  2 active torsions:
REMARK  status: ('A' for Active; 'I' for Inactive)
REMARK    1  A    between atoms: C2'_3  and  C1'_4 
REMARK    2  A    between atoms: C1'_4  and  C1_5 
ROOT
ATOM      1  C1  I4B d   1       2.217  -2.168   3.201  0.00  0.00    -0.075 A 
ATOM      2  C2  I4B d   1       3.425  -1.984   3.826  0.00  0.00     0.003 A 
ATOM      3  C3  I4B d   1       3.992  -3.025   4.601  0.00  0.00     0.002 A 
ATOM      4  C4  I4B d   1       3.298  -4.207   4.764  0.00  0.00    -0.004 A 
ATOM      5  C5  I4B d   1       2.084  -4.399   4.110  0.00  0.00     0.002 A 
ATOM      6  C6  I4B d   1       1.545  -3.378   3.314  0.00  0.00     0.003 A 
ENDROOT
BRANCH   1   7
ATOM      7  C1' I4B d   1       1.631  -1.036   2.418  0.00  0.00     0.060 C 
BRANCH   7   8
ATOM      8  C2' I4B d   1       2.479   0.194   2.671  0.00  0.00    -0.013 C 
ATOM      9  C4' I4B d   1       3.026   0.753   1.384  0.00  0.00     0.013 C 
ATOM     10  C3' I4B d   1       1.629   1.204   3.382  0.00  0.00     0.013 C 
ENDBRANCH   7   8
ENDBRANCH   1   7
TORSDOF 2
ENDMDL
