MODEL 1
REMARK minimizedAffinity 9.94495964
REMARK minimizedRMSD -1
REMARK  2 active torsions:
REMARK  status: ('A' for Active; 'I' for Inactive)
REMARK    1  A    between atoms: C2'_3  and  C1'_4 
REMARK    2  A    between atoms: C1'_4  and  C1_5 
ROOT
ATOM      1  C1  I4B d   1      -2.852   0.501  -2.481  0.00  0.00    -0.075 A 
ATOM      2  C2  I4B d   1      -3.018   1.863  -2.532  0.00  0.00     0.003 A 
ATOM      3  C3  I4B d   1      -2.660   2.667  -1.423  0.00  0.00     0.002 A 
ATOM      4  C4  I4B d   1      -2.190   2.068  -0.273  0.00  0.00    -0.004 A 
ATOM      5  C5  I4B d   1      -2.000   0.689  -0.231  0.00  0.00     0.002 A 
ATOM      6  C6  I4B d   1      -2.321  -0.098  -1.346  0.00  0.00     0.003 A 
ENDROOT
BRANCH   1   7
ATOM      7  C1' I4B d   1      -3.271  -0.321  -3.658  0.00  0.00     0.060 C 
BRANCH   7   8
ATOM      8  C2' I4B d   1      -3.240  -1.778  -3.244  0.00  0.00    -0.013 C 
ATOM      9  C4' I4B d   1      -4.430  -2.128  -2.389  0.00  0.00     0.013 C 
ATOM     10  C3' I4B d   1      -3.205  -2.613  -4.489  0.00  0.00     0.013 C 
ENDBRANCH   7   8
ENDBRANCH   1   7
TORSDOF 2
ENDMDL
