MODEL 1
REMARK minimizedAffinity 10.1175165
REMARK minimizedRMSD -1
REMARK  2 active torsions:
REMARK  status: ('A' for Active; 'I' for Inactive)
REMARK    1  A    between atoms: C2'_3  and  C1'_4 
REMARK    2  A    between atoms: C1'_4  and  C1_5 
ROOT
ATOM      1  C1  I4B d   1       2.766  -5.949  -2.909  0.00  0.00    -0.075 A 
ATOM      2  C2  I4B d   1       4.025  -5.999  -3.451  0.00  0.00     0.003 A 
ATOM      3  C3  I4B d   1       4.197  -5.998  -4.857  0.00  0.00     0.002 A 
ATOM      4  C4  I4B d   1       3.087  -5.998  -5.677  0.00  0.00    -0.004 A 
ATOM      5  C5  I4B d   1       1.811  -5.924  -5.125  0.00  0.00     0.002 A 
ATOM      6  C6  I4B d   1       1.649  -5.887  -3.733  0.00  0.00     0.003 A 
ENDROOT
BRANCH   1   7
ATOM      7  C1' I4B d   1       2.620  -5.985  -1.421  0.00  0.00     0.060 C 
BRANCH   7   8
ATOM      8  C2' I4B d   1       4.009  -5.986  -0.816  0.00  0.00    -0.013 C 
ATOM      9  C4' I4B d   1       4.974  -5.198  -1.662  0.00  0.00     0.013 C 
ATOM     10  C3' I4B d   1       3.912  -5.416   0.568  0.00  0.00     0.013 C 
ENDBRANCH   7   8
ENDBRANCH   1   7
TORSDOF 2
ENDMDL
