MODEL 1
REMARK minimizedAffinity -0.449763447
REMARK minimizedRMSD -1
REMARK  2 active torsions:
REMARK  status: ('A' for Active; 'I' for Inactive)
REMARK    1  A    between atoms: C2'_3  and  C1'_4 
REMARK    2  A    between atoms: C1'_4  and  C1_5 
ROOT
ATOM      1  C1  I4B d   1       2.561  -1.994   2.806  0.00  0.00    -0.075 A 
ATOM      2  C2  I4B d   1       3.098  -3.256   2.771  0.00  0.00     0.003 A 
ATOM      3  C3  I4B d   1       2.492  -4.309   3.499  0.00  0.00     0.002 A 
ATOM      4  C4  I4B d   1       1.389  -4.045   4.284  0.00  0.00    -0.004 A 
ATOM      5  C5  I4B d   1       0.832  -2.769   4.300  0.00  0.00     0.002 A 
ATOM      6  C6  I4B d   1       1.415  -1.739   3.547  0.00  0.00     0.003 A 
ENDROOT
BRANCH   1   7
ATOM      7  C1' I4B d   1       3.246  -0.898   2.051  0.00  0.00     0.060 C 
BRANCH   7   8
ATOM      8  C2' I4B d   1       2.179  -0.057   1.380  0.00  0.00    -0.013 C 
ATOM      9  C4' I4B d   1       2.479   1.413   1.516  0.00  0.00     0.013 C 
ATOM     10  C3' I4B d   1       2.107  -0.464  -0.061  0.00  0.00     0.013 C 
ENDBRANCH   7   8
ENDBRANCH   1   7
TORSDOF 2
ENDMDL
