MODEL 1
REMARK minimizedAffinity 6.3126893
REMARK minimizedRMSD -1
REMARK  2 active torsions:
REMARK  status: ('A' for Active; 'I' for Inactive)
REMARK    1  A    between atoms: C2'_3  and  C1'_4 
REMARK    2  A    between atoms: C1'_4  and  C1_5 
ROOT
ATOM      1  C1  I4B d   1       2.049  -0.078   1.925  0.00  0.00    -0.075 A 
ATOM      2  C2  I4B d   1       1.853   0.635   3.082  0.00  0.00     0.003 A 
ATOM      3  C3  I4B d   1       2.557   1.844   3.301  0.00  0.00     0.002 A 
ATOM      4  C4  I4B d   1       3.478   2.273   2.368  0.00  0.00    -0.004 A 
ATOM      5  C5  I4B d   1       3.659   1.561   1.186  0.00  0.00     0.002 A 
ATOM      6  C6  I4B d   1       2.931   0.384   0.957  0.00  0.00     0.003 A 
ENDROOT
BRANCH   1   7
ATOM      7  C1' I4B d   1       1.313  -1.367   1.740  0.00  0.00     0.060 C 
BRANCH   7   8
ATOM      8  C2' I4B d   1       1.672  -2.279   2.896  0.00  0.00    -0.013 C 
ATOM      9  C4' I4B d   1       1.582  -3.728   2.495  0.00  0.00     0.013 C 
ATOM     10  C3' I4B d   1       3.058  -1.928   3.349  0.00  0.00     0.013 C 
ENDBRANCH   7   8
ENDBRANCH   1   7
TORSDOF 2
ENDMDL
