MODEL 1
REMARK minimizedAffinity 13.2263985
REMARK minimizedRMSD -1
REMARK  2 active torsions:
REMARK  status: ('A' for Active; 'I' for Inactive)
REMARK    1  A    between atoms: C2'_3  and  C1'_4 
REMARK    2  A    between atoms: C1'_4  and  C1_5 
ROOT
ATOM      1  C1  I4B d   1      -3.127  -1.568  -4.102  0.00  0.00    -0.075 A 
ATOM      2  C2  I4B d   1      -3.180  -2.204  -5.317  0.00  0.00     0.003 A 
ATOM      3  C3  I4B d   1      -3.841  -3.450  -5.441  0.00  0.00     0.002 A 
ATOM      4  C4  I4B d   1      -4.388  -4.043  -4.321  0.00  0.00    -0.004 A 
ATOM      5  C5  I4B d   1      -4.354  -3.386  -3.095  0.00  0.00     0.002 A 
ATOM      6  C6  I4B d   1      -3.730  -2.134  -2.986  0.00  0.00     0.003 A 
ENDROOT
BRANCH   1   7
ATOM      7  C1' I4B d   1      -2.392  -0.269  -4.000  0.00  0.00     0.060 C 
BRANCH   7   8
ATOM      8  C2' I4B d   1      -3.218   0.669  -3.144  0.00  0.00    -0.013 C 
ATOM      9  C4' I4B d   1      -2.436   1.151  -1.951  0.00  0.00     0.013 C 
ATOM     10  C3' I4B d   1      -3.655   1.817  -4.005  0.00  0.00     0.013 C 
ENDBRANCH   7   8
ENDBRANCH   1   7
TORSDOF 2
ENDMDL
