MODEL 1
REMARK minimizedAffinity 10.8353434
REMARK minimizedRMSD -1
REMARK  0 active torsions:
REMARK  status: ('A' for Active; 'I' for Inactive)
ROOT
ATOM      1  C   UNL d   1       2.668  -0.490  -5.858  0.00  0.00     0.172 C 
ATOM      2  N   UNL d   1       1.972  -0.853  -4.646  0.00  0.00    -0.070 N 
ATOM      3  C1  UNL d   1       2.294  -0.431  -3.384  0.00  0.00    -0.004 A 
ATOM      4  C2  UNL d   1       1.394  -0.996  -2.507  0.00  0.00    -0.047 A 
ATOM      5  C3  UNL d   1       0.500  -1.786  -3.269  0.00  0.00    -0.047 A 
ATOM      6  C4  UNL d   1       0.881  -1.679  -4.590  0.00  0.00    -0.004 A 
ENDROOT
TORSDOF 0
ENDMDL
