MODEL 1
REMARK minimizedAffinity 6.30958462
REMARK minimizedRMSD -1
REMARK  0 active torsions:
REMARK  status: ('A' for Active; 'I' for Inactive)
ROOT
ATOM      1  C   UNL d   1       1.441  -0.382  -3.774  0.00  0.00     0.172 C 
ATOM      2  N   UNL d   1       1.624  -1.431  -2.798  0.00  0.00    -0.070 N 
ATOM      3  C1  UNL d   1       1.302  -2.750  -2.974  0.00  0.00    -0.004 A 
ATOM      4  C2  UNL d   1       1.630  -3.422  -1.816  0.00  0.00    -0.047 A 
ATOM      5  C3  UNL d   1       2.166  -2.474  -0.913  0.00  0.00    -0.047 A 
ATOM      6  C4  UNL d   1       2.151  -1.249  -1.547  0.00  0.00    -0.004 A 
ENDROOT
TORSDOF 0
ENDMDL
