MODEL 1
REMARK minimizedAffinity 9.38150883
REMARK minimizedRMSD -1
REMARK  0 active torsions:
REMARK  status: ('A' for Active; 'I' for Inactive)
ROOT
ATOM      1  C   UNL d   1       2.921  -3.354   0.053  0.00  0.00     0.172 C 
ATOM      2  N   UNL d   1       2.191  -2.467  -0.822  0.00  0.00    -0.070 N 
ATOM      3  C1  UNL d   1       2.132  -1.103  -0.707  0.00  0.00    -0.004 A 
ATOM      4  C2  UNL d   1       1.339  -0.628  -1.729  0.00  0.00    -0.047 A 
ATOM      5  C3  UNL d   1       0.905  -1.744  -2.483  0.00  0.00    -0.047 A 
ATOM      6  C4  UNL d   1       1.448  -2.870  -1.899  0.00  0.00    -0.004 A 
ENDROOT
TORSDOF 0
ENDMDL
