MODEL 1
REMARK minimizedAffinity 10.08424
REMARK minimizedRMSD -1
REMARK  0 active torsions:
REMARK  status: ('A' for Active; 'I' for Inactive)
ROOT
ATOM      1  C   UNL d   1      -0.251  -4.713  -1.893  0.00  0.00     0.172 C 
ATOM      2  N   UNL d   1      -1.453  -4.238  -2.537  0.00  0.00    -0.070 N 
ATOM      3  C1  UNL d   1      -1.596  -3.034  -3.174  0.00  0.00    -0.004 A 
ATOM      4  C2  UNL d   1      -2.886  -2.960  -3.653  0.00  0.00    -0.047 A 
ATOM      5  C3  UNL d   1      -3.542  -4.161  -3.290  0.00  0.00    -0.047 A 
ATOM      6  C4  UNL d   1      -2.632  -4.934  -2.600  0.00  0.00    -0.004 A 
ENDROOT
TORSDOF 0
ENDMDL
