MODEL 1
REMARK minimizedAffinity 0.0118965777
REMARK minimizedRMSD -1
REMARK  0 active torsions:
REMARK  status: ('A' for Active; 'I' for Inactive)
ROOT
ATOM      1  C   UNL d   1      -3.019  -0.769  -0.245  0.00  0.00     0.172 C 
ATOM      2  N   UNL d   1      -1.861  -1.612  -0.061  0.00  0.00    -0.070 N 
ATOM      3  C1  UNL d   1      -1.800  -2.722   0.737  0.00  0.00    -0.004 A 
ATOM      4  C2  UNL d   1      -0.528  -3.244   0.640  0.00  0.00    -0.047 A 
ATOM      5  C3  UNL d   1       0.201  -2.417  -0.247  0.00  0.00    -0.047 A 
ATOM      6  C4  UNL d   1      -0.648  -1.414  -0.666  0.00  0.00    -0.004 A 
ENDROOT
TORSDOF 0
ENDMDL
