MODEL 1
REMARK minimizedAffinity 4.01921463
REMARK minimizedRMSD -1
REMARK  0 active torsions:
REMARK  status: ('A' for Active; 'I' for Inactive)
ROOT
ATOM      1  C   UNL d   1      -3.032   2.889  -5.984  0.00  0.00     0.172 C 
ATOM      2  N   UNL d   1      -4.006   3.954  -5.989  0.00  0.00    -0.070 N 
ATOM      3  C1  UNL d   1      -5.366   3.793  -5.998  0.00  0.00    -0.004 A 
ATOM      4  C2  UNL d   1      -5.940   5.046  -5.999  0.00  0.00    -0.047 A 
ATOM      5  C3  UNL d   1      -4.889   5.993  -5.992  0.00  0.00    -0.047 A 
ATOM      6  C4  UNL d   1      -3.703   5.290  -5.986  0.00  0.00    -0.004 A 
ENDROOT
TORSDOF 0
ENDMDL
