MODEL 1
REMARK minimizedAffinity 10.5923262
REMARK minimizedRMSD -1
REMARK  0 active torsions:
REMARK  status: ('A' for Active; 'I' for Inactive)
ROOT
ATOM      1  C   UNL d   1       4.026  -0.000   0.337  0.00  0.00     0.172 C 
ATOM      2  N   UNL d   1       2.966  -0.037  -0.643  0.00  0.00    -0.070 N 
ATOM      3  C1  UNL d   1       2.577   1.008  -1.438  0.00  0.00    -0.004 A 
ATOM      4  C2  UNL d   1       1.540   0.570  -2.233  0.00  0.00    -0.047 A 
ATOM      5  C3  UNL d   1       1.297  -0.785  -1.904  0.00  0.00    -0.047 A 
ATOM      6  C4  UNL d   1       2.194  -1.135  -0.917  0.00  0.00    -0.004 A 
ENDROOT
TORSDOF 0
ENDMDL
