MODEL 1
REMARK minimizedAffinity 15.9200077
REMARK minimizedRMSD -1
REMARK  0 active torsions:
REMARK  status: ('A' for Active; 'I' for Inactive)
ROOT
ATOM      1  C   UNL d   1       0.802   5.589   1.338  0.00  0.00     0.172 C 
ATOM      2  N   UNL d   1       1.191   5.691  -0.049  0.00  0.00    -0.070 N 
ATOM      3  C1  UNL d   1       0.367   5.500  -1.126  0.00  0.00    -0.004 A 
ATOM      4  C2  UNL d   1       1.115   5.687  -2.268  0.00  0.00    -0.047 A 
ATOM      5  C3  UNL d   1       2.435   6.000  -1.864  0.00  0.00    -0.047 A 
ATOM      6  C4  UNL d   1       2.453   5.996  -0.485  0.00  0.00    -0.004 A 
ENDROOT
TORSDOF 0
ENDMDL
