MODEL 1
REMARK minimizedAffinity 3.45926738
REMARK minimizedRMSD -1
REMARK  0 active torsions:
REMARK  status: ('A' for Active; 'I' for Inactive)
ROOT
ATOM      1  C   UNL d   1      -1.511   1.870   6.000  0.00  0.00     0.172 C 
ATOM      2  N   UNL d   1      -2.845   2.083   5.491  0.00  0.00    -0.070 N 
ATOM      3  C1  UNL d   1      -3.763   2.962   6.000  0.00  0.00    -0.004 A 
ATOM      4  C2  UNL d   1      -4.907   2.867   5.237  0.00  0.00    -0.047 A 
ATOM      5  C3  UNL d   1      -4.668   1.896   4.235  0.00  0.00    -0.047 A 
ATOM      6  C4  UNL d   1      -3.385   1.427   4.416  0.00  0.00    -0.004 A 
ENDROOT
TORSDOF 0
ENDMDL
