MODEL 1
REMARK minimizedAffinity 8.74487877
REMARK minimizedRMSD -1
REMARK  0 active torsions:
REMARK  status: ('A' for Active; 'I' for Inactive)
ROOT
ATOM      1  C   UNL d   1      -5.998   4.429  -5.957  0.00  0.00     0.172 C 
ATOM      2  N   UNL d   1      -4.680   3.841  -5.974  0.00  0.00    -0.070 N 
ATOM      3  C1  UNL d   1      -4.403   2.500  -5.984  0.00  0.00    -0.004 A 
ATOM      4  C2  UNL d   1      -3.033   2.351  -6.000  0.00  0.00    -0.047 A 
ATOM      5  C3  UNL d   1      -2.467   3.647  -5.997  0.00  0.00    -0.047 A 
ATOM      6  C4  UNL d   1      -3.508   4.551  -5.981  0.00  0.00    -0.004 A 
ENDROOT
TORSDOF 0
ENDMDL
