MODEL 1
REMARK minimizedAffinity 8.34389114
REMARK minimizedRMSD -1
REMARK  0 active torsions:
REMARK  status: ('A' for Active; 'I' for Inactive)
ROOT
ATOM      1  C   UNL d   1      -4.241  -3.240  -4.576  0.00  0.00     0.172 C 
ATOM      2  N   UNL d   1      -3.104  -4.036  -4.177  0.00  0.00    -0.070 N 
ATOM      3  C1  UNL d   1      -2.283  -4.735  -5.021  0.00  0.00    -0.004 A 
ATOM      4  C2  UNL d   1      -1.323  -5.360  -4.255  0.00  0.00    -0.047 A 
ATOM      5  C3  UNL d   1      -1.576  -5.025  -2.903  0.00  0.00    -0.047 A 
ATOM      6  C4  UNL d   1      -2.684  -4.205  -2.884  0.00  0.00    -0.004 A 
ENDROOT
TORSDOF 0
ENDMDL
