MODEL 1
REMARK minimizedAffinity -1.69855475
REMARK minimizedRMSD -1
REMARK  0 active torsions:
REMARK  status: ('A' for Active; 'I' for Inactive)
ROOT
ATOM      1  C   UNL d   1      -4.205  -3.375  -5.251  0.00  0.00     0.172 C 
ATOM      2  N   UNL d   1      -3.188  -4.366  -4.984  0.00  0.00    -0.070 N 
ATOM      3  C1  UNL d   1      -2.637  -5.213  -5.908  0.00  0.00    -0.004 A 
ATOM      4  C2  UNL d   1      -1.709  -5.999  -5.260  0.00  0.00    -0.047 A 
ATOM      5  C3  UNL d   1      -1.703  -5.611  -3.899  0.00  0.00    -0.047 A 
ATOM      6  C4  UNL d   1      -2.627  -4.598  -3.756  0.00  0.00    -0.004 A 
ENDROOT
TORSDOF 0
ENDMDL
