MODEL 1
REMARK minimizedAffinity 5.00723743
REMARK minimizedRMSD -1
REMARK  0 active torsions:
REMARK  status: ('A' for Active; 'I' for Inactive)
ROOT
ATOM      1  C   UNL d   1      -3.187  -3.022  -4.550  0.00  0.00     0.172 C 
ATOM      2  N   UNL d   1      -2.207  -4.016  -4.180  0.00  0.00    -0.070 N 
ATOM      3  C1  UNL d   1      -1.666  -4.954  -5.018  0.00  0.00    -0.004 A 
ATOM      4  C2  UNL d   1      -0.774  -5.709  -4.286  0.00  0.00    -0.047 A 
ATOM      5  C3  UNL d   1      -0.780  -5.207  -2.963  0.00  0.00    -0.047 A 
ATOM      6  C4  UNL d   1      -1.676  -4.159  -2.925  0.00  0.00    -0.004 A 
ENDROOT
TORSDOF 0
ENDMDL
