MODEL 1
REMARK minimizedAffinity 1.57960677
REMARK minimizedRMSD -1
REMARK  0 active torsions:
REMARK  status: ('A' for Active; 'I' for Inactive)
ROOT
ATOM      1  C   UNL d   1      -3.775  -5.977  -5.397  0.00  0.00     0.172 C 
ATOM      2  N   UNL d   1      -2.692  -5.450  -4.601  0.00  0.00    -0.070 N 
ATOM      3  C1  UNL d   1      -1.441  -5.995  -4.493  0.00  0.00    -0.004 A 
ATOM      4  C2  UNL d   1      -0.704  -5.198  -3.645  0.00  0.00    -0.047 A 
ATOM      5  C3  UNL d   1      -1.541  -4.137  -3.227  0.00  0.00    -0.047 A 
ATOM      6  C4  UNL d   1      -2.766  -4.317  -3.834  0.00  0.00    -0.004 A 
ENDROOT
TORSDOF 0
ENDMDL
