MODEL 1
REMARK minimizedAffinity -2.41635704
REMARK minimizedRMSD -1
REMARK  0 active torsions:
REMARK  status: ('A' for Active; 'I' for Inactive)
ROOT
ATOM      1  C   UNL d   1      -4.123  -3.376  -5.249  0.00  0.00     0.172 C 
ATOM      2  N   UNL d   1      -3.042  -4.205  -4.771  0.00  0.00    -0.070 N 
ATOM      3  C1  UNL d   1      -1.907  -3.756  -4.149  0.00  0.00    -0.004 A 
ATOM      4  C2  UNL d   1      -1.128  -4.852  -3.849  0.00  0.00    -0.047 A 
ATOM      5  C3  UNL d   1      -1.818  -6.000  -4.307  0.00  0.00    -0.047 A 
ATOM      6  C4  UNL d   1      -2.999  -5.570  -4.874  0.00  0.00    -0.004 A 
ENDROOT
TORSDOF 0
ENDMDL
