MODEL 1
REMARK minimizedAffinity 4.53016853
REMARK minimizedRMSD -1
REMARK  0 active torsions:
REMARK  status: ('A' for Active; 'I' for Inactive)
ROOT
ATOM      1  C   UNL d   1       2.783   0.290  -0.727  0.00  0.00     0.172 C 
ATOM      2  N   UNL d   1       1.972  -0.838  -1.120  0.00  0.00    -0.070 N 
ATOM      3  C1  UNL d   1       1.293  -0.961  -2.303  0.00  0.00    -0.004 A 
ATOM      4  C2  UNL d   1       0.643  -2.176  -2.293  0.00  0.00    -0.047 A 
ATOM      5  C3  UNL d   1       0.942  -2.806  -1.061  0.00  0.00    -0.047 A 
ATOM      6  C4  UNL d   1       1.766  -1.956  -0.354  0.00  0.00    -0.004 A 
ENDROOT
TORSDOF 0
ENDMDL
