MODEL 1
REMARK minimizedAffinity 7.0530076
REMARK minimizedRMSD -1
REMARK  0 active torsions:
REMARK  status: ('A' for Active; 'I' for Inactive)
ROOT
ATOM      1  C   UNL d   1       2.887  -1.659  -4.811  0.00  0.00     0.172 C 
ATOM      2  N   UNL d   1       2.486  -1.599  -3.425  0.00  0.00    -0.070 N 
ATOM      3  C1  UNL d   1       2.082  -0.473  -2.760  0.00  0.00    -0.004 A 
ATOM      4  C2  UNL d   1       1.787  -0.832  -1.462  0.00  0.00    -0.047 A 
ATOM      5  C3  UNL d   1       2.023  -2.222  -1.344  0.00  0.00    -0.047 A 
ATOM      6  C4  UNL d   1       2.455  -2.672  -2.574  0.00  0.00    -0.004 A 
ENDROOT
TORSDOF 0
ENDMDL
