MODEL 1
REMARK minimizedAffinity 9.90462017
REMARK minimizedRMSD -1
REMARK  0 active torsions:
REMARK  status: ('A' for Active; 'I' for Inactive)
ROOT
ATOM      1  C   UNL d   1      -5.247   2.904   3.806  0.00  0.00     0.172 C 
ATOM      2  N   UNL d   1      -4.426   1.716   3.823  0.00  0.00    -0.070 N 
ATOM      3  C1  UNL d   1      -4.139   0.928   2.740  0.00  0.00    -0.004 A 
ATOM      4  C2  UNL d   1      -3.330  -0.101   3.170  0.00  0.00    -0.047 A 
ATOM      5  C3  UNL d   1      -3.124   0.074   4.559  0.00  0.00    -0.047 A 
ATOM      6  C4  UNL d   1      -3.814   1.206   4.937  0.00  0.00    -0.004 A 
ENDROOT
TORSDOF 0
ENDMDL
