MODEL 1
REMARK minimizedAffinity 8.45607853
REMARK minimizedRMSD -1
REMARK  0 active torsions:
REMARK  status: ('A' for Active; 'I' for Inactive)
ROOT
ATOM      1  O1  BZF d   1       0.739   3.635   0.131  0.00  0.00    -0.204 OA
ATOM      2  C2  BZF d   1      -0.076   3.116  -0.856  0.00  0.00     0.174 A 
ATOM      3  C3  BZF d   1      -0.506   1.882  -0.522  0.00  0.00    -0.012 A 
ATOM      4  C3A BZF d   1       0.002   1.650   0.795  0.00  0.00    -0.107 A 
ATOM      5  C4  BZF d   1      -0.101   0.608   1.671  0.00  0.00     0.055 A 
ATOM      6  C5  BZF d   1       0.574   0.665   2.849  0.00  0.00    -0.016 A 
ATOM      7  C6  BZF d   1       1.365   1.746   3.180  0.00  0.00     0.022 A 
ATOM      8  C7  BZF d   1       1.494   2.806   2.346  0.00  0.00     0.029 A 
ATOM      9  C7A BZF d   1       0.786   2.766   1.169  0.00  0.00     0.058 A 
ENDROOT
TORSDOF 0
ENDMDL
