MODEL 1
REMARK minimizedAffinity 11.4572258
REMARK minimizedRMSD -1
REMARK  0 active torsions:
REMARK  status: ('A' for Active; 'I' for Inactive)
ROOT
ATOM      1  O1  BZF d   1       5.707  -2.835  -2.946  0.00  0.00    -0.204 OA
ATOM      2  C2  BZF d   1       4.921  -1.926  -3.628  0.00  0.00     0.174 A 
ATOM      3  C3  BZF d   1       3.823  -1.611  -2.911  0.00  0.00    -0.012 A 
ATOM      4  C3A BZF d   1       3.976  -2.300  -1.666  0.00  0.00    -0.107 A 
ATOM      5  C4  BZF d   1       3.217  -2.370  -0.533  0.00  0.00     0.055 A 
ATOM      6  C5  BZF d   1       3.611  -3.191   0.476  0.00  0.00    -0.016 A 
ATOM      7  C6  BZF d   1       4.754  -3.959   0.383  0.00  0.00     0.022 A 
ATOM      8  C7  BZF d   1       5.541  -3.919  -0.720  0.00  0.00     0.029 A 
ATOM      9  C7A BZF d   1       5.163  -3.066  -1.727  0.00  0.00     0.058 A 
ENDROOT
TORSDOF 0
ENDMDL
