MODEL 1
REMARK minimizedAffinity 1.9952904
REMARK minimizedRMSD -1
REMARK  0 active torsions:
REMARK  status: ('A' for Active; 'I' for Inactive)
ROOT
ATOM      1  O1  BZF d   1       4.615  -3.752  -3.355  0.00  0.00    -0.204 OA
ATOM      2  C2  BZF d   1       4.404  -5.111  -3.220  0.00  0.00     0.174 A 
ATOM      3  C3  BZF d   1       3.584  -5.367  -2.180  0.00  0.00    -0.012 A 
ATOM      4  C3A BZF d   1       3.189  -4.083  -1.688  0.00  0.00    -0.107 A 
ATOM      5  C4  BZF d   1       2.367  -3.678  -0.675  0.00  0.00     0.055 A 
ATOM      6  C5  BZF d   1       2.252  -2.351  -0.409  0.00  0.00    -0.016 A 
ATOM      7  C6  BZF d   1       2.946  -1.402  -1.131  0.00  0.00     0.022 A 
ATOM      8  C7  BZF d   1       3.768  -1.755  -2.149  0.00  0.00     0.029 A 
ATOM      9  C7A BZF d   1       3.862  -3.094  -2.442  0.00  0.00     0.058 A 
ENDROOT
TORSDOF 0
ENDMDL
