MODEL 1
REMARK minimizedAffinity -1.02555251
REMARK minimizedRMSD -1
REMARK  0 active torsions:
REMARK  status: ('A' for Active; 'I' for Inactive)
ROOT
ATOM      1  O1  BZF d   1       3.945  -1.720  -1.678  0.00  0.00    -0.204 OA
ATOM      2  C2  BZF d   1       3.940  -1.940  -0.315  0.00  0.00     0.174 A 
ATOM      3  C3  BZF d   1       4.159  -3.242  -0.040  0.00  0.00    -0.012 A 
ATOM      4  C3A BZF d   1       4.402  -3.859  -1.308  0.00  0.00    -0.107 A 
ATOM      5  C4  BZF d   1       4.697  -5.137  -1.689  0.00  0.00     0.055 A 
ATOM      6  C5  BZF d   1       4.802  -5.423  -3.013  0.00  0.00    -0.016 A 
ATOM      7  C6  BZF d   1       4.613  -4.459  -3.982  0.00  0.00     0.022 A 
ATOM      8  C7  BZF d   1       4.324  -3.177  -3.652  0.00  0.00     0.029 A 
ATOM      9  C7A BZF d   1       4.250  -2.877  -2.314  0.00  0.00     0.058 A 
ENDROOT
TORSDOF 0
ENDMDL
