MODEL 1
REMARK minimizedAffinity -2.44359422
REMARK minimizedRMSD -1
REMARK  0 active torsions:
REMARK  status: ('A' for Active; 'I' for Inactive)
ROOT
ATOM      1  O1  BZF d   1       3.194  -3.573  -3.761  0.00  0.00    -0.204 OA
ATOM      2  C2  BZF d   1       3.379  -4.864  -4.219  0.00  0.00     0.174 A 
ATOM      3  C3  BZF d   1       4.277  -5.519  -3.455  0.00  0.00    -0.012 A 
ATOM      4  C3A BZF d   1       4.610  -4.609  -2.402  0.00  0.00    -0.107 A 
ATOM      5  C4  BZF d   1       5.439  -4.688  -1.320  0.00  0.00     0.055 A 
ATOM      6  C5  BZF d   1       5.596  -3.597  -0.526  0.00  0.00    -0.016 A 
ATOM      7  C6  BZF d   1       4.943  -2.410  -0.787  0.00  0.00     0.022 A 
ATOM      8  C7  BZF d   1       4.106  -2.284  -1.846  0.00  0.00     0.029 A 
ATOM      9  C7A BZF d   1       3.921  -3.396  -2.631  0.00  0.00     0.058 A 
ENDROOT
TORSDOF 0
ENDMDL
