MODEL 1
REMARK minimizedAffinity 5.14603043
REMARK minimizedRMSD -1
REMARK  0 active torsions:
REMARK  status: ('A' for Active; 'I' for Inactive)
ROOT
ATOM      1  O1  BZF d   1       5.882  -4.463  -4.112  0.00  0.00    -0.204 OA
ATOM      2  C2  BZF d   1       5.584  -5.793  -3.887  0.00  0.00     0.174 A 
ATOM      3  C3  BZF d   1       4.475  -5.913  -3.129  0.00  0.00    -0.012 A 
ATOM      4  C3A BZF d   1       4.001  -4.576  -2.941  0.00  0.00    -0.107 A 
ATOM      5  C4  BZF d   1       2.926  -4.044  -2.288  0.00  0.00     0.055 A 
ATOM      6  C5  BZF d   1       2.790  -2.693  -2.232  0.00  0.00    -0.016 A 
ATOM      7  C6  BZF d   1       3.710  -1.846  -2.813  0.00  0.00     0.022 A 
ATOM      8  C7  BZF d   1       4.790  -2.327  -3.477  0.00  0.00     0.029 A 
ATOM      9  C7A BZF d   1       4.913  -3.692  -3.563  0.00  0.00     0.058 A 
ENDROOT
TORSDOF 0
ENDMDL
