MODEL 1
REMARK minimizedAffinity -5.32616711
REMARK minimizedRMSD -1
REMARK  3 active torsions:
REMARK  status: ('A' for Active; 'I' for Inactive)
REMARK    1  A    between atoms: C3'_2  and  C2'_3 
REMARK    2  A    between atoms: C2'_3  and  C1'_4 
REMARK    3  A    between atoms: C1'_4  and  C1_5 
ROOT
ATOM      1  C1  N4B d   1       0.007   0.560  -0.353  0.00  0.00    -0.075 A 
ATOM      2  C2  N4B d   1       1.055   0.881   0.538  0.00  0.00     0.002 A 
ATOM      3  C3  N4B d   1       1.969  -0.080   0.898  0.00  0.00     0.002 A 
ATOM      4  C4  N4B d   1       1.844  -1.367   0.397  0.00  0.00    -0.004 A 
ATOM      5  C5  N4B d   1       0.844  -1.662  -0.483  0.00  0.00     0.002 A 
ATOM      6  C6  N4B d   1      -0.079  -0.705  -0.857  0.00  0.00     0.002 A 
ENDROOT
BRANCH   1   7
ATOM      7  C1' N4B d   1      -1.065   1.554  -0.708  0.00  0.00     0.057 C 
BRANCH   7   8
ATOM      8  C2' N4B d   1      -2.424   0.863  -0.658  0.00  0.00     0.009 C 
BRANCH   8   9
ATOM      9  C3' N4B d   1      -3.220   1.264   0.572  0.00  0.00     0.004 C 
ATOM     10  C4' N4B d   1      -4.253   0.245   0.954  0.00  0.00     0.003 C 
ENDBRANCH   8   9
ENDBRANCH   7   8
ENDBRANCH   1   7
TORSDOF 3
ENDMDL
