MODEL 1
REMARK minimizedAffinity -5.18269682
REMARK minimizedRMSD -1
REMARK  3 active torsions:
REMARK  status: ('A' for Active; 'I' for Inactive)
REMARK    1  A    between atoms: C3'_2  and  C2'_3 
REMARK    2  A    between atoms: C2'_3  and  C1'_4 
REMARK    3  A    between atoms: C1'_4  and  C1_5 
ROOT
ATOM      1  C1  N4B d   1       0.180  -0.369  -0.286  0.00  0.00    -0.075 A 
ATOM      2  C2  N4B d   1       0.877   0.820   0.023  0.00  0.00     0.002 A 
ATOM      3  C3  N4B d   1       2.227   0.781   0.272  0.00  0.00     0.002 A 
ATOM      4  C4  N4B d   1       2.895  -0.434   0.237  0.00  0.00    -0.004 A 
ATOM      5  C5  N4B d   1       2.220  -1.574  -0.087  0.00  0.00     0.002 A 
ATOM      6  C6  N4B d   1       0.864  -1.549  -0.344  0.00  0.00     0.002 A 
ENDROOT
BRANCH   1   7
ATOM      7  C1' N4B d   1      -1.311  -0.388  -0.482  0.00  0.00     0.057 C 
BRANCH   7   8
ATOM      8  C2' N4B d   1      -1.851   1.033  -0.355  0.00  0.00     0.009 C 
BRANCH   8   9
ATOM      9  C3' N4B d   1      -3.369   1.062  -0.296  0.00  0.00     0.004 C 
ATOM     10  C4' N4B d   1      -3.889   1.715   0.950  0.00  0.00     0.003 C 
ENDBRANCH   8   9
ENDBRANCH   7   8
ENDBRANCH   1   7
TORSDOF 3
ENDMDL
