MODEL 1
REMARK minimizedAffinity -5.19392967
REMARK minimizedRMSD -1
REMARK  3 active torsions:
REMARK  status: ('A' for Active; 'I' for Inactive)
REMARK    1  A    between atoms: C3'_2  and  C2'_3 
REMARK    2  A    between atoms: C2'_3  and  C1'_4 
REMARK    3  A    between atoms: C1'_4  and  C1_5 
ROOT
ATOM      1  C1  N4B d   1       0.405  -0.152  -0.106  0.00  0.00    -0.075 A 
ATOM      2  C2  N4B d   1       1.081  -1.392  -0.148  0.00  0.00     0.002 A 
ATOM      3  C3  N4B d   1       2.378  -1.482   0.293  0.00  0.00     0.002 A 
ATOM      4  C4  N4B d   1       3.024  -0.348   0.761  0.00  0.00    -0.004 A 
ATOM      5  C5  N4B d   1       2.356   0.840   0.822  0.00  0.00     0.002 A 
ATOM      6  C6  N4B d   1       1.051   0.945   0.386  0.00  0.00     0.002 A 
ENDROOT
BRANCH   1   7
ATOM      7  C1' N4B d   1      -0.985   0.014  -0.657  0.00  0.00     0.057 C 
BRANCH   7   8
ATOM      8  C2' N4B d   1      -1.579   1.318  -0.133  0.00  0.00     0.009 C 
BRANCH   8   9
ATOM      9  C3' N4B d   1      -3.097   1.290  -0.130  0.00  0.00     0.004 C 
ATOM     10  C4' N4B d   1      -3.687   1.845   1.132  0.00  0.00     0.003 C 
ENDBRANCH   8   9
ENDBRANCH   7   8
ENDBRANCH   1   7
TORSDOF 3
ENDMDL
