MODEL 1
REMARK minimizedAffinity -2.02270699
REMARK minimizedRMSD -1
REMARK  3 active torsions:
REMARK  status: ('A' for Active; 'I' for Inactive)
REMARK    1  A    between atoms: C3'_2  and  C2'_3 
REMARK    2  A    between atoms: C2'_3  and  C1'_4 
REMARK    3  A    between atoms: C1'_4  and  C1_5 
ROOT
ATOM      1  C1  N4B d   1       0.386   0.071  -0.233  0.00  0.00    -0.075 A 
ATOM      2  C2  N4B d   1       0.883  -1.029  -0.966  0.00  0.00     0.002 A 
ATOM      3  C3  N4B d   1       1.906  -1.789  -0.455  0.00  0.00     0.002 A 
ATOM      4  C4  N4B d   1       2.459  -1.458   0.773  0.00  0.00    -0.004 A 
ATOM      5  C5  N4B d   1       1.956  -0.410   1.487  0.00  0.00     0.002 A 
ATOM      6  C6  N4B d   1       0.925   0.360   0.987  0.00  0.00     0.002 A 
ENDROOT
BRANCH   1   7
ATOM      7  C1' N4B d   1      -0.674   0.982  -0.788  0.00  0.00     0.057 C 
BRANCH   7   8
ATOM      8  C2' N4B d   1      -1.688   1.298   0.307  0.00  0.00     0.009 C 
BRANCH   8   9
ATOM      9  C3' N4B d   1      -3.117   1.092  -0.165  0.00  0.00     0.004 C 
ATOM     10  C4' N4B d   1      -4.125   1.738   0.738  0.00  0.00     0.003 C 
ENDBRANCH   8   9
ENDBRANCH   7   8
ENDBRANCH   1   7
TORSDOF 3
ENDMDL
