MODEL 1
REMARK minimizedAffinity 2.31380653
REMARK minimizedRMSD -1
REMARK  0 active torsions:
REMARK  status: ('A' for Active; 'I' for Inactive)
ROOT
ATOM      1  C   UNL d   1       5.757  -5.997   5.243  0.00  0.00     0.020 A 
ATOM      2  C1  UNL d   1       5.953  -5.998   3.863  0.00  0.00     0.020 A 
ATOM      3  C2  UNL d   1       4.854  -5.999   3.001  0.00  0.00     0.034 A 
ATOM      4  C3  UNL d   1       3.554  -5.999   3.519  0.00  0.00     0.017 A 
ATOM      5  C4  UNL d   1       3.358  -5.997   4.904  0.00  0.00     0.017 A 
ATOM      6  C5  UNL d   1       4.462  -5.996   5.763  0.00  0.00     0.034 A 
ATOM      7 Cl   UNL d   1       1.784  -5.997   5.618  0.00  0.00    -0.070 Cl
ATOM      8 Cl1  UNL d   1       2.242  -6.000   2.395  0.00  0.00    -0.070 Cl
ENDROOT
TORSDOF 0
ENDMDL
