MODEL 1
REMARK minimizedAffinity 14.7942066
REMARK minimizedRMSD -1
REMARK  0 active torsions:
REMARK  status: ('A' for Active; 'I' for Inactive)
ROOT
ATOM      1  C   UNL d   1       5.158   3.557  -5.997  0.00  0.00     0.020 A 
ATOM      2  C1  UNL d   1       3.919   4.198  -6.000  0.00  0.00     0.020 A 
ATOM      3  C2  UNL d   1       2.743   3.445  -5.973  0.00  0.00     0.034 A 
ATOM      4  C3  UNL d   1       2.803   2.047  -5.943  0.00  0.00     0.017 A 
ATOM      5  C4  UNL d   1       4.046   1.405  -5.940  0.00  0.00     0.017 A 
ATOM      6  C5  UNL d   1       5.221   2.163  -5.967  0.00  0.00     0.034 A 
ATOM      7 Cl   UNL d   1       4.200  -0.317  -5.903  0.00  0.00    -0.070 Cl
ATOM      8 Cl1  UNL d   1       1.309   1.180  -5.911  0.00  0.00    -0.070 Cl
ENDROOT
TORSDOF 0
ENDMDL
