MODEL 1
REMARK minimizedAffinity 16.558567
REMARK minimizedRMSD -1
REMARK  0 active torsions:
REMARK  status: ('A' for Active; 'I' for Inactive)
ROOT
ATOM      1  C   UNL d   1      -2.553   0.639   0.439  0.00  0.00     0.020 A 
ATOM      2  C1  UNL d   1      -1.485   1.103   1.205  0.00  0.00     0.020 A 
ATOM      3  C2  UNL d   1      -1.599   2.304   1.907  0.00  0.00     0.034 A 
ATOM      4  C3  UNL d   1      -2.784   3.047   1.844  0.00  0.00     0.017 A 
ATOM      5  C4  UNL d   1      -3.856   2.580   1.075  0.00  0.00     0.017 A 
ATOM      6  C5  UNL d   1      -3.736   1.376   0.374  0.00  0.00     0.034 A 
ATOM      7 Cl   UNL d   1      -5.349   3.441   0.948  0.00  0.00    -0.070 Cl
ATOM      8 Cl1  UNL d   1      -2.855   4.523   2.738  0.00  0.00    -0.070 Cl
ENDROOT
TORSDOF 0
ENDMDL
