MODEL 1
REMARK minimizedAffinity 12.0678415
REMARK minimizedRMSD -1
REMARK  0 active torsions:
REMARK  status: ('A' for Active; 'I' for Inactive)
ROOT
ATOM      1  C   UNL d   1      -3.971   5.977   5.997  0.00  0.00     0.020 A 
ATOM      2  C1  UNL d   1      -5.362   5.930   5.905  0.00  0.00     0.020 A 
ATOM      3  C2  UNL d   1      -5.968   5.323   4.802  0.00  0.00     0.034 A 
ATOM      4  C3  UNL d   1      -5.183   4.762   3.788  0.00  0.00     0.017 A 
ATOM      5  C4  UNL d   1      -3.788   4.810   3.882  0.00  0.00     0.017 A 
ATOM      6  C5  UNL d   1      -3.186   5.418   4.988  0.00  0.00     0.034 A 
ATOM      7 Cl   UNL d   1      -2.754   4.138   2.671  0.00  0.00    -0.070 Cl
ATOM      8 Cl1  UNL d   1      -6.000   4.028   2.454  0.00  0.00    -0.070 Cl
ENDROOT
TORSDOF 0
ENDMDL
