MODEL 1
REMARK minimizedAffinity 13.0375652
REMARK minimizedRMSD -1
REMARK  0 active torsions:
REMARK  status: ('A' for Active; 'I' for Inactive)
ROOT
ATOM      1  C   UNL d   1      -5.358   3.750   1.873  0.00  0.00     0.020 A 
ATOM      2  C1  UNL d   1      -6.000   4.175   3.036  0.00  0.00     0.020 A 
ATOM      3  C2  UNL d   1      -5.964   3.381   4.184  0.00  0.00     0.034 A 
ATOM      4  C3  UNL d   1      -5.286   2.157   4.172  0.00  0.00     0.017 A 
ATOM      5  C4  UNL d   1      -4.642   1.731   3.004  0.00  0.00     0.017 A 
ATOM      6  C5  UNL d   1      -4.681   2.530   1.858  0.00  0.00     0.034 A 
ATOM      7 Cl   UNL d   1      -3.784   0.233   2.913  0.00  0.00    -0.070 Cl
ATOM      8 Cl1  UNL d   1      -5.282   1.226   5.627  0.00  0.00    -0.070 Cl
ENDROOT
TORSDOF 0
ENDMDL
