MODEL 1
REMARK minimizedAffinity 6.30713749
REMARK minimizedRMSD -1
REMARK  0 active torsions:
REMARK  status: ('A' for Active; 'I' for Inactive)
ROOT
ATOM      1  C   UNL d   1      -0.745  -1.868  -5.305  0.00  0.00     0.020 A 
ATOM      2  C1  UNL d   1      -1.159  -3.004  -5.999  0.00  0.00     0.020 A 
ATOM      3  C2  UNL d   1      -2.506  -3.373  -5.994  0.00  0.00     0.034 A 
ATOM      4  C3  UNL d   1      -3.443  -2.605  -5.295  0.00  0.00     0.017 A 
ATOM      5  C4  UNL d   1      -3.027  -1.465  -4.599  0.00  0.00     0.017 A 
ATOM      6  C5  UNL d   1      -1.677  -1.100  -4.607  0.00  0.00     0.034 A 
ATOM      7 Cl   UNL d   1      -4.126  -0.467  -3.713  0.00  0.00    -0.070 Cl
ATOM      8 Cl1  UNL d   1      -5.092  -3.120  -5.332  0.00  0.00    -0.070 Cl
ENDROOT
TORSDOF 0
ENDMDL
