MODEL 1
REMARK minimizedAffinity 14.5559206
REMARK minimizedRMSD -1
REMARK  0 active torsions:
REMARK  status: ('A' for Active; 'I' for Inactive)
ROOT
ATOM      1  C   UNL d   1       2.308   5.401  -5.073  0.00  0.00     0.020 A 
ATOM      2  C1  UNL d   1       1.667   4.348  -5.726  0.00  0.00     0.020 A 
ATOM      3  C2  UNL d   1       2.364   3.169  -5.999  0.00  0.00     0.034 A 
ATOM      4  C3  UNL d   1       3.705   3.040  -5.620  0.00  0.00     0.017 A 
ATOM      5  C4  UNL d   1       4.347   4.097  -4.965  0.00  0.00     0.017 A 
ATOM      6  C5  UNL d   1       3.645   5.276  -4.693  0.00  0.00     0.034 A 
ATOM      7 Cl   UNL d   1       6.000   4.012  -4.467  0.00  0.00    -0.070 Cl
ATOM      8 Cl1  UNL d   1       4.505   1.554  -5.991  0.00  0.00    -0.070 Cl
ENDROOT
TORSDOF 0
ENDMDL
