MODEL 1
REMARK minimizedAffinity 4.84425497
REMARK minimizedRMSD -1
REMARK  0 active torsions:
REMARK  status: ('A' for Active; 'I' for Inactive)
ROOT
ATOM      1  C   UNL d   1      -2.329   1.629   2.216  0.00  0.00     0.020 A 
ATOM      2  C1  UNL d   1      -1.234   2.418   1.866  0.00  0.00     0.020 A 
ATOM      3  C2  UNL d   1       0.062   1.971   2.134  0.00  0.00     0.034 A 
ATOM      4  C3  UNL d   1       0.266   0.732   2.752  0.00  0.00     0.017 A 
ATOM      5  C4  UNL d   1      -0.834  -0.059   3.102  0.00  0.00     0.017 A 
ATOM      6  C5  UNL d   1      -2.130   0.393   2.832  0.00  0.00     0.034 A 
ATOM      7 Cl   UNL d   1      -0.662  -1.599   3.868  0.00  0.00    -0.070 Cl
ATOM      8 Cl1  UNL d   1       1.895   0.243   3.052  0.00  0.00    -0.070 Cl
ENDROOT
TORSDOF 0
ENDMDL
