MODEL 1
REMARK minimizedAffinity 4.30551386
REMARK minimizedRMSD -1
REMARK  0 active torsions:
REMARK  status: ('A' for Active; 'I' for Inactive)
ROOT
ATOM      1  C   UNL d   1       4.034  -0.040   2.180  0.00  0.00     0.020 A 
ATOM      2  C1  UNL d   1       4.611   0.307   0.959  0.00  0.00     0.020 A 
ATOM      3  C2  UNL d   1       3.879   1.046   0.027  0.00  0.00     0.034 A 
ATOM      4  C3  UNL d   1       2.567   1.439   0.313  0.00  0.00     0.017 A 
ATOM      5  C4  UNL d   1       1.989   1.089   1.539  0.00  0.00     0.017 A 
ATOM      6  C5  UNL d   1       2.726   0.350   2.469  0.00  0.00     0.034 A 
ATOM      7 Cl   UNL d   1       0.375   1.538   1.965  0.00  0.00    -0.070 Cl
ATOM      8 Cl1  UNL d   1       1.721   2.351  -0.886  0.00  0.00    -0.070 Cl
ENDROOT
TORSDOF 0
ENDMDL
