MODEL 1
REMARK minimizedAffinity 12.0113392
REMARK minimizedRMSD -1
REMARK  0 active torsions:
REMARK  status: ('A' for Active; 'I' for Inactive)
ROOT
ATOM      1  C   UNL d   1      -2.739   0.211   2.313  0.00  0.00     0.020 A 
ATOM      2  C1  UNL d   1      -2.631   1.397   1.589  0.00  0.00     0.020 A 
ATOM      3  C2  UNL d   1      -1.377   1.970   1.370  0.00  0.00     0.034 A 
ATOM      4  C3  UNL d   1      -0.225   1.357   1.876  0.00  0.00     0.017 A 
ATOM      5  C4  UNL d   1      -0.334   0.165   2.602  0.00  0.00     0.017 A 
ATOM      6  C5  UNL d   1      -1.593  -0.404   2.818  0.00  0.00     0.034 A 
ATOM      7 Cl   UNL d   1       1.042  -0.650   3.258  0.00  0.00    -0.070 Cl
ATOM      8 Cl1  UNL d   1       1.294   2.120   1.567  0.00  0.00    -0.070 Cl
ENDROOT
TORSDOF 0
ENDMDL
