MODEL 1
REMARK minimizedAffinity 9.80445576
REMARK minimizedRMSD -1
REMARK  0 active torsions:
REMARK  status: ('A' for Active; 'I' for Inactive)
ROOT
ATOM      1  C   UNL d   1      -2.544  -2.750  -5.995  0.00  0.00     0.020 A 
ATOM      2  C1  UNL d   1      -1.149  -2.761  -5.990  0.00  0.00     0.020 A 
ATOM      3  C2  UNL d   1      -0.442  -1.557  -5.987  0.00  0.00     0.034 A 
ATOM      4  C3  UNL d   1      -1.128  -0.337  -5.990  0.00  0.00     0.017 A 
ATOM      5  C4  UNL d   1      -2.527  -0.327  -5.996  0.00  0.00     0.017 A 
ATOM      6  C5  UNL d   1      -3.231  -1.535  -5.998  0.00  0.00     0.034 A 
ATOM      7 Cl   UNL d   1      -3.444   1.138  -6.000  0.00  0.00    -0.070 Cl
ATOM      8 Cl1  UNL d   1      -0.189   1.113  -5.987  0.00  0.00    -0.070 Cl
ENDROOT
TORSDOF 0
ENDMDL
