MODEL 1
REMARK minimizedAffinity 13.7835836
REMARK minimizedRMSD -1
REMARK  0 active torsions:
REMARK  status: ('A' for Active; 'I' for Inactive)
ROOT
ATOM      1  C   UNL d   1      -2.009  -0.190   1.694  0.00  0.00     0.020 A 
ATOM      2  C1  UNL d   1      -1.653   1.121   2.011  0.00  0.00     0.020 A 
ATOM      3  C2  UNL d   1      -2.644   2.065   2.289  0.00  0.00     0.034 A 
ATOM      4  C3  UNL d   1      -3.994   1.700   2.250  0.00  0.00     0.017 A 
ATOM      5  C4  UNL d   1      -4.350   0.385   1.932  0.00  0.00     0.017 A 
ATOM      6  C5  UNL d   1      -3.354  -0.557   1.655  0.00  0.00     0.034 A 
ATOM      7 Cl   UNL d   1      -5.996  -0.140   1.865  0.00  0.00    -0.070 Cl
ATOM      8 Cl1  UNL d   1      -5.166   2.920   2.605  0.00  0.00    -0.070 Cl
ENDROOT
TORSDOF 0
ENDMDL
