MODEL 1
REMARK minimizedAffinity 12.790123
REMARK minimizedRMSD -1
REMARK  0 active torsions:
REMARK  status: ('A' for Active; 'I' for Inactive)
ROOT
ATOM      1  C   UNL d   1      -2.999   1.418   1.876  0.00  0.00     0.020 A 
ATOM      2  C1  UNL d   1      -1.975   0.741   1.215  0.00  0.00     0.020 A 
ATOM      3  C2  UNL d   1      -2.185  -0.559   0.751  0.00  0.00     0.034 A 
ATOM      4  C3  UNL d   1      -3.421  -1.186   0.947  0.00  0.00     0.017 A 
ATOM      5  C4  UNL d   1      -4.448  -0.505   1.610  0.00  0.00     0.017 A 
ATOM      6  C5  UNL d   1      -4.233   0.797   2.073  0.00  0.00     0.034 A 
ATOM      7 Cl   UNL d   1      -6.000  -1.213   1.889  0.00  0.00    -0.070 Cl
ATOM      8 Cl1  UNL d   1      -3.610  -2.795   0.346  0.00  0.00    -0.070 Cl
ENDROOT
TORSDOF 0
ENDMDL
