MODEL 1
REMARK minimizedAffinity 6.01128197
REMARK minimizedRMSD -1
REMARK  0 active torsions:
REMARK  status: ('A' for Active; 'I' for Inactive)
ROOT
ATOM      1  C   UNL d   1      -1.478  -0.175   2.089  0.00  0.00     0.020 A 
ATOM      2  C1  UNL d   1      -1.182   1.165   1.844  0.00  0.00     0.020 A 
ATOM      3  C2  UNL d   1      -2.209   2.065   1.551  0.00  0.00     0.034 A 
ATOM      4  C3  UNL d   1      -3.537   1.626   1.504  0.00  0.00     0.017 A 
ATOM      5  C4  UNL d   1      -3.834   0.281   1.750  0.00  0.00     0.017 A 
ATOM      6  C5  UNL d   1      -2.802  -0.616   2.042  0.00  0.00     0.034 A 
ATOM      7 Cl   UNL d   1      -5.448  -0.335   1.709  0.00  0.00    -0.070 Cl
ATOM      8 Cl1  UNL d   1      -4.756   2.794   1.137  0.00  0.00    -0.070 Cl
ENDROOT
TORSDOF 0
ENDMDL
