MODEL 1
REMARK minimizedAffinity 18.7344246
REMARK minimizedRMSD -1
REMARK  0 active torsions:
REMARK  status: ('A' for Active; 'I' for Inactive)
ROOT
ATOM      1  C   UNL d   1      -1.906   1.454   2.635  0.00  0.00     0.020 A 
ATOM      2  C1  UNL d   1      -2.499   1.144   1.412  0.00  0.00     0.020 A 
ATOM      3  C2  UNL d   1      -2.241  -0.086   0.803  0.00  0.00     0.034 A 
ATOM      4  C3  UNL d   1      -1.387  -1.010   1.416  0.00  0.00     0.017 A 
ATOM      5  C4  UNL d   1      -0.792  -0.697   2.644  0.00  0.00     0.017 A 
ATOM      6  C5  UNL d   1      -1.054   0.536   3.249  0.00  0.00     0.034 A 
ATOM      7 Cl   UNL d   1       0.272  -1.786   3.461  0.00  0.00    -0.070 Cl
ATOM      8 Cl1  UNL d   1      -1.113  -2.511   0.606  0.00  0.00    -0.070 Cl
ENDROOT
TORSDOF 0
ENDMDL
