MODEL 1
REMARK minimizedAffinity 14.4622145
REMARK minimizedRMSD -1
REMARK  0 active torsions:
REMARK  status: ('A' for Active; 'I' for Inactive)
ROOT
ATOM      1  C   UNL d   1      -2.063  -0.113   2.602  0.00  0.00     0.020 A 
ATOM      2  C1  UNL d   1      -1.419  -0.758   1.547  0.00  0.00     0.020 A 
ATOM      3  C2  UNL d   1      -2.136  -1.616   0.711  0.00  0.00     0.034 A 
ATOM      4  C3  UNL d   1      -3.502  -1.832   0.928  0.00  0.00     0.017 A 
ATOM      5  C4  UNL d   1      -4.148  -1.184   1.987  0.00  0.00     0.017 A 
ATOM      6  C5  UNL d   1      -3.425  -0.326   2.822  0.00  0.00     0.034 A 
ATOM      7 Cl   UNL d   1      -5.830  -1.400   2.318  0.00  0.00    -0.070 Cl
ATOM      8 Cl1  UNL d   1      -4.326  -2.906  -0.145  0.00  0.00    -0.070 Cl
ENDROOT
TORSDOF 0
ENDMDL
