MODEL 1
REMARK minimizedAffinity 16.3769398
REMARK minimizedRMSD -1
REMARK  0 active torsions:
REMARK  status: ('A' for Active; 'I' for Inactive)
ROOT
ATOM      1  C   UNL d   1      -3.474  -1.133   5.999  0.00  0.00     0.020 A 
ATOM      2  C1  UNL d   1      -4.286  -2.258   5.866  0.00  0.00     0.020 A 
ATOM      3  C2  UNL d   1      -5.039  -2.443   4.704  0.00  0.00     0.034 A 
ATOM      4  C3  UNL d   1      -4.980  -1.501   3.670  0.00  0.00     0.017 A 
ATOM      5  C4  UNL d   1      -4.164  -0.372   3.804  0.00  0.00     0.017 A 
ATOM      6  C5  UNL d   1      -3.412  -0.192   4.970  0.00  0.00     0.034 A 
ATOM      7 Cl   UNL d   1      -4.039   0.833   2.572  0.00  0.00    -0.070 Cl
ATOM      8 Cl1  UNL d   1      -5.937  -1.793   2.262  0.00  0.00    -0.070 Cl
ENDROOT
TORSDOF 0
ENDMDL
