MODEL 1
REMARK minimizedAffinity 17.6515141
REMARK minimizedRMSD -1
REMARK  0 active torsions:
REMARK  status: ('A' for Active; 'I' for Inactive)
ROOT
ATOM      1  C   UNL d   1       4.115   5.198  -6.000  0.00  0.00     0.020 A 
ATOM      2  C1  UNL d   1       4.781   4.471  -5.014  0.00  0.00     0.020 A 
ATOM      3  C2  UNL d   1       4.141   4.184  -3.806  0.00  0.00     0.034 A 
ATOM      4  C3  UNL d   1       2.831   4.623  -3.582  0.00  0.00     0.017 A 
ATOM      5  C4  UNL d   1       2.164   5.353  -4.572  0.00  0.00     0.017 A 
ATOM      6  C5  UNL d   1       2.809   5.638  -5.779  0.00  0.00     0.034 A 
ATOM      7 Cl   UNL d   1       0.547   5.929  -4.368  0.00  0.00    -0.070 Cl
ATOM      8 Cl1  UNL d   1       2.101   4.232  -2.066  0.00  0.00    -0.070 Cl
ENDROOT
TORSDOF 0
ENDMDL
