MODEL 1
REMARK minimizedAffinity 5.9939661
REMARK minimizedRMSD -1
REMARK  0 active torsions:
REMARK  status: ('A' for Active; 'I' for Inactive)
ROOT
ATOM      1  C   UNL d   1       2.713  -0.263   1.587  0.00  0.00     0.078 C 
ATOM      2  C1  UNL d   1       1.372  -0.785   1.164  0.00  0.00    -0.077 A 
ATOM      3  C2  UNL d   1       0.195  -0.104   1.498  0.00  0.00    -0.001 A 
ATOM      4  C3  UNL d   1      -1.047  -0.606   1.106  0.00  0.00     0.003 A 
ATOM      5  C4  UNL d   1      -1.123  -1.792   0.378  0.00  0.00    -0.005 A 
ATOM      6  C5  UNL d   1       0.042  -2.477   0.042  0.00  0.00     0.003 A 
ATOM      7  C6  UNL d   1       1.285  -1.977   0.434  0.00  0.00    -0.001 A 
ENDROOT
TORSDOF 0
ENDMDL
