MODEL 1
REMARK minimizedAffinity -2.6304729
REMARK minimizedRMSD -1
REMARK  0 active torsions:
REMARK  status: ('A' for Active; 'I' for Inactive)
ROOT
ATOM      1  C   UNL d   1       3.322  -4.177  -0.101  0.00  0.00     0.078 C 
ATOM      2  C1  UNL d   1       2.183  -3.239   0.168  0.00  0.00    -0.077 A 
ATOM      3  C2  UNL d   1       2.404  -1.867   0.337  0.00  0.00    -0.001 A 
ATOM      4  C3  UNL d   1       1.335  -1.007   0.597  0.00  0.00     0.003 A 
ATOM      5  C4  UNL d   1       0.039  -1.510   0.691  0.00  0.00    -0.005 A 
ATOM      6  C5  UNL d   1      -0.190  -2.875   0.526  0.00  0.00     0.003 A 
ATOM      7  C6  UNL d   1       0.878  -3.736   0.266  0.00  0.00    -0.001 A 
ENDROOT
TORSDOF 0
ENDMDL
