MODEL 1
REMARK minimizedAffinity -4.83192444
REMARK minimizedRMSD -1
REMARK  0 active torsions:
REMARK  status: ('A' for Active; 'I' for Inactive)
ROOT
ATOM      1  C   UNL d   1       3.300  -2.603   0.110  0.00  0.00     0.078 C 
ATOM      2  C1  UNL d   1       1.872  -2.187   0.302  0.00  0.00    -0.077 A 
ATOM      3  C2  UNL d   1       1.486  -0.848   0.162  0.00  0.00    -0.001 A 
ATOM      4  C3  UNL d   1       0.155  -0.474   0.353  0.00  0.00     0.003 A 
ATOM      5  C4  UNL d   1      -0.800  -1.431   0.688  0.00  0.00    -0.005 A 
ATOM      6  C5  UNL d   1      -0.425  -2.765   0.832  0.00  0.00     0.003 A 
ATOM      7  C6  UNL d   1       0.905  -3.142   0.641  0.00  0.00    -0.001 A 
ENDROOT
TORSDOF 0
ENDMDL
