MODEL 1
REMARK minimizedAffinity -0.259032965
REMARK minimizedRMSD -1
REMARK  0 active torsions:
REMARK  status: ('A' for Active; 'I' for Inactive)
ROOT
ATOM      1  C   UNL d   1      -0.164  -2.913   0.391  0.00  0.00     0.078 C 
ATOM      2  C1  UNL d   1       1.316  -2.730   0.236  0.00  0.00    -0.077 A 
ATOM      3  C2  UNL d   1       1.912  -1.477   0.429  0.00  0.00    -0.001 A 
ATOM      4  C3  UNL d   1       3.289  -1.319   0.272  0.00  0.00     0.003 A 
ATOM      5  C4  UNL d   1       4.083  -2.408  -0.080  0.00  0.00    -0.005 A 
ATOM      6  C5  UNL d   1       3.500  -3.658  -0.276  0.00  0.00     0.003 A 
ATOM      7  C6  UNL d   1       2.122  -3.818  -0.120  0.00  0.00    -0.001 A 
ENDROOT
TORSDOF 0
ENDMDL
