MODEL 1
REMARK minimizedAffinity -2.26556158
REMARK minimizedRMSD -1
REMARK  0 active torsions:
REMARK  status: ('A' for Active; 'I' for Inactive)
ROOT
ATOM      1  C   UNL d   1       1.275  -4.095   0.351  0.00  0.00     0.078 C 
ATOM      2  C1  UNL d   1       0.927  -2.655   0.585  0.00  0.00    -0.077 A 
ATOM      3  C2  UNL d   1       1.926  -1.696   0.789  0.00  0.00    -0.001 A 
ATOM      4  C3  UNL d   1       1.586  -0.361   1.015  0.00  0.00     0.003 A 
ATOM      5  C4  UNL d   1       0.248   0.026   1.041  0.00  0.00    -0.005 A 
ATOM      6  C5  UNL d   1      -0.753  -0.922   0.841  0.00  0.00     0.003 A 
ATOM      7  C6  UNL d   1      -0.416  -2.257   0.614  0.00  0.00    -0.001 A 
ENDROOT
TORSDOF 0
ENDMDL
