MODEL 1
REMARK minimizedAffinity -2.10697818
REMARK minimizedRMSD -1
REMARK  0 active torsions:
REMARK  status: ('A' for Active; 'I' for Inactive)
ROOT
ATOM      1  C   UNL d   1       2.096  -4.043   0.412  0.00  0.00     0.078 C 
ATOM      2  C1  UNL d   1       1.358  -2.742   0.521  0.00  0.00    -0.077 A 
ATOM      3  C2  UNL d   1       2.036  -1.549   0.802  0.00  0.00    -0.001 A 
ATOM      4  C3  UNL d   1       1.335  -0.347   0.911  0.00  0.00     0.003 A 
ATOM      5  C4  UNL d   1      -0.048  -0.326   0.742  0.00  0.00    -0.005 A 
ATOM      6  C5  UNL d   1      -0.732  -1.508   0.464  0.00  0.00     0.003 A 
ATOM      7  C6  UNL d   1      -0.032  -2.711   0.355  0.00  0.00    -0.001 A 
ENDROOT
TORSDOF 0
ENDMDL
