MODEL 1
REMARK minimizedAffinity -5.65539837
REMARK minimizedRMSD -1
REMARK  0 active torsions:
REMARK  status: ('A' for Active; 'I' for Inactive)
ROOT
ATOM      1  C   UNL d   1       2.620  -3.792  -0.507  0.00  0.00     0.078 C 
ATOM      2  C1  UNL d   1       1.697  -2.774   0.094  0.00  0.00    -0.077 A 
ATOM      3  C2  UNL d   1       2.043  -1.417   0.125  0.00  0.00    -0.001 A 
ATOM      4  C3  UNL d   1       1.178  -0.482   0.697  0.00  0.00     0.003 A 
ATOM      5  C4  UNL d   1      -0.036  -0.893   1.242  0.00  0.00    -0.005 A 
ATOM      6  C5  UNL d   1      -0.388  -2.242   1.217  0.00  0.00     0.003 A 
ATOM      7  C6  UNL d   1       0.475  -3.178   0.646  0.00  0.00    -0.001 A 
ENDROOT
TORSDOF 0
ENDMDL
