MODEL 1
REMARK minimizedAffinity -2.64056492
REMARK minimizedRMSD -1
REMARK  0 active torsions:
REMARK  status: ('A' for Active; 'I' for Inactive)
ROOT
ATOM      1  C   UNL d   1      -0.452  -1.875   1.102  0.00  0.00     0.078 C 
ATOM      2  C1  UNL d   1       0.900  -2.340   0.647  0.00  0.00    -0.077 A 
ATOM      3  C2  UNL d   1       1.132  -3.685   0.336  0.00  0.00    -0.001 A 
ATOM      4  C3  UNL d   1       2.398  -4.105  -0.077  0.00  0.00     0.003 A 
ATOM      5  C4  UNL d   1       3.441  -3.187  -0.181  0.00  0.00    -0.005 A 
ATOM      6  C5  UNL d   1       3.219  -1.847   0.129  0.00  0.00     0.003 A 
ATOM      7  C6  UNL d   1       1.954  -1.425   0.542  0.00  0.00    -0.001 A 
ENDROOT
TORSDOF 0
ENDMDL
