MODEL 1
REMARK minimizedAffinity -3.90894461
REMARK minimizedRMSD -1
REMARK  0 active torsions:
REMARK  status: ('A' for Active; 'I' for Inactive)
ROOT
ATOM      1  C   UNL d   1       2.953  -3.539  -0.406  0.00  0.00     0.078 C 
ATOM      2  C1  UNL d   1       1.944  -2.506  -0.001  0.00  0.00    -0.077 A 
ATOM      3  C2  UNL d   1       2.329  -1.188   0.270  0.00  0.00    -0.001 A 
ATOM      4  C3  UNL d   1       1.380  -0.240   0.655  0.00  0.00     0.003 A 
ATOM      5  C4  UNL d   1       0.040  -0.601   0.775  0.00  0.00    -0.005 A 
ATOM      6  C5  UNL d   1      -0.353  -1.911   0.511  0.00  0.00     0.003 A 
ATOM      7  C6  UNL d   1       0.595  -2.860   0.125  0.00  0.00    -0.001 A 
ENDROOT
TORSDOF 0
ENDMDL
