MODEL 1
REMARK minimizedAffinity -0.120537467
REMARK minimizedRMSD -1
REMARK  0 active torsions:
REMARK  status: ('A' for Active; 'I' for Inactive)
ROOT
ATOM      1  C   UNL d   1       0.756  -3.958   0.051  0.00  0.00     0.078 C 
ATOM      2  C1  UNL d   1       0.704  -2.507   0.425  0.00  0.00    -0.077 A 
ATOM      3  C2  UNL d   1       1.797  -1.663   0.195  0.00  0.00    -0.001 A 
ATOM      4  C3  UNL d   1       1.738  -0.317   0.558  0.00  0.00     0.003 A 
ATOM      5  C4  UNL d   1       0.588   0.198   1.153  0.00  0.00    -0.005 A 
ATOM      6  C5  UNL d   1      -0.504  -0.635   1.388  0.00  0.00     0.003 A 
ATOM      7  C6  UNL d   1      -0.447  -1.982   1.026  0.00  0.00    -0.001 A 
ENDROOT
TORSDOF 0
ENDMDL
