MODEL 1
REMARK minimizedAffinity -4.12459755
REMARK minimizedRMSD -1
REMARK  0 active torsions:
REMARK  status: ('A' for Active; 'I' for Inactive)
ROOT
ATOM      1  C   UNL d   1       3.000  -3.592  -0.209  0.00  0.00     0.078 C 
ATOM      2  C1  UNL d   1       1.967  -2.595   0.223  0.00  0.00    -0.077 A 
ATOM      3  C2  UNL d   1       2.337  -1.321   0.671  0.00  0.00    -0.001 A 
ATOM      4  C3  UNL d   1       1.365  -0.407   1.080  0.00  0.00     0.003 A 
ATOM      5  C4  UNL d   1       0.017  -0.757   1.046  0.00  0.00    -0.005 A 
ATOM      6  C5  UNL d   1      -0.361  -2.023   0.604  0.00  0.00     0.003 A 
ATOM      7  C6  UNL d   1       0.610  -2.939   0.195  0.00  0.00    -0.001 A 
ENDROOT
TORSDOF 0
ENDMDL
