MODEL 1
REMARK minimizedAffinity -4.48918867
REMARK minimizedRMSD -1
REMARK  0 active torsions:
REMARK  status: ('A' for Active; 'I' for Inactive)
ROOT
ATOM      1  C   UNL d   1      -0.795  -0.519   0.914  0.00  0.00     0.078 C 
ATOM      2  C1  UNL d   1       0.384  -1.413   0.668  0.00  0.00    -0.077 A 
ATOM      3  C2  UNL d   1       1.655  -0.879   0.426  0.00  0.00    -0.001 A 
ATOM      4  C3  UNL d   1       2.742  -1.722   0.189  0.00  0.00     0.003 A 
ATOM      5  C4  UNL d   1       2.568  -3.104   0.191  0.00  0.00    -0.005 A 
ATOM      6  C5  UNL d   1       1.306  -3.645   0.429  0.00  0.00     0.003 A 
ATOM      7  C6  UNL d   1       0.218  -2.803   0.665  0.00  0.00    -0.001 A 
ENDROOT
TORSDOF 0
ENDMDL
