MODEL 1
REMARK minimizedAffinity -3.55906439
REMARK minimizedRMSD -1
REMARK  0 active torsions:
REMARK  status: ('A' for Active; 'I' for Inactive)
ROOT
ATOM      1  C   UNL d   1      -0.046  -0.053   1.180  0.00  0.00     0.078 C 
ATOM      2  C1  UNL d   1       0.681  -1.247   0.638  0.00  0.00    -0.077 A 
ATOM      3  C2  UNL d   1       0.142  -2.534   0.754  0.00  0.00    -0.001 A 
ATOM      4  C3  UNL d   1       0.835  -3.637   0.253  0.00  0.00     0.003 A 
ATOM      5  C4  UNL d   1       2.072  -3.465  -0.366  0.00  0.00    -0.005 A 
ATOM      6  C5  UNL d   1       2.617  -2.188  -0.484  0.00  0.00     0.003 A 
ATOM      7  C6  UNL d   1       1.926  -1.084   0.016  0.00  0.00    -0.001 A 
ENDROOT
TORSDOF 0
ENDMDL
