MODEL 1
REMARK minimizedAffinity -1.70880795
REMARK minimizedRMSD -1
REMARK  0 active torsions:
REMARK  status: ('A' for Active; 'I' for Inactive)
ROOT
ATOM      1  C   UNL d   1      -1.640  -2.708   0.949  0.00  0.00     0.078 C 
ATOM      2  C1  UNL d   1      -0.304  -2.047   0.778  0.00  0.00    -0.077 A 
ATOM      3  C2  UNL d   1       0.122  -1.043   1.656  0.00  0.00    -0.001 A 
ATOM      4  C3  UNL d   1       1.363  -0.430   1.478  0.00  0.00     0.003 A 
ATOM      5  C4  UNL d   1       2.188  -0.814   0.423  0.00  0.00    -0.005 A 
ATOM      6  C5  UNL d   1       1.772  -1.810  -0.457  0.00  0.00     0.003 A 
ATOM      7  C6  UNL d   1       0.531  -2.425  -0.281  0.00  0.00    -0.001 A 
ENDROOT
TORSDOF 0
ENDMDL
