MODEL 1
REMARK minimizedAffinity 9.29139996
REMARK minimizedRMSD -1
REMARK  1 active torsions:
REMARK  status: ('A' for Active; 'I' for Inactive)
REMARK    1  A    between atoms: N_2  and  C1_3 
ROOT
ATOM      1  C1  UNL d   1       0.893   0.744  -5.520  0.00  0.00     0.143 A 
ATOM      2  C2  UNL d   1       2.044   1.379  -5.999  0.00  0.00    -0.057 A 
ATOM      3  C3  UNL d   1       3.295   1.156  -5.411  0.00  0.00     0.033 A 
ATOM      4  C4  UNL d   1       3.412   0.313  -4.311  0.00  0.00    -0.042 A 
ATOM      5  C5  UNL d   1       2.278  -0.310  -3.802  0.00  0.00     0.033 A 
ATOM      6  C6  UNL d   1       1.033  -0.088  -4.399  0.00  0.00    -0.057 A 
ENDROOT
BRANCH   1   7
ATOM      7  N   UNL d   1      -0.393   1.001  -6.000  0.00  0.00    -0.732 N 
ATOM      8  C   UNL d   1      -1.402  -0.037  -5.996  0.00  0.00     0.284 C 
ATOM      9  H3  UNL d   1      -0.738   1.916  -5.718  0.00  0.00     0.395 HD
ENDBRANCH   1   7
TORSDOF 1
ENDMDL
