MODEL 1
REMARK minimizedAffinity -0.0863984302
REMARK minimizedRMSD -1
REMARK  1 active torsions:
REMARK  status: ('A' for Active; 'I' for Inactive)
REMARK    1  A    between atoms: N_2  and  C1_3 
ROOT
ATOM      1  C1  UNL d   1       2.957  -5.977   4.101  0.00  0.00     0.143 A 
ATOM      2  C2  UNL d   1       4.067  -5.898   3.254  0.00  0.00    -0.057 A 
ATOM      3  C3  UNL d   1       5.371  -5.890   3.764  0.00  0.00     0.033 A 
ATOM      4  C4  UNL d   1       5.587  -5.932   5.138  0.00  0.00    -0.042 A 
ATOM      5  C5  UNL d   1       4.497  -5.986   6.000  0.00  0.00     0.033 A 
ATOM      6  C6  UNL d   1       3.198  -6.000   5.483  0.00  0.00    -0.057 A 
ENDROOT
BRANCH   1   7
ATOM      7  N   UNL d   1       1.634  -5.889   3.660  0.00  0.00    -0.732 N 
ATOM      8  C   UNL d   1       1.232  -4.849   2.737  0.00  0.00     0.284 C 
ATOM      9  H3  UNL d   1       1.230  -6.801   3.460  0.00  0.00     0.395 HD
ENDBRANCH   1   7
TORSDOF 1
ENDMDL
