MODEL 1
REMARK minimizedAffinity 5.54431725
REMARK minimizedRMSD -1
REMARK  1 active torsions:
REMARK  status: ('A' for Active; 'I' for Inactive)
REMARK    1  A    between atoms: N_2  and  C1_3 
ROOT
ATOM      1  C1  UNL d   1      -5.263  -3.408  -1.152  0.00  0.00     0.143 A 
ATOM      2  C2  UNL d   1      -4.527  -3.611   0.020  0.00  0.00    -0.057 A 
ATOM      3  C3  UNL d   1      -4.105  -4.891   0.401  0.00  0.00     0.033 A 
ATOM      4  C4  UNL d   1      -4.438  -5.998  -0.373  0.00  0.00    -0.042 A 
ATOM      5  C5  UNL d   1      -5.190  -5.823  -1.529  0.00  0.00     0.033 A 
ATOM      6  C6  UNL d   1      -5.603  -4.542  -1.907  0.00  0.00    -0.057 A 
ENDROOT
BRANCH   1   7
ATOM      7  N   UNL d   1      -5.795  -2.174  -1.533  0.00  0.00    -0.732 N 
ATOM      8  C   UNL d   1      -5.912  -1.821  -2.931  0.00  0.00     0.284 C 
ATOM      9  H3  UNL d   1      -6.598  -1.906  -0.968  0.00  0.00     0.395 HD
ENDBRANCH   1   7
TORSDOF 1
ENDMDL
