MODEL 1
REMARK minimizedAffinity 9.66915131
REMARK minimizedRMSD -1
REMARK  1 active torsions:
REMARK  status: ('A' for Active; 'I' for Inactive)
REMARK    1  A    between atoms: N_2  and  C1_3 
ROOT
ATOM      1  C1  UNL d   1       0.822   0.678  -2.214  0.00  0.00     0.143 A 
ATOM      2  C2  UNL d   1       0.796  -0.668  -1.831  0.00  0.00    -0.057 A 
ATOM      3  C3  UNL d   1       0.956  -1.693  -2.771  0.00  0.00     0.033 A 
ATOM      4  C4  UNL d   1       1.118  -1.391  -4.119  0.00  0.00    -0.042 A 
ATOM      5  C5  UNL d   1       1.122  -0.061  -4.526  0.00  0.00     0.033 A 
ATOM      6  C6  UNL d   1       0.968   0.959  -3.582  0.00  0.00    -0.057 A 
ENDROOT
BRANCH   1   7
ATOM      7  N   UNL d   1       0.570   1.740  -1.342  0.00  0.00    -0.732 N 
ATOM      8  C   UNL d   1       1.493   2.850  -1.247  0.00  0.00     0.284 C 
ATOM      9  H3  UNL d   1      -0.410   2.012  -1.335  0.00  0.00     0.395 HD
ENDBRANCH   1   7
TORSDOF 1
ENDMDL
