MODEL 1
REMARK minimizedAffinity 13.5297089
REMARK minimizedRMSD -1
REMARK  1 active torsions:
REMARK  status: ('A' for Active; 'I' for Inactive)
REMARK    1  A    between atoms: N_2  and  C1_3 
ROOT
ATOM      1  C1  UNL d   1       3.059   4.938  -4.886  0.00  0.00     0.143 A 
ATOM      2  C2  UNL d   1       2.725   3.839  -5.683  0.00  0.00    -0.057 A 
ATOM      3  C3  UNL d   1       3.671   2.856  -6.000  0.00  0.00     0.033 A 
ATOM      4  C4  UNL d   1       4.981   2.972  -5.547  0.00  0.00    -0.042 A 
ATOM      5  C5  UNL d   1       5.342   4.070  -4.774  0.00  0.00     0.033 A 
ATOM      6  C6  UNL d   1       4.391   5.044  -4.456  0.00  0.00    -0.057 A 
ENDROOT
BRANCH   1   7
ATOM      7  N   UNL d   1       2.190   5.999  -4.618  0.00  0.00    -0.732 N 
ATOM      8  C   UNL d   1       0.839   5.994  -5.139  0.00  0.00     0.284 C 
ATOM      9  H3  UNL d   1       2.265   6.330  -3.659  0.00  0.00     0.395 HD
ENDBRANCH   1   7
TORSDOF 1
ENDMDL
