MODEL 1
REMARK minimizedAffinity 14.584506
REMARK minimizedRMSD -1
REMARK  1 active torsions:
REMARK  status: ('A' for Active; 'I' for Inactive)
REMARK    1  A    between atoms: N_2  and  C1_3 
ROOT
ATOM      1  C1  UNL d   1       4.220   4.881  -4.871  0.00  0.00     0.143 A 
ATOM      2  C2  UNL d   1       3.665   5.605  -3.810  0.00  0.00    -0.057 A 
ATOM      3  C3  UNL d   1       2.322   6.000  -3.825  0.00  0.00     0.033 A 
ATOM      4  C4  UNL d   1       1.515   5.702  -4.918  0.00  0.00    -0.042 A 
ATOM      5  C5  UNL d   1       2.052   5.005  -5.995  0.00  0.00     0.033 A 
ATOM      6  C6  UNL d   1       3.392   4.608  -5.971  0.00  0.00    -0.057 A 
ENDROOT
BRANCH   1   7
ATOM      7  N   UNL d   1       5.573   4.546  -4.960  0.00  0.00    -0.732 N 
ATOM      8  C   UNL d   1       6.000   3.168  -4.843  0.00  0.00     0.284 C 
ATOM      9  H3  UNL d   1       6.057   5.071  -5.685  0.00  0.00     0.395 HD
ENDBRANCH   1   7
TORSDOF 1
ENDMDL
