MODEL 1
REMARK minimizedAffinity 7.1398344
REMARK minimizedRMSD -1
REMARK  1 active torsions:
REMARK  status: ('A' for Active; 'I' for Inactive)
REMARK    1  A    between atoms: N_2  and  C1_3 
ROOT
ATOM      1  C1  UNL d   1      -1.216  -3.586  -5.923  0.00  0.00     0.143 A 
ATOM      2  C2  UNL d   1      -2.600  -3.382  -5.949  0.00  0.00    -0.057 A 
ATOM      3  C3  UNL d   1      -3.493  -4.460  -5.971  0.00  0.00     0.033 A 
ATOM      4  C4  UNL d   1      -3.015  -5.766  -5.998  0.00  0.00    -0.042 A 
ATOM      5  C5  UNL d   1      -1.643  -5.993  -5.999  0.00  0.00     0.033 A 
ATOM      6  C6  UNL d   1      -0.757  -4.912  -5.970  0.00  0.00    -0.057 A 
ENDROOT
BRANCH   1   7
ATOM      7  N   UNL d   1      -0.276  -2.556  -6.000  0.00  0.00    -0.732 N 
ATOM      8  C   UNL d   1       0.164  -1.870  -4.804  0.00  0.00     0.284 C 
ATOM      9  H3  UNL d   1       0.470  -2.758  -6.662  0.00  0.00     0.395 HD
ENDBRANCH   1   7
TORSDOF 1
ENDMDL
