MODEL 1
REMARK minimizedAffinity 11.3743839
REMARK minimizedRMSD -1
REMARK  1 active torsions:
REMARK  status: ('A' for Active; 'I' for Inactive)
REMARK    1  A    between atoms: N_2  and  C1_3 
ROOT
ATOM      1  C1  UNL d   1       2.133   0.537  -2.320  0.00  0.00     0.143 A 
ATOM      2  C2  UNL d   1       2.728  -0.193  -3.354  0.00  0.00    -0.057 A 
ATOM      3  C3  UNL d   1       2.052  -1.248  -3.979  0.00  0.00     0.033 A 
ATOM      4  C4  UNL d   1       0.776  -1.610  -3.560  0.00  0.00    -0.042 A 
ATOM      5  C5  UNL d   1       0.175  -0.914  -2.518  0.00  0.00     0.033 A 
ATOM      6  C6  UNL d   1       0.852   0.142  -1.902  0.00  0.00    -0.057 A 
ENDROOT
BRANCH   1   7
ATOM      7  N   UNL d   1       2.790   1.532  -1.592  0.00  0.00    -0.732 N 
ATOM      8  C   UNL d   1       2.039   2.504  -0.826  0.00  0.00     0.284 C 
ATOM      9  H3  UNL d   1       3.622   1.183  -1.120  0.00  0.00     0.395 HD
ENDBRANCH   1   7
TORSDOF 1
ENDMDL
