MODEL 1
REMARK minimizedAffinity 12.0616531
REMARK minimizedRMSD -1
REMARK  1 active torsions:
REMARK  status: ('A' for Active; 'I' for Inactive)
REMARK    1  A    between atoms: N_2  and  C1_3 
ROOT
ATOM      1  C1  UNL d   1       2.184  -0.771  -4.243  0.00  0.00     0.143 A 
ATOM      2  C2  UNL d   1       3.208  -1.079  -5.144  0.00  0.00    -0.057 A 
ATOM      3  C3  UNL d   1       3.741  -0.106  -5.997  0.00  0.00     0.033 A 
ATOM      4  C4  UNL d   1       3.237   1.191  -5.984  0.00  0.00    -0.042 A 
ATOM      5  C5  UNL d   1       2.202   1.513  -5.114  0.00  0.00     0.033 A 
ATOM      6  C6  UNL d   1       1.678   0.538  -4.260  0.00  0.00    -0.057 A 
ENDROOT
BRANCH   1   7
ATOM      7  N   UNL d   1       1.545  -1.718  -3.438  0.00  0.00    -0.732 N 
ATOM      8  C   UNL d   1       0.485  -2.545  -3.974  0.00  0.00     0.284 C 
ATOM      9  H3  UNL d   1       2.194  -2.215  -2.833  0.00  0.00     0.395 HD
ENDBRANCH   1   7
TORSDOF 1
ENDMDL
