MODEL 1
REMARK minimizedAffinity 10.4161949
REMARK minimizedRMSD -1
REMARK  1 active torsions:
REMARK  status: ('A' for Active; 'I' for Inactive)
REMARK    1  A    between atoms: N_2  and  C1_3 
ROOT
ATOM      1  C1  UNL d   1       2.724   1.551  -3.114  0.00  0.00     0.143 A 
ATOM      2  C2  UNL d   1       3.360   2.575  -3.825  0.00  0.00    -0.057 A 
ATOM      3  C3  UNL d   1       3.187   3.919  -3.472  0.00  0.00     0.033 A 
ATOM      4  C4  UNL d   1       2.349   4.266  -2.418  0.00  0.00    -0.042 A 
ATOM      5  C5  UNL d   1       1.687   3.266  -1.714  0.00  0.00     0.033 A 
ATOM      6  C6  UNL d   1       1.869   1.925  -2.066  0.00  0.00    -0.057 A 
ENDROOT
BRANCH   1   7
ATOM      7  N   UNL d   1       2.778   0.203  -3.477  0.00  0.00    -0.732 N 
ATOM      8  C   UNL d   1       1.563  -0.567  -3.637  0.00  0.00     0.284 C 
ATOM      9  H3  UNL d   1       3.483   0.020  -4.188  0.00  0.00     0.395 HD
ENDBRANCH   1   7
TORSDOF 1
ENDMDL
