MODEL 1
REMARK minimizedAffinity -2.06141782
REMARK minimizedRMSD -1
REMARK  0 active torsions:
REMARK  status: ('A' for Active; 'I' for Inactive)
ROOT
ATOM      1  C4' PXY d   1       0.344  -0.436  -2.523  0.00  0.00     0.077 C 
ATOM      2  C1' PXY d   1      -1.223   1.060   2.836  0.00  0.00     0.077 C 
ATOM      3  C1  PXY d   1      -0.802   0.676   1.432  0.00  0.00    -0.082 A 
ATOM      4  C2  PXY d   1      -1.702   0.204   0.585  0.00  0.00     0.003 A 
ATOM      5  C3  PXY d   1      -1.332  -0.179  -0.679  0.00  0.00     0.003 A 
ATOM      6  C4  PXY d   1      -0.038  -0.027  -1.098  0.00  0.00    -0.082 A 
ATOM      7  C5  PXY d   1       0.884   0.465  -0.243  0.00  0.00     0.003 A 
ATOM      8  C6  PXY d   1       0.497   0.809   1.049  0.00  0.00     0.003 A 
ENDROOT
TORSDOF 0
ENDMDL
