MODEL 1
REMARK minimizedAffinity -0.600811124
REMARK minimizedRMSD -1
REMARK  0 active torsions:
REMARK  status: ('A' for Active; 'I' for Inactive)
ROOT
ATOM      1  C4' PXY d   1      -0.460   2.602   3.018  0.00  0.00     0.077 C 
ATOM      2  C1' PXY d   1      -0.572  -1.555  -0.997  0.00  0.00     0.077 C 
ATOM      3  C1  PXY d   1      -0.530  -0.465   0.055  0.00  0.00    -0.082 A 
ATOM      4  C2  PXY d   1      -1.549  -0.317   0.886  0.00  0.00     0.003 A 
ATOM      5  C3  PXY d   1      -1.541   0.684   1.823  0.00  0.00     0.003 A 
ATOM      6  C4  PXY d   1      -0.455   1.509   1.946  0.00  0.00    -0.082 A 
ATOM      7  C5  PXY d   1       0.593   1.358   1.109  0.00  0.00     0.003 A 
ATOM      8  C6  PXY d   1       0.548   0.362   0.138  0.00  0.00     0.003 A 
ENDROOT
TORSDOF 0
ENDMDL
