MODEL 1
REMARK minimizedAffinity -2.85620809
REMARK minimizedRMSD -1
REMARK  0 active torsions:
REMARK  status: ('A' for Active; 'I' for Inactive)
ROOT
ATOM      1  C4' PXY d   1      -0.767   1.787   2.926  0.00  0.00     0.077 C 
ATOM      2  C1' PXY d   1       0.234  -1.030  -2.022  0.00  0.00     0.077 C 
ATOM      3  C1  PXY d   1      -0.039  -0.285  -0.730  0.00  0.00    -0.082 A 
ATOM      4  C2  PXY d   1       0.953  -0.060   0.117  0.00  0.00     0.003 A 
ATOM      5  C3  PXY d   1       0.717   0.584   1.305  0.00  0.00     0.003 A 
ATOM      6  C4  PXY d   1      -0.535   1.048   1.605  0.00  0.00    -0.082 A 
ATOM      7  C5  PXY d   1      -1.550   0.831   0.742  0.00  0.00     0.003 A 
ATOM      8  C6  PXY d   1      -1.298   0.139  -0.440  0.00  0.00     0.003 A 
ENDROOT
TORSDOF 0
ENDMDL
