MODEL 1
REMARK minimizedAffinity -2.79361033
REMARK minimizedRMSD -1
REMARK  0 active torsions:
REMARK  status: ('A' for Active; 'I' for Inactive)
ROOT
ATOM      1  C4' PXY d   1       0.738  -1.207  -2.437  0.00  0.00     0.077 C 
ATOM      2  C1' PXY d   1      -0.929   1.151   2.571  0.00  0.00     0.077 C 
ATOM      3  C1  PXY d   1      -0.503   0.526   1.257  0.00  0.00    -0.082 A 
ATOM      4  C2  PXY d   1       0.784   0.418   0.971  0.00  0.00     0.003 A 
ATOM      5  C3  PXY d   1       1.186  -0.115  -0.227  0.00  0.00     0.003 A 
ATOM      6  C4  PXY d   1       0.262  -0.591  -1.118  0.00  0.00    -0.082 A 
ATOM      7  C5  PXY d   1      -1.053  -0.494  -0.829  0.00  0.00     0.003 A 
ATOM      8  C6  PXY d   1      -1.441   0.088   0.374  0.00  0.00     0.003 A 
ENDROOT
TORSDOF 0
ENDMDL
