MODEL 1
REMARK minimizedAffinity -3.50398445
REMARK minimizedRMSD -1
REMARK  0 active torsions:
REMARK  status: ('A' for Active; 'I' for Inactive)
ROOT
ATOM      1  C4' PXY d   1       0.720  -0.499  -2.999  0.00  0.00     0.077 C 
ATOM      2  C1' PXY d   1      -1.039   0.829   2.345  0.00  0.00     0.077 C 
ATOM      3  C1  PXY d   1      -0.565   0.479   0.948  0.00  0.00    -0.082 A 
ATOM      4  C2  PXY d   1      -1.260   0.891  -0.100  0.00  0.00     0.003 A 
ATOM      5  C3  PXY d   1      -0.864   0.557  -1.369  0.00  0.00     0.003 A 
ATOM      6  C4  PXY d   1       0.285  -0.162  -1.570  0.00  0.00    -0.082 A 
ATOM      7  C5  PXY d   1       1.005  -0.576  -0.506  0.00  0.00     0.003 A 
ATOM      8  C6  PXY d   1       0.563  -0.261   0.776  0.00  0.00     0.003 A 
ENDROOT
TORSDOF 0
ENDMDL
