MODEL 1
REMARK minimizedAffinity -5.54659557
REMARK minimizedRMSD -1
REMARK  0 active torsions:
REMARK  status: ('A' for Active; 'I' for Inactive)
ROOT
ATOM      1  C4' PXY d   1       0.281  -0.523  -2.039  0.00  0.00     0.077 C 
ATOM      2  C1' PXY d   1      -0.891   1.244   3.339  0.00  0.00     0.077 C 
ATOM      3  C1  PXY d   1      -0.571   0.785   1.930  0.00  0.00    -0.082 A 
ATOM      4  C2  PXY d   1      -1.549   0.648   1.049  0.00  0.00     0.003 A 
ATOM      5  C3  PXY d   1      -1.282   0.203  -0.220  0.00  0.00     0.003 A 
ATOM      6  C4  PXY d   1       0.006  -0.053  -0.608  0.00  0.00    -0.082 A 
ATOM      7  C5  PXY d   1       1.011   0.095   0.282  0.00  0.00     0.003 A 
ATOM      8  C6  PXY d   1       0.713   0.508   1.577  0.00  0.00     0.003 A 
ENDROOT
TORSDOF 0
ENDMDL
