MODEL 1
REMARK minimizedAffinity -5.01499748
REMARK minimizedRMSD -1
REMARK  0 active torsions:
REMARK  status: ('A' for Active; 'I' for Inactive)
ROOT
ATOM      1  C4' PXY d   1      -0.572   1.422   3.378  0.00  0.00     0.077 C 
ATOM      2  C1' PXY d   1       0.619  -1.543  -1.439  0.00  0.00     0.077 C 
ATOM      3  C1  PXY d   1       0.317  -0.771  -0.170  0.00  0.00    -0.082 A 
ATOM      4  C2  PXY d   1      -0.903  -0.303   0.036  0.00  0.00     0.003 A 
ATOM      5  C3  PXY d   1      -1.186   0.425   1.163  0.00  0.00     0.003 A 
ATOM      6  C4  PXY d   1      -0.224   0.629   2.115  0.00  0.00    -0.082 A 
ATOM      7  C5  PXY d   1       1.021   0.145   1.918  0.00  0.00     0.003 A 
ATOM      8  C6  PXY d   1       1.298  -0.556   0.748  0.00  0.00     0.003 A 
ENDROOT
TORSDOF 0
ENDMDL
