MODEL 1
REMARK minimizedAffinity -4.68950272
REMARK minimizedRMSD -1
REMARK  0 active torsions:
REMARK  status: ('A' for Active; 'I' for Inactive)
ROOT
ATOM      1  C4' PXY d   1       0.469  -0.519  -2.633  0.00  0.00     0.077 C 
ATOM      2  C1' PXY d   1      -1.035   0.889   2.767  0.00  0.00     0.077 C 
ATOM      3  C1  PXY d   1      -0.628   0.520   1.354  0.00  0.00    -0.082 A 
ATOM      4  C2  PXY d   1      -1.444   0.787   0.348  0.00  0.00     0.003 A 
ATOM      5  C3  PXY d   1      -1.106   0.431  -0.932  0.00  0.00     0.003 A 
ATOM      6  C4  PXY d   1       0.104  -0.156  -1.192  0.00  0.00    -0.082 A 
ATOM      7  C5  PXY d   1       0.947  -0.421  -0.171  0.00  0.00     0.003 A 
ATOM      8  C6  PXY d   1       0.567  -0.090   1.126  0.00  0.00     0.003 A 
ENDROOT
TORSDOF 0
ENDMDL
