MODEL 1
REMARK minimizedAffinity -4.98818684
REMARK minimizedRMSD -1
REMARK  0 active torsions:
REMARK  status: ('A' for Active; 'I' for Inactive)
ROOT
ATOM      1  C4' PXY d   1      -0.797   1.684   3.121  0.00  0.00     0.077 C 
ATOM      2  C1' PXY d   1       0.693  -1.268  -1.619  0.00  0.00     0.077 C 
ATOM      3  C1  PXY d   1       0.313  -0.499  -0.370  0.00  0.00    -0.082 A 
ATOM      4  C2  PXY d   1      -0.947  -0.143  -0.179  0.00  0.00     0.003 A 
ATOM      5  C3  PXY d   1      -1.303   0.581   0.930  0.00  0.00     0.003 A 
ATOM      6  C4  PXY d   1      -0.369   0.898   1.879  0.00  0.00    -0.082 A 
ATOM      7  C5  PXY d   1       0.917   0.530   1.697  0.00  0.00     0.003 A 
ATOM      8  C6  PXY d   1       1.265  -0.169   0.545  0.00  0.00     0.003 A 
ENDROOT
TORSDOF 0
ENDMDL
