MODEL 1
REMARK minimizedAffinity 7.57432842
REMARK minimizedRMSD -1
REMARK  0 active torsions:
REMARK  status: ('A' for Active; 'I' for Inactive)
ROOT
ATOM      1  C   UNL d   1       2.791   0.142  -1.364  0.00  0.00    -0.002 A 
ATOM      2  C1  UNL d   1       2.545  -0.046  -0.011  0.00  0.00     0.010 A 
ATOM      3  C2  UNL d   1       3.257   0.677   0.948  0.00  0.00     0.041 A 
ATOM      4  C3  UNL d   1       4.230   1.602   0.520  0.00  0.00    -0.075 A 
ATOM      5  S   UNL d   1       5.224   2.600   1.514  0.00  0.00     0.015 SA
ATOM      6  C4  UNL d   1       5.999   3.299   0.167  0.00  0.00     0.022 A 
ATOM      7  C5  UNL d   1       5.523   2.795  -1.020  0.00  0.00     0.026 A 
ATOM      8  C6  UNL d   1       4.496   1.809  -0.837  0.00  0.00    -0.082 A 
ATOM      9  C7  UNL d   1       3.757   1.060  -1.784  0.00  0.00     0.045 A 
ENDROOT
TORSDOF 0
ENDMDL
