MODEL 1
REMARK minimizedAffinity 9.21882439
REMARK minimizedRMSD -1
REMARK  0 active torsions:
REMARK  status: ('A' for Active; 'I' for Inactive)
ROOT
ATOM      1  C   UNL d   1       3.286   2.177  -1.118  0.00  0.00    -0.002 A 
ATOM      2  C1  UNL d   1       2.125   1.419  -1.166  0.00  0.00     0.010 A 
ATOM      3  C2  UNL d   1       2.003   0.256  -0.403  0.00  0.00     0.041 A 
ATOM      4  C3  UNL d   1       3.078  -0.135   0.419  0.00  0.00    -0.075 A 
ATOM      5  S   UNL d   1       3.154  -1.521   1.442  0.00  0.00     0.015 SA
ATOM      6  C4  UNL d   1       4.730  -1.138   1.968  0.00  0.00     0.022 A 
ATOM      7  C5  UNL d   1       5.202   0.015   1.387  0.00  0.00     0.026 A 
ATOM      8  C6  UNL d   1       4.257   0.613   0.486  0.00  0.00    -0.082 A 
ATOM      9  C7  UNL d   1       4.350   1.786  -0.301  0.00  0.00     0.045 A 
ENDROOT
TORSDOF 0
ENDMDL
