MODEL 1
REMARK minimizedAffinity 5.66353559
REMARK minimizedRMSD -1
REMARK  0 active torsions:
REMARK  status: ('A' for Active; 'I' for Inactive)
ROOT
ATOM      1  C   UNL d   1       3.803   1.727   0.205  0.00  0.00    -0.002 A 
ATOM      2  C1  UNL d   1       3.632   1.781  -1.171  0.00  0.00     0.010 A 
ATOM      3  C2  UNL d   1       3.063   0.708  -1.859  0.00  0.00     0.041 A 
ATOM      4  C3  UNL d   1       2.664  -0.432  -1.134  0.00  0.00    -0.075 A 
ATOM      5  S   UNL d   1       1.943  -1.865  -1.765  0.00  0.00     0.015 SA
ATOM      6  C4  UNL d   1       1.845  -2.584  -0.222  0.00  0.00     0.022 A 
ATOM      7  C5  UNL d   1       2.345  -1.764   0.761  0.00  0.00     0.026 A 
ATOM      8  C6  UNL d   1       2.825  -0.510   0.252  0.00  0.00    -0.082 A 
ATOM      9  C7  UNL d   1       3.406   0.595   0.921  0.00  0.00     0.045 A 
ENDROOT
TORSDOF 0
ENDMDL
