MODEL 1
REMARK minimizedAffinity 22.2802982
REMARK minimizedRMSD -1
REMARK  0 active torsions:
REMARK  status: ('A' for Active; 'I' for Inactive)
ROOT
ATOM      1  C   UNL d   1       5.787   5.991  -1.819  0.00  0.00    -0.002 A 
ATOM      2  C1  UNL d   1       5.992   5.821  -3.180  0.00  0.00     0.010 A 
ATOM      3  C2  UNL d   1       5.528   4.676  -3.831  0.00  0.00     0.041 A 
ATOM      4  C3  UNL d   1       4.847   3.696  -3.083  0.00  0.00    -0.075 A 
ATOM      5  S   UNL d   1       4.189   2.213  -3.667  0.00  0.00     0.015 SA
ATOM      6  C4  UNL d   1       3.619   1.771  -2.122  0.00  0.00     0.022 A 
ATOM      7  C5  UNL d   1       3.915   2.720  -1.172  0.00  0.00     0.026 A 
ATOM      8  C6  UNL d   1       4.627   3.845  -1.710  0.00  0.00    -0.082 A 
ATOM      9  C7  UNL d   1       5.110   5.017  -1.080  0.00  0.00     0.045 A 
ENDROOT
TORSDOF 0
ENDMDL
