MODEL 1
REMARK minimizedAffinity 14.1566305
REMARK minimizedRMSD -1
REMARK  0 active torsions:
REMARK  status: ('A' for Active; 'I' for Inactive)
ROOT
ATOM      1  C   UNL d   1       5.261   4.688  -2.607  0.00  0.00    -0.002 A 
ATOM      2  C1  UNL d   1       4.017   4.314  -2.118  0.00  0.00     0.010 A 
ATOM      3  C2  UNL d   1       3.468   3.073  -2.448  0.00  0.00     0.041 A 
ATOM      4  C3  UNL d   1       4.198   2.205  -3.284  0.00  0.00    -0.075 A 
ATOM      5  S   UNL d   1       3.725   0.637  -3.820  0.00  0.00     0.015 SA
ATOM      6  C4  UNL d   1       5.164   0.425  -4.710  0.00  0.00     0.022 A 
ATOM      7  C5  UNL d   1       5.996   1.516  -4.611  0.00  0.00     0.026 A 
ATOM      8  C6  UNL d   1       5.453   2.559  -3.787  0.00  0.00    -0.082 A 
ATOM      9  C7  UNL d   1       5.982   3.824  -3.436  0.00  0.00     0.045 A 
ENDROOT
TORSDOF 0
ENDMDL
