MODEL 1
REMARK minimizedAffinity 14.796031
REMARK minimizedRMSD -1
REMARK  0 active torsions:
REMARK  status: ('A' for Active; 'I' for Inactive)
ROOT
ATOM      1  C   UNL d   1       2.486  -0.380   1.165  0.00  0.00    -0.002 A 
ATOM      2  C1  UNL d   1       2.140  -1.532   0.472  0.00  0.00     0.010 A 
ATOM      3  C2  UNL d   1       2.327  -1.613  -0.909  0.00  0.00     0.041 A 
ATOM      4  C3  UNL d   1       2.875  -0.507  -1.589  0.00  0.00    -0.075 A 
ATOM      5  S   UNL d   1       3.195  -0.380  -3.278  0.00  0.00     0.015 SA
ATOM      6  C4  UNL d   1       3.799   1.206  -3.120  0.00  0.00     0.022 A 
ATOM      7  C5  UNL d   1       3.764   1.643  -1.817  0.00  0.00     0.026 A 
ATOM      8  C6  UNL d   1       3.232   0.663  -0.913  0.00  0.00    -0.082 A 
ATOM      9  C7  UNL d   1       3.029   0.715   0.487  0.00  0.00     0.045 A 
ENDROOT
TORSDOF 0
ENDMDL
