MODEL 1
REMARK minimizedAffinity 4.2325511
REMARK minimizedRMSD -1
REMARK  0 active torsions:
REMARK  status: ('A' for Active; 'I' for Inactive)
ROOT
ATOM      1  C   UNL d   1      -6.000   1.261  -4.194  0.00  0.00    -0.002 A 
ATOM      2  C1  UNL d   1      -6.000   2.636  -4.003  0.00  0.00     0.010 A 
ATOM      3  C2  UNL d   1      -5.603   3.184  -2.782  0.00  0.00     0.041 A 
ATOM      4  C3  UNL d   1      -5.200   2.319  -1.746  0.00  0.00    -0.075 A 
ATOM      5  S   UNL d   1      -4.673   2.765  -0.166  0.00  0.00     0.015 SA
ATOM      6  C4  UNL d   1      -4.434   1.141   0.294  0.00  0.00     0.022 A 
ATOM      7  C5  UNL d   1      -4.744   0.267  -0.721  0.00  0.00     0.026 A 
ATOM      8  C6  UNL d   1      -5.190   0.932  -1.913  0.00  0.00    -0.082 A 
ATOM      9  C7  UNL d   1      -5.599   0.407  -3.163  0.00  0.00     0.045 A 
ENDROOT
TORSDOF 0
ENDMDL
