MODEL 1
REMARK minimizedAffinity 11.1932688
REMARK minimizedRMSD -1
REMARK  0 active torsions:
REMARK  status: ('A' for Active; 'I' for Inactive)
ROOT
ATOM      1  C   UNL d   1       1.796  -1.569   1.427  0.00  0.00     0.020 A 
ATOM      2  C1  UNL d   1       0.611  -1.756   0.718  0.00  0.00     0.020 A 
ATOM      3  C2  UNL d   1      -0.279  -0.693   0.553  0.00  0.00     0.034 A 
ATOM      4  C3  UNL d   1       0.016   0.563   1.097  0.00  0.00     0.017 A 
ATOM      5  C4  UNL d   1       1.206   0.749   1.809  0.00  0.00     0.017 A 
ATOM      6  C5  UNL d   1       2.093  -0.319   1.971  0.00  0.00     0.034 A 
ATOM      7 Cl   UNL d   1       1.639   2.269   2.509  0.00  0.00    -0.070 Cl
ATOM      8 Cl1  UNL d   1      -1.130   1.833   0.853  0.00  0.00    -0.070 Cl
ENDROOT
TORSDOF 0
ENDMDL
