MODEL 1
REMARK minimizedAffinity 6.43194675
REMARK minimizedRMSD -1
REMARK  0 active torsions:
REMARK  status: ('A' for Active; 'I' for Inactive)
ROOT
ATOM      1  C   UNL d   1       2.106  -1.332   2.894  0.00  0.00     0.020 A 
ATOM      2  C1  UNL d   1       1.631  -1.492   1.593  0.00  0.00     0.020 A 
ATOM      3  C2  UNL d   1       1.672  -0.421   0.698  0.00  0.00     0.034 A 
ATOM      4  C3  UNL d   1       2.188   0.816   1.104  0.00  0.00     0.017 A 
ATOM      5  C4  UNL d   1       2.664   0.975   2.410  0.00  0.00     0.017 A 
ATOM      6  C5  UNL d   1       2.621  -0.101   3.302  0.00  0.00     0.034 A 
ATOM      7 Cl   UNL d   1       3.315   2.470   2.983  0.00  0.00    -0.070 Cl
ATOM      8 Cl1  UNL d   1       2.208   2.097  -0.056  0.00  0.00    -0.070 Cl
ENDROOT
TORSDOF 0
ENDMDL
