MODEL 1
REMARK minimizedAffinity 10.7260351
REMARK minimizedRMSD -1
REMARK  0 active torsions:
REMARK  status: ('A' for Active; 'I' for Inactive)
ROOT
ATOM      1  C   UNL d   1       3.475  -5.991  -2.927  0.00  0.00     0.020 A 
ATOM      2  C1  UNL d   1       2.305  -5.979  -3.686  0.00  0.00     0.020 A 
ATOM      3  C2  UNL d   1       1.062  -5.973  -3.051  0.00  0.00     0.034 A 
ATOM      4  C3  UNL d   1       0.985  -5.978  -1.653  0.00  0.00     0.017 A 
ATOM      5  C4  UNL d   1       2.160  -5.990  -0.893  0.00  0.00     0.017 A 
ATOM      6  C5  UNL d   1       3.402  -5.997  -1.534  0.00  0.00     0.034 A 
ATOM      7 Cl   UNL d   1       2.145  -5.998   0.836  0.00  0.00    -0.070 Cl
ATOM      8 Cl1  UNL d   1      -0.587  -5.970  -0.935  0.00  0.00    -0.070 Cl
ENDROOT
TORSDOF 0
ENDMDL
