MODEL 1
REMARK minimizedAffinity 17.1469212
REMARK minimizedRMSD -1
REMARK  0 active torsions:
REMARK  status: ('A' for Active; 'I' for Inactive)
ROOT
ATOM      1  C   UNL d   1      -5.623  -2.047  -5.504  0.00  0.00     0.020 A 
ATOM      2  C1  UNL d   1      -4.752  -1.917  -4.423  0.00  0.00     0.020 A 
ATOM      3  C2  UNL d   1      -4.236  -3.057  -3.802  0.00  0.00     0.034 A 
ATOM      4  C3  UNL d   1      -4.591  -4.330  -4.261  0.00  0.00     0.017 A 
ATOM      5  C4  UNL d   1      -5.466  -4.459  -5.346  0.00  0.00     0.017 A 
ATOM      6  C5  UNL d   1      -5.979  -3.315  -5.964  0.00  0.00     0.034 A 
ATOM      7 Cl   UNL d   1      -5.950  -5.997  -5.968  0.00  0.00    -0.070 Cl
ATOM      8 Cl1  UNL d   1      -3.914  -5.695  -3.446  0.00  0.00    -0.070 Cl
ENDROOT
TORSDOF 0
ENDMDL
