MODEL 1
REMARK minimizedAffinity 11.8184795
REMARK minimizedRMSD -1
REMARK  0 active torsions:
REMARK  status: ('A' for Active; 'I' for Inactive)
ROOT
ATOM      1  C   UNL d   1       5.988   0.491  -6.000  0.00  0.00     0.020 A 
ATOM      2  C1  UNL d   1       5.034   1.182  -5.254  0.00  0.00     0.020 A 
ATOM      3  C2  UNL d   1       4.089   0.477  -4.505  0.00  0.00     0.034 A 
ATOM      4  C3  UNL d   1       4.095  -0.923  -4.502  0.00  0.00     0.017 A 
ATOM      5  C4  UNL d   1       5.054  -1.615  -5.251  0.00  0.00     0.017 A 
ATOM      6  C5  UNL d   1       5.998  -0.904  -5.999  0.00  0.00     0.034 A 
ATOM      7 Cl   UNL d   1       5.125  -3.341  -5.296  0.00  0.00    -0.070 Cl
ATOM      8 Cl1  UNL d   1       2.898  -1.730  -3.553  0.00  0.00    -0.070 Cl
ENDROOT
TORSDOF 0
ENDMDL
