MODEL 1
REMARK minimizedAffinity 7.31245184
REMARK minimizedRMSD -1
REMARK  0 active torsions:
REMARK  status: ('A' for Active; 'I' for Inactive)
ROOT
ATOM      1  C   UNL d   1       1.019  -3.589   0.984  0.00  0.00     0.020 A 
ATOM      2  C1  UNL d   1       0.419  -2.358   0.723  0.00  0.00     0.020 A 
ATOM      3  C2  UNL d   1       0.864  -1.210   1.384  0.00  0.00     0.034 A 
ATOM      4  C3  UNL d   1       1.911  -1.292   2.309  0.00  0.00     0.017 A 
ATOM      5  C4  UNL d   1       2.512  -2.528   2.570  0.00  0.00     0.017 A 
ATOM      6  C5  UNL d   1       2.063  -3.674   1.906  0.00  0.00     0.034 A 
ATOM      7 Cl   UNL d   1       3.810  -2.708   3.698  0.00  0.00    -0.070 Cl
ATOM      8 Cl1  UNL d   1       2.410   0.167   3.088  0.00  0.00    -0.070 Cl
ENDROOT
TORSDOF 0
ENDMDL
