MODEL 1
REMARK minimizedAffinity 13.4744368
REMARK minimizedRMSD -1
REMARK  0 active torsions:
REMARK  status: ('A' for Active; 'I' for Inactive)
ROOT
ATOM      1  C   UNL d   1       2.094  -0.200   1.216  0.00  0.00     0.020 A 
ATOM      2  C1  UNL d   1       0.790  -0.461   1.637  0.00  0.00     0.020 A 
ATOM      3  C2  UNL d   1       0.565  -1.279   2.746  0.00  0.00     0.034 A 
ATOM      4  C3  UNL d   1       1.644  -1.840   3.438  0.00  0.00     0.017 A 
ATOM      5  C4  UNL d   1       2.952  -1.577   3.015  0.00  0.00     0.017 A 
ATOM      6  C5  UNL d   1       3.172  -0.757   1.904  0.00  0.00     0.034 A 
ATOM      7 Cl   UNL d   1       4.335  -2.233   3.818  0.00  0.00    -0.070 Cl
ATOM      8 Cl1  UNL d   1       1.292  -2.842   4.800  0.00  0.00    -0.070 Cl
ENDROOT
TORSDOF 0
ENDMDL
