MODEL 1
REMARK minimizedAffinity 10.0230656
REMARK minimizedRMSD -1
REMARK  0 active torsions:
REMARK  status: ('A' for Active; 'I' for Inactive)
ROOT
ATOM      1  C   UNL d   1       2.018   0.714   3.000  0.00  0.00     0.020 A 
ATOM      2  C1  UNL d   1       2.638   0.335   1.810  0.00  0.00     0.020 A 
ATOM      3  C2  UNL d   1       2.626  -1.003   1.412  0.00  0.00     0.034 A 
ATOM      4  C3  UNL d   1       1.992  -1.967   2.204  0.00  0.00     0.017 A 
ATOM      5  C4  UNL d   1       1.369  -1.586   3.398  0.00  0.00     0.017 A 
ATOM      6  C5  UNL d   1       1.385  -0.244   3.792  0.00  0.00     0.034 A 
ATOM      7 Cl   UNL d   1       0.567  -2.718   4.428  0.00  0.00    -0.070 Cl
ATOM      8 Cl1  UNL d   1       2.015  -3.604   1.650  0.00  0.00    -0.070 Cl
ENDROOT
TORSDOF 0
ENDMDL
