MODEL 1
REMARK minimizedAffinity 5.23042583
REMARK minimizedRMSD -1
REMARK  0 active torsions:
REMARK  status: ('A' for Active; 'I' for Inactive)
ROOT
ATOM      1  C   UNL d   1       4.743  -1.146  -4.870  0.00  0.00     0.020 A 
ATOM      2  C1  UNL d   1       5.598  -1.553  -5.894  0.00  0.00     0.020 A 
ATOM      3  C2  UNL d   1       5.973  -2.894  -5.999  0.00  0.00     0.034 A 
ATOM      4  C3  UNL d   1       5.494  -3.833  -5.079  0.00  0.00     0.017 A 
ATOM      5  C4  UNL d   1       4.636  -3.424  -4.052  0.00  0.00     0.017 A 
ATOM      6  C5  UNL d   1       4.264  -2.080  -3.951  0.00  0.00     0.034 A 
ATOM      7 Cl   UNL d   1       4.004  -4.526  -2.879  0.00  0.00    -0.070 Cl
ATOM      8 Cl1  UNL d   1       5.999  -5.474  -5.270  0.00  0.00    -0.070 Cl
ENDROOT
TORSDOF 0
ENDMDL
