MODEL 1
REMARK minimizedAffinity 5.08765984
REMARK minimizedRMSD -1
REMARK  0 active torsions:
REMARK  status: ('A' for Active; 'I' for Inactive)
ROOT
ATOM      1  C   UNL d   1       5.999  -0.002  -4.135  0.00  0.00     0.020 A 
ATOM      2  C1  UNL d   1       5.013   0.571  -3.334  0.00  0.00     0.020 A 
ATOM      3  C2  UNL d   1       3.860  -0.152  -3.022  0.00  0.00     0.034 A 
ATOM      4  C3  UNL d   1       3.691  -1.453  -3.510  0.00  0.00     0.017 A 
ATOM      5  C4  UNL d   1       4.682  -2.027  -4.314  0.00  0.00     0.017 A 
ATOM      6  C5  UNL d   1       5.834  -1.299  -4.624  0.00  0.00     0.034 A 
ATOM      7 Cl   UNL d   1       4.544  -3.627  -4.954  0.00  0.00    -0.070 Cl
ATOM      8 Cl1  UNL d   1       2.240  -2.289  -3.083  0.00  0.00    -0.070 Cl
ENDROOT
TORSDOF 0
ENDMDL
