MODEL 1
REMARK minimizedAffinity 13.3790398
REMARK minimizedRMSD -1
REMARK  0 active torsions:
REMARK  status: ('A' for Active; 'I' for Inactive)
ROOT
ATOM      1  C   UNL d   1       2.152   2.356   2.871  0.00  0.00     0.020 A 
ATOM      2  C1  UNL d   1       1.312   1.333   3.309  0.00  0.00     0.020 A 
ATOM      3  C2  UNL d   1       1.522   0.023   2.873  0.00  0.00     0.034 A 
ATOM      4  C3  UNL d   1       2.574  -0.267   1.997  0.00  0.00     0.017 A 
ATOM      5  C4  UNL d   1       3.416   0.761   1.558  0.00  0.00     0.017 A 
ATOM      6  C5  UNL d   1       3.201   2.071   1.997  0.00  0.00     0.034 A 
ATOM      7 Cl   UNL d   1       4.735   0.480   0.476  0.00  0.00    -0.070 Cl
ATOM      8 Cl1  UNL d   1       2.775  -1.910   1.499  0.00  0.00    -0.070 Cl
ENDROOT
TORSDOF 0
ENDMDL
