MODEL 1
REMARK minimizedAffinity 10.7310324
REMARK minimizedRMSD -1
REMARK  1 active torsions:
REMARK  status: ('A' for Active; 'I' for Inactive)
REMARK    1  A    between atoms: C1_2  and  C2_3 
ROOT
ATOM      1  C2  UNL d   1      -0.396  -1.851  -4.614  0.00  0.00    -0.077 A 
ATOM      2  C3  UNL d   1      -0.423  -2.517  -5.847  0.00  0.00     0.002 A 
ATOM      3  C4  UNL d   1      -1.148  -3.702  -5.994  0.00  0.00     0.002 A 
ATOM      4  C5  UNL d   1      -1.852  -4.228  -4.913  0.00  0.00    -0.004 A 
ATOM      5  C6  UNL d   1      -1.830  -3.575  -3.682  0.00  0.00     0.002 A 
ATOM      6  C7  UNL d   1      -1.105  -2.391  -3.533  0.00  0.00     0.002 A 
ENDROOT
BRANCH   1   7
ATOM      7  C1  UNL d   1       0.344  -0.548  -4.466  0.00  0.00     0.055 C 
ATOM      8  C   UNL d   1      -0.114   0.469  -5.502  0.00  0.00     0.019 C 
ENDBRANCH   1   7
TORSDOF 1
ENDMDL
