MODEL 1
REMARK minimizedAffinity 11.6013727
REMARK minimizedRMSD -1
REMARK  1 active torsions:
REMARK  status: ('A' for Active; 'I' for Inactive)
REMARK    1  A    between atoms: C1_2  and  C2_3 
ROOT
ATOM      1  C2  UNL d   1       0.040  -0.132   2.596  0.00  0.00    -0.077 A 
ATOM      2  C3  UNL d   1       1.184   0.675   2.675  0.00  0.00     0.002 A 
ATOM      3  C4  UNL d   1       2.391   0.145   3.136  0.00  0.00     0.002 A 
ATOM      4  C5  UNL d   1       2.466  -1.193   3.517  0.00  0.00    -0.004 A 
ATOM      5  C6  UNL d   1       1.333  -2.003   3.443  0.00  0.00     0.002 A 
ATOM      6  C7  UNL d   1       0.126  -1.475   2.984  0.00  0.00     0.002 A 
ENDROOT
BRANCH   1   7
ATOM      7  C1  UNL d   1      -1.251   0.425   2.053  0.00  0.00     0.055 C 
ATOM      8  C   UNL d   1      -2.173  -0.686   1.571  0.00  0.00     0.019 C 
ENDBRANCH   1   7
TORSDOF 1
ENDMDL
