MODEL 1
REMARK minimizedAffinity 8.08322144
REMARK minimizedRMSD -1
REMARK  1 active torsions:
REMARK  status: ('A' for Active; 'I' for Inactive)
REMARK    1  A    between atoms: C1_2  and  C2_3 
ROOT
ATOM      1  C2  UNL d   1      -1.010  -2.750  -5.345  0.00  0.00    -0.077 A 
ATOM      2  C3  UNL d   1      -0.057  -1.957  -6.000  0.00  0.00     0.002 A 
ATOM      3  C4  UNL d   1       0.453  -0.812  -5.384  0.00  0.00     0.002 A 
ATOM      4  C5  UNL d   1       0.020  -0.453  -4.109  0.00  0.00    -0.004 A 
ATOM      5  C6  UNL d   1      -0.929  -1.235  -3.450  0.00  0.00     0.002 A 
ATOM      6  C7  UNL d   1      -1.440  -2.378  -4.065  0.00  0.00     0.002 A 
ENDROOT
BRANCH   1   7
ATOM      7  C1  UNL d   1      -1.524  -4.012  -5.987  0.00  0.00     0.055 C 
ATOM      8  C   UNL d   1      -1.090  -5.246  -5.210  0.00  0.00     0.019 C 
ENDBRANCH   1   7
TORSDOF 1
ENDMDL
