MODEL 1
REMARK minimizedAffinity 10.1542253
REMARK minimizedRMSD -1
REMARK  1 active torsions:
REMARK  status: ('A' for Active; 'I' for Inactive)
REMARK    1  A    between atoms: C1_2  and  C2_3 
ROOT
ATOM      1  C2  UNL d   1       4.775   3.496   2.289  0.00  0.00    -0.077 A 
ATOM      2  C3  UNL d   1       4.807   4.580   3.177  0.00  0.00     0.002 A 
ATOM      3  C4  UNL d   1       4.242   5.805   2.817  0.00  0.00     0.002 A 
ATOM      4  C5  UNL d   1       3.636   5.956   1.571  0.00  0.00    -0.004 A 
ATOM      5  C6  UNL d   1       3.600   4.884   0.680  0.00  0.00     0.002 A 
ATOM      6  C7  UNL d   1       4.166   3.659   1.038  0.00  0.00     0.002 A 
ENDROOT
BRANCH   1   7
ATOM      7  C1  UNL d   1       5.340   2.160   2.694  0.00  0.00     0.055 C 
ATOM      8  C   UNL d   1       5.020   1.841   4.147  0.00  0.00     0.019 C 
ENDBRANCH   1   7
TORSDOF 1
ENDMDL
