MODEL 1
REMARK minimizedAffinity 5.10026169
REMARK minimizedRMSD -1
REMARK  1 active torsions:
REMARK  status: ('A' for Active; 'I' for Inactive)
REMARK    1  A    between atoms: C1_2  and  C2_3 
ROOT
ATOM      1  C2  UNL d   1       2.402  -2.985   4.375  0.00  0.00    -0.077 A 
ATOM      2  C3  UNL d   1       3.240  -1.888   4.129  0.00  0.00     0.002 A 
ATOM      3  C4  UNL d   1       4.450  -1.756   4.815  0.00  0.00     0.002 A 
ATOM      4  C5  UNL d   1       4.834  -2.718   5.746  0.00  0.00    -0.004 A 
ATOM      5  C6  UNL d   1       4.006  -3.812   5.998  0.00  0.00     0.002 A 
ATOM      6  C7  UNL d   1       2.797  -3.945   5.315  0.00  0.00     0.002 A 
ENDROOT
BRANCH   1   7
ATOM      7  C1  UNL d   1       1.121  -3.155   3.601  0.00  0.00     0.055 C 
ATOM      8  C   UNL d   1       0.855  -1.957   2.700  0.00  0.00     0.019 C 
ENDBRANCH   1   7
TORSDOF 1
ENDMDL
