MODEL 1
REMARK minimizedAffinity 7.59811735
REMARK minimizedRMSD -1
REMARK  1 active torsions:
REMARK  status: ('A' for Active; 'I' for Inactive)
REMARK    1  A    between atoms: C1_2  and  C2_3 
ROOT
ATOM      1  C2  UNL d   1       3.872  -2.571   5.217  0.00  0.00    -0.077 A 
ATOM      2  C3  UNL d   1       2.882  -3.219   4.465  0.00  0.00     0.002 A 
ATOM      3  C4  UNL d   1       1.976  -2.479   3.703  0.00  0.00     0.002 A 
ATOM      4  C5  UNL d   1       2.054  -1.088   3.683  0.00  0.00    -0.004 A 
ATOM      5  C6  UNL d   1       3.034  -0.434   4.429  0.00  0.00     0.002 A 
ATOM      6  C7  UNL d   1       3.940  -1.173   5.192  0.00  0.00     0.002 A 
ENDROOT
BRANCH   1   7
ATOM      7  C1  UNL d   1       4.881  -3.370   6.000  0.00  0.00     0.055 C 
ATOM      8  C   UNL d   1       6.000  -3.880   5.103  0.00  0.00     0.019 C 
ENDBRANCH   1   7
TORSDOF 1
ENDMDL
