MODEL 1
REMARK minimizedAffinity -5.2216444
REMARK minimizedRMSD -1
REMARK  0 active torsions:
REMARK  status: ('A' for Active; 'I' for Inactive)
ROOT
ATOM      1  C   UNL d   1       0.460   0.015  -1.268  0.00  0.00     0.077 C 
ATOM      2  C1  UNL d   1      -0.034   0.023   0.149  0.00  0.00    -0.074 A 
ATOM      3  C2  UNL d   1       0.863   0.052   1.222  0.00  0.00    -0.005 A 
ATOM      4  C3  UNL d   1       0.389   0.069   2.534  0.00  0.00     0.006 A 
ATOM      5  C4  UNL d   1      -0.984   0.058   2.785  0.00  0.00    -0.005 A 
ATOM      6  C5  UNL d   1      -1.895   0.030   1.725  0.00  0.00    -0.074 A 
ATOM      7  C6  UNL d   1      -3.373   0.027   1.978  0.00  0.00     0.077 C 
ATOM      8  C7  UNL d   1      -1.411   0.020   0.410  0.00  0.00    -0.001 A 
ENDROOT
TORSDOF 0
ENDMDL
