MODEL 1
REMARK minimizedAffinity -2.87779832
REMARK minimizedRMSD -1
REMARK  0 active torsions:
REMARK  status: ('A' for Active; 'I' for Inactive)
ROOT
ATOM      1  C   UNL d   1      -2.824   0.432   0.362  0.00  0.00     0.077 C 
ATOM      2  C1  UNL d   1      -1.360   0.133   0.230  0.00  0.00    -0.074 A 
ATOM      3  C2  UNL d   1      -0.513   0.180   1.342  0.00  0.00    -0.005 A 
ATOM      4  C3  UNL d   1       0.844  -0.110   1.205  0.00  0.00     0.006 A 
ATOM      5  C4  UNL d   1       1.368  -0.450  -0.043  0.00  0.00    -0.005 A 
ATOM      6  C5  UNL d   1       0.536  -0.503  -1.167  0.00  0.00    -0.074 A 
ATOM      7  C6  UNL d   1       1.081  -0.875  -2.513  0.00  0.00     0.077 C 
ATOM      8  C7  UNL d   1      -0.828  -0.216  -1.019  0.00  0.00    -0.001 A 
ENDROOT
TORSDOF 0
ENDMDL
