MODEL 1
REMARK minimizedAffinity -4.16929102
REMARK minimizedRMSD -1
REMARK  0 active torsions:
REMARK  status: ('A' for Active; 'I' for Inactive)
ROOT
ATOM      1  C   UNL d   1       0.590   0.353   2.949  0.00  0.00     0.077 C 
ATOM      2  C1  UNL d   1      -0.137   0.376   1.638  0.00  0.00    -0.074 A 
ATOM      3  C2  UNL d   1      -1.499   0.688   1.577  0.00  0.00    -0.005 A 
ATOM      4  C3  UNL d   1      -2.160   0.715   0.349  0.00  0.00     0.006 A 
ATOM      5  C4  UNL d   1      -1.467   0.429  -0.829  0.00  0.00    -0.005 A 
ATOM      6  C5  UNL d   1      -0.105   0.116  -0.787  0.00  0.00    -0.074 A 
ATOM      7  C6  UNL d   1       0.657  -0.184  -2.044  0.00  0.00     0.077 C 
ATOM      8  C7  UNL d   1       0.554   0.098   0.450  0.00  0.00    -0.001 A 
ENDROOT
TORSDOF 0
ENDMDL
