MODEL 1
REMARK minimizedAffinity -5.61875296
REMARK minimizedRMSD -1
REMARK  0 active torsions:
REMARK  status: ('A' for Active; 'I' for Inactive)
ROOT
ATOM      1  C   UNL d   1      -2.906   0.490   0.092  0.00  0.00     0.077 C 
ATOM      2  C1  UNL d   1      -1.714   0.213   0.958  0.00  0.00    -0.074 A 
ATOM      3  C2  UNL d   1      -1.863  -0.055   2.323  0.00  0.00    -0.005 A 
ATOM      4  C3  UNL d   1      -0.746  -0.321   3.114  0.00  0.00     0.006 A 
ATOM      5  C4  UNL d   1       0.531  -0.319   2.550  0.00  0.00    -0.005 A 
ATOM      6  C5  UNL d   1       0.700  -0.054   1.188  0.00  0.00    -0.074 A 
ATOM      7  C6  UNL d   1       2.064  -0.058   0.564  0.00  0.00     0.077 C 
ATOM      8  C7  UNL d   1      -0.429   0.205   0.398  0.00  0.00    -0.001 A 
ENDROOT
TORSDOF 0
ENDMDL
