MODEL 1
REMARK minimizedAffinity -4.74808407
REMARK minimizedRMSD -1
REMARK  0 active torsions:
REMARK  status: ('A' for Active; 'I' for Inactive)
ROOT
ATOM      1  C   UNL d   1       1.227  -0.012   0.331  0.00  0.00     0.077 C 
ATOM      2  C1  UNL d   1       0.011   0.046   1.208  0.00  0.00    -0.074 A 
ATOM      3  C2  UNL d   1       0.110  -0.159   2.588  0.00  0.00    -0.005 A 
ATOM      4  C3  UNL d   1      -1.028  -0.093   3.392  0.00  0.00     0.006 A 
ATOM      5  C4  UNL d   1      -2.274   0.178   2.825  0.00  0.00    -0.005 A 
ATOM      6  C5  UNL d   1      -2.392   0.386   1.447  0.00  0.00    -0.074 A 
ATOM      7  C6  UNL d   1      -3.722   0.688   0.823  0.00  0.00     0.077 C 
ATOM      8  C7  UNL d   1      -1.243   0.325   0.647  0.00  0.00    -0.001 A 
ENDROOT
TORSDOF 0
ENDMDL
