MODEL 1
REMARK minimizedAffinity -6.42375374
REMARK minimizedRMSD -1
REMARK  0 active torsions:
REMARK  status: ('A' for Active; 'I' for Inactive)
ROOT
ATOM      1  C   UNL d   1      -3.040   1.019   0.283  0.00  0.00     0.077 C 
ATOM      2  C1  UNL d   1      -2.018   0.318   1.128  0.00  0.00    -0.074 A 
ATOM      3  C2  UNL d   1      -2.393  -0.699   2.013  0.00  0.00    -0.005 A 
ATOM      4  C3  UNL d   1      -1.430  -1.348   2.785  0.00  0.00     0.006 A 
ATOM      5  C4  UNL d   1      -0.086  -0.988   2.681  0.00  0.00    -0.005 A 
ATOM      6  C5  UNL d   1       0.307   0.025   1.802  0.00  0.00    -0.074 A 
ATOM      7  C6  UNL d   1       1.749   0.417   1.670  0.00  0.00     0.077 C 
ATOM      8  C7  UNL d   1      -0.665   0.668   1.023  0.00  0.00    -0.001 A 
ENDROOT
TORSDOF 0
ENDMDL
