MODEL 1
REMARK minimizedAffinity -4.78499413
REMARK minimizedRMSD -1
REMARK  0 active torsions:
REMARK  status: ('A' for Active; 'I' for Inactive)
ROOT
ATOM      1  C   UNL d   1       0.406  -0.025  -1.156  0.00  0.00     0.077 C 
ATOM      2  C1  UNL d   1       0.339  -0.313   0.314  0.00  0.00    -0.074 A 
ATOM      3  C2  UNL d   1       1.498  -0.328   1.098  0.00  0.00    -0.005 A 
ATOM      4  C3  UNL d   1       1.418  -0.588   2.466  0.00  0.00     0.006 A 
ATOM      5  C4  UNL d   1       0.182  -0.837   3.063  0.00  0.00    -0.005 A 
ATOM      6  C5  UNL d   1      -0.987  -0.826   2.296  0.00  0.00    -0.074 A 
ATOM      7  C6  UNL d   1      -2.325  -1.081   2.924  0.00  0.00     0.077 C 
ATOM      8  C7  UNL d   1      -0.900  -0.556   0.923  0.00  0.00    -0.001 A 
ENDROOT
TORSDOF 0
ENDMDL
