MODEL 1
REMARK minimizedAffinity -5.87286663
REMARK minimizedRMSD -1
REMARK  0 active torsions:
REMARK  status: ('A' for Active; 'I' for Inactive)
ROOT
ATOM      1  C   UNL d   1       1.276   0.393   0.849  0.00  0.00     0.077 C 
ATOM      2  C1  UNL d   1      -0.002   0.186   1.607  0.00  0.00    -0.074 A 
ATOM      3  C2  UNL d   1       0.011  -0.310   2.915  0.00  0.00    -0.005 A 
ATOM      4  C3  UNL d   1      -1.185  -0.488   3.611  0.00  0.00     0.006 A 
ATOM      5  C4  UNL d   1      -2.403  -0.172   3.008  0.00  0.00    -0.005 A 
ATOM      6  C5  UNL d   1      -2.435   0.326   1.702  0.00  0.00    -0.074 A 
ATOM      7  C6  UNL d   1      -3.734   0.680   1.042  0.00  0.00     0.077 C 
ATOM      8  C7  UNL d   1      -1.229   0.509   1.011  0.00  0.00    -0.001 A 
ENDROOT
TORSDOF 0
ENDMDL
