MODEL 1
REMARK minimizedAffinity -3.51058626
REMARK minimizedRMSD -1
REMARK  0 active torsions:
REMARK  status: ('A' for Active; 'I' for Inactive)
ROOT
ATOM      1  C   UNL d   1      -3.012   0.878   2.190  0.00  0.00     0.077 C 
ATOM      2  C1  UNL d   1      -1.634   0.558   1.692  0.00  0.00    -0.074 A 
ATOM      3  C2  UNL d   1      -0.599   0.256   2.584  0.00  0.00    -0.005 A 
ATOM      4  C3  UNL d   1       0.675  -0.049   2.105  0.00  0.00     0.006 A 
ATOM      5  C4  UNL d   1       0.928  -0.055   0.733  0.00  0.00    -0.005 A 
ATOM      6  C5  UNL d   1      -0.094   0.244  -0.174  0.00  0.00    -0.074 A 
ATOM      7  C6  UNL d   1       0.158   0.233  -1.652  0.00  0.00     0.077 C 
ATOM      8  C7  UNL d   1      -1.374   0.543   0.314  0.00  0.00    -0.001 A 
ENDROOT
TORSDOF 0
ENDMDL
