MODEL 1
REMARK minimizedAffinity -4.44523287
REMARK minimizedRMSD -1
REMARK  0 active torsions:
REMARK  status: ('A' for Active; 'I' for Inactive)
ROOT
ATOM      1  C   UNL d   1       0.022   0.762  -1.398  0.00  0.00     0.077 C 
ATOM      2  C1  UNL d   1      -0.070   0.451   0.066  0.00  0.00    -0.074 A 
ATOM      3  C2  UNL d   1       0.994  -0.159   0.739  0.00  0.00    -0.005 A 
ATOM      4  C3  UNL d   1       0.898  -0.434   2.103  0.00  0.00     0.006 A 
ATOM      5  C4  UNL d   1      -0.261  -0.102   2.807  0.00  0.00    -0.005 A 
ATOM      6  C5  UNL d   1      -1.334   0.510   2.151  0.00  0.00    -0.074 A 
ATOM      7  C6  UNL d   1      -2.582   0.882   2.895  0.00  0.00     0.077 C 
ATOM      8  C7  UNL d   1      -1.227   0.789   0.782  0.00  0.00    -0.001 A 
ENDROOT
TORSDOF 0
ENDMDL
