MODEL 1
REMARK minimizedAffinity -2.42261124
REMARK minimizedRMSD -1
REMARK  0 active torsions:
REMARK  status: ('A' for Active; 'I' for Inactive)
ROOT
ATOM      1  C   UNL d   1       0.791  -0.402   1.967  0.00  0.00     0.077 C 
ATOM      2  C1  UNL d   1       0.478  -0.175   0.518  0.00  0.00    -0.074 A 
ATOM      3  C2  UNL d   1      -0.029   1.051   0.076  0.00  0.00    -0.005 A 
ATOM      4  C3  UNL d   1      -0.307   1.250  -1.277  0.00  0.00     0.006 A 
ATOM      5  C4  UNL d   1      -0.082   0.228  -2.199  0.00  0.00    -0.005 A 
ATOM      6  C5  UNL d   1       0.426  -1.005  -1.775  0.00  0.00    -0.074 A 
ATOM      7  C6  UNL d   1       0.684  -2.111  -2.754  0.00  0.00     0.077 C 
ATOM      8  C7  UNL d   1       0.709  -1.195  -0.415  0.00  0.00    -0.001 A 
ENDROOT
TORSDOF 0
ENDMDL
