MODEL 1
REMARK minimizedAffinity -4.31457901
REMARK minimizedRMSD -1
REMARK  0 active torsions:
REMARK  status: ('A' for Active; 'I' for Inactive)
ROOT
ATOM      1  C   UNL d   1       1.384  -0.029   0.298  0.00  0.00     0.077 C 
ATOM      2  C1  UNL d   1       0.178   0.136   1.174  0.00  0.00    -0.074 A 
ATOM      3  C2  UNL d   1       0.302   0.188   2.566  0.00  0.00    -0.005 A 
ATOM      4  C3  UNL d   1      -0.828   0.351   3.367  0.00  0.00     0.006 A 
ATOM      5  C4  UNL d   1      -2.091   0.464   2.785  0.00  0.00    -0.005 A 
ATOM      6  C5  UNL d   1      -2.235   0.416   1.395  0.00  0.00    -0.074 A 
ATOM      7  C6  UNL d   1      -3.584   0.546   0.754  0.00  0.00     0.077 C 
ATOM      8  C7  UNL d   1      -1.094   0.258   0.597  0.00  0.00    -0.001 A 
ENDROOT
TORSDOF 0
ENDMDL
