MODEL 1
REMARK minimizedAffinity -3.36828232
REMARK minimizedRMSD -1
REMARK  0 active torsions:
REMARK  status: ('A' for Active; 'I' for Inactive)
ROOT
ATOM      1  C   UNL d   1      -2.830   0.780   1.298  0.00  0.00     0.077 C 
ATOM      2  C1  UNL d   1      -1.396   0.503   0.956  0.00  0.00    -0.074 A 
ATOM      3  C2  UNL d   1      -0.418   0.438   1.954  0.00  0.00    -0.005 A 
ATOM      4  C3  UNL d   1       0.910   0.170   1.621  0.00  0.00     0.006 A 
ATOM      5  C4  UNL d   1       1.272  -0.036   0.289  0.00  0.00    -0.005 A 
ATOM      6  C5  UNL d   1       0.308   0.024  -0.722  0.00  0.00    -0.074 A 
ATOM      7  C6  UNL d   1       0.680  -0.205  -2.157  0.00  0.00     0.077 C 
ATOM      8  C7  UNL d   1      -1.025   0.287  -0.379  0.00  0.00    -0.001 A 
ENDROOT
TORSDOF 0
ENDMDL
