MODEL 1
REMARK minimizedAffinity -5.93601751
REMARK minimizedRMSD -1
REMARK  0 active torsions:
REMARK  status: ('A' for Active; 'I' for Inactive)
ROOT
ATOM      1  C   UNL d   1      -1.544  -0.562   3.650  0.00  0.00     0.077 C 
ATOM      2  C1  UNL d   1      -0.960  -0.300   2.294  0.00  0.00    -0.074 A 
ATOM      3  C2  UNL d   1      -1.765  -0.305   1.150  0.00  0.00    -0.005 A 
ATOM      4  C3  UNL d   1      -1.209  -0.049  -0.103  0.00  0.00     0.006 A 
ATOM      5  C4  UNL d   1       0.156   0.214  -0.226  0.00  0.00    -0.005 A 
ATOM      6  C5  UNL d   1       0.977   0.224   0.906  0.00  0.00    -0.074 A 
ATOM      7  C6  UNL d   1       2.444   0.515   0.793  0.00  0.00     0.077 C 
ATOM      8  C7  UNL d   1       0.409  -0.027   2.163  0.00  0.00    -0.001 A 
ENDROOT
TORSDOF 0
ENDMDL
