MODEL 1
REMARK minimizedAffinity -6.25069046
REMARK minimizedRMSD -1
REMARK  0 active torsions:
REMARK  status: ('A' for Active; 'I' for Inactive)
ROOT
ATOM      1  C   UNL d   1      -3.384  -0.104   2.276  0.00  0.00     0.077 C 
ATOM      2  C1  UNL d   1      -1.952   0.128   1.896  0.00  0.00    -0.074 A 
ATOM      3  C2  UNL d   1      -0.947   0.165   2.868  0.00  0.00    -0.005 A 
ATOM      4  C3  UNL d   1       0.382   0.373   2.498  0.00  0.00     0.006 A 
ATOM      5  C4  UNL d   1       0.719   0.545   1.155  0.00  0.00    -0.005 A 
ATOM      6  C5  UNL d   1      -0.272   0.510   0.169  0.00  0.00    -0.074 A 
ATOM      7  C6  UNL d   1       0.074   0.683  -1.280  0.00  0.00     0.077 C 
ATOM      8  C7  UNL d   1      -1.605   0.294   0.548  0.00  0.00    -0.001 A 
ENDROOT
TORSDOF 0
ENDMDL
