MODEL 1
REMARK minimizedAffinity -6.24686575
REMARK minimizedRMSD -1
REMARK  0 active torsions:
REMARK  status: ('A' for Active; 'I' for Inactive)
ROOT
ATOM      1  C   UNL d   1      -2.372  -0.908   4.580  0.00  0.00     0.077 C 
ATOM      2  C1  UNL d   1      -2.271  -0.433   3.161  0.00  0.00    -0.074 A 
ATOM      3  C2  UNL d   1      -3.351   0.197   2.534  0.00  0.00    -0.005 A 
ATOM      4  C3  UNL d   1      -3.238   0.642   1.217  0.00  0.00     0.006 A 
ATOM      5  C4  UNL d   1      -2.046   0.462   0.515  0.00  0.00    -0.005 A 
ATOM      6  C5  UNL d   1      -0.955  -0.165   1.125  0.00  0.00    -0.074 A 
ATOM      7  C6  UNL d   1       0.337  -0.357   0.387  0.00  0.00     0.077 C 
ATOM      8  C7  UNL d   1      -1.074  -0.603   2.451  0.00  0.00    -0.001 A 
ENDROOT
TORSDOF 0
ENDMDL
