MODEL 1
REMARK minimizedAffinity -5.18494463
REMARK minimizedRMSD -1
REMARK  0 active torsions:
REMARK  status: ('A' for Active; 'I' for Inactive)
ROOT
ATOM      1  C   UNL d   1       0.310   0.163  -1.337  0.00  0.00     0.077 C 
ATOM      2  C1  UNL d   1      -0.029   0.149   0.124  0.00  0.00    -0.074 A 
ATOM      3  C2  UNL d   1       0.961   0.337   1.094  0.00  0.00    -0.005 A 
ATOM      4  C3  UNL d   1       0.628   0.331   2.449  0.00  0.00     0.006 A 
ATOM      5  C4  UNL d   1      -0.696   0.138   2.847  0.00  0.00    -0.005 A 
ATOM      6  C5  UNL d   1      -1.699  -0.050   1.891  0.00  0.00    -0.074 A 
ATOM      7  C6  UNL d   1      -3.128  -0.249   2.301  0.00  0.00     0.077 C 
ATOM      8  C7  UNL d   1      -1.358  -0.036   0.531  0.00  0.00    -0.001 A 
ENDROOT
TORSDOF 0
ENDMDL
