MODEL 1
REMARK minimizedAffinity -3.25045156
REMARK minimizedRMSD -1
REMARK  0 active torsions:
REMARK  status: ('A' for Active; 'I' for Inactive)
ROOT
ATOM      1  C1  BNZ d   1      -1.122   0.914  -0.449  0.00  0.00     0.000 A 
ATOM      2  C2  BNZ d   1      -0.048   0.064  -0.468  0.00  0.00     0.000 A 
ATOM      3  C3  BNZ d   1       0.671  -0.181   0.669  0.00  0.00     0.000 A 
ATOM      4  C4  BNZ d   1       0.339   0.453   1.812  0.00  0.00     0.000 A 
ATOM      5  C5  BNZ d   1      -0.735   1.320   1.845  0.00  0.00     0.000 A 
ATOM      6  C6  BNZ d   1      -1.479   1.534   0.708  0.00  0.00     0.000 A 
ENDROOT
TORSDOF 0
ENDMDL
