MODEL 1
REMARK minimizedAffinity -4.59478235
REMARK minimizedRMSD -1
REMARK  0 active torsions:
REMARK  status: ('A' for Active; 'I' for Inactive)
ROOT
ATOM      1  C1  BNZ d   1      -0.101  -0.234  -1.108  0.00  0.00     0.000 A 
ATOM      2  C2  BNZ d   1      -0.862   0.894  -0.961  0.00  0.00     0.000 A 
ATOM      3  C3  BNZ d   1      -1.024   1.474   0.267  0.00  0.00     0.000 A 
ATOM      4  C4  BNZ d   1      -0.458   0.903   1.349  0.00  0.00     0.000 A 
ATOM      5  C5  BNZ d   1       0.305  -0.241   1.218  0.00  0.00     0.000 A 
ATOM      6  C6  BNZ d   1       0.498  -0.799  -0.024  0.00  0.00     0.000 A 
ENDROOT
TORSDOF 0
ENDMDL
