MODEL 1
REMARK minimizedAffinity -3.99666452
REMARK minimizedRMSD -1
REMARK  0 active torsions:
REMARK  status: ('A' for Active; 'I' for Inactive)
ROOT
ATOM      1  C1  BNZ d   1       0.195   0.343   1.846  0.00  0.00     0.000 A 
ATOM      2  C2  BNZ d   1      -0.134   0.033   0.553  0.00  0.00     0.000 A 
ATOM      3  C3  BNZ d   1      -0.866   0.900  -0.210  0.00  0.00     0.000 A 
ATOM      4  C4  BNZ d   1      -1.301   2.056   0.332  0.00  0.00     0.000 A 
ATOM      5  C5  BNZ d   1      -0.985   2.379   1.637  0.00  0.00     0.000 A 
ATOM      6  C6  BNZ d   1      -0.215   1.521   2.390  0.00  0.00     0.000 A 
ENDROOT
TORSDOF 0
ENDMDL
