MODEL 1
REMARK minimizedAffinity -3.02616453
REMARK minimizedRMSD -1
REMARK  0 active torsions:
REMARK  status: ('A' for Active; 'I' for Inactive)
ROOT
ATOM      1  C1  BNZ d   1       0.353  -0.635   0.082  0.00  0.00     0.000 A 
ATOM      2  C2  BNZ d   1      -0.129   0.038   1.173  0.00  0.00     0.000 A 
ATOM      3  C3  BNZ d   1      -0.867   1.178   1.021  0.00  0.00     0.000 A 
ATOM      4  C4  BNZ d   1      -1.088   1.665  -0.217  0.00  0.00     0.000 A 
ATOM      5  C5  BNZ d   1      -0.601   1.002  -1.326  0.00  0.00     0.000 A 
ATOM      6  C6  BNZ d   1       0.108  -0.166  -1.171  0.00  0.00     0.000 A 
ENDROOT
TORSDOF 0
ENDMDL
