MODEL 1
REMARK minimizedAffinity -5.23748589
REMARK minimizedRMSD -1
REMARK  0 active torsions:
REMARK  status: ('A' for Active; 'I' for Inactive)
ROOT
ATOM      1  C1  BNZ d   1      -0.476   1.104  -0.264  0.00  0.00     0.000 A 
ATOM      2  C2  BNZ d   1      -0.650   2.276  -0.950  0.00  0.00     0.000 A 
ATOM      3  C3  BNZ d   1      -0.977   3.429  -0.293  0.00  0.00     0.000 A 
ATOM      4  C4  BNZ d   1      -1.168   3.401   1.042  0.00  0.00     0.000 A 
ATOM      5  C5  BNZ d   1      -1.005   2.225   1.746  0.00  0.00     0.000 A 
ATOM      6  C6  BNZ d   1      -0.638   1.074   1.087  0.00  0.00     0.000 A 
ENDROOT
TORSDOF 0
ENDMDL
