MODEL 1
REMARK minimizedAffinity -4.36090136
REMARK minimizedRMSD -1
REMARK  0 active torsions:
REMARK  status: ('A' for Active; 'I' for Inactive)
ROOT
ATOM      1  C1  BNZ d   1       0.354   0.371   1.290  0.00  0.00     0.000 A 
ATOM      2  C2  BNZ d   1      -0.359   1.426   1.793  0.00  0.00     0.000 A 
ATOM      3  C3  BNZ d   1      -1.192   2.155   0.991  0.00  0.00     0.000 A 
ATOM      4  C4  BNZ d   1      -1.280   1.853  -0.321  0.00  0.00     0.000 A 
ATOM      5  C5  BNZ d   1      -0.560   0.798  -0.846  0.00  0.00     0.000 A 
ATOM      6  C6  BNZ d   1       0.247   0.043  -0.026  0.00  0.00     0.000 A 
ENDROOT
TORSDOF 0
ENDMDL
