MODEL 1
REMARK minimizedAffinity -4.29684687
REMARK minimizedRMSD -1
REMARK  0 active torsions:
REMARK  status: ('A' for Active; 'I' for Inactive)
ROOT
ATOM      1  C1  BNZ d   1      -0.328   0.130  -0.434  0.00  0.00     0.000 A 
ATOM      2  C2  BNZ d   1      -1.005   1.284  -0.143  0.00  0.00     0.000 A 
ATOM      3  C3  BNZ d   1      -1.019   1.786   1.128  0.00  0.00     0.000 A 
ATOM      4  C4  BNZ d   1      -0.390   1.113   2.113  0.00  0.00     0.000 A 
ATOM      5  C5  BNZ d   1       0.289  -0.057   1.838  0.00  0.00     0.000 A 
ATOM      6  C6  BNZ d   1       0.333  -0.539   0.550  0.00  0.00     0.000 A 
ENDROOT
TORSDOF 0
ENDMDL
