MODEL 1
REMARK minimizedAffinity -3.46338773
REMARK minimizedRMSD -1
REMARK  0 active torsions:
REMARK  status: ('A' for Active; 'I' for Inactive)
ROOT
ATOM      1  C1  BNZ d   1      -0.149  -0.989  -0.516  0.00  0.00     0.000 A 
ATOM      2  C2  BNZ d   1      -1.247  -1.805  -0.577  0.00  0.00     0.000 A 
ATOM      3  C3  BNZ d   1      -1.236  -2.938  -1.341  0.00  0.00     0.000 A 
ATOM      4  C4  BNZ d   1      -0.142  -3.233  -2.073  0.00  0.00     0.000 A 
ATOM      5  C5  BNZ d   1       0.970  -2.416  -2.029  0.00  0.00     0.000 A 
ATOM      6  C6  BNZ d   1       0.968  -1.296  -1.229  0.00  0.00     0.000 A 
ENDROOT
TORSDOF 0
ENDMDL
