MODEL 1
REMARK minimizedAffinity -3.69802952
REMARK minimizedRMSD -1
REMARK  0 active torsions:
REMARK  status: ('A' for Active; 'I' for Inactive)
ROOT
ATOM      1  C1  BNZ d   1      -1.649   0.938   0.352  0.00  0.00     0.000 A 
ATOM      2  C2  BNZ d   1      -0.678  -0.027   0.318  0.00  0.00     0.000 A 
ATOM      3  C3  BNZ d   1       0.400   0.034   1.157  0.00  0.00     0.000 A 
ATOM      4  C4  BNZ d   1       0.525   1.079   2.000  0.00  0.00     0.000 A 
ATOM      5  C5  BNZ d   1      -0.441   2.064   2.040  0.00  0.00     0.000 A 
ATOM      6  C6  BNZ d   1      -1.544   1.979   1.221  0.00  0.00     0.000 A 
ENDROOT
TORSDOF 0
ENDMDL
