MODEL 1
REMARK minimizedAffinity -1.3839668
REMARK minimizedRMSD -1
REMARK  0 active torsions:
REMARK  status: ('A' for Active; 'I' for Inactive)
ROOT
ATOM      1  C1  BNZ d   1       0.656  -0.557  -0.262  0.00  0.00     0.000 A 
ATOM      2  C2  BNZ d   1       0.674  -0.243   1.071  0.00  0.00     0.000 A 
ATOM      3  C3  BNZ d   1       0.268   0.988   1.506  0.00  0.00     0.000 A 
ATOM      4  C4  BNZ d   1      -0.118   1.915   0.606  0.00  0.00     0.000 A 
ATOM      5  C5  BNZ d   1      -0.133   1.617  -0.742  0.00  0.00     0.000 A 
ATOM      6  C6  BNZ d   1       0.240   0.364  -1.173  0.00  0.00     0.000 A 
ENDROOT
TORSDOF 0
ENDMDL
