MODEL 1
REMARK minimizedAffinity 14.5905418
REMARK minimizedRMSD -1
REMARK  0 active torsions:
REMARK  status: ('A' for Active; 'I' for Inactive)
ROOT
ATOM      1  O1  BZF d   1       3.750   1.210   1.869  0.00  0.00    -0.204 OA
ATOM      2  C2  BZF d   1       2.849   0.762   0.923  0.00  0.00     0.174 A 
ATOM      3  C3  BZF d   1       2.926   1.503  -0.200  0.00  0.00    -0.012 A 
ATOM      4  C3A BZF d   1       4.004   2.417   0.025  0.00  0.00    -0.107 A 
ATOM      5  C4  BZF d   1       4.576   3.400  -0.731  0.00  0.00     0.055 A 
ATOM      6  C5  BZF d   1       5.564   4.160  -0.189  0.00  0.00    -0.016 A 
ATOM      7  C6  BZF d   1       6.000   3.969   1.105  0.00  0.00     0.022 A 
ATOM      8  C7  BZF d   1       5.466   3.003   1.893  0.00  0.00     0.029 A 
ATOM      9  C7A BZF d   1       4.490   2.212   1.337  0.00  0.00     0.058 A 
ENDROOT
TORSDOF 0
ENDMDL
