MODEL 1
REMARK minimizedAffinity 15.8258619
REMARK minimizedRMSD -1
REMARK  0 active torsions:
REMARK  status: ('A' for Active; 'I' for Inactive)
ROOT
ATOM      1  O1  BZF d   1       1.534   1.045  -1.846  0.00  0.00    -0.204 OA
ATOM      2  C2  BZF d   1       0.752   2.184  -1.868  0.00  0.00     0.174 A 
ATOM      3  C3  BZF d   1       1.041   2.983  -0.820  0.00  0.00    -0.012 A 
ATOM      4  C3A BZF d   1       2.133   2.345  -0.150  0.00  0.00    -0.107 A 
ATOM      5  C4  BZF d   1       2.872   2.663   0.952  0.00  0.00     0.055 A 
ATOM      6  C5  BZF d   1       3.820   1.791   1.386  0.00  0.00    -0.016 A 
ATOM      7  C6  BZF d   1       4.050   0.591   0.746  0.00  0.00     0.022 A 
ATOM      8  C7  BZF d   1       3.344   0.233  -0.355  0.00  0.00     0.029 A 
ATOM      9  C7A BZF d   1       2.409   1.128  -0.815  0.00  0.00     0.058 A 
ENDROOT
TORSDOF 0
ENDMDL
