MODEL 1
REMARK minimizedAffinity 13.1547194
REMARK minimizedRMSD -1
REMARK  0 active torsions:
REMARK  status: ('A' for Active; 'I' for Inactive)
ROOT
ATOM      1  O1  BZF d   1       3.999   5.147  -0.895  0.00  0.00    -0.204 OA
ATOM      2  C2  BZF d   1       5.032   5.990  -0.534  0.00  0.00     0.174 A 
ATOM      3  C3  BZF d   1       6.000   5.991  -1.473  0.00  0.00    -0.012 A 
ATOM      4  C3A BZF d   1       5.501   5.163  -2.528  0.00  0.00    -0.107 A 
ATOM      5  C4  BZF d   1       6.000   4.788  -3.743  0.00  0.00     0.055 A 
ATOM      6  C5  BZF d   1       5.294   3.911  -4.504  0.00  0.00    -0.016 A 
ATOM      7  C6  BZF d   1       4.091   3.385  -4.080  0.00  0.00     0.022 A 
ATOM      8  C7  BZF d   1       3.554   3.731  -2.885  0.00  0.00     0.029 A 
ATOM      9  C7A BZF d   1       4.249   4.642  -2.127  0.00  0.00     0.058 A 
ENDROOT
TORSDOF 0
ENDMDL
