MODEL 1
REMARK minimizedAffinity 10.3090725
REMARK minimizedRMSD -1
REMARK  0 active torsions:
REMARK  status: ('A' for Active; 'I' for Inactive)
ROOT
ATOM      1  O1  BZF d   1      -0.490   5.256  -5.366  0.00  0.00    -0.204 OA
ATOM      2  C2  BZF d   1      -1.806   5.047  -5.731  0.00  0.00     0.174 A 
ATOM      3  C3  BZF d   1      -2.618   5.118  -4.657  0.00  0.00    -0.012 A 
ATOM      4  C3A BZF d   1      -1.767   5.478  -3.565  0.00  0.00    -0.107 A 
ATOM      5  C4  BZF d   1      -1.990   5.715  -2.238  0.00  0.00     0.055 A 
ATOM      6  C5  BZF d   1      -0.931   5.974  -1.427  0.00  0.00    -0.016 A 
ATOM      7  C6  BZF d   1       0.362   6.000  -1.906  0.00  0.00     0.022 A 
ATOM      8  C7  BZF d   1       0.633   5.776  -3.215  0.00  0.00     0.029 A 
ATOM      9  C7A BZF d   1      -0.438   5.547  -4.044  0.00  0.00     0.058 A 
ENDROOT
TORSDOF 0
ENDMDL
