MODEL 1
REMARK minimizedAffinity 12.2866211
REMARK minimizedRMSD -1
REMARK  0 active torsions:
REMARK  status: ('A' for Active; 'I' for Inactive)
ROOT
ATOM      1  O1  BZF d   1      -2.240   5.625  -5.144  0.00  0.00    -0.204 OA
ATOM      2  C2  BZF d   1      -1.155   5.639  -6.000  0.00  0.00     0.174 A 
ATOM      3  C3  BZF d   1      -0.000   5.698  -5.307  0.00  0.00    -0.012 A 
ATOM      4  C3A BZF d   1      -0.383   5.630  -3.930  0.00  0.00    -0.107 A 
ATOM      5  C4  BZF d   1       0.319   5.628  -2.759  0.00  0.00     0.055 A 
ATOM      6  C5  BZF d   1      -0.360   5.625  -1.582  0.00  0.00    -0.016 A 
ATOM      7  C6  BZF d   1      -1.738   5.629  -1.538  0.00  0.00     0.022 A 
ATOM      8  C7  BZF d   1      -2.479   5.625  -2.674  0.00  0.00     0.029 A 
ATOM      9  C7A BZF d   1      -1.795   5.595  -3.865  0.00  0.00     0.058 A 
ENDROOT
TORSDOF 0
ENDMDL
