MODEL 1
REMARK minimizedAffinity 15.023037
REMARK minimizedRMSD -1
REMARK  0 active torsions:
REMARK  status: ('A' for Active; 'I' for Inactive)
ROOT
ATOM      1  O1  BZF d   1       2.650   2.707  -3.990  0.00  0.00    -0.204 OA
ATOM      2  C2  BZF d   1       1.890   2.821  -2.843  0.00  0.00     0.174 A 
ATOM      3  C3  BZF d   1       2.580   3.451  -1.871  0.00  0.00    -0.012 A 
ATOM      4  C3A BZF d   1       3.819   3.832  -2.477  0.00  0.00    -0.107 A 
ATOM      5  C4  BZF d   1       4.919   4.504  -2.024  0.00  0.00     0.055 A 
ATOM      6  C5  BZF d   1       5.991   4.647  -2.847  0.00  0.00    -0.016 A 
ATOM      7  C6  BZF d   1       6.000   4.128  -4.125  0.00  0.00     0.022 A 
ATOM      8  C7  BZF d   1       4.931   3.458  -4.620  0.00  0.00     0.029 A 
ATOM      9  C7A BZF d   1       3.833   3.341  -3.803  0.00  0.00     0.058 A 
ENDROOT
TORSDOF 0
ENDMDL
