MODEL 1
REMARK minimizedAffinity 21.1179428
REMARK minimizedRMSD -1
REMARK  0 active torsions:
REMARK  status: ('A' for Active; 'I' for Inactive)
ROOT
ATOM      1  O1  BZF d   1      -2.876   5.502  -5.057  0.00  0.00    -0.204 OA
ATOM      2  C2  BZF d   1      -1.547   5.490  -5.433  0.00  0.00     0.174 A 
ATOM      3  C3  BZF d   1      -0.743   5.510  -4.351  0.00  0.00    -0.012 A 
ATOM      4  C3A BZF d   1      -1.624   5.442  -3.226  0.00  0.00    -0.107 A 
ATOM      5  C4  BZF d   1      -1.422   5.411  -1.876  0.00  0.00     0.055 A 
ATOM      6  C5  BZF d   1      -2.499   5.418  -1.047  0.00  0.00    -0.016 A 
ATOM      7  C6  BZF d   1      -3.789   5.462  -1.533  0.00  0.00     0.022 A 
ATOM      8  C7  BZF d   1      -4.039   5.489  -2.864  0.00  0.00     0.029 A 
ATOM      9  C7A BZF d   1      -2.954   5.448  -3.705  0.00  0.00     0.058 A 
ENDROOT
TORSDOF 0
ENDMDL
