MODEL 1
REMARK minimizedAffinity 6.53821278
REMARK minimizedRMSD -1
REMARK  0 active torsions:
REMARK  status: ('A' for Active; 'I' for Inactive)
ROOT
ATOM      1  O1  BZF d   1      -5.580  -1.689   2.427  0.00  0.00    -0.204 OA
ATOM      2  C2  BZF d   1      -5.294  -2.484   3.521  0.00  0.00     0.174 A 
ATOM      3  C3  BZF d   1      -3.975  -2.455   3.801  0.00  0.00    -0.012 A 
ATOM      4  C3A BZF d   1      -3.415  -1.516   2.879  0.00  0.00    -0.107 A 
ATOM      5  C4  BZF d   1      -2.150  -1.044   2.671  0.00  0.00     0.055 A 
ATOM      6  C5  BZF d   1      -1.925  -0.187   1.641  0.00  0.00    -0.016 A 
ATOM      7  C6  BZF d   1      -2.940   0.215   0.797  0.00  0.00     0.022 A 
ATOM      8  C7  BZF d   1      -4.211  -0.222   0.966  0.00  0.00     0.029 A 
ATOM      9  C7A BZF d   1      -4.448  -1.063   2.026  0.00  0.00     0.058 A 
ENDROOT
TORSDOF 0
ENDMDL
