MODEL 1
REMARK minimizedAffinity 12.7039204
REMARK minimizedRMSD -1
REMARK  0 active torsions:
REMARK  status: ('A' for Active; 'I' for Inactive)
ROOT
ATOM      1  O1  BZF d   1       2.900   1.579  -1.203  0.00  0.00    -0.204 OA
ATOM      2  C2  BZF d   1       2.060   1.338  -0.132  0.00  0.00     0.174 A 
ATOM      3  C3  BZF d   1       0.873   1.953  -0.307  0.00  0.00    -0.012 A 
ATOM      4  C3A BZF d   1       0.943   2.543  -1.609  0.00  0.00    -0.107 A 
ATOM      5  C4  BZF d   1       0.066   3.276  -2.356  0.00  0.00     0.055 A 
ATOM      6  C5  BZF d   1       0.470   3.764  -3.558  0.00  0.00    -0.016 A 
ATOM      7  C6  BZF d   1       1.744   3.545  -4.040  0.00  0.00     0.022 A 
ATOM      8  C7  BZF d   1       2.648   2.820  -3.337  0.00  0.00     0.029 A 
ATOM      9  C7A BZF d   1       2.232   2.297  -2.137  0.00  0.00     0.058 A 
ENDROOT
TORSDOF 0
ENDMDL
