MODEL 1
REMARK minimizedAffinity 17.6798763
REMARK minimizedRMSD -1
REMARK  0 active torsions:
REMARK  status: ('A' for Active; 'I' for Inactive)
ROOT
ATOM      1  O1  BZF d   1      -2.100  -0.538   5.153  0.00  0.00    -0.204 OA
ATOM      2  C2  BZF d   1      -0.969   0.093   4.671  0.00  0.00     0.174 A 
ATOM      3  C3  BZF d   1      -0.787  -0.184   3.364  0.00  0.00    -0.012 A 
ATOM      4  C3A BZF d   1      -1.922  -0.967   2.983  0.00  0.00    -0.107 A 
ATOM      5  C4  BZF d   1      -2.320  -1.531   1.805  0.00  0.00     0.055 A 
ATOM      6  C5  BZF d   1      -3.443  -2.296   1.786  0.00  0.00    -0.016 A 
ATOM      7  C6  BZF d   1      -4.188  -2.521   2.926  0.00  0.00     0.022 A 
ATOM      8  C7  BZF d   1      -3.835  -1.978   4.116  0.00  0.00     0.029 A 
ATOM      9  C7A BZF d   1      -2.719  -1.178   4.132  0.00  0.00     0.058 A 
ENDROOT
TORSDOF 0
ENDMDL
