MODEL 1
REMARK minimizedAffinity 9.98992443
REMARK minimizedRMSD -1
REMARK  0 active torsions:
REMARK  status: ('A' for Active; 'I' for Inactive)
ROOT
ATOM      1  O1  BZF d   1       1.749   2.460  -3.038  0.00  0.00    -0.204 OA
ATOM      2  C2  BZF d   1       2.637   3.313  -3.666  0.00  0.00     0.174 A 
ATOM      3  C3  BZF d   1       3.695   3.571  -2.871  0.00  0.00    -0.012 A 
ATOM      4  C3A BZF d   1       3.500   2.760  -1.708  0.00  0.00    -0.107 A 
ATOM      5  C4  BZF d   1       4.223   2.567  -0.566  0.00  0.00     0.055 A 
ATOM      6  C5  BZF d   1       3.718   1.764   0.407  0.00  0.00    -0.016 A 
ATOM      7  C6  BZF d   1       2.494   1.143   0.273  0.00  0.00     0.022 A 
ATOM      8  C7  BZF d   1       1.743   1.300  -0.844  0.00  0.00     0.029 A 
ATOM      9  C7A BZF d   1       2.265   2.085  -1.843  0.00  0.00     0.058 A 
ENDROOT
TORSDOF 0
ENDMDL
