MODEL 1
REMARK minimizedAffinity -1.04396689
REMARK minimizedRMSD -1
REMARK  0 active torsions:
REMARK  status: ('A' for Active; 'I' for Inactive)
ROOT
ATOM      1  O1  BZF d   1      -1.424   0.227   3.215  0.00  0.00    -0.204 OA
ATOM      2  C2  BZF d   1      -1.029  -0.629   2.205  0.00  0.00     0.174 A 
ATOM      3  C3  BZF d   1      -2.097  -1.091   1.524  0.00  0.00    -0.012 A 
ATOM      4  C3A BZF d   1      -3.225  -0.414   2.087  0.00  0.00    -0.107 A 
ATOM      5  C4  BZF d   1      -4.564  -0.438   1.822  0.00  0.00     0.055 A 
ATOM      6  C5  BZF d   1      -5.406   0.287   2.604  0.00  0.00    -0.016 A 
ATOM      7  C6  BZF d   1      -4.944   1.043   3.661  0.00  0.00     0.022 A 
ATOM      8  C7  BZF d   1      -3.623   1.103   3.960  0.00  0.00     0.029 A 
ATOM      9  C7A BZF d   1      -2.767   0.397   3.152  0.00  0.00     0.058 A 
ENDROOT
TORSDOF 0
ENDMDL
