MODEL 1
REMARK minimizedAffinity 17.0855427
REMARK minimizedRMSD -1
REMARK  0 active torsions:
REMARK  status: ('A' for Active; 'I' for Inactive)
ROOT
ATOM      1  O1  BZF d   1      -5.128   1.602   1.378  0.00  0.00    -0.204 OA
ATOM      2  C2  BZF d   1      -5.687   0.713   0.481  0.00  0.00     0.174 A 
ATOM      3  C3  BZF d   1      -4.971  -0.429   0.430  0.00  0.00    -0.012 A 
ATOM      4  C3A BZF d   1      -3.949  -0.277   1.420  0.00  0.00    -0.107 A 
ATOM      5  C4  BZF d   1      -2.934  -1.081   1.853  0.00  0.00     0.055 A 
ATOM      6  C5  BZF d   1      -2.067  -0.606   2.785  0.00  0.00    -0.016 A 
ATOM      7  C6  BZF d   1      -2.180   0.668   3.300  0.00  0.00     0.022 A 
ATOM      8  C7  BZF d   1      -3.173   1.502   2.904  0.00  0.00     0.029 A 
ATOM      9  C7A BZF d   1      -4.071   1.013   1.987  0.00  0.00     0.058 A 
ENDROOT
TORSDOF 0
ENDMDL
