MODEL 1
REMARK minimizedAffinity 13.3806667
REMARK minimizedRMSD -1
REMARK  0 active torsions:
REMARK  status: ('A' for Active; 'I' for Inactive)
ROOT
ATOM      1  O1  BZF d   1      -2.560   0.749   4.397  0.00  0.00    -0.204 OA
ATOM      2  C2  BZF d   1      -1.783   0.142   3.430  0.00  0.00     0.174 A 
ATOM      3  C3  BZF d   1      -2.492  -0.055   2.300  0.00  0.00    -0.012 A 
ATOM      4  C3A BZF d   1      -3.768   0.545   2.548  0.00  0.00    -0.107 A 
ATOM      5  C4  BZF d   1      -4.899   0.688   1.797  0.00  0.00     0.055 A 
ATOM      6  C5  BZF d   1      -5.997   1.259   2.359  0.00  0.00    -0.016 A 
ATOM      7  C6  BZF d   1      -6.000   1.693   3.668  0.00  0.00     0.022 A 
ATOM      8  C7  BZF d   1      -4.899   1.577   4.451  0.00  0.00     0.029 A 
ATOM      9  C7A BZF d   1      -3.778   1.030   3.876  0.00  0.00     0.058 A 
ENDROOT
TORSDOF 0
ENDMDL
