MODEL 1
REMARK minimizedAffinity 11.4918461
REMARK minimizedRMSD -1
REMARK  0 active torsions:
REMARK  status: ('A' for Active; 'I' for Inactive)
ROOT
ATOM      1  O1  BZF d   1       1.854   2.992  -3.707  0.00  0.00    -0.204 OA
ATOM      2  C2  BZF d   1       1.182   3.452  -2.592  0.00  0.00     0.174 A 
ATOM      3  C3  BZF d   1       1.961   4.288  -1.875  0.00  0.00    -0.012 A 
ATOM      4  C3A BZF d   1       3.164   4.427  -2.637  0.00  0.00    -0.107 A 
ATOM      5  C4  BZF d   1       4.314   5.141  -2.454  0.00  0.00     0.055 A 
ATOM      6  C5  BZF d   1       5.327   5.001  -3.348  0.00  0.00    -0.016 A 
ATOM      7  C6  BZF d   1       5.228   4.154  -4.432  0.00  0.00     0.022 A 
ATOM      8  C7  BZF d   1       4.105   3.428  -4.658  0.00  0.00     0.029 A 
ATOM      9  C7A BZF d   1       3.067   3.593  -3.774  0.00  0.00     0.058 A 
ENDROOT
TORSDOF 0
ENDMDL
