MODEL 1
REMARK minimizedAffinity 7.86519909
REMARK minimizedRMSD -1
REMARK  0 active torsions:
REMARK  status: ('A' for Active; 'I' for Inactive)
ROOT
ATOM      1  O1  BZF d   1       3.364   1.684   1.849  0.00  0.00    -0.204 OA
ATOM      2  C2  BZF d   1       2.754   1.182   0.716  0.00  0.00     0.174 A 
ATOM      3  C3  BZF d   1       3.242   1.775  -0.393  0.00  0.00    -0.012 A 
ATOM      4  C3A BZF d   1       4.284   2.639   0.070  0.00  0.00    -0.107 A 
ATOM      5  C4  BZF d   1       5.153   3.484  -0.560  0.00  0.00     0.055 A 
ATOM      6  C5  BZF d   1       5.999   4.239   0.188  0.00  0.00    -0.016 A 
ATOM      7  C6  BZF d   1       6.000   4.180   1.567  0.00  0.00     0.022 A 
ATOM      8  C7  BZF d   1       5.160   3.354   2.236  0.00  0.00     0.029 A 
ATOM      9  C7A BZF d   1       4.326   2.564   1.482  0.00  0.00     0.058 A 
ENDROOT
TORSDOF 0
ENDMDL
