MODEL 1
REMARK minimizedAffinity 14.9928923
REMARK minimizedRMSD -1
REMARK  0 active torsions:
REMARK  status: ('A' for Active; 'I' for Inactive)
ROOT
ATOM      1  O1  BZF d   1      -0.192   4.779  -1.802  0.00  0.00    -0.204 OA
ATOM      2  C2  BZF d   1       0.307   6.000  -2.213  0.00  0.00     0.174 A 
ATOM      3  C3  BZF d   1       1.550   5.864  -2.718  0.00  0.00    -0.012 A 
ATOM      4  C3A BZF d   1       1.811   4.457  -2.701  0.00  0.00    -0.107 A 
ATOM      5  C4  BZF d   1       2.875   3.695  -3.092  0.00  0.00     0.055 A 
ATOM      6  C5  BZF d   1       2.842   2.354  -2.873  0.00  0.00    -0.016 A 
ATOM      7  C6  BZF d   1       1.766   1.744  -2.262  0.00  0.00     0.022 A 
ATOM      8  C7  BZF d   1       0.686   2.458  -1.862  0.00  0.00     0.029 A 
ATOM      9  C7A BZF d   1       0.702   3.808  -2.111  0.00  0.00     0.058 A 
ENDROOT
TORSDOF 0
ENDMDL
