MODEL 1
REMARK minimizedAffinity 15.8528719
REMARK minimizedRMSD -1
REMARK  0 active torsions:
REMARK  status: ('A' for Active; 'I' for Inactive)
ROOT
ATOM      1  O1  BZF d   1       2.025   2.616   1.166  0.00  0.00    -0.204 OA
ATOM      2  C2  BZF d   1       1.884   1.535   0.317  0.00  0.00     0.174 A 
ATOM      3  C3  BZF d   1       3.068   1.206  -0.237  0.00  0.00    -0.012 A 
ATOM      4  C3A BZF d   1       4.024   2.080   0.369  0.00  0.00    -0.107 A 
ATOM      5  C4  BZF d   1       5.376   2.228   0.240  0.00  0.00     0.055 A 
ATOM      6  C5  BZF d   1       5.999   3.225   0.921  0.00  0.00    -0.016 A 
ATOM      7  C6  BZF d   1       5.302   4.096   1.733  0.00  0.00     0.022 A 
ATOM      8  C7  BZF d   1       3.961   3.986   1.897  0.00  0.00     0.029 A 
ATOM      9  C7A BZF d   1       3.334   2.958   1.236  0.00  0.00     0.058 A 
ENDROOT
TORSDOF 0
ENDMDL
