MODEL 1
REMARK minimizedAffinity -6.32201481
REMARK minimizedRMSD -1
REMARK  0 active torsions:
REMARK  status: ('A' for Active; 'I' for Inactive)
ROOT
ATOM      1  O1  BZF d   1      -0.092   0.379   0.112  0.00  0.00    -0.204 OA
ATOM      2  C2  BZF d   1      -0.780  -0.664   0.700  0.00  0.00     0.174 A 
ATOM      3  C3  BZF d   1      -0.318  -1.851   0.258  0.00  0.00    -0.012 A 
ATOM      4  C3A BZF d   1       0.787  -1.532  -0.594  0.00  0.00    -0.107 A 
ATOM      5  C4  BZF d   1       1.664  -2.288  -1.317  0.00  0.00     0.055 A 
ATOM      6  C5  BZF d   1       2.582  -1.664  -2.102  0.00  0.00    -0.016 A 
ATOM      7  C6  BZF d   1       2.646  -0.289  -2.192  0.00  0.00     0.022 A 
ATOM      8  C7  BZF d   1       1.800   0.503  -1.490  0.00  0.00     0.029 A 
ATOM      9  C7A BZF d   1       0.893  -0.124  -0.670  0.00  0.00     0.058 A 
ENDROOT
TORSDOF 0
ENDMDL
