MODEL 1
REMARK minimizedAffinity -3.32321382
REMARK minimizedRMSD -1
REMARK  0 active torsions:
REMARK  status: ('A' for Active; 'I' for Inactive)
ROOT
ATOM      1  O1  BZF d   1       1.079  -3.072  -0.851  0.00  0.00    -0.204 OA
ATOM      2  C2  BZF d   1       2.243  -3.364  -1.535  0.00  0.00     0.174 A 
ATOM      3  C3  BZF d   1       2.857  -2.233  -1.938  0.00  0.00    -0.012 A 
ATOM      4  C3A BZF d   1       2.074  -1.166  -1.397  0.00  0.00    -0.107 A 
ATOM      5  C4  BZF d   1       2.184   0.195  -1.440  0.00  0.00     0.055 A 
ATOM      6  C5  BZF d   1       1.212   0.955  -0.871  0.00  0.00    -0.016 A 
ATOM      7  C6  BZF d   1       0.114   0.388  -0.256  0.00  0.00     0.022 A 
ATOM      8  C7  BZF d   1      -0.037  -0.957  -0.185  0.00  0.00     0.029 A 
ATOM      9  C7A BZF d   1       0.961  -1.728  -0.730  0.00  0.00     0.058 A 
ENDROOT
TORSDOF 0
ENDMDL
