MODEL 1
REMARK minimizedAffinity -5.49582911
REMARK minimizedRMSD -1
REMARK  0 active torsions:
REMARK  status: ('A' for Active; 'I' for Inactive)
ROOT
ATOM      1  O1  BZF d   1       0.908  -2.734  -0.574  0.00  0.00    -0.204 OA
ATOM      2  C2  BZF d   1       1.923  -2.983  -1.477  0.00  0.00     0.174 A 
ATOM      3  C3  BZF d   1       2.338  -1.839  -2.057  0.00  0.00    -0.012 A 
ATOM      4  C3A BZF d   1       1.595  -0.799  -1.413  0.00  0.00    -0.107 A 
ATOM      5  C4  BZF d   1       1.576   0.560  -1.543  0.00  0.00     0.055 A 
ATOM      6  C5  BZF d   1       0.682   1.280  -0.816  0.00  0.00    -0.016 A 
ATOM      7  C6  BZF d   1      -0.208   0.675   0.047  0.00  0.00     0.022 A 
ATOM      8  C7  BZF d   1      -0.223  -0.670   0.214  0.00  0.00     0.029 A 
ATOM      9  C7A BZF d   1       0.701  -1.398  -0.496  0.00  0.00     0.058 A 
ENDROOT
TORSDOF 0
ENDMDL
