MODEL 1
REMARK minimizedAffinity -3.25128198
REMARK minimizedRMSD -1
REMARK  0 active torsions:
REMARK  status: ('A' for Active; 'I' for Inactive)
ROOT
ATOM      1  O1  BZF d   1       1.880   0.286  -1.507  0.00  0.00    -0.204 OA
ATOM      2  C2  BZF d   1       1.606   1.599  -1.177  0.00  0.00     0.174 A 
ATOM      3  C3  BZF d   1       0.677   1.664  -0.202  0.00  0.00    -0.012 A 
ATOM      4  C3A BZF d   1       0.416   0.304   0.160  0.00  0.00    -0.107 A 
ATOM      5  C4  BZF d   1      -0.403  -0.281   1.082  0.00  0.00     0.055 A 
ATOM      6  C5  BZF d   1      -0.478  -1.637   1.132  0.00  0.00    -0.016 A 
ATOM      7  C6  BZF d   1       0.247  -2.437   0.274  0.00  0.00     0.022 A 
ATOM      8  C7  BZF d   1       1.077  -1.902  -0.654  0.00  0.00     0.029 A 
ATOM      9  C7A BZF d   1       1.180  -0.533  -0.686  0.00  0.00     0.058 A 
ENDROOT
TORSDOF 0
ENDMDL
