MODEL 1
REMARK minimizedAffinity 2.02313352
REMARK minimizedRMSD -1
REMARK  0 active torsions:
REMARK  status: ('A' for Active; 'I' for Inactive)
ROOT
ATOM      1  O1  BZF d   1      -0.144  -0.474   0.949  0.00  0.00    -0.204 OA
ATOM      2  C2  BZF d   1       0.343  -1.672   0.464  0.00  0.00     0.174 A 
ATOM      3  C3  BZF d   1       1.218  -1.461  -0.540  0.00  0.00    -0.012 A 
ATOM      4  C3A BZF d   1       1.353  -0.040  -0.630  0.00  0.00    -0.107 A 
ATOM      5  C4  BZF d   1       2.094   0.785  -1.427  0.00  0.00     0.055 A 
ATOM      6  C5  BZF d   1       1.941   2.130  -1.310  0.00  0.00    -0.016 A 
ATOM      7  C6  BZF d   1       1.054   2.684  -0.411  0.00  0.00     0.022 A 
ATOM      8  C7  BZF d   1       0.300   1.907   0.405  0.00  0.00     0.029 A 
ATOM      9  C7A BZF d   1       0.477   0.548   0.312  0.00  0.00     0.058 A 
ENDROOT
TORSDOF 0
ENDMDL
