MODEL 1
REMARK minimizedAffinity -0.368363172
REMARK minimizedRMSD -1
REMARK  0 active torsions:
REMARK  status: ('A' for Active; 'I' for Inactive)
ROOT
ATOM      1  O1  BZF d   1      -4.931   3.761  -5.928  0.00  0.00    -0.204 OA
ATOM      2  C2  BZF d   1      -4.698   5.121  -5.999  0.00  0.00     0.174 A 
ATOM      3  C3  BZF d   1      -3.404   5.399  -5.742  0.00  0.00    -0.012 A 
ATOM      4  C3A BZF d   1      -2.769   4.126  -5.585  0.00  0.00    -0.107 A 
ATOM      5  C4  BZF d   1      -1.484   3.743  -5.330  0.00  0.00     0.055 A 
ATOM      6  C5  BZF d   1      -1.208   2.423  -5.164  0.00  0.00    -0.016 A 
ATOM      7  C6  BZF d   1      -2.194   1.461  -5.241  0.00  0.00     0.022 A 
ATOM      8  C7  BZF d   1      -3.483   1.792  -5.497  0.00  0.00     0.029 A 
ATOM      9  C7A BZF d   1      -3.759   3.122  -5.698  0.00  0.00     0.058 A 
ENDROOT
TORSDOF 0
ENDMDL
