MODEL 1
REMARK minimizedAffinity 5.57514334
REMARK minimizedRMSD -1
REMARK  0 active torsions:
REMARK  status: ('A' for Active; 'I' for Inactive)
ROOT
ATOM      1  O1  BZF d   1       1.299   3.068   0.060  0.00  0.00    -0.204 OA
ATOM      2  C2  BZF d   1       1.153   4.207  -0.708  0.00  0.00     0.174 A 
ATOM      3  C3  BZF d   1       1.306   3.923  -2.018  0.00  0.00    -0.012 A 
ATOM      4  C3A BZF d   1       1.471   2.503  -2.078  0.00  0.00    -0.107 A 
ATOM      5  C4  BZF d   1       1.650   1.621  -3.106  0.00  0.00     0.055 A 
ATOM      6  C5  BZF d   1       1.852   0.308  -2.821  0.00  0.00    -0.016 A 
ATOM      7  C6  BZF d   1       1.887  -0.157  -1.523  0.00  0.00     0.022 A 
ATOM      8  C7  BZF d   1       1.709   0.679  -0.471  0.00  0.00     0.029 A 
ATOM      9  C7A BZF d   1       1.472   2.001  -0.756  0.00  0.00     0.058 A 
ENDROOT
TORSDOF 0
ENDMDL
