MODEL 1
REMARK minimizedAffinity 2.89769816
REMARK minimizedRMSD -1
REMARK  0 active torsions:
REMARK  status: ('A' for Active; 'I' for Inactive)
ROOT
ATOM      1  O1  BZF d   1       1.085   3.026  -1.891  0.00  0.00    -0.204 OA
ATOM      2  C2  BZF d   1       1.501   3.281  -0.598  0.00  0.00     0.174 A 
ATOM      3  C3  BZF d   1       1.915   2.147   0.003  0.00  0.00    -0.012 A 
ATOM      4  C3A BZF d   1       1.835   1.135  -1.005  0.00  0.00    -0.107 A 
ATOM      5  C4  BZF d   1       2.126  -0.199  -1.022  0.00  0.00     0.055 A 
ATOM      6  C5  BZF d   1       1.866  -0.918  -2.146  0.00  0.00    -0.016 A 
ATOM      7  C6  BZF d   1       1.310  -0.337  -3.267  0.00  0.00     0.022 A 
ATOM      8  C7  BZF d   1       1.008   0.984  -3.299  0.00  0.00     0.029 A 
ATOM      9  C7A BZF d   1       1.301   1.720  -2.177  0.00  0.00     0.058 A 
ENDROOT
TORSDOF 0
ENDMDL
