MODEL 1
REMARK minimizedAffinity 2.49170375
REMARK minimizedRMSD -1
REMARK  0 active torsions:
REMARK  status: ('A' for Active; 'I' for Inactive)
ROOT
ATOM      1  O1  BZF d   1       2.190   3.575  -2.305  0.00  0.00    -0.204 OA
ATOM      2  C2  BZF d   1       1.616   4.357  -1.321  0.00  0.00     0.174 A 
ATOM      3  C3  BZF d   1       1.042   3.589  -0.374  0.00  0.00    -0.012 A 
ATOM      4  C3A BZF d   1       1.351   2.241  -0.743  0.00  0.00    -0.107 A 
ATOM      5  C4  BZF d   1       1.070   1.027  -0.186  0.00  0.00     0.055 A 
ATOM      6  C5  BZF d   1       1.454  -0.103  -0.836  0.00  0.00    -0.016 A 
ATOM      7  C6  BZF d   1       2.116  -0.056  -2.045  0.00  0.00     0.022 A 
ATOM      8  C7  BZF d   1       2.421   1.126  -2.635  0.00  0.00     0.029 A 
ATOM      9  C7A BZF d   1       2.063   2.270  -1.965  0.00  0.00     0.058 A 
ENDROOT
TORSDOF 0
ENDMDL
