MODEL 1
REMARK minimizedAffinity 7.45776606
REMARK minimizedRMSD -1
REMARK  0 active torsions:
REMARK  status: ('A' for Active; 'I' for Inactive)
ROOT
ATOM      1  O1  BZF d   1       1.983   3.377  -0.101  0.00  0.00    -0.204 OA
ATOM      2  C2  BZF d   1       1.332   4.407  -0.753  0.00  0.00     0.174 A 
ATOM      3  C3  BZF d   1       0.851   3.991  -1.942  0.00  0.00    -0.012 A 
ATOM      4  C3A BZF d   1       1.145   2.592  -1.999  0.00  0.00    -0.107 A 
ATOM      5  C4  BZF d   1       0.902   1.619  -2.926  0.00  0.00     0.055 A 
ATOM      6  C5  BZF d   1       1.384   0.367  -2.711  0.00  0.00    -0.016 A 
ATOM      7  C6  BZF d   1       2.116   0.055  -1.584  0.00  0.00     0.022 A 
ATOM      8  C7  BZF d   1       2.378   0.985  -0.634  0.00  0.00     0.029 A 
ATOM      9  C7A BZF d   1       1.864   2.243  -0.833  0.00  0.00     0.058 A 
ENDROOT
TORSDOF 0
ENDMDL
