MODEL 1
REMARK minimizedAffinity 7.26356792
REMARK minimizedRMSD -1
REMARK  0 active torsions:
REMARK  status: ('A' for Active; 'I' for Inactive)
ROOT
ATOM      1  O1  BZF d   1      -5.874   3.944  -5.765  0.00  0.00    -0.204 OA
ATOM      2  C2  BZF d   1      -5.992   5.319  -5.693  0.00  0.00     0.174 A 
ATOM      3  C3  BZF d   1      -4.776   5.903  -5.679  0.00  0.00    -0.012 A 
ATOM      4  C3A BZF d   1      -3.842   4.831  -5.839  0.00  0.00    -0.107 A 
ATOM      5  C4  BZF d   1      -2.479   4.777  -5.917  0.00  0.00     0.055 A 
ATOM      6  C5  BZF d   1      -1.870   3.565  -5.999  0.00  0.00    -0.016 A 
ATOM      7  C6  BZF d   1      -2.591   2.389  -6.000  0.00  0.00     0.022 A 
ATOM      8  C7  BZF d   1      -3.944   2.392  -5.929  0.00  0.00     0.029 A 
ATOM      9  C7A BZF d   1      -4.565   3.616  -5.880  0.00  0.00     0.058 A 
ENDROOT
TORSDOF 0
ENDMDL
