MODEL 1
REMARK minimizedAffinity -5.13656092
REMARK minimizedRMSD -1
REMARK  0 active torsions:
REMARK  status: ('A' for Active; 'I' for Inactive)
ROOT
ATOM      1  O1  BZF d   1      -3.139   1.265   0.434  0.00  0.00    -0.204 OA
ATOM      2  C2  BZF d   1      -4.161   0.437   0.857  0.00  0.00     0.174 A 
ATOM      3  C3  BZF d   1      -3.721  -0.829   1.004  0.00  0.00    -0.012 A 
ATOM      4  C3A BZF d   1      -2.316  -0.773   0.741  0.00  0.00    -0.107 A 
ATOM      5  C4  BZF d   1      -1.321  -1.709   0.744  0.00  0.00     0.055 A 
ATOM      6  C5  BZF d   1      -0.067  -1.342   0.370  0.00  0.00    -0.016 A 
ATOM      7  C6  BZF d   1       0.226  -0.051  -0.018  0.00  0.00     0.022 A 
ATOM      8  C7  BZF d   1      -0.726   0.914  -0.032  0.00  0.00     0.029 A 
ATOM      9  C7A BZF d   1      -1.987   0.554   0.377  0.00  0.00     0.058 A 
ENDROOT
TORSDOF 0
ENDMDL
