MODEL 1
REMARK minimizedAffinity -0.788258433
REMARK minimizedRMSD -1
REMARK  0 active torsions:
REMARK  status: ('A' for Active; 'I' for Inactive)
ROOT
ATOM      1  O1  BZF d   1      -2.808   5.197  -5.413  0.00  0.00    -0.204 OA
ATOM      2  C2  BZF d   1      -1.627   4.481  -5.446  0.00  0.00     0.174 A 
ATOM      3  C3  BZF d   1      -1.869   3.164  -5.598  0.00  0.00    -0.012 A 
ATOM      4  C3A BZF d   1      -3.287   3.058  -5.757  0.00  0.00    -0.107 A 
ATOM      5  C4  BZF d   1      -4.133   2.006  -5.962  0.00  0.00     0.055 A 
ATOM      6  C5  BZF d   1      -5.473   2.233  -6.000  0.00  0.00    -0.016 A 
ATOM      7  C6  BZF d   1      -6.000   3.496  -5.832  0.00  0.00     0.022 A 
ATOM      8  C7  BZF d   1      -5.200   4.572  -5.631  0.00  0.00     0.029 A 
ATOM      9  C7A BZF d   1      -3.845   4.351  -5.625  0.00  0.00     0.058 A 
ENDROOT
TORSDOF 0
ENDMDL
