MODEL 1
REMARK minimizedAffinity 0.553418696
REMARK minimizedRMSD -1
REMARK  0 active torsions:
REMARK  status: ('A' for Active; 'I' for Inactive)
ROOT
ATOM      1  O1  BZF d   1      -2.335   2.402  -5.111  0.00  0.00    -0.204 OA
ATOM      2  C2  BZF d   1      -3.440   1.588  -5.269  0.00  0.00     0.174 A 
ATOM      3  C3  BZF d   1      -4.532   2.318  -5.571  0.00  0.00    -0.012 A 
ATOM      4  C3A BZF d   1      -4.063   3.664  -5.695  0.00  0.00    -0.107 A 
ATOM      5  C4  BZF d   1      -4.674   4.847  -5.998  0.00  0.00     0.055 A 
ATOM      6  C5  BZF d   1      -3.946   5.994  -5.965  0.00  0.00    -0.016 A 
ATOM      7  C6  BZF d   1      -2.608   5.995  -5.628  0.00  0.00     0.022 A 
ATOM      8  C7  BZF d   1      -1.957   4.845  -5.325  0.00  0.00     0.029 A 
ATOM      9  C7A BZF d   1      -2.682   3.681  -5.390  0.00  0.00     0.058 A 
ENDROOT
TORSDOF 0
ENDMDL
