MODEL 1
REMARK minimizedAffinity 5.45546246
REMARK minimizedRMSD -1
REMARK  0 active torsions:
REMARK  status: ('A' for Active; 'I' for Inactive)
ROOT
ATOM      1  O1  BZF d   1       4.115  -1.006  -4.778  0.00  0.00    -0.204 OA
ATOM      2  C2  BZF d   1       4.499  -1.524  -6.000  0.00  0.00     0.174 A 
ATOM      3  C3  BZF d   1       4.961  -2.784  -5.862  0.00  0.00    -0.012 A 
ATOM      4  C3A BZF d   1       4.774  -3.104  -4.480  0.00  0.00    -0.107 A 
ATOM      5  C4  BZF d   1       5.025  -4.219  -3.732  0.00  0.00     0.055 A 
ATOM      6  C5  BZF d   1       4.795  -4.182  -2.394  0.00  0.00    -0.016 A 
ATOM      7  C6  BZF d   1       4.320  -3.047  -1.770  0.00  0.00     0.022 A 
ATOM      8  C7  BZF d   1       4.051  -1.918  -2.470  0.00  0.00     0.029 A 
ATOM      9  C7A BZF d   1       4.251  -1.963  -3.828  0.00  0.00     0.058 A 
ENDROOT
TORSDOF 0
ENDMDL
