MODEL 1
REMARK minimizedAffinity -0.12172056
REMARK minimizedRMSD -1
REMARK  0 active torsions:
REMARK  status: ('A' for Active; 'I' for Inactive)
ROOT
ATOM      1  O1  BZF d   1      -4.973   1.326  -5.825  0.00  0.00    -0.204 OA
ATOM      2  C2  BZF d   1      -4.505   0.032  -5.950  0.00  0.00     0.174 A 
ATOM      3  C3  BZF d   1      -3.157   0.014  -6.000  0.00  0.00    -0.012 A 
ATOM      4  C3A BZF d   1      -2.755   1.374  -5.808  0.00  0.00    -0.107 A 
ATOM      5  C4  BZF d   1      -1.540   1.992  -5.742  0.00  0.00     0.055 A 
ATOM      6  C5  BZF d   1      -1.493   3.345  -5.619  0.00  0.00    -0.016 A 
ATOM      7  C6  BZF d   1      -2.640   4.109  -5.564  0.00  0.00     0.022 A 
ATOM      8  C7  BZF d   1      -3.869   3.540  -5.621  0.00  0.00     0.029 A 
ATOM      9  C7A BZF d   1      -3.919   2.170  -5.712  0.00  0.00     0.058 A 
ENDROOT
TORSDOF 0
ENDMDL
