MODEL 1
REMARK minimizedAffinity 0.916460276
REMARK minimizedRMSD -1
REMARK  0 active torsions:
REMARK  status: ('A' for Active; 'I' for Inactive)
ROOT
ATOM      1  O1  BZF d   1      -2.393  -5.564  -5.469  0.00  0.00    -0.204 OA
ATOM      2  C2  BZF d   1      -1.384  -4.860  -4.840  0.00  0.00     0.174 A 
ATOM      3  C3  BZF d   1      -1.809  -3.631  -4.483  0.00  0.00    -0.012 A 
ATOM      4  C3A BZF d   1      -3.196  -3.596  -4.833  0.00  0.00    -0.107 A 
ATOM      5  C4  BZF d   1      -4.172  -2.648  -4.711  0.00  0.00     0.055 A 
ATOM      6  C5  BZF d   1      -5.406  -2.902  -5.219  0.00  0.00    -0.016 A 
ATOM      7  C6  BZF d   1      -5.698  -4.088  -5.859  0.00  0.00     0.022 A 
ATOM      8  C7  BZF d   1      -4.765  -5.061  -6.000  0.00  0.00     0.029 A 
ATOM      9  C7A BZF d   1      -3.526  -4.821  -5.458  0.00  0.00     0.058 A 
ENDROOT
TORSDOF 0
ENDMDL
