MODEL 1
REMARK minimizedAffinity -0.693575323
REMARK minimizedRMSD -1
REMARK  0 active torsions:
REMARK  status: ('A' for Active; 'I' for Inactive)
ROOT
ATOM      1  O1  BZF d   1      -3.999  -0.420   0.882  0.00  0.00    -0.204 OA
ATOM      2  C2  BZF d   1      -4.305   0.675   1.667  0.00  0.00     0.174 A 
ATOM      3  C3  BZF d   1      -3.186   1.349   2.005  0.00  0.00    -0.012 A 
ATOM      4  C3A BZF d   1      -2.123   0.683   1.316  0.00  0.00    -0.107 A 
ATOM      5  C4  BZF d   1      -0.776   0.895   1.240  0.00  0.00     0.055 A 
ATOM      6  C5  BZF d   1      -0.009   0.020   0.539  0.00  0.00    -0.016 A 
ATOM      7  C6  BZF d   1      -0.554  -1.079  -0.093  0.00  0.00     0.022 A 
ATOM      8  C7  BZF d   1      -1.885  -1.328  -0.050  0.00  0.00     0.029 A 
ATOM      9  C7A BZF d   1      -2.668  -0.427   0.630  0.00  0.00     0.058 A 
ENDROOT
TORSDOF 0
ENDMDL
