MODEL 1
REMARK minimizedAffinity -2.57418346
REMARK minimizedRMSD -1
REMARK  1 active torsions:
REMARK  status: ('A' for Active; 'I' for Inactive)
REMARK    1  A    between atoms: N_2  and  C1_3 
ROOT
ATOM      1  C1  UNL d   1       0.194  -0.231  -0.836  0.00  0.00     0.143 A 
ATOM      2  C2  UNL d   1      -0.706  -1.153  -1.381  0.00  0.00    -0.057 A 
ATOM      3  C3  UNL d   1      -0.396  -2.517  -1.448  0.00  0.00     0.033 A 
ATOM      4  C4  UNL d   1       0.835  -2.980  -0.995  0.00  0.00    -0.042 A 
ATOM      5  C5  UNL d   1       1.755  -2.077  -0.473  0.00  0.00     0.033 A 
ATOM      6  C6  UNL d   1       1.437  -0.717  -0.403  0.00  0.00    -0.057 A 
ENDROOT
BRANCH   1   7
ATOM      7  N   UNL d   1      -0.015   1.151  -0.832  0.00  0.00    -0.732 N 
ATOM      8  C   UNL d   1       0.945   2.040  -0.215  0.00  0.00     0.284 C 
ATOM      9  H3  UNL d   1      -0.388   1.490  -1.716  0.00  0.00     0.395 HD
ENDBRANCH   1   7
TORSDOF 1
ENDMDL
