MODEL 1
REMARK minimizedAffinity 8.20804501
REMARK minimizedRMSD -1
REMARK  1 active torsions:
REMARK  status: ('A' for Active; 'I' for Inactive)
REMARK    1  A    between atoms: N_2  and  C1_3 
ROOT
ATOM      1  C1  UNL d   1       1.871  -1.608  -0.378  0.00  0.00     0.143 A 
ATOM      2  C2  UNL d   1       0.919  -0.619  -0.104  0.00  0.00    -0.057 A 
ATOM      3  C3  UNL d   1      -0.452  -0.884  -0.202  0.00  0.00     0.033 A 
ATOM      4  C4  UNL d   1      -0.897  -2.139  -0.606  0.00  0.00    -0.042 A 
ATOM      5  C5  UNL d   1       0.031  -3.129  -0.907  0.00  0.00     0.033 A 
ATOM      6  C6  UNL d   1       1.399  -2.861  -0.800  0.00  0.00    -0.057 A 
ENDROOT
BRANCH   1   7
ATOM      7  N   UNL d   1       3.248  -1.378  -0.393  0.00  0.00    -0.732 N 
ATOM      8  C   UNL d   1       3.809  -0.312  -1.195  0.00  0.00     0.284 C 
ATOM      9  H3  UNL d   1       3.668  -1.469   0.529  0.00  0.00     0.395 HD
ENDBRANCH   1   7
TORSDOF 1
ENDMDL
