MODEL 1
REMARK minimizedAffinity 0.543235719
REMARK minimizedRMSD -1
REMARK  1 active torsions:
REMARK  status: ('A' for Active; 'I' for Inactive)
REMARK    1  A    between atoms: N_2  and  C1_3 
ROOT
ATOM      1  C1  UNL d   1      -0.656  -2.246  -3.194  0.00  0.00     0.143 A 
ATOM      2  C2  UNL d   1       0.144  -2.941  -2.280  0.00  0.00    -0.057 A 
ATOM      3  C3  UNL d   1       0.514  -2.367  -1.057  0.00  0.00     0.033 A 
ATOM      4  C4  UNL d   1       0.114  -1.074  -0.739  0.00  0.00    -0.042 A 
ATOM      5  C5  UNL d   1      -0.661  -0.356  -1.643  0.00  0.00     0.033 A 
ATOM      6  C6  UNL d   1      -1.033  -0.936  -2.859  0.00  0.00    -0.057 A 
ENDROOT
BRANCH   1   7
ATOM      7  N   UNL d   1      -0.977  -2.724  -4.467  0.00  0.00    -0.732 N 
ATOM      8  C   UNL d   1      -1.959  -3.773  -4.635  0.00  0.00     0.284 C 
ATOM      9  H3  UNL d   1      -1.043  -1.978  -5.156  0.00  0.00     0.395 HD
ENDBRANCH   1   7
TORSDOF 1
ENDMDL
