MODEL 1
REMARK minimizedAffinity 1.1144433
REMARK minimizedRMSD -1
REMARK  1 active torsions:
REMARK  status: ('A' for Active; 'I' for Inactive)
REMARK    1  A    between atoms: N_2  and  C1_3 
ROOT
ATOM      1  C1  UNL d   1       4.879  -0.383  -2.110  0.00  0.00     0.143 A 
ATOM      2  C2  UNL d   1       4.834  -1.359  -3.112  0.00  0.00    -0.057 A 
ATOM      3  C3  UNL d   1       3.803  -2.305  -3.158  0.00  0.00     0.033 A 
ATOM      4  C4  UNL d   1       2.811  -2.310  -2.183  0.00  0.00    -0.042 A 
ATOM      5  C5  UNL d   1       2.849  -1.366  -1.164  0.00  0.00     0.033 A 
ATOM      6  C6  UNL d   1       3.877  -0.419  -1.126  0.00  0.00    -0.057 A 
ENDROOT
BRANCH   1   7
ATOM      7  N   UNL d   1       5.930   0.523  -1.953  0.00  0.00    -0.732 N 
ATOM      8  C   UNL d   1       5.877   1.543  -0.928  0.00  0.00     0.284 C 
ATOM      9  H3  UNL d   1       6.842   0.081  -2.052  0.00  0.00     0.395 HD
ENDBRANCH   1   7
TORSDOF 1
ENDMDL
