MODEL 1
REMARK minimizedAffinity -4.48966217
REMARK minimizedRMSD -1
REMARK  1 active torsions:
REMARK  status: ('A' for Active; 'I' for Inactive)
REMARK    1  A    between atoms: N_2  and  C1_3 
ROOT
ATOM      1  C1  UNL d   1       1.978  -0.550  -1.137  0.00  0.00     0.143 A 
ATOM      2  C2  UNL d   1       0.606  -0.289  -1.213  0.00  0.00    -0.057 A 
ATOM      3  C3  UNL d   1      -0.323  -1.324  -1.369  0.00  0.00     0.033 A 
ATOM      4  C4  UNL d   1       0.108  -2.642  -1.482  0.00  0.00    -0.042 A 
ATOM      5  C5  UNL d   1       1.468  -2.923  -1.435  0.00  0.00     0.033 A 
ATOM      6  C6  UNL d   1       2.391  -1.885  -1.272  0.00  0.00    -0.057 A 
ENDROOT
BRANCH   1   7
ATOM      7  N   UNL d   1       2.957   0.444  -1.081  0.00  0.00    -0.732 N 
ATOM      8  C   UNL d   1       4.318   0.163  -1.487  0.00  0.00     0.284 C 
ATOM      9  H3  UNL d   1       2.610   1.349  -1.391  0.00  0.00     0.395 HD
ENDBRANCH   1   7
TORSDOF 1
ENDMDL
