MODEL 1
REMARK minimizedAffinity -0.646495163
REMARK minimizedRMSD -1
REMARK  1 active torsions:
REMARK  status: ('A' for Active; 'I' for Inactive)
REMARK    1  A    between atoms: N_2  and  C1_3 
ROOT
ATOM      1  C1  UNL d   1       1.318  -0.606  -0.680  0.00  0.00     0.143 A 
ATOM      2  C2  UNL d   1       0.149  -1.226  -1.133  0.00  0.00    -0.057 A 
ATOM      3  C3  UNL d   1      -1.089  -0.972  -0.530  0.00  0.00     0.033 A 
ATOM      4  C4  UNL d   1      -1.175  -0.112   0.560  0.00  0.00    -0.042 A 
ATOM      5  C5  UNL d   1      -0.022   0.497   1.043  0.00  0.00     0.033 A 
ATOM      6  C6  UNL d   1       1.210   0.244   0.432  0.00  0.00    -0.057 A 
ENDROOT
BRANCH   1   7
ATOM      7  N   UNL d   1       2.592  -0.892  -1.174  0.00  0.00    -0.732 N 
ATOM      8  C   UNL d   1       3.534   0.172  -1.448  0.00  0.00     0.284 C 
ATOM      9  H3  UNL d   1       3.006  -1.709  -0.731  0.00  0.00     0.395 HD
ENDBRANCH   1   7
TORSDOF 1
ENDMDL
