MODEL 1
REMARK minimizedAffinity -2.85608912
REMARK minimizedRMSD -1
REMARK  1 active torsions:
REMARK  status: ('A' for Active; 'I' for Inactive)
REMARK    1  A    between atoms: N_2  and  C1_3 
ROOT
ATOM      1  C1  UNL d   1       2.481  -0.235  -0.534  0.00  0.00     0.143 A 
ATOM      2  C2  UNL d   1       1.327   0.454  -0.923  0.00  0.00    -0.057 A 
ATOM      3  C3  UNL d   1       0.127  -0.222  -1.172  0.00  0.00     0.033 A 
ATOM      4  C4  UNL d   1       0.066  -1.607  -1.063  0.00  0.00    -0.042 A 
ATOM      5  C5  UNL d   1       1.207  -2.315  -0.702  0.00  0.00     0.033 A 
ATOM      6  C6  UNL d   1       2.401  -1.633  -0.449  0.00  0.00    -0.057 A 
ENDROOT
BRANCH   1   7
ATOM      7  N   UNL d   1       3.729   0.370  -0.368  0.00  0.00    -0.732 N 
ATOM      8  C   UNL d   1       4.350   1.091  -1.459  0.00  0.00     0.284 C 
ATOM      9  H3  UNL d   1       3.824   0.824   0.537  0.00  0.00     0.395 HD
ENDBRANCH   1   7
TORSDOF 1
ENDMDL
