MODEL 1
REMARK minimizedAffinity -4.82242155
REMARK minimizedRMSD -1
REMARK  2 active torsions:
REMARK  status: ('A' for Active; 'I' for Inactive)
REMARK    1  A    between atoms: C2'_3  and  C1'_4 
REMARK    2  A    between atoms: C1'_4  and  C1_5 
ROOT
ATOM      1  C1  I4B d   1      -0.042  -0.046   0.081  0.00  0.00    -0.075 A 
ATOM      2  C2  I4B d   1      -0.514  -0.194   1.361  0.00  0.00     0.003 A 
ATOM      3  C3  I4B d   1      -0.587  -1.480   1.949  0.00  0.00     0.002 A 
ATOM      4  C4  I4B d   1      -0.228  -2.588   1.209  0.00  0.00    -0.004 A 
ATOM      5  C5  I4B d   1       0.271  -2.433  -0.081  0.00  0.00     0.002 A 
ATOM      6  C6  I4B d   1       0.377  -1.153  -0.645  0.00  0.00     0.003 A 
ENDROOT
BRANCH   1   7
ATOM      7  C1' I4B d   1      -0.009   1.323  -0.521  0.00  0.00     0.060 C 
BRANCH   7   8
ATOM      8  C2' I4B d   1       1.049   2.127   0.206  0.00  0.00    -0.013 C 
ATOM      9  C4' I4B d   1       2.307   2.240  -0.615  0.00  0.00     0.013 C 
ATOM     10  C3' I4B d   1       0.477   3.480   0.508  0.00  0.00     0.013 C 
ENDBRANCH   7   8
ENDBRANCH   1   7
TORSDOF 2
ENDMDL
