MODEL 1
REMARK minimizedAffinity -2.58095336
REMARK minimizedRMSD -1
REMARK  2 active torsions:
REMARK  status: ('A' for Active; 'I' for Inactive)
REMARK    1  A    between atoms: C2'_3  and  C1'_4 
REMARK    2  A    between atoms: C1'_4  and  C1_5 
ROOT
ATOM      1  C1  I4B d   1       0.570   1.164  -0.449  0.00  0.00    -0.075 A 
ATOM      2  C2  I4B d   1       0.664   0.530  -1.663  0.00  0.00     0.003 A 
ATOM      3  C3  I4B d   1       0.745  -0.882  -1.725  0.00  0.00     0.002 A 
ATOM      4  C4  I4B d   1       0.780  -1.613  -0.555  0.00  0.00    -0.004 A 
ATOM      5  C5  I4B d   1       0.662  -0.970   0.674  0.00  0.00     0.002 A 
ATOM      6  C6  I4B d   1       0.544   0.426   0.727  0.00  0.00     0.003 A 
ENDROOT
BRANCH   1   7
ATOM      7  C1' I4B d   1       0.519   2.659  -0.419  0.00  0.00     0.060 C 
BRANCH   7   8
ATOM      8  C2' I4B d   1       1.661   3.147   0.449  0.00  0.00    -0.013 C 
ATOM      9  C4' I4B d   1       2.655   3.944  -0.355  0.00  0.00     0.013 C 
ATOM     10  C3' I4B d   1       1.080   3.969   1.560  0.00  0.00     0.013 C 
ENDBRANCH   7   8
ENDBRANCH   1   7
TORSDOF 2
ENDMDL
