MODEL 1
REMARK minimizedAffinity -1.70501637
REMARK minimizedRMSD -1
REMARK  2 active torsions:
REMARK  status: ('A' for Active; 'I' for Inactive)
REMARK    1  A    between atoms: C2'_3  and  C1'_4 
REMARK    2  A    between atoms: C1'_4  and  C1_5 
ROOT
ATOM      1  C1  I4B d   1       0.289   1.315  -0.401  0.00  0.00    -0.075 A 
ATOM      2  C2  I4B d   1       0.313   0.788  -1.668  0.00  0.00     0.003 A 
ATOM      3  C3  I4B d   1       0.117  -0.600  -1.867  0.00  0.00     0.002 A 
ATOM      4  C4  I4B d   1      -0.048  -1.426  -0.775  0.00  0.00    -0.004 A 
ATOM      5  C5  I4B d   1      -0.095  -0.887   0.508  0.00  0.00     0.002 A 
ATOM      6  C6  I4B d   1       0.062   0.494   0.696  0.00  0.00     0.003 A 
ENDROOT
BRANCH   1   7
ATOM      7  C1' I4B d   1       0.532   2.781  -0.225  0.00  0.00     0.060 C 
BRANCH   7   8
ATOM      8  C2' I4B d   1       1.787   2.949   0.607  0.00  0.00    -0.013 C 
ATOM      9  C4' I4B d   1       2.892   3.583  -0.196  0.00  0.00     0.013 C 
ATOM     10  C3' I4B d   1       1.441   3.782   1.804  0.00  0.00     0.013 C 
ENDBRANCH   7   8
ENDBRANCH   1   7
TORSDOF 2
ENDMDL
