MODEL 1
REMARK minimizedAffinity -2.84518552
REMARK minimizedRMSD -1
REMARK  2 active torsions:
REMARK  status: ('A' for Active; 'I' for Inactive)
REMARK    1  A    between atoms: C2'_3  and  C1'_4 
REMARK    2  A    between atoms: C1'_4  and  C1_5 
ROOT
ATOM      1  C1  I4B d   1       0.236   0.747   0.174  0.00  0.00    -0.075 A 
ATOM      2  C2  I4B d   1       1.477   1.026   0.690  0.00  0.00     0.003 A 
ATOM      3  C3  I4B d   1       1.885   2.368   0.877  0.00  0.00     0.002 A 
ATOM      4  C4  I4B d   1       1.047   3.394   0.490  0.00  0.00    -0.004 A 
ATOM      5  C5  I4B d   1      -0.220   3.109  -0.011  0.00  0.00     0.002 A 
ATOM      6  C6  I4B d   1      -0.633   1.778  -0.159  0.00  0.00     0.003 A 
ENDROOT
BRANCH   1   7
ATOM      7  C1' I4B d   1      -0.151  -0.682  -0.041  0.00  0.00     0.060 C 
BRANCH   7   8
ATOM      8  C2' I4B d   1      -0.012  -1.408   1.282  0.00  0.00    -0.013 C 
ATOM      9  C4' I4B d   1      -0.991  -0.881   2.298  0.00  0.00     0.013 C 
ATOM     10  C3' I4B d   1      -0.226  -2.871   1.032  0.00  0.00     0.013 C 
ENDBRANCH   7   8
ENDBRANCH   1   7
TORSDOF 2
ENDMDL
