MODEL 1
REMARK minimizedAffinity -0.210985214
REMARK minimizedRMSD -1
REMARK  2 active torsions:
REMARK  status: ('A' for Active; 'I' for Inactive)
REMARK    1  A    between atoms: C2'_3  and  C1'_4 
REMARK    2  A    between atoms: C1'_4  and  C1_5 
ROOT
ATOM      1  C1  I4B d   1       0.001  -1.635  -0.624  0.00  0.00    -0.075 A 
ATOM      2  C2  I4B d   1      -0.288  -2.966  -0.792  0.00  0.00     0.003 A 
ATOM      3  C3  I4B d   1      -0.218  -3.553  -2.078  0.00  0.00     0.002 A 
ATOM      4  C4  I4B d   1       0.093  -2.767  -3.169  0.00  0.00    -0.004 A 
ATOM      5  C5  I4B d   1       0.407  -1.422  -2.993  0.00  0.00     0.002 A 
ATOM      6  C6  I4B d   1       0.373  -0.855  -1.711  0.00  0.00     0.003 A 
ENDROOT
BRANCH   1   7
ATOM      7  C1' I4B d   1      -0.114  -1.040   0.744  0.00  0.00     0.060 C 
BRANCH   7   8
ATOM      8  C2' I4B d   1      -0.333  -2.171   1.728  0.00  0.00    -0.013 C 
ATOM      9  C4' I4B d   1       0.971  -2.820   2.110  0.00  0.00     0.013 C 
ATOM     10  C3' I4B d   1      -1.031  -1.609   2.931  0.00  0.00     0.013 C 
ENDBRANCH   7   8
ENDBRANCH   1   7
TORSDOF 2
ENDMDL
