MODEL 1
REMARK minimizedAffinity 0.767000198
REMARK minimizedRMSD -1
REMARK  2 active torsions:
REMARK  status: ('A' for Active; 'I' for Inactive)
REMARK    1  A    between atoms: C2'_3  and  C1'_4 
REMARK    2  A    between atoms: C1'_4  and  C1_5 
ROOT
ATOM      1  C1  I4B d   1      -0.193   0.302   0.141  0.00  0.00    -0.075 A 
ATOM      2  C2  I4B d   1      -0.389  -0.733  -0.739  0.00  0.00     0.003 A 
ATOM      3  C3  I4B d   1      -0.747  -2.016  -0.261  0.00  0.00     0.002 A 
ATOM      4  C4  I4B d   1      -0.850  -2.232   1.098  0.00  0.00    -0.004 A 
ATOM      5  C5  I4B d   1      -0.674  -1.176   1.987  0.00  0.00     0.002 A 
ATOM      6  C6  I4B d   1      -0.355   0.103   1.506  0.00  0.00     0.003 A 
ENDROOT
BRANCH   1   7
ATOM      7  C1' I4B d   1       0.217   1.637  -0.396  0.00  0.00     0.060 C 
BRANCH   7   8
ATOM      8  C2' I4B d   1       0.468   2.556   0.782  0.00  0.00    -0.013 C 
ATOM      9  C4' I4B d   1       1.835   3.184   0.702  0.00  0.00     0.013 C 
ATOM     10  C3' I4B d   1      -0.608   3.601   0.791  0.00  0.00     0.013 C 
ENDBRANCH   7   8
ENDBRANCH   1   7
TORSDOF 2
ENDMDL
