MODEL 1
REMARK minimizedAffinity -4.28159761
REMARK minimizedRMSD -1
REMARK  2 active torsions:
REMARK  status: ('A' for Active; 'I' for Inactive)
REMARK    1  A    between atoms: C2'_3  and  C1'_4 
REMARK    2  A    between atoms: C1'_4  and  C1_5 
ROOT
ATOM      1  C1  I4B d   1      -0.157  -0.709   0.874  0.00  0.00    -0.075 A 
ATOM      2  C2  I4B d   1      -1.279  -1.500   0.880  0.00  0.00     0.003 A 
ATOM      3  C3  I4B d   1      -1.165  -2.900   0.704  0.00  0.00     0.002 A 
ATOM      4  C4  I4B d   1       0.077  -3.457   0.477  0.00  0.00    -0.004 A 
ATOM      5  C5  I4B d   1       1.216  -2.657   0.493  0.00  0.00     0.002 A 
ATOM      6  C6  I4B d   1       1.100  -1.275   0.705  0.00  0.00     0.003 A 
ENDROOT
BRANCH   1   7
ATOM      7  C1' I4B d   1      -0.317   0.771   1.029  0.00  0.00     0.060 C 
BRANCH   7   8
ATOM      8  C2' I4B d   1       0.512   1.445  -0.044  0.00  0.00    -0.013 C 
ATOM      9  C4' I4B d   1      -0.085   1.231  -1.410  0.00  0.00     0.013 C 
ATOM     10  C3' I4B d   1       0.597   2.906   0.286  0.00  0.00     0.013 C 
ENDBRANCH   7   8
ENDBRANCH   1   7
TORSDOF 2
ENDMDL
