MODEL 1
REMARK minimizedAffinity 4.70527697
REMARK minimizedRMSD -1
REMARK  2 active torsions:
REMARK  status: ('A' for Active; 'I' for Inactive)
REMARK    1  A    between atoms: C2'_3  and  C1'_4 
REMARK    2  A    between atoms: C1'_4  and  C1_5 
ROOT
ATOM      1  C1  I4B d   1      -0.197  -0.376   0.534  0.00  0.00    -0.075 A 
ATOM      2  C2  I4B d   1      -1.304   0.430   0.443  0.00  0.00     0.003 A 
ATOM      3  C3  I4B d   1      -2.357   0.303   1.381  0.00  0.00     0.002 A 
ATOM      4  C4  I4B d   1      -2.285  -0.672   2.356  0.00  0.00    -0.004 A 
ATOM      5  C5  I4B d   1      -1.152  -1.473   2.460  0.00  0.00     0.002 A 
ATOM      6  C6  I4B d   1      -0.095  -1.316   1.551  0.00  0.00     0.003 A 
ENDROOT
BRANCH   1   7
ATOM      7  C1' I4B d   1       0.882  -0.237  -0.493  0.00  0.00     0.060 C 
BRANCH   7   8
ATOM      8  C2' I4B d   1       0.296  -0.609  -1.840  0.00  0.00    -0.013 C 
ATOM      9  C4' I4B d   1       0.992   0.121  -2.958  0.00  0.00     0.013 C 
ATOM     10  C3' I4B d   1       0.419  -2.095  -2.003  0.00  0.00     0.013 C 
ENDBRANCH   7   8
ENDBRANCH   1   7
TORSDOF 2
ENDMDL
