MODEL 1
REMARK minimizedAffinity -4.13973093
REMARK minimizedRMSD -1
REMARK  2 active torsions:
REMARK  status: ('A' for Active; 'I' for Inactive)
REMARK    1  A    between atoms: C2'_3  and  C1'_4 
REMARK    2  A    between atoms: C1'_4  and  C1_5 
ROOT
ATOM      1  C1  I4B d   1       0.454  -0.649   0.327  0.00  0.00    -0.075 A 
ATOM      2  C2  I4B d   1      -0.628  -0.564   1.167  0.00  0.00     0.003 A 
ATOM      3  C3  I4B d   1      -1.451  -1.695   1.387  0.00  0.00     0.002 A 
ATOM      4  C4  I4B d   1      -1.186  -2.870   0.712  0.00  0.00    -0.004 A 
ATOM      5  C5  I4B d   1      -0.075  -2.961  -0.121  0.00  0.00     0.002 A 
ATOM      6  C6  I4B d   1       0.758  -1.848  -0.306  0.00  0.00     0.003 A 
ENDROOT
BRANCH   1   7
ATOM      7  C1' I4B d   1       1.282   0.574   0.092  0.00  0.00     0.060 C 
BRANCH   7   8
ATOM      8  C2' I4B d   1       0.342   1.722  -0.213  0.00  0.00    -0.013 C 
ATOM      9  C4' I4B d   1       0.906   3.032   0.272  0.00  0.00     0.013 C 
ATOM     10  C3' I4B d   1       0.109   1.749  -1.695  0.00  0.00     0.013 C 
ENDBRANCH   7   8
ENDBRANCH   1   7
TORSDOF 2
ENDMDL
