MODEL 1
REMARK minimizedAffinity -3.97281289
REMARK minimizedRMSD -1
REMARK  2 active torsions:
REMARK  status: ('A' for Active; 'I' for Inactive)
REMARK    1  A    between atoms: C2'_3  and  C1'_4 
REMARK    2  A    between atoms: C1'_4  and  C1_5 
ROOT
ATOM      1  C1  I4B d   1       0.284  -0.126  -0.284  0.00  0.00    -0.075 A 
ATOM      2  C2  I4B d   1       0.078  -0.495   1.022  0.00  0.00     0.003 A 
ATOM      3  C3  I4B d   1      -0.093  -1.859   1.359  0.00  0.00     0.002 A 
ATOM      4  C4  I4B d   1      -0.101  -2.811   0.359  0.00  0.00    -0.004 A 
ATOM      5  C5  I4B d   1       0.131  -2.437  -0.962  0.00  0.00     0.002 A 
ATOM      6  C6  I4B d   1       0.337  -1.088  -1.284  0.00  0.00     0.003 A 
ENDROOT
BRANCH   1   7
ATOM      7  C1' I4B d   1       0.428   1.327  -0.609  0.00  0.00     0.060 C 
BRANCH   7   8
ATOM      8  C2' I4B d   1       1.217   1.979   0.508  0.00  0.00    -0.013 C 
ATOM      9  C4' I4B d   1       2.619   2.306   0.066  0.00  0.00     0.013 C 
ATOM     10  C3' I4B d   1       0.482   3.214   0.934  0.00  0.00     0.013 C 
ENDBRANCH   7   8
ENDBRANCH   1   7
TORSDOF 2
ENDMDL
