MODEL 1
REMARK minimizedAffinity -4.60423756
REMARK minimizedRMSD -1
REMARK  2 active torsions:
REMARK  status: ('A' for Active; 'I' for Inactive)
REMARK    1  A    between atoms: C2'_3  and  C1'_4 
REMARK    2  A    between atoms: C1'_4  and  C1_5 
ROOT
ATOM      1  C1  I4B d   1      -0.049  -0.083  -0.546  0.00  0.00    -0.075 A 
ATOM      2  C2  I4B d   1      -0.005  -0.427   0.782  0.00  0.00     0.003 A 
ATOM      3  C3  I4B d   1       0.024  -1.790   1.165  0.00  0.00     0.002 A 
ATOM      4  C4  I4B d   1      -0.043  -2.770   0.195  0.00  0.00    -0.004 A 
ATOM      5  C5  I4B d   1      -0.064  -2.419  -1.152  0.00  0.00     0.002 A 
ATOM      6  C6  I4B d   1      -0.054  -1.068  -1.526  0.00  0.00     0.003 A 
ENDROOT
BRANCH   1   7
ATOM      7  C1' I4B d   1      -0.112   1.365  -0.913  0.00  0.00     0.060 C 
BRANCH   7   8
ATOM      8  C2' I4B d   1       0.669   2.145   0.126  0.00  0.00    -0.013 C 
ATOM      9  C4' I4B d   1       1.931   2.721  -0.460  0.00  0.00     0.013 C 
ATOM     10  C3' I4B d   1      -0.223   3.226   0.659  0.00  0.00     0.013 C 
ENDBRANCH   7   8
ENDBRANCH   1   7
TORSDOF 2
ENDMDL
