MODEL 1
REMARK minimizedAffinity -3.25688362
REMARK minimizedRMSD -1
REMARK  2 active torsions:
REMARK  status: ('A' for Active; 'I' for Inactive)
REMARK    1  A    between atoms: C2'_3  and  C1'_4 
REMARK    2  A    between atoms: C1'_4  and  C1_5 
ROOT
ATOM      1  C1  I4B d   1       0.410   1.078   0.112  0.00  0.00    -0.075 A 
ATOM      2  C2  I4B d   1      -0.645   1.105   0.990  0.00  0.00     0.003 A 
ATOM      3  C3  I4B d   1      -1.213  -0.104   1.459  0.00  0.00     0.002 A 
ATOM      4  C4  I4B d   1      -0.732  -1.309   0.988  0.00  0.00    -0.004 A 
ATOM      5  C5  I4B d   1       0.352  -1.335   0.116  0.00  0.00     0.002 A 
ATOM      6  C6  I4B d   1       0.935  -0.135  -0.316  0.00  0.00     0.003 A 
ENDROOT
BRANCH   1   7
ATOM      7  C1' I4B d   1       0.965   2.374  -0.388  0.00  0.00     0.060 C 
BRANCH   7   8
ATOM      8  C2' I4B d   1       0.999   3.346   0.773  0.00  0.00    -0.013 C 
ATOM      9  C4' I4B d   1       2.407   3.795   1.066  0.00  0.00     0.013 C 
ATOM     10  C3' I4B d   1       0.120   4.511   0.428  0.00  0.00     0.013 C 
ENDBRANCH   7   8
ENDBRANCH   1   7
TORSDOF 2
ENDMDL
