MODEL 1
REMARK minimizedAffinity 6.70194817
REMARK minimizedRMSD -1
REMARK  2 active torsions:
REMARK  status: ('A' for Active; 'I' for Inactive)
REMARK    1  A    between atoms: C1_2  and  C2_3 
REMARK    2  A    between atoms: C2_3  and  C3_4 
ROOT
ATOM      1  C3  UNL d   1       0.292  -0.442  -0.052  0.00  0.00    -0.075 A 
ATOM      2  C4  UNL d   1       0.208  -0.879   1.278  0.00  0.00     0.002 A 
ATOM      3  C5  UNL d   1      -1.025  -0.938   1.928  0.00  0.00     0.002 A 
ATOM      4  C6  UNL d   1      -2.186  -0.552   1.262  0.00  0.00    -0.004 A 
ATOM      5  C7  UNL d   1      -2.113  -0.101  -0.054  0.00  0.00     0.002 A 
ATOM      6  C8  UNL d   1      -0.881  -0.045  -0.709  0.00  0.00     0.002 A 
ENDROOT
BRANCH   1   7
ATOM      7  C2  UNL d   1       1.619  -0.404  -0.771  0.00  0.00     0.056 C 
BRANCH   7   8
ATOM      8  C1  UNL d   1       1.945   0.951  -1.408  0.00  0.00     0.007 C 
ATOM      9  C   UNL d   1       3.344   1.451  -1.073  0.00  0.00     0.009 C 
ENDBRANCH   7   8
ENDBRANCH   1   7
TORSDOF 2
ENDMDL
