MODEL 1
REMARK minimizedAffinity 2.15928817
REMARK minimizedRMSD -1
REMARK  2 active torsions:
REMARK  status: ('A' for Active; 'I' for Inactive)
REMARK    1  A    between atoms: C1_2  and  C2_3 
REMARK    2  A    between atoms: C2_3  and  C3_4 
ROOT
ATOM      1  C3  UNL d   1       2.621   5.880   3.563  0.00  0.00    -0.075 A 
ATOM      2  C4  UNL d   1       3.317   5.922   4.780  0.00  0.00     0.002 A 
ATOM      3  C5  UNL d   1       2.626   5.975   5.990  0.00  0.00     0.002 A 
ATOM      4  C6  UNL d   1       1.233   5.998   6.000  0.00  0.00    -0.004 A 
ATOM      5  C7  UNL d   1       0.531   5.975   4.797  0.00  0.00     0.002 A 
ATOM      6  C8  UNL d   1       1.220   5.917   3.584  0.00  0.00     0.002 A 
ENDROOT
BRANCH   1   7
ATOM      7  C2  UNL d   1       3.363   5.793   2.251  0.00  0.00     0.056 C 
BRANCH   7   8
ATOM      8  C1  UNL d   1       3.845   4.381   1.900  0.00  0.00     0.007 C 
ATOM      9  C   UNL d   1       3.797   3.420   3.080  0.00  0.00     0.009 C 
ENDBRANCH   7   8
ENDBRANCH   1   7
TORSDOF 2
ENDMDL
