MODEL 1
REMARK minimizedAffinity -1.75955594
REMARK minimizedRMSD -1
REMARK  2 active torsions:
REMARK  status: ('A' for Active; 'I' for Inactive)
REMARK    1  A    between atoms: C1_2  and  C2_3 
REMARK    2  A    between atoms: C2_3  and  C3_4 
ROOT
ATOM      1  C3  UNL d   1       2.746   5.978   3.801  0.00  0.00    -0.075 A 
ATOM      2  C4  UNL d   1       3.991   5.989   4.445  0.00  0.00     0.002 A 
ATOM      3  C5  UNL d   1       5.173   6.000   3.702  0.00  0.00     0.002 A 
ATOM      4  C6  UNL d   1       5.124   5.990   2.310  0.00  0.00    -0.004 A 
ATOM      5  C7  UNL d   1       3.892   5.962   1.660  0.00  0.00     0.002 A 
ATOM      6  C8  UNL d   1       2.709   5.956   2.400  0.00  0.00     0.002 A 
ENDROOT
BRANCH   1   7
ATOM      7  C2  UNL d   1       1.463   5.997   4.598  0.00  0.00     0.056 C 
BRANCH   7   8
ATOM      8  C1  UNL d   1       0.869   4.608   4.855  0.00  0.00     0.007 C 
ATOM      9  C   UNL d   1       1.557   3.862   5.991  0.00  0.00     0.009 C 
ENDBRANCH   7   8
ENDBRANCH   1   7
TORSDOF 2
ENDMDL
