MODEL 1
REMARK minimizedAffinity 7.57269621
REMARK minimizedRMSD -1
REMARK  2 active torsions:
REMARK  status: ('A' for Active; 'I' for Inactive)
REMARK    1  A    between atoms: C1_2  and  C2_3 
REMARK    2  A    between atoms: C2_3  and  C3_4 
ROOT
ATOM      1  C3  UNL d   1       0.087  -1.274   2.117  0.00  0.00    -0.075 A 
ATOM      2  C4  UNL d   1      -0.612  -0.440   1.233  0.00  0.00     0.002 A 
ATOM      3  C5  UNL d   1      -0.080  -0.131  -0.020  0.00  0.00     0.002 A 
ATOM      4  C6  UNL d   1       1.159  -0.643  -0.399  0.00  0.00    -0.004 A 
ATOM      5  C7  UNL d   1       1.870  -1.459   0.478  0.00  0.00     0.002 A 
ATOM      6  C8  UNL d   1       1.338  -1.773   1.730  0.00  0.00     0.002 A 
ENDROOT
BRANCH   1   7
ATOM      7  C2  UNL d   1      -0.496  -1.636   3.462  0.00  0.00     0.056 C 
BRANCH   7   8
ATOM      8  C1  UNL d   1      -1.871  -2.308   3.386  0.00  0.00     0.007 C 
ATOM      9  C   UNL d   1      -1.854  -3.762   3.838  0.00  0.00     0.009 C 
ENDBRANCH   7   8
ENDBRANCH   1   7
TORSDOF 2
ENDMDL
