MODEL 1
REMARK minimizedAffinity -5.24800777
REMARK minimizedRMSD -1
REMARK  2 active torsions:
REMARK  status: ('A' for Active; 'I' for Inactive)
REMARK    1  A    between atoms: C1_2  and  C2_3 
REMARK    2  A    between atoms: C2_3  and  C3_4 
ROOT
ATOM      1  C3  UNL d   1      -0.191   0.128   0.634  0.00  0.00    -0.075 A 
ATOM      2  C4  UNL d   1      -0.714  -0.014   1.927  0.00  0.00     0.002 A 
ATOM      3  C5  UNL d   1      -1.224  -1.240   2.354  0.00  0.00     0.002 A 
ATOM      4  C6  UNL d   1      -1.227  -2.335   1.493  0.00  0.00    -0.004 A 
ATOM      5  C7  UNL d   1      -0.725  -2.201   0.200  0.00  0.00     0.002 A 
ATOM      6  C8  UNL d   1      -0.210  -0.977  -0.229  0.00  0.00     0.002 A 
ENDROOT
BRANCH   1   7
ATOM      7  C2  UNL d   1       0.390   1.444   0.175  0.00  0.00     0.056 C 
BRANCH   7   8
ATOM      8  C1  UNL d   1       1.826   1.692   0.649  0.00  0.00     0.007 C 
ATOM      9  C   UNL d   1       2.219   3.163   0.632  0.00  0.00     0.009 C 
ENDBRANCH   7   8
ENDBRANCH   1   7
TORSDOF 2
ENDMDL
