MODEL 1
REMARK minimizedAffinity -3.58616138
REMARK minimizedRMSD -1
REMARK  2 active torsions:
REMARK  status: ('A' for Active; 'I' for Inactive)
REMARK    1  A    between atoms: C1_2  and  C2_3 
REMARK    2  A    between atoms: C2_3  and  C3_4 
ROOT
ATOM      1  C3  UNL d   1       0.229   4.355   1.874  0.00  0.00    -0.075 A 
ATOM      2  C4  UNL d   1      -0.573   3.673   0.947  0.00  0.00     0.002 A 
ATOM      3  C5  UNL d   1      -0.005   2.769   0.049  0.00  0.00     0.002 A 
ATOM      4  C6  UNL d   1       1.370   2.543   0.059  0.00  0.00    -0.004 A 
ATOM      5  C7  UNL d   1       2.178   3.227   0.965  0.00  0.00     0.002 A 
ATOM      6  C8  UNL d   1       1.612   4.128   1.867  0.00  0.00     0.002 A 
ENDROOT
BRANCH   1   7
ATOM      7  C2  UNL d   1      -0.383   5.312   2.868  0.00  0.00     0.056 C 
BRANCH   7   8
ATOM      8  C1  UNL d   1      -1.662   5.994   2.371  0.00  0.00     0.007 C 
ATOM      9  C   UNL d   1      -2.782   5.996   3.404  0.00  0.00     0.009 C 
ENDBRANCH   7   8
ENDBRANCH   1   7
TORSDOF 2
ENDMDL
