MODEL 1
REMARK minimizedAffinity -2.73752928
REMARK minimizedRMSD -1
REMARK  2 active torsions:
REMARK  status: ('A' for Active; 'I' for Inactive)
REMARK    1  A    between atoms: C1_2  and  C2_3 
REMARK    2  A    between atoms: C2_3  and  C3_4 
ROOT
ATOM      1  C3  UNL d   1       0.337   1.265  -0.016  0.00  0.00    -0.075 A 
ATOM      2  C4  UNL d   1      -0.274   0.582   1.045  0.00  0.00     0.002 A 
ATOM      3  C5  UNL d   1      -0.411  -0.806   1.009  0.00  0.00     0.002 A 
ATOM      4  C6  UNL d   1       0.051  -1.526  -0.090  0.00  0.00    -0.004 A 
ATOM      5  C7  UNL d   1       0.645  -0.856  -1.158  0.00  0.00     0.002 A 
ATOM      6  C8  UNL d   1       0.787   0.532  -1.122  0.00  0.00     0.002 A 
ENDROOT
BRANCH   1   7
ATOM      7  C2  UNL d   1       0.515   2.764   0.030  0.00  0.00     0.056 C 
BRANCH   7   8
ATOM      8  C1  UNL d   1       1.936   3.213   0.386  0.00  0.00     0.007 C 
ATOM      9  C   UNL d   1       1.983   4.573   1.070  0.00  0.00     0.009 C 
ENDBRANCH   7   8
ENDBRANCH   1   7
TORSDOF 2
ENDMDL
