MODEL 1
REMARK minimizedAffinity -4.0588994
REMARK minimizedRMSD -1
REMARK  2 active torsions:
REMARK  status: ('A' for Active; 'I' for Inactive)
REMARK    1  A    between atoms: C1_2  and  C2_3 
REMARK    2  A    between atoms: C2_3  and  C3_4 
ROOT
ATOM      1  C3  UNL d   1      -0.329  -0.362   0.851  0.00  0.00    -0.075 A 
ATOM      2  C4  UNL d   1       0.933  -0.900   0.555  0.00  0.00     0.002 A 
ATOM      3  C5  UNL d   1       1.109  -2.280   0.457  0.00  0.00     0.002 A 
ATOM      4  C6  UNL d   1       0.032  -3.139   0.663  0.00  0.00    -0.004 A 
ATOM      5  C7  UNL d   1      -1.222  -2.617   0.974  0.00  0.00     0.002 A 
ATOM      6  C8  UNL d   1      -1.402  -1.236   1.068  0.00  0.00     0.002 A 
ENDROOT
BRANCH   1   7
ATOM      7  C2  UNL d   1      -0.533   1.132   0.929  0.00  0.00     0.056 C 
BRANCH   7   8
ATOM      8  C1  UNL d   1       0.362   1.934  -0.022  0.00  0.00     0.007 C 
ATOM      9  C   UNL d   1       0.588   3.370   0.433  0.00  0.00     0.009 C 
ENDBRANCH   7   8
ENDBRANCH   1   7
TORSDOF 2
ENDMDL
