MODEL 1
REMARK minimizedAffinity -4.57838392
REMARK minimizedRMSD -1
REMARK  2 active torsions:
REMARK  status: ('A' for Active; 'I' for Inactive)
REMARK    1  A    between atoms: C1_2  and  C2_3 
REMARK    2  A    between atoms: C2_3  and  C3_4 
ROOT
ATOM      1  C3  UNL d   1      -0.718  -0.633   0.451  0.00  0.00    -0.075 A 
ATOM      2  C4  UNL d   1       0.533  -0.560  -0.178  0.00  0.00     0.002 A 
ATOM      3  C5  UNL d   1       1.251  -1.722  -0.466  0.00  0.00     0.002 A 
ATOM      4  C6  UNL d   1       0.732  -2.968  -0.120  0.00  0.00    -0.004 A 
ATOM      5  C7  UNL d   1      -0.502  -3.051   0.520  0.00  0.00     0.002 A 
ATOM      6  C8  UNL d   1      -1.224  -1.891   0.805  0.00  0.00     0.002 A 
ENDROOT
BRANCH   1   7
ATOM      7  C2  UNL d   1      -1.512   0.618   0.738  0.00  0.00     0.056 C 
BRANCH   7   8
ATOM      8  C1  UNL d   1      -1.818   0.835   2.224  0.00  0.00     0.007 C 
ATOM      9  C   UNL d   1      -3.187   1.455   2.471  0.00  0.00     0.009 C 
ENDBRANCH   7   8
ENDBRANCH   1   7
TORSDOF 2
ENDMDL
