MODEL 1
REMARK minimizedAffinity -5.00842476
REMARK minimizedRMSD -1
REMARK  2 active torsions:
REMARK  status: ('A' for Active; 'I' for Inactive)
REMARK    1  A    between atoms: C1_2  and  C2_3 
REMARK    2  A    between atoms: C2_3  and  C3_4 
ROOT
ATOM      1  C3  UNL d   1       0.201  -1.068  -0.517  0.00  0.00    -0.075 A 
ATOM      2  C4  UNL d   1       0.422  -1.169  -1.899  0.00  0.00     0.002 A 
ATOM      3  C5  UNL d   1       0.301  -2.397  -2.548  0.00  0.00     0.002 A 
ATOM      4  C6  UNL d   1      -0.032  -3.541  -1.825  0.00  0.00    -0.004 A 
ATOM      5  C7  UNL d   1      -0.238  -3.456  -0.450  0.00  0.00     0.002 A 
ATOM      6  C8  UNL d   1      -0.122  -2.227   0.202  0.00  0.00     0.002 A 
ENDROOT
BRANCH   1   7
ATOM      7  C2  UNL d   1       0.301   0.264   0.187  0.00  0.00     0.056 C 
BRANCH   7   8
ATOM      8  C1  UNL d   1       0.039   1.470  -0.721  0.00  0.00     0.007 C 
ATOM      9  C   UNL d   1       0.797   2.720  -0.292  0.00  0.00     0.009 C 
ENDBRANCH   7   8
ENDBRANCH   1   7
TORSDOF 2
ENDMDL
