MODEL 1
REMARK minimizedAffinity -5.63334608
REMARK minimizedRMSD -1
REMARK  2 active torsions:
REMARK  status: ('A' for Active; 'I' for Inactive)
REMARK    1  A    between atoms: C1_2  and  C2_3 
REMARK    2  A    between atoms: C2_3  and  C3_4 
ROOT
ATOM      1  C3  UNL d   1       0.180  -0.993  -0.047  0.00  0.00    -0.075 A 
ATOM      2  C4  UNL d   1      -0.183  -2.195   0.578  0.00  0.00     0.002 A 
ATOM      3  C5  UNL d   1      -0.315  -3.368  -0.165  0.00  0.00     0.002 A 
ATOM      4  C6  UNL d   1      -0.096  -3.353  -1.541  0.00  0.00    -0.004 A 
ATOM      5  C7  UNL d   1       0.248  -2.161  -2.175  0.00  0.00     0.002 A 
ATOM      6  C8  UNL d   1       0.385  -0.987  -1.433  0.00  0.00     0.002 A 
ENDROOT
BRANCH   1   7
ATOM      7  C2  UNL d   1       0.352   0.274   0.756  0.00  0.00     0.056 C 
BRANCH   7   8
ATOM      8  C1  UNL d   1       0.069   1.557  -0.033  0.00  0.00     0.007 C 
ATOM      9  C   UNL d   1       0.933   2.733   0.402  0.00  0.00     0.009 C 
ENDBRANCH   7   8
ENDBRANCH   1   7
TORSDOF 2
ENDMDL
