MODEL 1
REMARK minimizedAffinity -5.34494352
REMARK minimizedRMSD -1
REMARK  2 active torsions:
REMARK  status: ('A' for Active; 'I' for Inactive)
REMARK    1  A    between atoms: C1_2  and  C2_3 
REMARK    2  A    between atoms: C2_3  and  C3_4 
ROOT
ATOM      1  C3  UNL d   1      -0.075  -0.924   0.050  0.00  0.00    -0.075 A 
ATOM      2  C4  UNL d   1       0.405  -1.273  -1.221  0.00  0.00     0.002 A 
ATOM      3  C5  UNL d   1       0.223  -2.564  -1.717  0.00  0.00     0.002 A 
ATOM      4  C6  UNL d   1      -0.431  -3.524  -0.948  0.00  0.00    -0.004 A 
ATOM      5  C7  UNL d   1      -0.898  -3.193   0.323  0.00  0.00     0.002 A 
ATOM      6  C8  UNL d   1      -0.721  -1.901   0.820  0.00  0.00     0.002 A 
ENDROOT
BRANCH   1   7
ATOM      7  C2  UNL d   1       0.092   0.479   0.581  0.00  0.00     0.056 C 
BRANCH   7   8
ATOM      8  C1  UNL d   1       0.144   1.556  -0.509  0.00  0.00     0.007 C 
ATOM      9  C   UNL d   1       0.526   2.931   0.024  0.00  0.00     0.009 C 
ENDBRANCH   7   8
ENDBRANCH   1   7
TORSDOF 2
ENDMDL
