MODEL 1
REMARK minimizedAffinity -4.75901461
REMARK minimizedRMSD -1
REMARK  2 active torsions:
REMARK  status: ('A' for Active; 'I' for Inactive)
REMARK    1  A    between atoms: C1_2  and  C2_3 
REMARK    2  A    between atoms: C2_3  and  C3_4 
ROOT
ATOM      1  C3  UNL d   1       0.430   1.971   0.191  0.00  0.00    -0.075 A 
ATOM      2  C4  UNL d   1       1.353   2.315  -0.808  0.00  0.00     0.002 A 
ATOM      3  C5  UNL d   1       2.034   3.531  -0.755  0.00  0.00     0.002 A 
ATOM      4  C6  UNL d   1       1.794   4.423   0.288  0.00  0.00    -0.004 A 
ATOM      5  C7  UNL d   1       0.867   4.099   1.277  0.00  0.00     0.002 A 
ATOM      6  C8  UNL d   1       0.188   2.880   1.229  0.00  0.00     0.002 A 
ENDROOT
BRANCH   1   7
ATOM      7  C2  UNL d   1      -0.288   0.643   0.156  0.00  0.00     0.056 C 
BRANCH   7   8
ATOM      8  C1  UNL d   1       0.346  -0.433   1.044  0.00  0.00     0.007 C 
ATOM      9  C   UNL d   1      -0.654  -1.468   1.540  0.00  0.00     0.009 C 
ENDBRANCH   7   8
ENDBRANCH   1   7
TORSDOF 2
ENDMDL
