MODEL 1
REMARK minimizedAffinity -4.38877869
REMARK minimizedRMSD -1
REMARK  2 active torsions:
REMARK  status: ('A' for Active; 'I' for Inactive)
REMARK    1  A    between atoms: C1_2  and  C2_3 
REMARK    2  A    between atoms: C2_3  and  C3_4 
ROOT
ATOM      1  C3  UNL d   1       0.556   1.836   0.084  0.00  0.00    -0.075 A 
ATOM      2  C4  UNL d   1       1.844   1.911  -0.465  0.00  0.00     0.002 A 
ATOM      3  C5  UNL d   1       2.606   3.071  -0.326  0.00  0.00     0.002 A 
ATOM      4  C6  UNL d   1       2.088   4.172   0.353  0.00  0.00    -0.004 A 
ATOM      5  C7  UNL d   1       0.804   4.113   0.889  0.00  0.00     0.002 A 
ATOM      6  C8  UNL d   1       0.040   2.952   0.755  0.00  0.00     0.002 A 
ENDROOT
BRANCH   1   7
ATOM      7  C2  UNL d   1      -0.263   0.573  -0.037  0.00  0.00     0.056 C 
BRANCH   7   8
ATOM      8  C1  UNL d   1      -0.103  -0.391   1.144  0.00  0.00     0.007 C 
ATOM      9  C   UNL d   1      -1.000  -1.617   1.045  0.00  0.00     0.009 C 
ENDBRANCH   7   8
ENDBRANCH   1   7
TORSDOF 2
ENDMDL
