MODEL 1
REMARK minimizedAffinity 2.82701921
REMARK minimizedRMSD -1
REMARK  0 active torsions:
REMARK  status: ('A' for Active; 'I' for Inactive)
ROOT
ATOM      1  C   UNL d   1       1.630  -0.623   2.527  0.00  0.00     0.077 C 
ATOM      2  C1  UNL d   1       2.182  -1.852   3.186  0.00  0.00    -0.074 A 
ATOM      3  C2  UNL d   1       1.427  -3.026   3.265  0.00  0.00    -0.005 A 
ATOM      4  C3  UNL d   1       1.958  -4.164   3.872  0.00  0.00     0.006 A 
ATOM      5  C4  UNL d   1       3.247  -4.139   4.406  0.00  0.00    -0.005 A 
ATOM      6  C5  UNL d   1       4.017  -2.974   4.335  0.00  0.00    -0.074 A 
ATOM      7  C6  UNL d   1       5.408  -2.934   4.895  0.00  0.00     0.077 C 
ATOM      8  C7  UNL d   1       3.479  -1.837   3.717  0.00  0.00    -0.001 A 
ENDROOT
TORSDOF 0
ENDMDL
