MODEL 1
REMARK minimizedAffinity 2.78957081
REMARK minimizedRMSD -1
REMARK  0 active torsions:
REMARK  status: ('A' for Active; 'I' for Inactive)
ROOT
ATOM      1  C   UNL d   1       1.498  -3.088   2.601  0.00  0.00     0.077 C 
ATOM      2  C1  UNL d   1       1.670  -1.667   3.048  0.00  0.00    -0.074 A 
ATOM      3  C2  UNL d   1       1.323  -1.274   4.344  0.00  0.00    -0.005 A 
ATOM      4  C3  UNL d   1       1.497   0.050   4.749  0.00  0.00     0.006 A 
ATOM      5  C4  UNL d   1       2.019   0.992   3.862  0.00  0.00    -0.005 A 
ATOM      6  C5  UNL d   1       2.373   0.618   2.562  0.00  0.00    -0.074 A 
ATOM      7  C6  UNL d   1       2.944   1.616   1.599  0.00  0.00     0.077 C 
ATOM      8  C7  UNL d   1       2.201  -0.715   2.165  0.00  0.00    -0.001 A 
ENDROOT
TORSDOF 0
ENDMDL
