MODEL 1
REMARK minimizedAffinity 0.313760489
REMARK minimizedRMSD -1
REMARK  0 active torsions:
REMARK  status: ('A' for Active; 'I' for Inactive)
ROOT
ATOM      1  C   UNL d   1       1.816  -4.494   6.000  0.00  0.00     0.077 C 
ATOM      2  C1  UNL d   1       1.952  -3.940   4.613  0.00  0.00    -0.074 A 
ATOM      3  C2  UNL d   1       2.285  -4.769   3.537  0.00  0.00    -0.005 A 
ATOM      4  C3  UNL d   1       2.398  -4.241   2.251  0.00  0.00     0.006 A 
ATOM      5  C4  UNL d   1       2.181  -2.881   2.028  0.00  0.00    -0.005 A 
ATOM      6  C5  UNL d   1       1.847  -2.037   3.091  0.00  0.00    -0.074 A 
ATOM      7  C6  UNL d   1       1.600  -0.574   2.867  0.00  0.00     0.077 C 
ATOM      8  C7  UNL d   1       1.727  -2.576   4.379  0.00  0.00    -0.001 A 
ENDROOT
TORSDOF 0
ENDMDL
