MODEL 1
REMARK minimizedAffinity -1.9072324
REMARK minimizedRMSD -1
REMARK  0 active torsions:
REMARK  status: ('A' for Active; 'I' for Inactive)
ROOT
ATOM      1  C   UNL d   1       1.815  -4.649   1.422  0.00  0.00     0.077 C 
ATOM      2  C1  UNL d   1       1.871  -3.461   2.336  0.00  0.00    -0.074 A 
ATOM      3  C2  UNL d   1       1.673  -3.603   3.713  0.00  0.00    -0.005 A 
ATOM      4  C3  UNL d   1       1.738  -2.490   4.551  0.00  0.00     0.006 A 
ATOM      5  C4  UNL d   1       2.000  -1.226   4.022  0.00  0.00    -0.005 A 
ATOM      6  C5  UNL d   1       2.202  -1.065   2.647  0.00  0.00    -0.074 A 
ATOM      7  C6  UNL d   1       2.494   0.285   2.063  0.00  0.00     0.077 C 
ATOM      8  C7  UNL d   1       2.142  -2.189   1.812  0.00  0.00    -0.001 A 
ENDROOT
TORSDOF 0
ENDMDL
