MODEL 1
REMARK minimizedAffinity 5.06054878
REMARK minimizedRMSD -1
REMARK  0 active torsions:
REMARK  status: ('A' for Active; 'I' for Inactive)
ROOT
ATOM      1  C   UNL d   1       2.607  -5.882  -5.934  0.00  0.00     0.077 C 
ATOM      2  C1  UNL d   1       2.774  -5.914  -4.444  0.00  0.00    -0.074 A 
ATOM      3  C2  UNL d   1       1.662  -5.960  -3.597  0.00  0.00    -0.005 A 
ATOM      4  C3  UNL d   1       1.833  -6.000  -2.214  0.00  0.00     0.006 A 
ATOM      5  C4  UNL d   1       3.116  -5.994  -1.664  0.00  0.00    -0.005 A 
ATOM      6  C5  UNL d   1       4.240  -5.949  -2.495  0.00  0.00    -0.074 A 
ATOM      7  C6  UNL d   1       5.625  -5.952  -1.921  0.00  0.00     0.077 C 
ATOM      8  C7  UNL d   1       4.060  -5.916  -3.885  0.00  0.00    -0.001 A 
ENDROOT
TORSDOF 0
ENDMDL
