MODEL 1
REMARK minimizedAffinity 0.750242472
REMARK minimizedRMSD -1
REMARK  0 active torsions:
REMARK  status: ('A' for Active; 'I' for Inactive)
ROOT
ATOM      1  C   UNL d   1       2.838  -4.656   3.197  0.00  0.00     0.077 C 
ATOM      2  C1  UNL d   1       2.349  -3.239   3.226  0.00  0.00    -0.074 A 
ATOM      3  C2  UNL d   1       1.527  -2.783   4.262  0.00  0.00    -0.005 A 
ATOM      4  C3  UNL d   1       1.087  -1.459   4.280  0.00  0.00     0.006 A 
ATOM      5  C4  UNL d   1       1.464  -0.580   3.264  0.00  0.00    -0.005 A 
ATOM      6  C5  UNL d   1       2.287  -1.017   2.221  0.00  0.00    -0.074 A 
ATOM      7  C6  UNL d   1       2.709  -0.082   1.127  0.00  0.00     0.077 C 
ATOM      8  C7  UNL d   1       2.730  -2.347   2.214  0.00  0.00    -0.001 A 
ENDROOT
TORSDOF 0
ENDMDL
