MODEL 1
REMARK minimizedAffinity -0.0242459103
REMARK minimizedRMSD -1
REMARK  0 active torsions:
REMARK  status: ('A' for Active; 'I' for Inactive)
ROOT
ATOM      1  C   UNL d   1       5.720  -5.946  -6.000  0.00  0.00     0.077 C 
ATOM      2  C1  UNL d   1       4.446  -5.958  -5.209  0.00  0.00    -0.074 A 
ATOM      3  C2  UNL d   1       3.203  -5.980  -5.850  0.00  0.00    -0.005 A 
ATOM      4  C3  UNL d   1       2.026  -6.000  -5.102  0.00  0.00     0.006 A 
ATOM      5  C4  UNL d   1       2.080  -5.998  -3.708  0.00  0.00    -0.005 A 
ATOM      6  C5  UNL d   1       3.313  -5.977  -3.049  0.00  0.00    -0.074 A 
ATOM      7  C6  UNL d   1       3.389  -5.984  -1.551  0.00  0.00     0.077 C 
ATOM      8  C7  UNL d   1       4.492  -5.964  -3.808  0.00  0.00    -0.001 A 
ENDROOT
TORSDOF 0
ENDMDL
