MODEL 1
REMARK minimizedAffinity 2.64079762
REMARK minimizedRMSD -1
REMARK  0 active torsions:
REMARK  status: ('A' for Active; 'I' for Inactive)
ROOT
ATOM      1  C   UNL d   1       1.911  -5.996  -5.186  0.00  0.00     0.077 C 
ATOM      2  C1  UNL d   1       2.736  -5.997  -3.934  0.00  0.00    -0.074 A 
ATOM      3  C2  UNL d   1       4.133  -5.976  -3.993  0.00  0.00    -0.005 A 
ATOM      4  C3  UNL d   1       4.887  -5.967  -2.820  0.00  0.00     0.006 A 
ATOM      5  C4  UNL d   1       4.253  -5.978  -1.577  0.00  0.00    -0.005 A 
ATOM      6  C5  UNL d   1       2.856  -5.997  -1.498  0.00  0.00    -0.074 A 
ATOM      7  C6  UNL d   1       2.159  -5.999  -0.170  0.00  0.00     0.077 C 
ATOM      8  C7  UNL d   1       2.106  -5.999  -2.681  0.00  0.00    -0.001 A 
ENDROOT
TORSDOF 0
ENDMDL
