MODEL 1
REMARK minimizedAffinity -4.94642067
REMARK minimizedRMSD -1
REMARK  0 active torsions:
REMARK  status: ('A' for Active; 'I' for Inactive)
ROOT
ATOM      1  C1  DEN d   1      -0.564   0.231   0.968  0.00  0.00     0.130 A 
ATOM      2  C2  DEN d   1      -1.585   1.260   0.789  0.00  0.00    -0.031 A 
ATOM      3  C3  DEN d   1      -1.680   1.562  -0.653  0.00  0.00     0.027 A 
ATOM      4  C4  DEN d   1      -0.357   0.539  -2.616  0.00  0.00     0.027 A 
ATOM      5  C5  DEN d   1       0.627  -0.363  -2.958  0.00  0.00    -0.003 A 
ATOM      6  C6  DEN d   1       1.301  -1.098  -2.020  0.00  0.00     0.001 A 
ATOM      7  C7  DEN d   1       0.968  -0.979  -0.696  0.00  0.00     0.017 A 
ATOM      8  C8  DEN d   1      -0.017  -0.067  -0.343  0.00  0.00    -0.094 A 
ATOM      9  C9  DEN d   1      -0.696   0.659  -1.308  0.00  0.00    -0.072 A 
ENDROOT
TORSDOF 0
ENDMDL
