MODEL 1
REMARK minimizedAffinity -2.10962296
REMARK minimizedRMSD -1
REMARK  0 active torsions:
REMARK  status: ('A' for Active; 'I' for Inactive)
ROOT
ATOM      1  C1  DEN d   1       1.304   0.726  -0.619  0.00  0.00     0.130 A 
ATOM      2  C2  DEN d   1       1.095  -0.009  -1.863  0.00  0.00    -0.031 A 
ATOM      3  C3  DEN d   1      -0.226  -0.666  -1.788  0.00  0.00     0.027 A 
ATOM      4  C4  DEN d   1      -1.958  -0.613   0.122  0.00  0.00     0.027 A 
ATOM      5  C5  DEN d   1      -2.222  -0.131   1.385  0.00  0.00    -0.003 A 
ATOM      6  C6  DEN d   1      -1.322   0.635   2.077  0.00  0.00     0.001 A 
ATOM      7  C7  DEN d   1      -0.133   0.981   1.491  0.00  0.00     0.017 A 
ATOM      8  C8  DEN d   1       0.143   0.493   0.221  0.00  0.00    -0.094 A 
ATOM      9  C9  DEN d   1      -0.785  -0.270  -0.467  0.00  0.00    -0.072 A 
ENDROOT
TORSDOF 0
ENDMDL
