MODEL 1
REMARK minimizedAffinity -4.91078424
REMARK minimizedRMSD -1
REMARK  0 active torsions:
REMARK  status: ('A' for Active; 'I' for Inactive)
ROOT
ATOM      1  C1  DEN d   1      -0.940   1.895  -0.860  0.00  0.00     0.130 A 
ATOM      2  C2  DEN d   1      -1.581   1.084   0.172  0.00  0.00    -0.031 A 
ATOM      3  C3  DEN d   1      -1.141  -0.314  -0.008  0.00  0.00     0.027 A 
ATOM      4  C4  DEN d   1       0.464  -1.297  -1.771  0.00  0.00     0.027 A 
ATOM      5  C5  DEN d   1       1.248  -1.001  -2.864  0.00  0.00    -0.003 A 
ATOM      6  C6  DEN d   1       1.331   0.265  -3.383  0.00  0.00     0.001 A 
ATOM      7  C7  DEN d   1       0.652   1.291  -2.780  0.00  0.00     0.017 A 
ATOM      8  C8  DEN d   1      -0.147   0.998  -1.682  0.00  0.00    -0.094 A 
ATOM      9  C9  DEN d   1      -0.207  -0.285  -1.166  0.00  0.00    -0.072 A 
ENDROOT
TORSDOF 0
ENDMDL
