MODEL 1
REMARK minimizedAffinity 1.03724027
REMARK minimizedRMSD -1
REMARK  0 active torsions:
REMARK  status: ('A' for Active; 'I' for Inactive)
ROOT
ATOM      1  C1  DEN d   1       1.128  -0.758  -0.519  0.00  0.00     0.130 A 
ATOM      2  C2  DEN d   1       0.334  -0.478  -1.712  0.00  0.00    -0.031 A 
ATOM      3  C3  DEN d   1      -0.926   0.162  -1.281  0.00  0.00     0.027 A 
ATOM      4  C4  DEN d   1      -1.716   0.748   1.103  0.00  0.00     0.027 A 
ATOM      5  C5  DEN d   1      -1.388   0.691   2.440  0.00  0.00    -0.003 A 
ATOM      6  C6  DEN d   1      -0.224   0.122   2.883  0.00  0.00     0.001 A 
ATOM      7  C7  DEN d   1       0.677  -0.374   1.977  0.00  0.00     0.017 A 
ATOM      8  C8  DEN d   1       0.350  -0.327   0.629  0.00  0.00    -0.094 A 
ATOM      9  C9  DEN d   1      -0.826   0.264   0.200  0.00  0.00    -0.072 A 
ENDROOT
TORSDOF 0
ENDMDL
