MODEL 1
REMARK minimizedAffinity -1.36640394
REMARK minimizedRMSD -1
REMARK  0 active torsions:
REMARK  status: ('A' for Active; 'I' for Inactive)
ROOT
ATOM      1  C1  DEN d   1       1.455   0.260  -0.369  0.00  0.00     0.130 A 
ATOM      2  C2  DEN d   1       0.276  -0.408   0.175  0.00  0.00    -0.031 A 
ATOM      3  C3  DEN d   1      -0.582  -0.813  -0.958  0.00  0.00     0.027 A 
ATOM      4  C4  DEN d   1      -0.197  -0.476  -3.486  0.00  0.00     0.027 A 
ATOM      5  C5  DEN d   1       0.656   0.048  -4.431  0.00  0.00    -0.003 A 
ATOM      6  C6  DEN d   1       1.809   0.705  -4.090  0.00  0.00     0.001 A 
ATOM      7  C7  DEN d   1       2.164   0.814  -2.772  0.00  0.00     0.017 A 
ATOM      8  C8  DEN d   1       1.305   0.294  -1.812  0.00  0.00    -0.094 A 
ATOM      9  C9  DEN d   1       0.150  -0.377  -2.177  0.00  0.00    -0.072 A 
ENDROOT
TORSDOF 0
ENDMDL
