MODEL 1
REMARK minimizedAffinity -4.0132494
REMARK minimizedRMSD -1
REMARK  1 active torsions:
REMARK  status: ('A' for Active; 'I' for Inactive)
REMARK    1  A    between atoms: N_2  and  C1_3 
ROOT
ATOM      1  C1  UNL d   1       0.325   0.554   0.171  0.00  0.00     0.143 A 
ATOM      2  C2  UNL d   1       1.244  -0.476   0.400  0.00  0.00    -0.057 A 
ATOM      3  C3  UNL d   1       0.827  -1.736   0.846  0.00  0.00     0.033 A 
ATOM      4  C4  UNL d   1      -0.518  -1.980   1.099  0.00  0.00    -0.042 A 
ATOM      5  C5  UNL d   1      -1.447  -0.964   0.902  0.00  0.00     0.033 A 
ATOM      6  C6  UNL d   1      -1.025   0.290   0.451  0.00  0.00    -0.057 A 
ENDROOT
BRANCH   1   7
ATOM      7  N   UNL d   1       0.687   1.857  -0.177  0.00  0.00    -0.732 N 
ATOM      8  C   UNL d   1       0.805   2.243  -1.567  0.00  0.00     0.284 C 
ATOM      9  H3  UNL d   1       0.239   2.555   0.411  0.00  0.00     0.395 HD
ENDBRANCH   1   7
TORSDOF 1
ENDMDL
