MODEL 1
REMARK minimizedAffinity -4.66479349
REMARK minimizedRMSD -1
REMARK  1 active torsions:
REMARK  status: ('A' for Active; 'I' for Inactive)
REMARK    1  A    between atoms: N_2  and  C1_3 
ROOT
ATOM      1  C1  UNL d   1       0.277  -0.275   0.486  0.00  0.00     0.143 A 
ATOM      2  C2  UNL d   1      -0.830  -0.451   1.324  0.00  0.00    -0.057 A 
ATOM      3  C3  UNL d   1      -1.156  -1.710   1.841  0.00  0.00     0.033 A 
ATOM      4  C4  UNL d   1      -0.395  -2.825   1.504  0.00  0.00    -0.042 A 
ATOM      5  C5  UNL d   1       0.694  -2.678   0.653  0.00  0.00     0.033 A 
ATOM      6  C6  UNL d   1       1.019  -1.416   0.145  0.00  0.00    -0.057 A 
ENDROOT
BRANCH   1   7
ATOM      7  N   UNL d   1       0.595   0.934  -0.139  0.00  0.00    -0.732 N 
ATOM      8  C   UNL d   1       0.254   1.158  -1.527  0.00  0.00     0.284 C 
ATOM      9  H3  UNL d   1       0.432   1.737   0.464  0.00  0.00     0.395 HD
ENDBRANCH   1   7
TORSDOF 1
ENDMDL
