MODEL 1
REMARK minimizedAffinity -3.22636819
REMARK minimizedRMSD -1
REMARK  1 active torsions:
REMARK  status: ('A' for Active; 'I' for Inactive)
REMARK    1  A    between atoms: N_2  and  C1_3 
ROOT
ATOM      1  C1  UNL d   1       0.036   0.035  -0.168  0.00  0.00     0.143 A 
ATOM      2  C2  UNL d   1      -0.208  -0.331   1.161  0.00  0.00    -0.057 A 
ATOM      3  C3  UNL d   1      -0.843  -1.537   1.477  0.00  0.00     0.033 A 
ATOM      4  C4  UNL d   1      -1.274  -2.389   0.465  0.00  0.00    -0.042 A 
ATOM      5  C5  UNL d   1      -1.066  -2.035  -0.863  0.00  0.00     0.033 A 
ATOM      6  C6  UNL d   1      -0.424  -0.832  -1.172  0.00  0.00    -0.057 A 
ENDROOT
BRANCH   1   7
ATOM      7  N   UNL d   1       0.574   1.266  -0.550  0.00  0.00    -0.732 N 
ATOM      8  C   UNL d   1       0.308   1.812  -1.863  0.00  0.00     0.284 C 
ATOM      9  H3  UNL d   1       0.543   1.953   0.200  0.00  0.00     0.395 HD
ENDBRANCH   1   7
TORSDOF 1
ENDMDL
