MODEL 1
REMARK minimizedAffinity -3.53231549
REMARK minimizedRMSD -1
REMARK  1 active torsions:
REMARK  status: ('A' for Active; 'I' for Inactive)
REMARK    1  A    between atoms: N_2  and  C1_3 
ROOT
ATOM      1  C1  UNL d   1      -0.423  -0.289   0.509  0.00  0.00     0.143 A 
ATOM      2  C2  UNL d   1      -1.539   0.175   1.214  0.00  0.00    -0.057 A 
ATOM      3  C3  UNL d   1      -2.194  -0.634   2.149  0.00  0.00     0.033 A 
ATOM      4  C4  UNL d   1      -1.762  -1.937   2.376  0.00  0.00    -0.042 A 
ATOM      5  C5  UNL d   1      -0.670  -2.427   1.668  0.00  0.00     0.033 A 
ATOM      6  C6  UNL d   1      -0.015  -1.612   0.740  0.00  0.00    -0.057 A 
ENDROOT
BRANCH   1   7
ATOM      7  N   UNL d   1       0.212   0.433  -0.505  0.00  0.00    -0.732 N 
ATOM      8  C   UNL d   1      -0.272   0.371  -1.868  0.00  0.00     0.284 C 
ATOM      9  H3  UNL d   1       0.488   1.365  -0.204  0.00  0.00     0.395 HD
ENDBRANCH   1   7
TORSDOF 1
ENDMDL
