MODEL 1
REMARK minimizedAffinity -3.45263433
REMARK minimizedRMSD -1
REMARK  1 active torsions:
REMARK  status: ('A' for Active; 'I' for Inactive)
REMARK    1  A    between atoms: N_2  and  C1_3 
ROOT
ATOM      1  C1  UNL d   1       0.626   0.891  -1.118  0.00  0.00     0.143 A 
ATOM      2  C2  UNL d   1      -0.005   1.045   0.121  0.00  0.00    -0.057 A 
ATOM      3  C3  UNL d   1      -0.203  -0.046   0.976  0.00  0.00     0.033 A 
ATOM      4  C4  UNL d   1       0.202  -1.320   0.592  0.00  0.00    -0.042 A 
ATOM      5  C5  UNL d   1       0.808  -1.501  -0.646  0.00  0.00     0.033 A 
ATOM      6  C6  UNL d   1       1.009  -0.406  -1.492  0.00  0.00    -0.057 A 
ENDROOT
BRANCH   1   7
ATOM      7  N   UNL d   1       0.763   1.919  -2.054  0.00  0.00    -0.732 N 
ATOM      8  C   UNL d   1       1.910   1.964  -2.936  0.00  0.00     0.284 C 
ATOM      9  H3  UNL d   1      -0.118   2.154  -2.505  0.00  0.00     0.395 HD
ENDBRANCH   1   7
TORSDOF 1
ENDMDL
