MODEL 1
REMARK minimizedAffinity -4.38118505
REMARK minimizedRMSD -1
REMARK  1 active torsions:
REMARK  status: ('A' for Active; 'I' for Inactive)
REMARK    1  A    between atoms: N_2  and  C1_3 
ROOT
ATOM      1  C1  UNL d   1       0.297   0.534   0.141  0.00  0.00     0.143 A 
ATOM      2  C2  UNL d   1      -1.034   0.201   0.415  0.00  0.00    -0.057 A 
ATOM      3  C3  UNL d   1      -1.400  -1.107   0.753  0.00  0.00     0.033 A 
ATOM      4  C4  UNL d   1      -0.443  -2.115   0.796  0.00  0.00    -0.042 A 
ATOM      5  C5  UNL d   1       0.882  -1.812   0.504  0.00  0.00     0.033 A 
ATOM      6  C6  UNL d   1       1.243  -0.503   0.173  0.00  0.00    -0.057 A 
ENDROOT
BRANCH   1   7
ATOM      7  N   UNL d   1       0.709   1.795  -0.298  0.00  0.00    -0.732 N 
ATOM      8  C   UNL d   1       0.767   2.101  -1.711  0.00  0.00     0.284 C 
ATOM      9  H3  UNL d   1       0.334   2.547   0.276  0.00  0.00     0.395 HD
ENDBRANCH   1   7
TORSDOF 1
ENDMDL
