MODEL 1
REMARK minimizedAffinity -2.49519944
REMARK minimizedRMSD -1
REMARK  1 active torsions:
REMARK  status: ('A' for Active; 'I' for Inactive)
REMARK    1  A    between atoms: N_2  and  C1_3 
ROOT
ATOM      1  C1  UNL d   1       0.225   0.848  -1.193  0.00  0.00     0.143 A 
ATOM      2  C2  UNL d   1       1.325   0.176  -0.649  0.00  0.00    -0.057 A 
ATOM      3  C3  UNL d   1       1.160  -0.825   0.316  0.00  0.00     0.033 A 
ATOM      4  C4  UNL d   1      -0.111  -1.151   0.778  0.00  0.00    -0.042 A 
ATOM      5  C5  UNL d   1      -1.217  -0.479   0.271  0.00  0.00     0.033 A 
ATOM      6  C6  UNL d   1      -1.046   0.514  -0.698  0.00  0.00    -0.057 A 
ENDROOT
BRANCH   1   7
ATOM      7  N   UNL d   1       0.330   1.920  -2.083  0.00  0.00    -0.732 N 
ATOM      8  C   UNL d   1       1.469   2.034  -2.967  0.00  0.00     0.284 C 
ATOM      9  H3  UNL d   1      -0.560   2.151  -2.519  0.00  0.00     0.395 HD
ENDBRANCH   1   7
TORSDOF 1
ENDMDL
