MODEL 1
REMARK minimizedAffinity -3.43523717
REMARK minimizedRMSD -1
REMARK  1 active torsions:
REMARK  status: ('A' for Active; 'I' for Inactive)
REMARK    1  A    between atoms: N_2  and  C1_3 
ROOT
ATOM      1  C1  UNL d   1      -0.162  -0.912   0.273  0.00  0.00     0.143 A 
ATOM      2  C2  UNL d   1      -0.126  -0.902  -1.126  0.00  0.00    -0.057 A 
ATOM      3  C3  UNL d   1       0.185   0.264  -1.836  0.00  0.00     0.033 A 
ATOM      4  C4  UNL d   1       0.438   1.452  -1.157  0.00  0.00    -0.042 A 
ATOM      5  C5  UNL d   1       0.383   1.471   0.232  0.00  0.00     0.033 A 
ATOM      6  C6  UNL d   1       0.079   0.302   0.935  0.00  0.00    -0.057 A 
ENDROOT
BRANCH   1   7
ATOM      7  N   UNL d   1      -0.561  -2.015   1.033  0.00  0.00    -0.732 N 
ATOM      8  C   UNL d   1      -1.757  -2.753   0.689  0.00  0.00     0.284 C 
ATOM      9  H3  UNL d   1       0.224  -2.600   1.309  0.00  0.00     0.395 HD
ENDBRANCH   1   7
TORSDOF 1
ENDMDL
