MODEL 1
REMARK minimizedAffinity -4.98911238
REMARK minimizedRMSD -1
REMARK  1 active torsions:
REMARK  status: ('A' for Active; 'I' for Inactive)
REMARK    1  A    between atoms: N_2  and  C1_3 
ROOT
ATOM      1  C1  UNL d   1       0.091  -0.263   0.154  0.00  0.00     0.143 A 
ATOM      2  C2  UNL d   1       0.807  -1.296   0.769  0.00  0.00    -0.057 A 
ATOM      3  C3  UNL d   1       0.153  -2.393   1.341  0.00  0.00     0.033 A 
ATOM      4  C4  UNL d   1      -1.237  -2.463   1.333  0.00  0.00    -0.042 A 
ATOM      5  C5  UNL d   1      -1.970  -1.436   0.750  0.00  0.00     0.033 A 
ATOM      6  C6  UNL d   1      -1.310  -0.346   0.174  0.00  0.00    -0.057 A 
ENDROOT
BRANCH   1   7
ATOM      7  N   UNL d   1       0.679   0.901  -0.346  0.00  0.00    -0.732 N 
ATOM      8  C   UNL d   1       0.846   1.090  -1.771  0.00  0.00     0.284 C 
ATOM      9  H3  UNL d   1       0.373   1.735   0.151  0.00  0.00     0.395 HD
ENDBRANCH   1   7
TORSDOF 1
ENDMDL
