MODEL 1
REMARK minimizedAffinity 12.3790941
REMARK minimizedRMSD -1
REMARK  1 active torsions:
REMARK  status: ('A' for Active; 'I' for Inactive)
REMARK    1  A    between atoms: C1_2  and  C2_3 
ROOT
ATOM      1  C2  UNL d   1       1.730  -2.553  -0.714  0.00  0.00    -0.076 A 
ATOM      2  C3  UNL d   1       2.360  -1.399  -0.218  0.00  0.00     0.004 A 
ATOM      3  C4  UNL d   1       2.073  -0.141  -0.745  0.00  0.00    -0.003 A 
ATOM      4  C5  UNL d   1       1.149  -0.017  -1.776  0.00  0.00     0.000 A 
ATOM      5  C6  UNL d   1       0.501  -1.149  -2.269  0.00  0.00     0.000 A 
ATOM      6  C7  UNL d   1       0.767  -2.423  -1.738  0.00  0.00    -0.073 A 
ATOM      7  C8  UNL d   1       0.044  -3.610  -2.312  0.00  0.00     0.078 C 
ENDROOT
BRANCH   1   8
ATOM      8  C1  UNL d   1       2.102  -3.894  -0.122  0.00  0.00     0.053 C 
ATOM      9  C   UNL d   1       3.526  -4.306  -0.462  0.00  0.00     0.018 C 
ENDBRANCH   1   8
TORSDOF 1
ENDMDL
