MODEL 1
REMARK minimizedAffinity 13.011344
REMARK minimizedRMSD -1
REMARK  1 active torsions:
REMARK  status: ('A' for Active; 'I' for Inactive)
REMARK    1  A    between atoms: C1_2  and  C2_3 
ROOT
ATOM      1  C2  UNL d   1       1.123  -2.217  -1.549  0.00  0.00    -0.076 A 
ATOM      2  C3  UNL d   1       1.747  -3.149  -0.702  0.00  0.00     0.004 A 
ATOM      3  C4  UNL d   1       3.039  -2.933  -0.225  0.00  0.00    -0.003 A 
ATOM      4  C5  UNL d   1       3.727  -1.781  -0.587  0.00  0.00     0.000 A 
ATOM      5  C6  UNL d   1       3.117  -0.837  -1.412  0.00  0.00     0.000 A 
ATOM      6  C7  UNL d   1       1.809  -1.032  -1.889  0.00  0.00    -0.073 A 
ATOM      7  C8  UNL d   1       1.202   0.016  -2.781  0.00  0.00     0.078 C 
ENDROOT
BRANCH   1   8
ATOM      8  C1  UNL d   1      -0.269  -2.519  -2.057  0.00  0.00     0.053 C 
ATOM      9  C   UNL d   1      -0.474  -3.996  -2.352  0.00  0.00     0.018 C 
ENDBRANCH   1   8
TORSDOF 1
ENDMDL
