MODEL 1
REMARK minimizedAffinity 5.14807892
REMARK minimizedRMSD -1
REMARK  1 active torsions:
REMARK  status: ('A' for Active; 'I' for Inactive)
REMARK    1  A    between atoms: C1_2  and  C2_3 
ROOT
ATOM      1  C2  UNL d   1       0.899  -2.399  -1.574  0.00  0.00    -0.076 A 
ATOM      2  C3  UNL d   1       0.237  -1.207  -1.916  0.00  0.00     0.004 A 
ATOM      3  C4  UNL d   1       0.870   0.028  -1.786  0.00  0.00    -0.003 A 
ATOM      4  C5  UNL d   1       2.175   0.091  -1.311  0.00  0.00     0.000 A 
ATOM      5  C6  UNL d   1       2.853  -1.083  -0.983  0.00  0.00     0.000 A 
ATOM      6  C7  UNL d   1       2.235  -2.337  -1.125  0.00  0.00    -0.073 A 
ATOM      7  C8  UNL d   1       3.011  -3.570  -0.750  0.00  0.00     0.078 C 
ENDROOT
BRANCH   1   8
ATOM      8  C1  UNL d   1       0.152  -3.707  -1.711  0.00  0.00     0.053 C 
ATOM      9  C   UNL d   1      -1.213  -3.533  -2.359  0.00  0.00     0.018 C 
ENDBRANCH   1   8
TORSDOF 1
ENDMDL
