MODEL 1
REMARK minimizedAffinity 11.7536392
REMARK minimizedRMSD -1
REMARK  1 active torsions:
REMARK  status: ('A' for Active; 'I' for Inactive)
REMARK    1  A    between atoms: C1_2  and  C2_3 
ROOT
ATOM      1  C2  UNL d   1       2.565  -0.669  -1.053  0.00  0.00    -0.076 A 
ATOM      2  C3  UNL d   1       2.626  -1.648  -0.046  0.00  0.00     0.004 A 
ATOM      3  C4  UNL d   1       1.663  -2.652   0.038  0.00  0.00    -0.003 A 
ATOM      4  C5  UNL d   1       0.623  -2.693  -0.884  0.00  0.00     0.000 A 
ATOM      5  C6  UNL d   1       0.556  -1.740  -1.900  0.00  0.00     0.000 A 
ATOM      6  C7  UNL d   1       1.529  -0.731  -2.009  0.00  0.00    -0.073 A 
ATOM      7  C8  UNL d   1       1.405   0.274  -3.121  0.00  0.00     0.078 C 
ENDROOT
BRANCH   1   8
ATOM      8  C1  UNL d   1       3.623   0.411  -1.078  0.00  0.00     0.053 C 
ATOM      9  C   UNL d   1       4.413   0.483   0.220  0.00  0.00     0.018 C 
ENDBRANCH   1   8
TORSDOF 1
ENDMDL
