MODEL 1
REMARK minimizedAffinity 22.7712116
REMARK minimizedRMSD -1
REMARK  1 active torsions:
REMARK  status: ('A' for Active; 'I' for Inactive)
REMARK    1  A    between atoms: C1_2  and  C2_3 
ROOT
ATOM      1  C2  UNL d   1      -0.095  -4.810  -2.108  0.00  0.00    -0.076 A 
ATOM      2  C3  UNL d   1      -0.896  -3.661  -2.227  0.00  0.00     0.004 A 
ATOM      3  C4  UNL d   1      -0.675  -2.545  -1.422  0.00  0.00    -0.003 A 
ATOM      4  C5  UNL d   1       0.352  -2.560  -0.484  0.00  0.00     0.000 A 
ATOM      5  C6  UNL d   1       1.168  -3.685  -0.365  0.00  0.00     0.000 A 
ATOM      6  C7  UNL d   1       0.968  -4.812  -1.180  0.00  0.00    -0.073 A 
ATOM      7  C8  UNL d   1       1.874  -6.000  -1.004  0.00  0.00     0.078 C 
ENDROOT
BRANCH   1   8
ATOM      8  C1  UNL d   1      -0.400  -6.000  -2.990  0.00  0.00     0.053 C 
ATOM      9  C   UNL d   1      -0.759  -5.595  -4.411  0.00  0.00     0.018 C 
ENDBRANCH   1   8
TORSDOF 1
ENDMDL
