MODEL 1
REMARK minimizedAffinity 14.1786928
REMARK minimizedRMSD -1
REMARK  1 active torsions:
REMARK  status: ('A' for Active; 'I' for Inactive)
REMARK    1  A    between atoms: C1_2  and  C2_3 
ROOT
ATOM      1  C2  UNL d   1      -0.914   1.558   3.868  0.00  0.00    -0.076 A 
ATOM      2  C3  UNL d   1      -1.017   2.301   5.057  0.00  0.00     0.004 A 
ATOM      3  C4  UNL d   1       0.026   2.322   5.982  0.00  0.00    -0.003 A 
ATOM      4  C5  UNL d   1       1.190   1.602   5.732  0.00  0.00     0.000 A 
ATOM      5  C6  UNL d   1       1.316   0.875   4.549  0.00  0.00     0.000 A 
ATOM      6  C7  UNL d   1       0.280   0.856   3.599  0.00  0.00    -0.073 A 
ATOM      7  C8  UNL d   1       0.467   0.049   2.343  0.00  0.00     0.078 C 
ENDROOT
BRANCH   1   8
ATOM      8  C1  UNL d   1      -2.088   1.551   2.916  0.00  0.00     0.053 C 
ATOM      9  C   UNL d   1      -3.424   1.482   3.638  0.00  0.00     0.018 C 
ENDBRANCH   1   8
TORSDOF 1
ENDMDL
