MODEL 1
REMARK minimizedAffinity 16.4205971
REMARK minimizedRMSD -1
REMARK  1 active torsions:
REMARK  status: ('A' for Active; 'I' for Inactive)
REMARK    1  A    between atoms: C1_2  and  C2_3 
ROOT
ATOM      1  C2  UNL d   1      -4.423  -0.495   4.192  0.00  0.00    -0.076 A 
ATOM      2  C3  UNL d   1      -3.419   0.296   4.777  0.00  0.00     0.004 A 
ATOM      3  C4  UNL d   1      -2.889   1.396   4.104  0.00  0.00    -0.003 A 
ATOM      4  C5  UNL d   1      -3.354   1.722   2.835  0.00  0.00     0.000 A 
ATOM      5  C6  UNL d   1      -4.362   0.959   2.247  0.00  0.00     0.000 A 
ATOM      6  C7  UNL d   1      -4.919  -0.142   2.919  0.00  0.00    -0.073 A 
ATOM      7  C8  UNL d   1      -6.000  -0.934   2.234  0.00  0.00     0.078 C 
ENDROOT
BRANCH   1   8
ATOM      8  C1  UNL d   1      -4.941  -1.691   4.958  0.00  0.00     0.053 C 
ATOM      9  C   UNL d   1      -4.070  -2.924   4.772  0.00  0.00     0.018 C 
ENDBRANCH   1   8
TORSDOF 1
ENDMDL
