MODEL 1
REMARK minimizedAffinity 12.4978352
REMARK minimizedRMSD -1
REMARK  1 active torsions:
REMARK  status: ('A' for Active; 'I' for Inactive)
REMARK    1  A    between atoms: C1_2  and  C2_3 
ROOT
ATOM      1  C2  UNL d   1       1.869   0.899   1.025  0.00  0.00    -0.076 A 
ATOM      2  C3  UNL d   1       2.896   1.660   1.610  0.00  0.00     0.004 A 
ATOM      3  C4  UNL d   1       4.177   1.677   1.063  0.00  0.00    -0.003 A 
ATOM      4  C5  UNL d   1       4.453   0.934  -0.080  0.00  0.00     0.000 A 
ATOM      5  C6  UNL d   1       3.442   0.188  -0.684  0.00  0.00     0.000 A 
ATOM      6  C7  UNL d   1       2.140   0.172  -0.154  0.00  0.00    -0.073 A 
ATOM      7  C8  UNL d   1       1.090  -0.655  -0.843  0.00  0.00     0.078 C 
ENDROOT
BRANCH   1   8
ATOM      8  C1  UNL d   1       0.505   0.898   1.679  0.00  0.00     0.053 C 
ATOM      9  C   UNL d   1       0.527   1.505   3.073  0.00  0.00     0.018 C 
ENDBRANCH   1   8
TORSDOF 1
ENDMDL
