MODEL 1
REMARK minimizedAffinity 12.5065842
REMARK minimizedRMSD -1
REMARK  1 active torsions:
REMARK  status: ('A' for Active; 'I' for Inactive)
REMARK    1  A    between atoms: C1_2  and  C2_3 
ROOT
ATOM      1  C2  UNL d   1       1.924  -0.436  -1.354  0.00  0.00    -0.076 A 
ATOM      2  C3  UNL d   1       1.728  -1.325  -0.283  0.00  0.00     0.004 A 
ATOM      3  C4  UNL d   1       0.790  -2.353  -0.365  0.00  0.00    -0.003 A 
ATOM      4  C5  UNL d   1       0.032  -2.508  -1.521  0.00  0.00     0.000 A 
ATOM      5  C6  UNL d   1       0.226  -1.646  -2.600  0.00  0.00     0.000 A 
ATOM      6  C7  UNL d   1       1.180  -0.615  -2.539  0.00  0.00    -0.073 A 
ATOM      7  C8  UNL d   1       1.343   0.289  -3.730  0.00  0.00     0.078 C 
ENDROOT
BRANCH   1   8
ATOM      8  C1  UNL d   1       2.937   0.675  -1.196  0.00  0.00     0.053 C 
ATOM      9  C   UNL d   1       3.514   0.742   0.209  0.00  0.00     0.018 C 
ENDBRANCH   1   8
TORSDOF 1
ENDMDL
