MODEL 1
REMARK minimizedAffinity 6.64142036
REMARK minimizedRMSD -1
REMARK  1 active torsions:
REMARK  status: ('A' for Active; 'I' for Inactive)
REMARK    1  A    between atoms: C1_2  and  C2_3 
ROOT
ATOM      1  C2  UNL d   1      -0.920   1.486   3.668  0.00  0.00    -0.076 A 
ATOM      2  C3  UNL d   1      -1.191   1.861   4.995  0.00  0.00     0.004 A 
ATOM      3  C4  UNL d   1      -0.240   1.687   5.999  0.00  0.00    -0.003 A 
ATOM      4  C5  UNL d   1       0.999   1.136   5.691  0.00  0.00     0.000 A 
ATOM      5  C6  UNL d   1       1.292   0.775   4.377  0.00  0.00     0.000 A 
ATOM      6  C7  UNL d   1       0.350   0.959   3.350  0.00  0.00    -0.073 A 
ATOM      7  C8  UNL d   1       0.718   0.546   1.951  0.00  0.00     0.078 C 
ENDROOT
BRANCH   1   8
ATOM      8  C1  UNL d   1      -2.000   1.673   2.627  0.00  0.00     0.053 C 
ATOM      9  C   UNL d   1      -3.393   1.413   3.179  0.00  0.00     0.018 C 
ENDBRANCH   1   8
TORSDOF 1
ENDMDL
