MODEL 1
REMARK minimizedAffinity 14.5182352
REMARK minimizedRMSD -1
REMARK  1 active torsions:
REMARK  status: ('A' for Active; 'I' for Inactive)
REMARK    1  A    between atoms: C1_2  and  C2_3 
ROOT
ATOM      1  C2  UNL d   1      -1.195   1.562   2.599  0.00  0.00    -0.076 A 
ATOM      2  C3  UNL d   1      -2.067   1.357   1.515  0.00  0.00     0.004 A 
ATOM      3  C4  UNL d   1      -3.433   1.171   1.719  0.00  0.00    -0.003 A 
ATOM      4  C5  UNL d   1      -3.950   1.188   3.009  0.00  0.00     0.000 A 
ATOM      5  C6  UNL d   1      -3.102   1.408   4.095  0.00  0.00     0.000 A 
ATOM      6  C7  UNL d   1      -1.725   1.613   3.906  0.00  0.00    -0.073 A 
ATOM      7  C8  UNL d   1      -0.856   1.840   5.112  0.00  0.00     0.078 C 
ENDROOT
BRANCH   1   8
ATOM      8  C1  UNL d   1       0.281   1.730   2.318  0.00  0.00     0.053 C 
ATOM      9  C   UNL d   1       0.789   0.759   1.263  0.00  0.00     0.018 C 
ENDBRANCH   1   8
TORSDOF 1
ENDMDL
