MODEL 1
REMARK minimizedAffinity -3.88255835
REMARK minimizedRMSD -1
REMARK  1 active torsions:
REMARK  status: ('A' for Active; 'I' for Inactive)
REMARK    1  A    between atoms: C1_2  and  C2_3 
ROOT
ATOM      1  C2  UNL d   1       1.154  -1.468   0.847  0.00  0.00    -0.081 A 
ATOM      2  C3  UNL d   1       1.604  -1.315  -0.470  0.00  0.00     0.006 A 
ATOM      3  C4  UNL d   1       0.867  -0.563  -1.388  0.00  0.00     0.002 A 
ATOM      4  C5  UNL d   1      -0.327   0.056  -1.002  0.00  0.00    -0.080 A 
ATOM      5  C6  UNL d   1      -1.112   0.891  -1.968  0.00  0.00     0.076 C 
ATOM      6  C7  UNL d   1      -0.786  -0.112   0.309  0.00  0.00     0.002 A 
ATOM      7  C8  UNL d   1      -0.049  -0.865   1.227  0.00  0.00     0.006 A 
ENDROOT
BRANCH   1   8
ATOM      8  C1  UNL d   1       1.980  -2.225   1.856  0.00  0.00     0.054 C 
ATOM      9  C   UNL d   1       1.976  -1.528   3.209  0.00  0.00     0.018 C 
ENDBRANCH   1   8
TORSDOF 1
ENDMDL
