MODEL 1
REMARK minimizedAffinity -3.68350625
REMARK minimizedRMSD -1
REMARK  1 active torsions:
REMARK  status: ('A' for Active; 'I' for Inactive)
REMARK    1  A    between atoms: C1_2  and  C2_3 
ROOT
ATOM      1  C2  UNL d   1      -0.440   1.321  -1.124  0.00  0.00    -0.081 A 
ATOM      2  C3  UNL d   1      -0.821  -0.026  -1.085  0.00  0.00     0.006 A 
ATOM      3  C4  UNL d   1      -0.739  -0.750   0.106  0.00  0.00     0.002 A 
ATOM      4  C5  UNL d   1      -0.282  -0.139   1.279  0.00  0.00    -0.080 A 
ATOM      5  C6  UNL d   1      -0.218  -0.897   2.571  0.00  0.00     0.076 C 
ATOM      6  C7  UNL d   1       0.115   1.202   1.236  0.00  0.00     0.002 A 
ATOM      7  C8  UNL d   1       0.034   1.927   0.045  0.00  0.00     0.006 A 
ENDROOT
BRANCH   1   8
ATOM      8  C1  UNL d   1      -0.588   2.123  -2.392  0.00  0.00     0.054 C 
ATOM      9  C   UNL d   1      -0.695   3.612  -2.096  0.00  0.00     0.018 C 
ENDBRANCH   1   8
TORSDOF 1
ENDMDL
