MODEL 1
REMARK minimizedAffinity -3.53850961
REMARK minimizedRMSD -1
REMARK  1 active torsions:
REMARK  status: ('A' for Active; 'I' for Inactive)
REMARK    1  A    between atoms: C1_2  and  C2_3 
ROOT
ATOM      1  C2  UNL d   1      -0.007   0.431  -1.670  0.00  0.00    -0.081 A 
ATOM      2  C3  UNL d   1       0.995   1.390  -1.481  0.00  0.00     0.006 A 
ATOM      3  C4  UNL d   1       0.758   2.732  -1.790  0.00  0.00     0.002 A 
ATOM      4  C5  UNL d   1      -0.486   3.138  -2.284  0.00  0.00    -0.080 A 
ATOM      5  C6  UNL d   1      -0.764   4.579  -2.590  0.00  0.00     0.076 C 
ATOM      6  C7  UNL d   1      -1.482   2.176  -2.489  0.00  0.00     0.002 A 
ATOM      7  C8  UNL d   1      -1.245   0.835  -2.181  0.00  0.00     0.006 A 
ENDROOT
BRANCH   1   8
ATOM      8  C1  UNL d   1       0.224  -1.006  -1.277  0.00  0.00     0.054 C 
ATOM      9  C   UNL d   1       1.710  -1.325  -1.195  0.00  0.00     0.018 C 
ENDBRANCH   1   8
TORSDOF 1
ENDMDL
