MODEL 1
REMARK minimizedAffinity -1.67325389
REMARK minimizedRMSD -1
REMARK  1 active torsions:
REMARK  status: ('A' for Active; 'I' for Inactive)
REMARK    1  A    between atoms: C1_2  and  C2_3 
ROOT
ATOM      1  C2  UNL d   1      -0.173  -0.138   0.363  0.00  0.00    -0.081 A 
ATOM      2  C3  UNL d   1      -0.327   0.128   1.729  0.00  0.00     0.006 A 
ATOM      3  C4  UNL d   1       0.631  -0.310   2.647  0.00  0.00     0.002 A 
ATOM      4  C5  UNL d   1       1.760  -1.012   2.215  0.00  0.00    -0.080 A 
ATOM      5  C6  UNL d   1       2.811  -1.461   3.187  0.00  0.00     0.076 C 
ATOM      6  C7  UNL d   1       1.905  -1.293   0.852  0.00  0.00     0.002 A 
ATOM      7  C8  UNL d   1       0.948  -0.857  -0.067  0.00  0.00     0.006 A 
ENDROOT
BRANCH   1   8
ATOM      8  C1  UNL d   1      -1.171   0.388  -0.637  0.00  0.00     0.054 C 
ATOM      9  C   UNL d   1      -0.507   0.696  -1.972  0.00  0.00     0.018 C 
ENDBRANCH   1   8
TORSDOF 1
ENDMDL
