MODEL 1
REMARK minimizedAffinity -5.922647
REMARK minimizedRMSD -1
REMARK  1 active torsions:
REMARK  status: ('A' for Active; 'I' for Inactive)
REMARK    1  A    between atoms: C1_2  and  C2_3 
ROOT
ATOM      1  C2  UNL d   1       0.781  -0.423   0.112  0.00  0.00    -0.081 A 
ATOM      2  C3  UNL d   1       2.009  -1.084  -0.017  0.00  0.00     0.006 A 
ATOM      3  C4  UNL d   1       2.676  -1.564   1.111  0.00  0.00     0.002 A 
ATOM      4  C5  UNL d   1       2.125  -1.400   2.386  0.00  0.00    -0.080 A 
ATOM      5  C6  UNL d   1       2.817  -1.938   3.603  0.00  0.00     0.076 C 
ATOM      6  C7  UNL d   1       0.907  -0.724   2.517  0.00  0.00     0.002 A 
ATOM      7  C8  UNL d   1       0.239  -0.243   1.389  0.00  0.00     0.006 A 
ENDROOT
BRANCH   1   8
ATOM      8  C1  UNL d   1       0.027   0.040  -1.109  0.00  0.00     0.054 C 
ATOM      9  C   UNL d   1       0.372   1.480  -1.459  0.00  0.00     0.018 C 
ENDBRANCH   1   8
TORSDOF 1
ENDMDL
