MODEL 1
REMARK minimizedAffinity -1.42204571
REMARK minimizedRMSD -1
REMARK  1 active torsions:
REMARK  status: ('A' for Active; 'I' for Inactive)
REMARK    1  A    between atoms: C1_2  and  C2_3 
ROOT
ATOM      1  C2  UNL d   1      -0.943   0.719  -1.382  0.00  0.00    -0.081 A 
ATOM      2  C3  UNL d   1      -1.084   1.244  -0.091  0.00  0.00     0.006 A 
ATOM      3  C4  UNL d   1      -0.631   0.527   1.019  0.00  0.00     0.002 A 
ATOM      4  C5  UNL d   1      -0.024  -0.723   0.856  0.00  0.00    -0.080 A 
ATOM      5  C6  UNL d   1       0.494  -1.490   2.037  0.00  0.00     0.076 C 
ATOM      6  C7  UNL d   1       0.102  -1.255  -0.431  0.00  0.00     0.002 A 
ATOM      7  C8  UNL d   1      -0.351  -0.539  -1.541  0.00  0.00     0.006 A 
ENDROOT
BRANCH   1   8
ATOM      8  C1  UNL d   1      -1.371   1.519  -2.585  0.00  0.00     0.054 C 
ATOM      9  C   UNL d   1      -0.944   2.975  -2.463  0.00  0.00     0.018 C 
ENDBRANCH   1   8
TORSDOF 1
ENDMDL
