MODEL 1
REMARK minimizedAffinity 11.6346092
REMARK minimizedRMSD -1
REMARK  2 active torsions:
REMARK  status: ('A' for Active; 'I' for Inactive)
REMARK    1  A    between atoms: C2'_3  and  C1'_4 
REMARK    2  A    between atoms: C1'_4  and  C1_5 
ROOT
ATOM      1  C1  I4B d   1       3.082   1.705  -5.180  0.00  0.00    -0.075 A 
ATOM      2  C2  I4B d   1       1.938   1.660  -5.937  0.00  0.00     0.003 A 
ATOM      3  C3  I4B d   1       0.925   0.716  -5.643  0.00  0.00     0.002 A 
ATOM      4  C4  I4B d   1       1.118  -0.192  -4.622  0.00  0.00    -0.004 A 
ATOM      5  C5  I4B d   1       2.269  -0.131  -3.841  0.00  0.00     0.002 A 
ATOM      6  C6  I4B d   1       3.252   0.831  -4.114  0.00  0.00     0.003 A 
ENDROOT
BRANCH   1   7
ATOM      7  C1' I4B d   1       4.146   2.693  -5.540  0.00  0.00     0.060 C 
BRANCH   7   8
ATOM      8  C2' I4B d   1       4.378   3.586  -4.338  0.00  0.00    -0.013 C 
ATOM      9  C4' I4B d   1       5.792   4.104  -4.308  0.00  0.00     0.013 C 
ATOM     10  C3' I4B d   1       3.391   4.713  -4.401  0.00  0.00     0.013 C 
ENDBRANCH   7   8
ENDBRANCH   1   7
TORSDOF 2
ENDMDL
