MODEL 1
REMARK minimizedAffinity 6.71322632
REMARK minimizedRMSD -1
REMARK  2 active torsions:
REMARK  status: ('A' for Active; 'I' for Inactive)
REMARK    1  A    between atoms: C2'_3  and  C1'_4 
REMARK    2  A    between atoms: C1'_4  and  C1_5 
ROOT
ATOM      1  C1  I4B d   1       2.661   3.396  -2.420  0.00  0.00    -0.075 A 
ATOM      2  C2  I4B d   1       1.970   4.509  -2.828  0.00  0.00     0.003 A 
ATOM      3  C3  I4B d   1       2.497   5.345  -3.841  0.00  0.00     0.002 A 
ATOM      4  C4  I4B d   1       3.735   5.060  -4.381  0.00  0.00    -0.004 A 
ATOM      5  C5  I4B d   1       4.424   3.919  -3.983  0.00  0.00     0.002 A 
ATOM      6  C6  I4B d   1       3.879   3.074  -3.005  0.00  0.00     0.003 A 
ENDROOT
BRANCH   1   7
ATOM      7  C1' I4B d   1       2.090   2.553  -1.324  0.00  0.00     0.060 C 
BRANCH   7   8
ATOM      8  C2' I4B d   1       1.041   1.645  -1.932  0.00  0.00    -0.013 C 
ATOM      9  C4' I4B d   1       1.673   0.447  -2.592  0.00  0.00     0.013 C 
ATOM     10  C3' I4B d   1       0.100   1.228  -0.841  0.00  0.00     0.013 C 
ENDBRANCH   7   8
ENDBRANCH   1   7
TORSDOF 2
ENDMDL
