MODEL 1
REMARK minimizedAffinity 3.96049976
REMARK minimizedRMSD -1
REMARK  2 active torsions:
REMARK  status: ('A' for Active; 'I' for Inactive)
REMARK    1  A    between atoms: C2'_3  and  C1'_4 
REMARK    2  A    between atoms: C1'_4  and  C1_5 
ROOT
ATOM      1  C1  I4B d   1       0.492  -0.792  -3.635  0.00  0.00    -0.075 A 
ATOM      2  C2  I4B d   1       0.586  -2.160  -3.690  0.00  0.00     0.003 A 
ATOM      3  C3  I4B d   1      -0.249  -2.897  -4.564  0.00  0.00     0.002 A 
ATOM      4  C4  I4B d   1      -1.192  -2.235  -5.324  0.00  0.00    -0.004 A 
ATOM      5  C5  I4B d   1      -1.270  -0.846  -5.283  0.00  0.00     0.002 A 
ATOM      6  C6  I4B d   1      -0.415  -0.118  -4.443  0.00  0.00     0.003 A 
ENDROOT
BRANCH   1   7
ATOM      7  C1' I4B d   1       1.366  -0.048  -2.675  0.00  0.00     0.060 C 
BRANCH   7   8
ATOM      8  C2' I4B d   1       0.652   1.232  -2.291  0.00  0.00    -0.013 C 
ATOM      9  C4' I4B d   1      -0.500   0.956  -1.361  0.00  0.00     0.013 C 
ATOM     10  C3' I4B d   1       1.654   2.148  -1.653  0.00  0.00     0.013 C 
ENDBRANCH   7   8
ENDBRANCH   1   7
TORSDOF 2
ENDMDL
