MODEL 1
REMARK minimizedAffinity 12.9695816
REMARK minimizedRMSD -1
REMARK  2 active torsions:
REMARK  status: ('A' for Active; 'I' for Inactive)
REMARK    1  A    between atoms: C2'_3  and  C1'_4 
REMARK    2  A    between atoms: C1'_4  and  C1_5 
ROOT
ATOM      1  C1  I4B d   1      -3.893  -1.359  -4.321  0.00  0.00    -0.075 A 
ATOM      2  C2  I4B d   1      -4.477  -2.592  -4.169  0.00  0.00     0.003 A 
ATOM      3  C3  I4B d   1      -5.564  -2.761  -3.278  0.00  0.00     0.002 A 
ATOM      4  C4  I4B d   1      -6.000  -1.689  -2.526  0.00  0.00    -0.004 A 
ATOM      5  C5  I4B d   1      -5.422  -0.435  -2.698  0.00  0.00     0.002 A 
ATOM      6  C6  I4B d   1      -4.370  -0.266  -3.610  0.00  0.00     0.003 A 
ENDROOT
BRANCH   1   7
ATOM      7  C1' I4B d   1      -2.725  -1.224  -5.246  0.00  0.00     0.060 C 
BRANCH   7   8
ATOM      8  C2' I4B d   1      -1.708  -2.283  -4.872  0.00  0.00    -0.013 C 
ATOM      9  C4' I4B d   1      -1.497  -3.258  -6.000  0.00  0.00     0.013 C 
ATOM     10  C3' I4B d   1      -0.429  -1.589  -4.510  0.00  0.00     0.013 C 
ENDBRANCH   7   8
ENDBRANCH   1   7
TORSDOF 2
ENDMDL
