MODEL 1
REMARK minimizedAffinity 8.12265873
REMARK minimizedRMSD -1
REMARK  2 active torsions:
REMARK  status: ('A' for Active; 'I' for Inactive)
REMARK    1  A    between atoms: C2'_3  and  C1'_4 
REMARK    2  A    between atoms: C1'_4  and  C1_5 
ROOT
ATOM      1  C1  I4B d   1       2.378   2.326  -2.380  0.00  0.00    -0.075 A 
ATOM      2  C2  I4B d   1       1.294   2.287  -1.539  0.00  0.00     0.003 A 
ATOM      3  C3  I4B d   1       0.540   1.096  -1.401  0.00  0.00     0.002 A 
ATOM      4  C4  I4B d   1       0.873  -0.009  -2.156  0.00  0.00    -0.004 A 
ATOM      5  C5  I4B d   1       1.986   0.024  -2.991  0.00  0.00     0.002 A 
ATOM      6  C6  I4B d   1       2.751   1.195  -3.095  0.00  0.00     0.003 A 
ENDROOT
BRANCH   1   7
ATOM      7  C1' I4B d   1       3.131   3.610  -2.526  0.00  0.00     0.060 C 
BRANCH   7   8
ATOM      8  C2' I4B d   1       3.072   4.023  -3.983  0.00  0.00    -0.013 C 
ATOM      9  C4' I4B d   1       2.278   5.290  -4.158  0.00  0.00     0.013 C 
ATOM     10  C3' I4B d   1       4.479   4.192  -4.473  0.00  0.00     0.013 C 
ENDBRANCH   7   8
ENDBRANCH   1   7
TORSDOF 2
ENDMDL
