MODEL 1
REMARK minimizedAffinity 17.9018307
REMARK minimizedRMSD -1
REMARK  2 active torsions:
REMARK  status: ('A' for Active; 'I' for Inactive)
REMARK    1  A    between atoms: C2'_3  and  C1'_4 
REMARK    2  A    between atoms: C1'_4  and  C1_5 
ROOT
ATOM      1  C1  I4B d   1      -0.846   1.382   2.702  0.00  0.00    -0.075 A 
ATOM      2  C2  I4B d   1      -0.896   0.107   3.207  0.00  0.00     0.003 A 
ATOM      3  C3  I4B d   1       0.225  -0.439   3.877  0.00  0.00     0.002 A 
ATOM      4  C4  I4B d   1       1.386   0.301   3.973  0.00  0.00    -0.004 A 
ATOM      5  C5  I4B d   1       1.428   1.602   3.480  0.00  0.00     0.002 A 
ATOM      6  C6  I4B d   1       0.301   2.151   2.851  0.00  0.00     0.003 A 
ENDROOT
BRANCH   1   7
ATOM      7  C1' I4B d   1      -2.038   1.916   1.971  0.00  0.00     0.060 C 
BRANCH   7   8
ATOM      8  C2' I4B d   1      -2.257   1.055   0.744  0.00  0.00    -0.013 C 
ATOM      9  C4' I4B d   1      -3.494   1.477  -0.004  0.00  0.00     0.013 C 
ATOM     10  C3' I4B d   1      -1.037   1.162  -0.121  0.00  0.00     0.013 C 
ENDBRANCH   7   8
ENDBRANCH   1   7
TORSDOF 2
ENDMDL
