MODEL 1
REMARK minimizedAffinity 21.1006317
REMARK minimizedRMSD -1
REMARK  2 active torsions:
REMARK  status: ('A' for Active; 'I' for Inactive)
REMARK    1  A    between atoms: C2'_3  and  C1'_4 
REMARK    2  A    between atoms: C1'_4  and  C1_5 
ROOT
ATOM      1  C1  I4B d   1       2.681   1.574  -4.608  0.00  0.00    -0.075 A 
ATOM      2  C2  I4B d   1       2.438   1.840  -3.283  0.00  0.00     0.003 A 
ATOM      3  C3  I4B d   1       1.990   0.811  -2.420  0.00  0.00     0.002 A 
ATOM      4  C4  I4B d   1       1.750  -0.448  -2.931  0.00  0.00    -0.004 A 
ATOM      5  C5  I4B d   1       2.018  -0.721  -4.270  0.00  0.00     0.002 A 
ATOM      6  C6  I4B d   1       2.498   0.293  -5.111  0.00  0.00     0.003 A 
ENDROOT
BRANCH   1   7
ATOM      7  C1' I4B d   1       3.122   2.692  -5.498  0.00  0.00     0.060 C 
BRANCH   7   8
ATOM      8  C2' I4B d   1       3.700   3.786  -4.623  0.00  0.00    -0.013 C 
ATOM      9  C4' I4B d   1       5.190   3.902  -4.808  0.00  0.00     0.013 C 
ATOM     10  C3' I4B d   1       3.010   5.071  -4.971  0.00  0.00     0.013 C 
ENDBRANCH   7   8
ENDBRANCH   1   7
TORSDOF 2
ENDMDL
