MODEL 1
REMARK minimizedAffinity 14.499939
REMARK minimizedRMSD -1
REMARK  2 active torsions:
REMARK  status: ('A' for Active; 'I' for Inactive)
REMARK    1  A    between atoms: C2'_3  and  C1'_4 
REMARK    2  A    between atoms: C1'_4  and  C1_5 
ROOT
ATOM      1  C1  I4B d   1       2.850   2.275  -5.632  0.00  0.00    -0.075 A 
ATOM      2  C2  I4B d   1       1.981   3.273  -5.994  0.00  0.00     0.003 A 
ATOM      3  C3  I4B d   1       2.249   4.616  -5.634  0.00  0.00     0.002 A 
ATOM      4  C4  I4B d   1       3.363   4.907  -4.874  0.00  0.00    -0.004 A 
ATOM      5  C5  I4B d   1       4.255   3.896  -4.527  0.00  0.00     0.002 A 
ATOM      6  C6  I4B d   1       4.004   2.573  -4.919  0.00  0.00     0.003 A 
ENDROOT
BRANCH   1   7
ATOM      7  C1' I4B d   1       2.520   0.863  -6.000  0.00  0.00     0.060 C 
BRANCH   7   8
ATOM      8  C2' I4B d   1       2.984  -0.035  -4.871  0.00  0.00    -0.013 C 
ATOM      9  C4' I4B d   1       1.820  -0.521  -4.048  0.00  0.00     0.013 C 
ATOM     10  C3' I4B d   1       3.739  -1.183  -5.472  0.00  0.00     0.013 C 
ENDBRANCH   7   8
ENDBRANCH   1   7
TORSDOF 2
ENDMDL
