MODEL 1
REMARK minimizedAffinity 11.9980831
REMARK minimizedRMSD -1
REMARK  2 active torsions:
REMARK  status: ('A' for Active; 'I' for Inactive)
REMARK    1  A    between atoms: C2'_3  and  C1'_4 
REMARK    2  A    between atoms: C1'_4  and  C1_5 
ROOT
ATOM      1  C1  I4B d   1      -0.009  -1.460  -4.057  0.00  0.00    -0.075 A 
ATOM      2  C2  I4B d   1      -0.055  -2.831  -4.105  0.00  0.00     0.003 A 
ATOM      3  C3  I4B d   1      -0.816  -3.483  -5.105  0.00  0.00     0.002 A 
ATOM      4  C4  I4B d   1      -1.550  -2.732  -5.999  0.00  0.00    -0.004 A 
ATOM      5  C5  I4B d   1      -1.484  -1.342  -5.963  0.00  0.00     0.002 A 
ATOM      6  C6  I4B d   1      -0.699  -0.701  -4.994  0.00  0.00     0.003 A 
ENDROOT
BRANCH   1   7
ATOM      7  C1' I4B d   1       0.778  -0.803  -2.967  0.00  0.00     0.060 C 
BRANCH   7   8
ATOM      8  C2' I4B d   1       1.835   0.069  -3.615  0.00  0.00    -0.013 C 
ATOM      9  C4' I4B d   1       2.696   0.743  -2.579  0.00  0.00     0.013 C 
ATOM     10  C3' I4B d   1       2.657  -0.796  -4.523  0.00  0.00     0.013 C 
ENDBRANCH   7   8
ENDBRANCH   1   7
TORSDOF 2
ENDMDL
