MODEL 1
REMARK minimizedAffinity 13.8076715
REMARK minimizedRMSD -1
REMARK  2 active torsions:
REMARK  status: ('A' for Active; 'I' for Inactive)
REMARK    1  A    between atoms: C2'_3  and  C1'_4 
REMARK    2  A    between atoms: C1'_4  and  C1_5 
ROOT
ATOM      1  C1  I4B d   1      -0.505   1.017   2.637  0.00  0.00    -0.075 A 
ATOM      2  C2  I4B d   1      -1.444   0.348   3.383  0.00  0.00     0.003 A 
ATOM      3  C3  I4B d   1      -2.695   0.008   2.814  0.00  0.00     0.002 A 
ATOM      4  C4  I4B d   1      -2.984   0.398   1.523  0.00  0.00    -0.004 A 
ATOM      5  C5  I4B d   1      -2.023   1.057   0.761  0.00  0.00     0.002 A 
ATOM      6  C6  I4B d   1      -0.771   1.358   1.317  0.00  0.00     0.003 A 
ENDROOT
BRANCH   1   7
ATOM      7  C1' I4B d   1       0.793   1.390   3.279  0.00  0.00     0.060 C 
BRANCH   7   8
ATOM      8  C2' I4B d   1       0.932   2.897   3.212  0.00  0.00    -0.013 C 
ATOM      9  C4' I4B d   1       1.327   3.468   4.548  0.00  0.00     0.013 C 
ATOM     10  C3' I4B d   1       1.952   3.221   2.161  0.00  0.00     0.013 C 
ENDBRANCH   7   8
ENDBRANCH   1   7
TORSDOF 2
ENDMDL
