MODEL 1
REMARK minimizedAffinity 12.4855137
REMARK minimizedRMSD -1
REMARK  2 active torsions:
REMARK  status: ('A' for Active; 'I' for Inactive)
REMARK    1  A    between atoms: C2'_3  and  C1'_4 
REMARK    2  A    between atoms: C1'_4  and  C1_5 
ROOT
ATOM      1  C1  I4B d   1       0.333   0.727  -0.881  0.00  0.00    -0.075 A 
ATOM      2  C2  I4B d   1       0.766   1.527  -1.910  0.00  0.00     0.003 A 
ATOM      3  C3  I4B d   1       1.215   0.948  -3.121  0.00  0.00     0.002 A 
ATOM      4  C4  I4B d   1       1.261  -0.426  -3.242  0.00  0.00    -0.004 A 
ATOM      5  C5  I4B d   1       0.801  -1.234  -2.206  0.00  0.00     0.002 A 
ATOM      6  C6  I4B d   1       0.322  -0.654  -1.023  0.00  0.00     0.003 A 
ENDROOT
BRANCH   1   7
ATOM      7  C1' I4B d   1      -0.104   1.371   0.397  0.00  0.00     0.060 C 
BRANCH   7   8
ATOM      8  C2' I4B d   1      -1.207   0.522   0.994  0.00  0.00    -0.013 C 
ATOM      9  C4' I4B d   1      -0.926   0.200   2.439  0.00  0.00     0.013 C 
ATOM     10  C3' I4B d   1      -2.498   1.270   0.847  0.00  0.00     0.013 C 
ENDBRANCH   7   8
ENDBRANCH   1   7
TORSDOF 2
ENDMDL
