MODEL 1
REMARK minimizedAffinity 13.5219679
REMARK minimizedRMSD -1
REMARK  2 active torsions:
REMARK  status: ('A' for Active; 'I' for Inactive)
REMARK    1  A    between atoms: C2'_3  and  C1'_4 
REMARK    2  A    between atoms: C1'_4  and  C1_5 
ROOT
ATOM      1  C1  I4B d   1      -0.501  -1.793  -5.552  0.00  0.00    -0.075 A 
ATOM      2  C2  I4B d   1       0.039  -3.054  -5.600  0.00  0.00     0.003 A 
ATOM      3  C3  I4B d   1      -0.790  -4.175  -5.852  0.00  0.00     0.002 A 
ATOM      4  C4  I4B d   1      -2.150  -3.995  -6.000  0.00  0.00    -0.004 A 
ATOM      5  C5  I4B d   1      -2.692  -2.713  -5.974  0.00  0.00     0.002 A 
ATOM      6  C6  I4B d   1      -1.861  -1.604  -5.761  0.00  0.00     0.003 A 
ENDROOT
BRANCH   1   7
ATOM      7  C1' I4B d   1       0.398  -0.636  -5.251  0.00  0.00     0.060 C 
BRANCH   7   8
ATOM      8  C2' I4B d   1       1.573  -1.154  -4.447  0.00  0.00    -0.013 C 
ATOM      9  C4' I4B d   1       2.852  -1.075  -5.238  0.00  0.00     0.013 C 
ATOM     10  C3' I4B d   1       1.664  -0.347  -3.187  0.00  0.00     0.013 C 
ENDBRANCH   7   8
ENDBRANCH   1   7
TORSDOF 2
ENDMDL
