MODEL 1
REMARK minimizedAffinity -3.55921936
REMARK minimizedRMSD -1
REMARK  0 active torsions:
REMARK  status: ('A' for Active; 'I' for Inactive)
ROOT
ATOM      1  C   UNL d   1       0.450  -0.206  -1.539  0.00  0.00     0.023 A 
ATOM      2  C1  UNL d   1      -0.495   0.257  -0.624  0.00  0.00     0.003 A 
ATOM      3  C2  UNL d   1      -0.433  -0.146   0.711  0.00  0.00     0.048 A 
ATOM      4  C3  UNL d   1       0.578  -1.011   1.126  0.00  0.00     0.023 A 
ATOM      5  C4  UNL d   1       1.528  -1.477   0.215  0.00  0.00     0.048 A 
ATOM      6  C5  UNL d   1       1.461  -1.072  -1.120  0.00  0.00     0.003 A 
ATOM      7  I   UNL d   1       0.673  -1.612   3.113  0.00  0.00    -0.146 I 
ENDROOT
TORSDOF 0
ENDMDL
