MODEL 1
REMARK minimizedAffinity -4.99543905
REMARK minimizedRMSD -1
REMARK  0 active torsions:
REMARK  status: ('A' for Active; 'I' for Inactive)
ROOT
ATOM      1  C   UNL d   1       2.042  -2.105   2.365  0.00  0.00     0.023 A 
ATOM      2  C1  UNL d   1       0.937  -1.308   2.664  0.00  0.00     0.003 A 
ATOM      3  C2  UNL d   1       0.280  -0.612   1.648  0.00  0.00     0.048 A 
ATOM      4  C3  UNL d   1       0.733  -0.718   0.333  0.00  0.00     0.023 A 
ATOM      5  C4  UNL d   1       1.838  -1.515   0.028  0.00  0.00     0.048 A 
ATOM      6  C5  UNL d   1       2.491  -2.208   1.048  0.00  0.00     0.003 A 
ATOM      7  I   UNL d   1      -0.243   0.318  -1.182  0.00  0.00    -0.146 I 
ENDROOT
TORSDOF 0
ENDMDL
