MODEL 1
REMARK minimizedAffinity -1.22290981
REMARK minimizedRMSD -1
REMARK  0 active torsions:
REMARK  status: ('A' for Active; 'I' for Inactive)
ROOT
ATOM      1  C   UNL d   1      -0.816   3.804  -2.844  0.00  0.00     0.023 A 
ATOM      2  C1  UNL d   1      -1.875   2.958  -2.512  0.00  0.00     0.003 A 
ATOM      3  C2  UNL d   1      -1.625   1.744  -1.867  0.00  0.00     0.048 A 
ATOM      4  C3  UNL d   1      -0.315   1.384  -1.556  0.00  0.00     0.023 A 
ATOM      5  C4  UNL d   1       0.748   2.227  -1.885  0.00  0.00     0.048 A 
ATOM      6  C5  UNL d   1       0.493   3.439  -2.531  0.00  0.00     0.003 A 
ATOM      7  I   UNL d   1       0.060  -0.422  -0.597  0.00  0.00    -0.146 I 
ENDROOT
TORSDOF 0
ENDMDL
