MODEL 1
REMARK minimizedAffinity -0.106659949
REMARK minimizedRMSD -1
REMARK  0 active torsions:
REMARK  status: ('A' for Active; 'I' for Inactive)
ROOT
ATOM      1  C   UNL d   1       1.916  -2.894   2.099  0.00  0.00     0.023 A 
ATOM      2  C1  UNL d   1       0.826  -2.194   2.618  0.00  0.00     0.003 A 
ATOM      3  C2  UNL d   1       0.159  -1.254   1.831  0.00  0.00     0.048 A 
ATOM      4  C3  UNL d   1       0.586  -1.018   0.525  0.00  0.00     0.023 A 
ATOM      5  C4  UNL d   1       1.675  -1.716   0.000  0.00  0.00     0.048 A 
ATOM      6  C5  UNL d   1       2.339  -2.655   0.792  0.00  0.00     0.003 A 
ATOM      7  I   UNL d   1      -0.406   0.381  -0.649  0.00  0.00    -0.146 I 
ENDROOT
TORSDOF 0
ENDMDL
