MODEL 1
REMARK minimizedAffinity 10.7092896
REMARK minimizedRMSD -1
REMARK  2 active torsions:
REMARK  status: ('A' for Active; 'I' for Inactive)
REMARK    1  A    between atoms: C1_2  and  C2_3 
REMARK    2  A    between atoms: C2_3  and  C3_4 
ROOT
ATOM      1  C3  UNL d   1      -3.379  -2.272   2.046  0.00  0.00    -0.075 A 
ATOM      2  C4  UNL d   1      -3.306  -0.948   2.504  0.00  0.00     0.002 A 
ATOM      3  C5  UNL d   1      -2.163  -0.181   2.274  0.00  0.00     0.002 A 
ATOM      4  C6  UNL d   1      -1.078  -0.729   1.595  0.00  0.00    -0.004 A 
ATOM      5  C7  UNL d   1      -1.133  -2.048   1.150  0.00  0.00     0.002 A 
ATOM      6  C8  UNL d   1      -2.277  -2.817   1.374  0.00  0.00     0.002 A 
ENDROOT
BRANCH   1   7
ATOM      7  C2  UNL d   1      -4.625  -3.097   2.265  0.00  0.00     0.056 C 
BRANCH   7   8
ATOM      8  C1  UNL d   1      -4.361  -4.469   2.895  0.00  0.00     0.007 C 
ATOM      9  C   UNL d   1      -5.175  -4.717   4.157  0.00  0.00     0.009 C 
ENDBRANCH   7   8
ENDBRANCH   1   7
TORSDOF 2
ENDMDL
