MODEL 1
REMARK minimizedAffinity 12.9498644
REMARK minimizedRMSD -1
REMARK  2 active torsions:
REMARK  status: ('A' for Active; 'I' for Inactive)
REMARK    1  A    between atoms: C1_2  and  C2_3 
REMARK    2  A    between atoms: C2_3  and  C3_4 
ROOT
ATOM      1  C3  UNL d   1      -4.783  -4.329   3.565  0.00  0.00    -0.075 A 
ATOM      2  C4  UNL d   1      -5.455  -5.558   3.636  0.00  0.00     0.002 A 
ATOM      3  C5  UNL d   1      -5.999  -6.000   4.842  0.00  0.00     0.002 A 
ATOM      4  C6  UNL d   1      -5.870  -5.225   5.993  0.00  0.00    -0.004 A 
ATOM      5  C7  UNL d   1      -5.190  -4.010   5.938  0.00  0.00     0.002 A 
ATOM      6  C8  UNL d   1      -4.649  -3.564   4.731  0.00  0.00     0.002 A 
ENDROOT
BRANCH   1   7
ATOM      7  C2  UNL d   1      -4.218  -3.832   2.256  0.00  0.00     0.056 C 
BRANCH   7   8
ATOM      8  C1  UNL d   1      -3.944  -2.325   2.227  0.00  0.00     0.007 C 
ATOM      9  C   UNL d   1      -2.503  -1.983   1.873  0.00  0.00     0.009 C 
ENDBRANCH   7   8
ENDBRANCH   1   7
TORSDOF 2
ENDMDL
