MODEL 1
REMARK minimizedAffinity 12.3886175
REMARK minimizedRMSD -1
REMARK  2 active torsions:
REMARK  status: ('A' for Active; 'I' for Inactive)
REMARK    1  A    between atoms: C1_2  and  C2_3 
REMARK    2  A    between atoms: C2_3  and  C3_4 
ROOT
ATOM      1  C3  UNL d   1       2.714   1.880  -1.781  0.00  0.00    -0.075 A 
ATOM      2  C4  UNL d   1       2.097   2.555  -0.717  0.00  0.00     0.002 A 
ATOM      3  C5  UNL d   1       2.170   2.048   0.580  0.00  0.00     0.002 A 
ATOM      4  C6  UNL d   1       2.850   0.858   0.830  0.00  0.00    -0.004 A 
ATOM      5  C7  UNL d   1       3.452   0.171  -0.222  0.00  0.00     0.002 A 
ATOM      6  C8  UNL d   1       3.385   0.678  -1.521  0.00  0.00     0.002 A 
ENDROOT
BRANCH   1   7
ATOM      7  C2  UNL d   1       2.665   2.439  -3.183  0.00  0.00     0.056 C 
BRANCH   7   8
ATOM      8  C1  UNL d   1       3.980   3.073  -3.649  0.00  0.00     0.007 C 
ATOM      9  C   UNL d   1       4.369   2.676  -5.067  0.00  0.00     0.009 C 
ENDBRANCH   7   8
ENDBRANCH   1   7
TORSDOF 2
ENDMDL
