MODEL 1
REMARK minimizedAffinity 11.0654469
REMARK minimizedRMSD -1
REMARK  2 active torsions:
REMARK  status: ('A' for Active; 'I' for Inactive)
REMARK    1  A    between atoms: C1_2  and  C2_3 
REMARK    2  A    between atoms: C2_3  and  C3_4 
ROOT
ATOM      1  C3  UNL d   1      -1.133  -4.304  -3.108  0.00  0.00    -0.075 A 
ATOM      2  C4  UNL d   1      -0.008  -4.379  -3.942  0.00  0.00     0.002 A 
ATOM      3  C5  UNL d   1      -0.007  -5.218  -5.056  0.00  0.00     0.002 A 
ATOM      4  C6  UNL d   1      -1.124  -5.999  -5.345  0.00  0.00    -0.004 A 
ATOM      5  C7  UNL d   1      -2.241  -5.944  -4.514  0.00  0.00     0.002 A 
ATOM      6  C8  UNL d   1      -2.247  -5.102  -3.401  0.00  0.00     0.002 A 
ENDROOT
BRANCH   1   7
ATOM      7  C2  UNL d   1      -1.152  -3.375  -1.917  0.00  0.00     0.056 C 
BRANCH   7   8
ATOM      8  C1  UNL d   1      -1.180  -4.096  -0.565  0.00  0.00     0.007 C 
ATOM      9  C   UNL d   1      -1.582  -3.188   0.590  0.00  0.00     0.009 C 
ENDBRANCH   7   8
ENDBRANCH   1   7
TORSDOF 2
ENDMDL
