MODEL 1
REMARK minimizedAffinity 8.27253151
REMARK minimizedRMSD -1
REMARK  2 active torsions:
REMARK  status: ('A' for Active; 'I' for Inactive)
REMARK    1  A    between atoms: C1_2  and  C2_3 
REMARK    2  A    between atoms: C2_3  and  C3_4 
ROOT
ATOM      1  C3  UNL d   1       3.547   1.409  -0.879  0.00  0.00    -0.075 A 
ATOM      2  C4  UNL d   1       2.791   0.724   0.084  0.00  0.00     0.002 A 
ATOM      3  C5  UNL d   1       3.134   0.794   1.434  0.00  0.00     0.002 A 
ATOM      4  C6  UNL d   1       4.238   1.540   1.838  0.00  0.00    -0.004 A 
ATOM      5  C7  UNL d   1       5.006   2.212   0.889  0.00  0.00     0.002 A 
ATOM      6  C8  UNL d   1       4.663   2.147  -0.463  0.00  0.00     0.002 A 
ENDROOT
BRANCH   1   7
ATOM      7  C2  UNL d   1       3.165   1.361  -2.339  0.00  0.00     0.056 C 
BRANCH   7   8
ATOM      8  C1  UNL d   1       2.978   2.740  -2.980  0.00  0.00     0.007 C 
ATOM      9  C   UNL d   1       3.883   2.970  -4.183  0.00  0.00     0.009 C 
ENDBRANCH   7   8
ENDBRANCH   1   7
TORSDOF 2
ENDMDL
