MODEL 1
REMARK minimizedAffinity 11.5106649
REMARK minimizedRMSD -1
REMARK  2 active torsions:
REMARK  status: ('A' for Active; 'I' for Inactive)
REMARK    1  A    between atoms: C1_2  and  C2_3 
REMARK    2  A    between atoms: C2_3  and  C3_4 
ROOT
ATOM      1  C3  UNL d   1      -2.995  -1.797   2.106  0.00  0.00    -0.075 A 
ATOM      2  C4  UNL d   1      -1.947  -2.279   1.308  0.00  0.00     0.002 A 
ATOM      3  C5  UNL d   1      -0.739  -1.585   1.231  0.00  0.00     0.002 A 
ATOM      4  C6  UNL d   1      -0.567  -0.399   1.941  0.00  0.00    -0.004 A 
ATOM      5  C7  UNL d   1      -1.607   0.097   2.724  0.00  0.00     0.002 A 
ATOM      6  C8  UNL d   1      -2.815  -0.597   2.806  0.00  0.00     0.002 A 
ENDROOT
BRANCH   1   7
ATOM      7  C2  UNL d   1      -4.294  -2.559   2.216  0.00  0.00     0.056 C 
BRANCH   7   8
ATOM      8  C1  UNL d   1      -4.125  -4.082   2.231  0.00  0.00     0.007 C 
ATOM      9  C   UNL d   1      -5.426  -4.832   1.980  0.00  0.00     0.009 C 
ENDBRANCH   7   8
ENDBRANCH   1   7
TORSDOF 2
ENDMDL
