MODEL 1
REMARK minimizedAffinity 5.00950289
REMARK minimizedRMSD -1
REMARK  2 active torsions:
REMARK  status: ('A' for Active; 'I' for Inactive)
REMARK    1  A    between atoms: C1_2  and  C2_3 
REMARK    2  A    between atoms: C2_3  and  C3_4 
ROOT
ATOM      1  C3  UNL d   1      -5.144   1.175   2.044  0.00  0.00    -0.075 A 
ATOM      2  C4  UNL d   1      -5.731   1.863   3.116  0.00  0.00     0.002 A 
ATOM      3  C5  UNL d   1      -4.937   2.441   4.107  0.00  0.00     0.002 A 
ATOM      4  C6  UNL d   1      -3.550   2.329   4.045  0.00  0.00    -0.004 A 
ATOM      5  C7  UNL d   1      -2.957   1.634   2.993  0.00  0.00     0.002 A 
ATOM      6  C8  UNL d   1      -3.749   1.059   1.998  0.00  0.00     0.002 A 
ENDROOT
BRANCH   1   7
ATOM      7  C2  UNL d   1      -5.997   0.573   0.952  0.00  0.00     0.056 C 
BRANCH   7   8
ATOM      8  C1  UNL d   1      -5.926   1.325  -0.381  0.00  0.00     0.007 C 
ATOM      9  C   UNL d   1      -5.861   0.400  -1.589  0.00  0.00     0.009 C 
ENDBRANCH   7   8
ENDBRANCH   1   7
TORSDOF 2
ENDMDL
