MODEL 1
REMARK minimizedAffinity 9.54306793
REMARK minimizedRMSD -1
REMARK  2 active torsions:
REMARK  status: ('A' for Active; 'I' for Inactive)
REMARK    1  A    between atoms: C1_2  and  C2_3 
REMARK    2  A    between atoms: C2_3  and  C3_4 
ROOT
ATOM      1  C3  UNL d   1      -0.496  -1.506   2.189  0.00  0.00    -0.075 A 
ATOM      2  C4  UNL d   1      -1.380  -1.489   1.101  0.00  0.00     0.002 A 
ATOM      3  C5  UNL d   1      -2.443  -0.586   1.066  0.00  0.00     0.002 A 
ATOM      4  C6  UNL d   1      -2.641   0.302   2.120  0.00  0.00    -0.004 A 
ATOM      5  C7  UNL d   1      -1.779   0.283   3.214  0.00  0.00     0.002 A 
ATOM      6  C8  UNL d   1      -0.712  -0.616   3.250  0.00  0.00     0.002 A 
ENDROOT
BRANCH   1   7
ATOM      7  C2  UNL d   1       0.674  -2.460   2.219  0.00  0.00     0.056 C 
BRANCH   7   8
ATOM      8  C1  UNL d   1       1.573  -2.307   3.451  0.00  0.00     0.007 C 
ATOM      9  C   UNL d   1       2.991  -1.870   3.109  0.00  0.00     0.009 C 
ENDBRANCH   7   8
ENDBRANCH   1   7
TORSDOF 2
ENDMDL
