MODEL 1
REMARK minimizedAffinity 16.1960373
REMARK minimizedRMSD -1
REMARK  2 active torsions:
REMARK  status: ('A' for Active; 'I' for Inactive)
REMARK    1  A    between atoms: C1_2  and  C2_3 
REMARK    2  A    between atoms: C2_3  and  C3_4 
ROOT
ATOM      1  C3  UNL d   1       3.609  -1.795  -0.172  0.00  0.00    -0.075 A 
ATOM      2  C4  UNL d   1       2.904  -1.981   1.026  0.00  0.00     0.002 A 
ATOM      3  C5  UNL d   1       2.013  -1.009   1.482  0.00  0.00     0.002 A 
ATOM      4  C6  UNL d   1       1.824   0.164   0.754  0.00  0.00    -0.004 A 
ATOM      5  C7  UNL d   1       2.532   0.367  -0.429  0.00  0.00     0.002 A 
ATOM      6  C8  UNL d   1       3.421  -0.606  -0.890  0.00  0.00     0.002 A 
ENDROOT
BRANCH   1   7
ATOM      7  C2  UNL d   1       4.552  -2.856  -0.686  0.00  0.00     0.056 C 
BRANCH   7   8
ATOM      8  C1  UNL d   1       4.589  -4.126   0.171  0.00  0.00     0.007 C 
ATOM      9  C   UNL d   1       3.503  -5.129  -0.196  0.00  0.00     0.009 C 
ENDBRANCH   7   8
ENDBRANCH   1   7
TORSDOF 2
ENDMDL
