MODEL 1
REMARK minimizedAffinity 2.43147039
REMARK minimizedRMSD -1
REMARK  2 active torsions:
REMARK  status: ('A' for Active; 'I' for Inactive)
REMARK    1  A    between atoms: C1_2  and  C2_3 
REMARK    2  A    between atoms: C2_3  and  C3_4 
ROOT
ATOM      1  C3  UNL d   1       3.094   1.868   0.083  0.00  0.00    -0.075 A 
ATOM      2  C4  UNL d   1       3.573   2.331  -1.151  0.00  0.00     0.002 A 
ATOM      3  C5  UNL d   1       2.763   2.290  -2.286  0.00  0.00     0.002 A 
ATOM      4  C6  UNL d   1       1.470   1.778  -2.204  0.00  0.00    -0.004 A 
ATOM      5  C7  UNL d   1       0.989   1.300  -0.987  0.00  0.00     0.002 A 
ATOM      6  C8  UNL d   1       1.796   1.344   0.151  0.00  0.00     0.002 A 
ENDROOT
BRANCH   1   7
ATOM      7  C2  UNL d   1       3.955   1.936   1.322  0.00  0.00     0.056 C 
BRANCH   7   8
ATOM      8  C1  UNL d   1       4.552   3.322   1.590  0.00  0.00     0.007 C 
ATOM      9  C   UNL d   1       5.996   3.454   1.124  0.00  0.00     0.009 C 
ENDBRANCH   7   8
ENDBRANCH   1   7
TORSDOF 2
ENDMDL
