MODEL 1
REMARK minimizedAffinity 2.61520028
REMARK minimizedRMSD -1
REMARK  2 active torsions:
REMARK  status: ('A' for Active; 'I' for Inactive)
REMARK    1  A    between atoms: C1_2  and  C2_3 
REMARK    2  A    between atoms: C2_3  and  C3_4 
ROOT
ATOM      1  C3  UNL d   1       2.652  -4.001   0.075  0.00  0.00    -0.075 A 
ATOM      2  C4  UNL d   1       2.002  -3.514   1.218  0.00  0.00     0.002 A 
ATOM      3  C5  UNL d   1       0.623  -3.308   1.215  0.00  0.00     0.002 A 
ATOM      4  C6  UNL d   1      -0.122  -3.575   0.068  0.00  0.00    -0.004 A 
ATOM      5  C7  UNL d   1       0.516  -4.044  -1.078  0.00  0.00     0.002 A 
ATOM      6  C8  UNL d   1       1.895  -4.255  -1.077  0.00  0.00     0.002 A 
ENDROOT
BRANCH   1   7
ATOM      7  C2  UNL d   1       4.141  -4.254   0.081  0.00  0.00     0.056 C 
BRANCH   7   8
ATOM      8  C1  UNL d   1       4.531  -5.670   0.518  0.00  0.00     0.007 C 
ATOM      9  C   UNL d   1       5.999  -5.797   0.901  0.00  0.00     0.009 C 
ENDBRANCH   7   8
ENDBRANCH   1   7
TORSDOF 2
ENDMDL
