MODEL 1
REMARK minimizedAffinity 0.370402247
REMARK minimizedRMSD -1
REMARK  2 active torsions:
REMARK  status: ('A' for Active; 'I' for Inactive)
REMARK    1  A    between atoms: C1_2  and  C2_3 
REMARK    2  A    between atoms: C2_3  and  C3_4 
ROOT
ATOM      1  C3  UNL d   1       3.007  -3.643   0.427  0.00  0.00    -0.075 A 
ATOM      2  C4  UNL d   1       3.257  -2.377   0.976  0.00  0.00     0.002 A 
ATOM      3  C5  UNL d   1       2.217  -1.621   1.518  0.00  0.00     0.002 A 
ATOM      4  C6  UNL d   1       0.915  -2.115   1.509  0.00  0.00    -0.004 A 
ATOM      5  C7  UNL d   1       0.652  -3.364   0.952  0.00  0.00     0.002 A 
ATOM      6  C8  UNL d   1       1.691  -4.125   0.413  0.00  0.00     0.002 A 
ENDROOT
BRANCH   1   7
ATOM      7  C2  UNL d   1       4.132  -4.478  -0.134  0.00  0.00     0.056 C 
BRANCH   7   8
ATOM      8  C1  UNL d   1       4.499  -5.691   0.728  0.00  0.00     0.007 C 
ATOM      9  C   UNL d   1       5.990  -6.000   0.727  0.00  0.00     0.009 C 
ENDBRANCH   7   8
ENDBRANCH   1   7
TORSDOF 2
ENDMDL
