MODEL 1
REMARK minimizedAffinity 0.950656295
REMARK minimizedRMSD -1
REMARK  2 active torsions:
REMARK  status: ('A' for Active; 'I' for Inactive)
REMARK    1  A    between atoms: C1_2  and  C2_3 
REMARK    2  A    between atoms: C2_3  and  C3_4 
ROOT
ATOM      1  C3  UNL d   1       2.959  -4.093   0.116  0.00  0.00    -0.075 A 
ATOM      2  C4  UNL d   1       1.752  -4.805   0.177  0.00  0.00     0.002 A 
ATOM      3  C5  UNL d   1       0.558  -4.149   0.476  0.00  0.00     0.002 A 
ATOM      4  C6  UNL d   1       0.555  -2.779   0.727  0.00  0.00    -0.004 A 
ATOM      5  C7  UNL d   1       1.751  -2.065   0.686  0.00  0.00     0.002 A 
ATOM      6  C8  UNL d   1       2.947  -2.717   0.383  0.00  0.00     0.002 A 
ENDROOT
BRANCH   1   7
ATOM      7  C2  UNL d   1       4.251  -4.791  -0.236  0.00  0.00     0.056 C 
BRANCH   7   8
ATOM      8  C1  UNL d   1       4.569  -5.999   0.651  0.00  0.00     0.007 C 
ATOM      9  C   UNL d   1       6.000  -5.999   1.173  0.00  0.00     0.009 C 
ENDBRANCH   7   8
ENDBRANCH   1   7
TORSDOF 2
ENDMDL
