MODEL 1
REMARK minimizedAffinity -2.87262368
REMARK minimizedRMSD -1
REMARK  2 active torsions:
REMARK  status: ('A' for Active; 'I' for Inactive)
REMARK    1  A    between atoms: C1_2  and  C2_3 
REMARK    2  A    between atoms: C2_3  and  C3_4 
ROOT
ATOM      1  C3  UNL d   1      -5.340  -3.765   4.846  0.00  0.00    -0.075 A 
ATOM      2  C4  UNL d   1      -5.747  -5.097   5.007  0.00  0.00     0.002 A 
ATOM      3  C5  UNL d   1      -5.658  -5.999   3.946  0.00  0.00     0.002 A 
ATOM      4  C6  UNL d   1      -5.173  -5.579   2.710  0.00  0.00    -0.004 A 
ATOM      5  C7  UNL d   1      -4.781  -4.254   2.533  0.00  0.00     0.002 A 
ATOM      6  C8  UNL d   1      -4.864  -3.350   3.594  0.00  0.00     0.002 A 
ENDROOT
BRANCH   1   7
ATOM      7  C2  UNL d   1      -5.405  -2.792   5.998  0.00  0.00     0.056 C 
BRANCH   7   8
ATOM      8  C1  UNL d   1      -5.707  -1.349   5.580  0.00  0.00     0.007 C 
ATOM      9  C   UNL d   1      -4.624  -0.364   5.999  0.00  0.00     0.009 C 
ENDBRANCH   7   8
ENDBRANCH   1   7
TORSDOF 2
ENDMDL
