MODEL 1
REMARK minimizedAffinity -4.60712957
REMARK minimizedRMSD -1
REMARK  0 active torsions:
REMARK  status: ('A' for Active; 'I' for Inactive)
ROOT
ATOM      1  C1  BNZ d   1       1.782   1.098  -2.006  0.00  0.00     0.000 A 
ATOM      2  C2  BNZ d   1       1.793   2.222  -1.223  0.00  0.00     0.000 A 
ATOM      3  C3  BNZ d   1       1.315   2.188   0.057  0.00  0.00     0.000 A 
ATOM      4  C4  BNZ d   1       0.791   1.042   0.538  0.00  0.00     0.000 A 
ATOM      5  C5  BNZ d   1       0.765  -0.097  -0.242  0.00  0.00     0.000 A 
ATOM      6  C6  BNZ d   1       1.282  -0.069  -1.516  0.00  0.00     0.000 A 
ENDROOT
TORSDOF 0
ENDMDL
