MODEL 1
REMARK minimizedAffinity -5.11112738
REMARK minimizedRMSD -1
REMARK  0 active torsions:
REMARK  status: ('A' for Active; 'I' for Inactive)
ROOT
ATOM      1  C1  BNZ d   1       0.998   3.354   0.423  0.00  0.00     0.000 A 
ATOM      2  C2  BNZ d   1       1.476   3.886  -0.744  0.00  0.00     0.000 A 
ATOM      3  C3  BNZ d   1       1.809   3.080  -1.796  0.00  0.00     0.000 A 
ATOM      4  C4  BNZ d   1       1.702   1.742  -1.666  0.00  0.00     0.000 A 
ATOM      5  C5  BNZ d   1       1.230   1.189  -0.492  0.00  0.00     0.000 A 
ATOM      6  C6  BNZ d   1       0.859   2.006   0.551  0.00  0.00     0.000 A 
ENDROOT
TORSDOF 0
ENDMDL
