MODEL 1
REMARK minimizedAffinity -2.13060355
REMARK minimizedRMSD -1
REMARK  0 active torsions:
REMARK  status: ('A' for Active; 'I' for Inactive)
ROOT
ATOM      1  C1  BNZ d   1       0.535   0.714  -1.120  0.00  0.00     0.000 A 
ATOM      2  C2  BNZ d   1       0.836   1.595  -2.125  0.00  0.00     0.000 A 
ATOM      3  C3  BNZ d   1       1.250   2.866  -1.841  0.00  0.00     0.000 A 
ATOM      4  C4  BNZ d   1       1.325   3.267  -0.556  0.00  0.00     0.000 A 
ATOM      5  C5  BNZ d   1       1.016   2.394   0.468  0.00  0.00     0.000 A 
ATOM      6  C6  BNZ d   1       0.637   1.103   0.180  0.00  0.00     0.000 A 
ENDROOT
TORSDOF 0
ENDMDL
