MODEL 1
REMARK minimizedAffinity -3.74165678
REMARK minimizedRMSD -1
REMARK  0 active torsions:
REMARK  status: ('A' for Active; 'I' for Inactive)
ROOT
ATOM      1  C1  BNZ d   1       2.795   1.805   0.278  0.00  0.00     0.000 A 
ATOM      2  C2  BNZ d   1       2.765   0.623  -0.414  0.00  0.00     0.000 A 
ATOM      3  C3  BNZ d   1       1.721   0.325  -1.244  0.00  0.00     0.000 A 
ATOM      4  C4  BNZ d   1       0.691   1.190  -1.351  0.00  0.00     0.000 A 
ATOM      5  C5  BNZ d   1       0.702   2.380  -0.652  0.00  0.00     0.000 A 
ATOM      6  C6  BNZ d   1       1.774   2.694   0.153  0.00  0.00     0.000 A 
ENDROOT
TORSDOF 0
ENDMDL
