MODEL 1
REMARK minimizedAffinity -3.49747014
REMARK minimizedRMSD -1
REMARK  0 active torsions:
REMARK  status: ('A' for Active; 'I' for Inactive)
ROOT
ATOM      1  C1  BNZ d   1       0.820   2.557  -0.475  0.00  0.00     0.000 A 
ATOM      2  C2  BNZ d   1       0.710   1.508  -1.348  0.00  0.00     0.000 A 
ATOM      3  C3  BNZ d   1       1.151   0.261  -1.002  0.00  0.00     0.000 A 
ATOM      4  C4  BNZ d   1       1.737   0.074   0.198  0.00  0.00     0.000 A 
ATOM      5  C5  BNZ d   1       1.864   1.124   1.085  0.00  0.00     0.000 A 
ATOM      6  C6  BNZ d   1       1.384   2.369   0.749  0.00  0.00     0.000 A 
ENDROOT
TORSDOF 0
ENDMDL
