MODEL 1
REMARK minimizedAffinity -3.96641636
REMARK minimizedRMSD -1
REMARK  0 active torsions:
REMARK  status: ('A' for Active; 'I' for Inactive)
ROOT
ATOM      1  C1  BNZ d   1       1.199  -1.213  -0.604  0.00  0.00     0.000 A 
ATOM      2  C2  BNZ d   1       1.654  -0.427   0.421  0.00  0.00     0.000 A 
ATOM      3  C3  BNZ d   1       1.421   0.920   0.426  0.00  0.00     0.000 A 
ATOM      4  C4  BNZ d   1       0.769   1.484  -0.611  0.00  0.00     0.000 A 
ATOM      5  C5  BNZ d   1       0.312   0.706  -1.656  0.00  0.00     0.000 A 
ATOM      6  C6  BNZ d   1       0.515  -0.655  -1.639  0.00  0.00     0.000 A 
ENDROOT
TORSDOF 0
ENDMDL
