MODEL 1
REMARK minimizedAffinity -3.38786912
REMARK minimizedRMSD -1
REMARK  0 active torsions:
REMARK  status: ('A' for Active; 'I' for Inactive)
ROOT
ATOM      1  C1  BNZ d   1       1.145  -3.462   0.065  0.00  0.00     0.000 A 
ATOM      2  C2  BNZ d   1       1.909  -2.383   0.423  0.00  0.00     0.000 A 
ATOM      3  C3  BNZ d   1       1.785  -1.190  -0.232  0.00  0.00     0.000 A 
ATOM      4  C4  BNZ d   1       0.928  -1.088  -1.269  0.00  0.00     0.000 A 
ATOM      5  C5  BNZ d   1       0.158  -2.170  -1.647  0.00  0.00     0.000 A 
ATOM      6  C6  BNZ d   1       0.257  -3.358  -0.960  0.00  0.00     0.000 A 
ENDROOT
TORSDOF 0
ENDMDL
