MODEL 1
REMARK minimizedAffinity -3.13575387
REMARK minimizedRMSD -1
REMARK  0 active torsions:
REMARK  status: ('A' for Active; 'I' for Inactive)
ROOT
ATOM      1  C1  BNZ d   1       0.969   1.284   0.403  0.00  0.00     0.000 A 
ATOM      2  C2  BNZ d   1       1.326  -0.002   0.709  0.00  0.00     0.000 A 
ATOM      3  C3  BNZ d   1       1.090  -1.022  -0.171  0.00  0.00     0.000 A 
ATOM      4  C4  BNZ d   1       0.462  -0.760  -1.336  0.00  0.00     0.000 A 
ATOM      5  C5  BNZ d   1       0.087   0.530  -1.654  0.00  0.00     0.000 A 
ATOM      6  C6  BNZ d   1       0.361   1.559  -0.783  0.00  0.00     0.000 A 
ENDROOT
TORSDOF 0
ENDMDL
