MODEL 1
REMARK minimizedAffinity 0.504140437
REMARK minimizedRMSD -1
REMARK  0 active torsions:
REMARK  status: ('A' for Active; 'I' for Inactive)
ROOT
ATOM      1  C1  BNZ d   1       2.678   0.682   0.020  0.00  0.00     0.000 A 
ATOM      2  C2  BNZ d   1       2.752  -0.109  -1.096  0.00  0.00     0.000 A 
ATOM      3  C3  BNZ d   1       1.824  -0.000  -2.094  0.00  0.00     0.000 A 
ATOM      4  C4  BNZ d   1       0.802   0.869  -1.957  0.00  0.00     0.000 A 
ATOM      5  C5  BNZ d   1       0.709   1.667  -0.834  0.00  0.00     0.000 A 
ATOM      6  C6  BNZ d   1       1.666   1.583   0.151  0.00  0.00     0.000 A 
ENDROOT
TORSDOF 0
ENDMDL
