MODEL 1
REMARK minimizedAffinity -4.40436649
REMARK minimizedRMSD -1
REMARK  0 active torsions:
REMARK  status: ('A' for Active; 'I' for Inactive)
ROOT
ATOM      1  C1  BNZ d   1       1.492   1.152  -1.518  0.00  0.00     0.000 A 
ATOM      2  C2  BNZ d   1       1.334   2.491  -1.757  0.00  0.00     0.000 A 
ATOM      3  C3  BNZ d   1       1.334   3.391  -0.727  0.00  0.00     0.000 A 
ATOM      4  C4  BNZ d   1       1.452   2.947   0.541  0.00  0.00     0.000 A 
ATOM      5  C5  BNZ d   1       1.602   1.599   0.799  0.00  0.00     0.000 A 
ATOM      6  C6  BNZ d   1       1.641   0.700  -0.243  0.00  0.00     0.000 A 
ENDROOT
TORSDOF 0
ENDMDL
