MODEL 1
REMARK minimizedAffinity 0.259438992
REMARK minimizedRMSD -1
REMARK  0 active torsions:
REMARK  status: ('A' for Active; 'I' for Inactive)
ROOT
ATOM      1  C1  BNZ d   1       1.160   1.189  -0.144  0.00  0.00     0.000 A 
ATOM      2  C2  BNZ d   1       0.512   0.678  -1.237  0.00  0.00     0.000 A 
ATOM      3  C3  BNZ d   1       0.460  -0.671  -1.452  0.00  0.00     0.000 A 
ATOM      4  C4  BNZ d   1       1.088  -1.503  -0.598  0.00  0.00     0.000 A 
ATOM      5  C5  BNZ d   1       1.754  -1.003   0.504  0.00  0.00     0.000 A 
ATOM      6  C6  BNZ d   1       1.772   0.353   0.738  0.00  0.00     0.000 A 
ENDROOT
TORSDOF 0
ENDMDL
