MODEL 1
REMARK minimizedAffinity -2.417624
REMARK minimizedRMSD -1
REMARK  0 active torsions:
REMARK  status: ('A' for Active; 'I' for Inactive)
ROOT
ATOM      1  C1  BNZ d   1       1.983   1.211  -1.800  0.00  0.00     0.000 A 
ATOM      2  C2  BNZ d   1       1.674   0.041  -1.159  0.00  0.00     0.000 A 
ATOM      3  C3  BNZ d   1       0.929   0.047  -0.013  0.00  0.00     0.000 A 
ATOM      4  C4  BNZ d   1       0.528   1.223   0.512  0.00  0.00     0.000 A 
ATOM      5  C5  BNZ d   1       0.840   2.412  -0.118  0.00  0.00     0.000 A 
ATOM      6  C6  BNZ d   1       1.557   2.400  -1.292  0.00  0.00     0.000 A 
ENDROOT
TORSDOF 0
ENDMDL
