MODEL 1
REMARK minimizedAffinity -3.80679536
REMARK minimizedRMSD -1
REMARK  0 active torsions:
REMARK  status: ('A' for Active; 'I' for Inactive)
ROOT
ATOM      1  C1  BNZ d   1       1.178   0.547  -1.384  0.00  0.00     0.000 A 
ATOM      2  C2  BNZ d   1       1.284   1.757  -2.017  0.00  0.00     0.000 A 
ATOM      3  C3  BNZ d   1       1.396   2.915  -1.298  0.00  0.00     0.000 A 
ATOM      4  C4  BNZ d   1       1.360   2.865   0.049  0.00  0.00     0.000 A 
ATOM      5  C5  BNZ d   1       1.244   1.654   0.701  0.00  0.00     0.000 A 
ATOM      6  C6  BNZ d   1       1.171   0.487  -0.025  0.00  0.00     0.000 A 
ENDROOT
TORSDOF 0
ENDMDL
