MODEL 1
REMARK minimizedAffinity -3.13919377
REMARK minimizedRMSD -1
REMARK  0 active torsions:
REMARK  status: ('A' for Active; 'I' for Inactive)
ROOT
ATOM      1  C1  BNZ d   1       1.405   2.386  -2.050  0.00  0.00     0.000 A 
ATOM      2  C2  BNZ d   1       1.049   1.118  -1.675  0.00  0.00     0.000 A 
ATOM      3  C3  BNZ d   1       0.815   0.815  -0.363  0.00  0.00     0.000 A 
ATOM      4  C4  BNZ d   1       0.976   1.770   0.577  0.00  0.00     0.000 A 
ATOM      5  C5  BNZ d   1       1.343   3.051   0.216  0.00  0.00     0.000 A 
ATOM      6  C6  BNZ d   1       1.540   3.362  -1.110  0.00  0.00     0.000 A 
ENDROOT
TORSDOF 0
ENDMDL
