MODEL 1
REMARK minimizedAffinity -4.46332884
REMARK minimizedRMSD -1
REMARK  0 active torsions:
REMARK  status: ('A' for Active; 'I' for Inactive)
ROOT
ATOM      1  C1  BNZ d   1       0.633   0.996   0.326  0.00  0.00     0.000 A 
ATOM      2  C2  BNZ d   1       0.796   2.310  -0.024  0.00  0.00     0.000 A 
ATOM      3  C3  BNZ d   1       1.197   2.654  -1.284  0.00  0.00     0.000 A 
ATOM      4  C4  BNZ d   1       1.473   1.684  -2.180  0.00  0.00     0.000 A 
ATOM      5  C5  BNZ d   1       1.322   0.354  -1.840  0.00  0.00     0.000 A 
ATOM      6  C6  BNZ d   1       0.880   0.013  -0.582  0.00  0.00     0.000 A 
ENDROOT
TORSDOF 0
ENDMDL
