MODEL 1
REMARK minimizedAffinity -0.915207505
REMARK minimizedRMSD -1
REMARK  0 active torsions:
REMARK  status: ('A' for Active; 'I' for Inactive)
ROOT
ATOM      1  C1  BNZ d   1       1.686   2.598   0.010  0.00  0.00     0.000 A 
ATOM      2  C2  BNZ d   1       1.455   1.441   0.705  0.00  0.00     0.000 A 
ATOM      3  C3  BNZ d   1       1.061   0.303   0.058  0.00  0.00     0.000 A 
ATOM      4  C4  BNZ d   1       0.860   0.334  -1.275  0.00  0.00     0.000 A 
ATOM      5  C5  BNZ d   1       1.080   1.495  -1.988  0.00  0.00     0.000 A 
ATOM      6  C6  BNZ d   1       1.514   2.628  -1.339  0.00  0.00     0.000 A 
ENDROOT
TORSDOF 0
ENDMDL
