MODEL 1
REMARK minimizedAffinity -1.45840883
REMARK minimizedRMSD -1
REMARK  0 active torsions:
REMARK  status: ('A' for Active; 'I' for Inactive)
ROOT
ATOM      1  C1  BNZ d   1       0.861  -0.110  -1.198  0.00  0.00     0.000 A 
ATOM      2  C2  BNZ d   1       0.983   0.817  -2.199  0.00  0.00     0.000 A 
ATOM      3  C3  BNZ d   1       1.366   2.100  -1.923  0.00  0.00     0.000 A 
ATOM      4  C4  BNZ d   1       1.587   2.465  -0.644  0.00  0.00     0.000 A 
ATOM      5  C5  BNZ d   1       1.459   1.545   0.378  0.00  0.00     0.000 A 
ATOM      6  C6  BNZ d   1       1.111   0.244   0.092  0.00  0.00     0.000 A 
ENDROOT
TORSDOF 0
ENDMDL
