MODEL 1
REMARK minimizedAffinity 2.93430352
REMARK minimizedRMSD -1
REMARK  0 active torsions:
REMARK  status: ('A' for Active; 'I' for Inactive)
ROOT
ATOM      1  C   UNL d   1       0.205   4.567  -0.064  0.00  0.00     0.078 C 
ATOM      2  C1  UNL d   1       0.402   3.827   1.225  0.00  0.00    -0.077 A 
ATOM      3  C2  UNL d   1       1.527   4.061   2.026  0.00  0.00    -0.001 A 
ATOM      4  C3  UNL d   1       1.702   3.358   3.219  0.00  0.00     0.003 A 
ATOM      5  C4  UNL d   1       0.758   2.415   3.621  0.00  0.00    -0.005 A 
ATOM      6  C5  UNL d   1      -0.364   2.175   2.830  0.00  0.00     0.003 A 
ATOM      7  C6  UNL d   1      -0.541   2.877   1.637  0.00  0.00    -0.001 A 
ENDROOT
TORSDOF 0
ENDMDL
