MODEL 1
REMARK minimizedAffinity 3.61719537
REMARK minimizedRMSD -1
REMARK  0 active torsions:
REMARK  status: ('A' for Active; 'I' for Inactive)
ROOT
ATOM      1  C   UNL d   1       4.659  -1.901  -1.661  0.00  0.00     0.078 C 
ATOM      2  C1  UNL d   1       3.929  -3.202  -1.511  0.00  0.00    -0.077 A 
ATOM      3  C2  UNL d   1       2.892  -3.345  -0.582  0.00  0.00    -0.001 A 
ATOM      4  C3  UNL d   1       2.228  -4.565  -0.446  0.00  0.00     0.003 A 
ATOM      5  C4  UNL d   1       2.595  -5.653  -1.236  0.00  0.00    -0.005 A 
ATOM      6  C5  UNL d   1       3.628  -5.521  -2.162  0.00  0.00     0.003 A 
ATOM      7  C6  UNL d   1       4.293  -4.302  -2.299  0.00  0.00    -0.001 A 
ENDROOT
TORSDOF 0
ENDMDL
