MODEL 1
REMARK minimizedAffinity 3.55224371
REMARK minimizedRMSD -1
REMARK  0 active torsions:
REMARK  status: ('A' for Active; 'I' for Inactive)
ROOT
ATOM      1  C   UNL d   1       0.250   1.924   2.436  0.00  0.00     0.078 C 
ATOM      2  C1  UNL d   1      -0.060   2.517   1.093  0.00  0.00    -0.077 A 
ATOM      3  C2  UNL d   1      -0.267   1.700  -0.025  0.00  0.00    -0.001 A 
ATOM      4  C3  UNL d   1      -0.545   2.266  -1.270  0.00  0.00     0.003 A 
ATOM      5  C4  UNL d   1      -0.617   3.650  -1.409  0.00  0.00    -0.005 A 
ATOM      6  C5  UNL d   1      -0.410   4.471  -0.303  0.00  0.00     0.003 A 
ATOM      7  C6  UNL d   1      -0.132   3.907   0.943  0.00  0.00    -0.001 A 
ENDROOT
TORSDOF 0
ENDMDL
