MODEL 1
REMARK minimizedAffinity 0.440204442
REMARK minimizedRMSD -1
REMARK  0 active torsions:
REMARK  status: ('A' for Active; 'I' for Inactive)
ROOT
ATOM      1  C   UNL d   1      -4.212  -0.971   2.749  0.00  0.00     0.078 C 
ATOM      2  C1  UNL d   1      -4.075  -0.593   1.304  0.00  0.00    -0.077 A 
ATOM      3  C2  UNL d   1      -4.210   0.738   0.891  0.00  0.00    -0.001 A 
ATOM      4  C3  UNL d   1      -4.089   1.073  -0.459  0.00  0.00     0.003 A 
ATOM      5  C4  UNL d   1      -3.834   0.083  -1.406  0.00  0.00    -0.005 A 
ATOM      6  C5  UNL d   1      -3.700  -1.244  -1.004  0.00  0.00     0.003 A 
ATOM      7  C6  UNL d   1      -3.820  -1.582   0.345  0.00  0.00    -0.001 A 
ENDROOT
TORSDOF 0
ENDMDL
