MODEL 1
REMARK minimizedAffinity 1.5310185
REMARK minimizedRMSD -1
REMARK  0 active torsions:
REMARK  status: ('A' for Active; 'I' for Inactive)
ROOT
ATOM      1  C   UNL d   1      -0.043   2.779  -0.561  0.00  0.00     0.078 C 
ATOM      2  C1  UNL d   1      -0.739   1.470  -0.786  0.00  0.00    -0.077 A 
ATOM      3  C2  UNL d   1      -2.136   1.400  -0.862  0.00  0.00    -0.001 A 
ATOM      4  C3  UNL d   1      -2.771   0.173  -1.062  0.00  0.00     0.003 A 
ATOM      5  C4  UNL d   1      -2.018  -0.992  -1.187  0.00  0.00    -0.005 A 
ATOM      6  C5  UNL d   1      -0.628  -0.932  -1.112  0.00  0.00     0.003 A 
ATOM      7  C6  UNL d   1       0.009   0.293  -0.912  0.00  0.00    -0.001 A 
ENDROOT
TORSDOF 0
ENDMDL
