MODEL 1
REMARK minimizedAffinity 7.07117176
REMARK minimizedRMSD -1
REMARK  0 active torsions:
REMARK  status: ('A' for Active; 'I' for Inactive)
ROOT
ATOM      1  O1  BZF d   1       2.373   4.247  -0.433  0.00  0.00    -0.204 OA
ATOM      2  C2  BZF d   1       1.659   5.327  -0.913  0.00  0.00     0.174 A 
ATOM      3  C3  BZF d   1       0.334   5.078  -0.882  0.00  0.00    -0.012 A 
ATOM      4  C3A BZF d   1       0.207   3.794  -0.263  0.00  0.00    -0.107 A 
ATOM      5  C4  BZF d   1      -0.863   3.011   0.064  0.00  0.00     0.055 A 
ATOM      6  C5  BZF d   1      -0.642   1.779   0.593  0.00  0.00    -0.016 A 
ATOM      7  C6  BZF d   1       0.633   1.297   0.805  0.00  0.00     0.022 A 
ATOM      8  C7  BZF d   1       1.726   2.040   0.501  0.00  0.00     0.029 A 
ATOM      9  C7A BZF d   1       1.506   3.298  -0.003  0.00  0.00     0.058 A 
ENDROOT
TORSDOF 0
ENDMDL
