MODEL 1
REMARK minimizedAffinity 0.589262724
REMARK minimizedRMSD -1
REMARK  0 active torsions:
REMARK  status: ('A' for Active; 'I' for Inactive)
ROOT
ATOM      1  O1  BZF d   1      -4.046   4.711  -5.108  0.00  0.00    -0.204 OA
ATOM      2  C2  BZF d   1      -5.097   4.876  -5.989  0.00  0.00     0.174 A 
ATOM      3  C3  BZF d   1      -5.998   3.882  -5.851  0.00  0.00    -0.012 A 
ATOM      4  C3A BZF d   1      -5.523   3.094  -4.755  0.00  0.00    -0.107 A 
ATOM      5  C4  BZF d   1      -5.996   1.976  -4.128  0.00  0.00     0.055 A 
ATOM      6  C5  BZF d   1      -5.256   1.412  -3.137  0.00  0.00    -0.016 A 
ATOM      7  C6  BZF d   1      -4.039   1.935  -2.753  0.00  0.00     0.022 A 
ATOM      8  C7  BZF d   1      -3.531   3.045  -3.342  0.00  0.00     0.029 A 
ATOM      9  C7A BZF d   1      -4.292   3.636  -4.320  0.00  0.00     0.058 A 
ENDROOT
TORSDOF 0
ENDMDL
