MODEL 1
REMARK minimizedAffinity 7.39337015
REMARK minimizedRMSD -1
REMARK  0 active torsions:
REMARK  status: ('A' for Active; 'I' for Inactive)
ROOT
ATOM      1  O1  BZF d   1       2.096   4.723  -1.147  0.00  0.00    -0.204 OA
ATOM      2  C2  BZF d   1       1.860   5.929  -1.778  0.00  0.00     0.174 A 
ATOM      3  C3  BZF d   1       0.586   5.997  -2.217  0.00  0.00    -0.012 A 
ATOM      4  C3A BZF d   1      -0.036   4.794  -1.755  0.00  0.00    -0.107 A 
ATOM      5  C4  BZF d   1      -1.301   4.291  -1.861  0.00  0.00     0.055 A 
ATOM      6  C5  BZF d   1      -1.564   3.055  -1.361  0.00  0.00    -0.016 A 
ATOM      7  C6  BZF d   1      -0.587   2.294  -0.755  0.00  0.00     0.022 A 
ATOM      8  C7  BZF d   1       0.682   2.752  -0.622  0.00  0.00     0.029 A 
ATOM      9  C7A BZF d   1       0.943   4.014  -1.096  0.00  0.00     0.058 A 
ENDROOT
TORSDOF 0
ENDMDL
