MODEL 1
REMARK minimizedAffinity 1.35922694
REMARK minimizedRMSD -1
REMARK  0 active torsions:
REMARK  status: ('A' for Active; 'I' for Inactive)
ROOT
ATOM      1  O1  BZF d   1      -4.729   4.495   2.099  0.00  0.00    -0.204 OA
ATOM      2  C2  BZF d   1      -5.267   5.620   1.503  0.00  0.00     0.174 A 
ATOM      3  C3  BZF d   1      -4.527   5.998   0.440  0.00  0.00    -0.012 A 
ATOM      4  C3A BZF d   1      -3.514   4.997   0.312  0.00  0.00    -0.107 A 
ATOM      5  C4  BZF d   1      -2.485   4.809  -0.567  0.00  0.00     0.055 A 
ATOM      6  C5  BZF d   1      -1.631   3.770  -0.373  0.00  0.00    -0.016 A 
ATOM      7  C6  BZF d   1      -1.773   2.904   0.692  0.00  0.00     0.022 A 
ATOM      8  C7  BZF d   1      -2.780   3.046   1.587  0.00  0.00     0.029 A 
ATOM      9  C7A BZF d   1      -3.664   4.076   1.374  0.00  0.00     0.058 A 
ENDROOT
TORSDOF 0
ENDMDL
