MODEL 1
REMARK minimizedAffinity -1.12944579
REMARK minimizedRMSD -1
REMARK  0 active torsions:
REMARK  status: ('A' for Active; 'I' for Inactive)
ROOT
ATOM      1  O1  BZF d   1      -1.318   4.270  -0.328  0.00  0.00    -0.204 OA
ATOM      2  C2  BZF d   1      -0.947   2.999   0.067  0.00  0.00     0.174 A 
ATOM      3  C3  BZF d   1      -1.681   2.592   1.122  0.00  0.00    -0.012 A 
ATOM      4  C3A BZF d   1      -2.629   3.640   1.347  0.00  0.00    -0.107 A 
ATOM      5  C4  BZF d   1      -3.642   3.812   2.247  0.00  0.00     0.055 A 
ATOM      6  C5  BZF d   1      -4.334   4.982   2.246  0.00  0.00    -0.016 A 
ATOM      7  C6  BZF d   1      -4.039   6.000   1.363  0.00  0.00     0.022 A 
ATOM      8  C7  BZF d   1      -3.047   5.873   0.449  0.00  0.00     0.029 A 
ATOM      9  C7A BZF d   1      -2.367   4.680   0.426  0.00  0.00     0.058 A 
ENDROOT
TORSDOF 0
ENDMDL
