MODEL 1
REMARK minimizedAffinity -3.9220829
REMARK minimizedRMSD -1
REMARK  0 active torsions:
REMARK  status: ('A' for Active; 'I' for Inactive)
ROOT
ATOM      1  O1  BZF d   1      -4.869   4.125   2.160  0.00  0.00    -0.204 OA
ATOM      2  C2  BZF d   1      -5.161   5.446   1.880  0.00  0.00     0.174 A 
ATOM      3  C3  BZF d   1      -4.192   6.000   1.123  0.00  0.00    -0.012 A 
ATOM      4  C3A BZF d   1      -3.281   4.934   0.839  0.00  0.00    -0.107 A 
ATOM      5  C4  BZF d   1      -2.124   4.855   0.117  0.00  0.00     0.055 A 
ATOM      6  C5  BZF d   1      -1.436   3.683   0.099  0.00  0.00    -0.016 A 
ATOM      7  C6  BZF d   1      -1.872   2.574   0.794  0.00  0.00     0.022 A 
ATOM      8  C7  BZF d   1      -3.016   2.603   1.520  0.00  0.00     0.029 A 
ATOM      9  C7A BZF d   1      -3.731   3.776   1.514  0.00  0.00     0.058 A 
ENDROOT
TORSDOF 0
ENDMDL
