MODEL 1
REMARK minimizedAffinity 19.1441593
REMARK minimizedRMSD -1
REMARK  0 active torsions:
REMARK  status: ('A' for Active; 'I' for Inactive)
ROOT
ATOM      1  O1  BZF d   1      -4.926   0.423  -4.045  0.00  0.00    -0.204 OA
ATOM      2  C2  BZF d   1      -5.274   1.054  -2.867  0.00  0.00     0.174 A 
ATOM      3  C3  BZF d   1      -4.182   1.548  -2.249  0.00  0.00    -0.012 A 
ATOM      4  C3A BZF d   1      -3.094   1.286  -3.139  0.00  0.00    -0.107 A 
ATOM      5  C4  BZF d   1      -1.756   1.553  -3.091  0.00  0.00     0.055 A 
ATOM      6  C5  BZF d   1      -0.955   1.097  -4.090  0.00  0.00    -0.016 A 
ATOM      7  C6  BZF d   1      -1.457   0.368  -5.148  0.00  0.00     0.022 A 
ATOM      8  C7  BZF d   1      -2.778   0.083  -5.242  0.00  0.00     0.029 A 
ATOM      9  C7A BZF d   1      -3.595   0.570  -4.251  0.00  0.00     0.058 A 
ENDROOT
TORSDOF 0
ENDMDL
