MODEL 1
REMARK minimizedAffinity 6.36638641
REMARK minimizedRMSD -1
REMARK  0 active torsions:
REMARK  status: ('A' for Active; 'I' for Inactive)
ROOT
ATOM      1  O1  BZF d   1       2.116   4.453  -1.281  0.00  0.00    -0.204 OA
ATOM      2  C2  BZF d   1       2.109   5.692  -1.893  0.00  0.00     0.174 A 
ATOM      3  C3  BZF d   1       0.874   5.998  -2.341  0.00  0.00    -0.012 A 
ATOM      4  C3A BZF d   1       0.039   4.921  -1.905  0.00  0.00    -0.107 A 
ATOM      5  C4  BZF d   1      -1.296   4.658  -2.030  0.00  0.00     0.055 A 
ATOM      6  C5  BZF d   1      -1.784   3.482  -1.554  0.00  0.00    -0.016 A 
ATOM      7  C6  BZF d   1      -0.968   2.546  -0.954  0.00  0.00     0.022 A 
ATOM      8  C7  BZF d   1       0.361   2.765  -0.803  0.00  0.00     0.029 A 
ATOM      9  C7A BZF d   1       0.852   3.966  -1.253  0.00  0.00     0.058 A 
ENDROOT
TORSDOF 0
ENDMDL
