MODEL 1
REMARK minimizedAffinity 13.1810417
REMARK minimizedRMSD -1
REMARK  0 active torsions:
REMARK  status: ('A' for Active; 'I' for Inactive)
ROOT
ATOM      1  O1  BZF d   1       5.136  -2.247   2.974  0.00  0.00    -0.204 OA
ATOM      2  C2  BZF d   1       5.798  -2.761   1.875  0.00  0.00     0.174 A 
ATOM      3  C3  BZF d   1       5.039  -2.652   0.766  0.00  0.00    -0.012 A 
ATOM      4  C3A BZF d   1       3.865  -1.948   1.180  0.00  0.00    -0.107 A 
ATOM      5  C4  BZF d   1       2.745  -1.522   0.525  0.00  0.00     0.055 A 
ATOM      6  C5  BZF d   1       1.750  -0.927   1.235  0.00  0.00    -0.016 A 
ATOM      7  C6  BZF d   1       1.841  -0.746   2.600  0.00  0.00     0.022 A 
ATOM      8  C7  BZF d   1       2.934  -1.146   3.292  0.00  0.00     0.029 A 
ATOM      9  C7A BZF d   1       3.955  -1.719   2.573  0.00  0.00     0.058 A 
ENDROOT
TORSDOF 0
ENDMDL
