MODEL 1
REMARK minimizedAffinity 2.10541892
REMARK minimizedRMSD -1
REMARK  0 active torsions:
REMARK  status: ('A' for Active; 'I' for Inactive)
ROOT
ATOM      1  C   UNL d   1       4.768   5.999  -6.000  0.00  0.00     0.077 C 
ATOM      2  C1  UNL d   1       3.492   5.579  -5.332  0.00  0.00    -0.074 A 
ATOM      3  C2  UNL d   1       2.267   5.670  -6.000  0.00  0.00    -0.005 A 
ATOM      4  C3  UNL d   1       1.090   5.267  -5.369  0.00  0.00     0.006 A 
ATOM      5  C4  UNL d   1       1.127   4.768  -4.066  0.00  0.00    -0.005 A 
ATOM      6  C5  UNL d   1       2.343   4.668  -3.383  0.00  0.00    -0.074 A 
ATOM      7  C6  UNL d   1       2.401   4.125  -1.986  0.00  0.00     0.077 C 
ATOM      8  C7  UNL d   1       3.522   5.069  -4.026  0.00  0.00    -0.001 A 
ENDROOT
TORSDOF 0
ENDMDL
