MODEL 1
REMARK minimizedAffinity -2.14108944
REMARK minimizedRMSD -1
REMARK  0 active torsions:
REMARK  status: ('A' for Active; 'I' for Inactive)
ROOT
ATOM      1  C   UNL d   1       4.375   0.021   2.178  0.00  0.00     0.077 C 
ATOM      2  C1  UNL d   1       4.000   1.139   1.251  0.00  0.00    -0.074 A 
ATOM      3  C2  UNL d   1       2.909   1.968   1.529  0.00  0.00    -0.005 A 
ATOM      4  C3  UNL d   1       2.578   3.010   0.663  0.00  0.00     0.006 A 
ATOM      5  C4  UNL d   1       3.335   3.233  -0.488  0.00  0.00    -0.005 A 
ATOM      6  C5  UNL d   1       4.430   2.415  -0.783  0.00  0.00    -0.074 A 
ATOM      7  C6  UNL d   1       5.259   2.648  -2.011  0.00  0.00     0.077 C 
ATOM      8  C7  UNL d   1       4.760   1.375   0.096  0.00  0.00    -0.001 A 
ENDROOT
TORSDOF 0
ENDMDL
