MODEL 1
REMARK minimizedAffinity 7.62114573
REMARK minimizedRMSD -1
REMARK  0 active torsions:
REMARK  status: ('A' for Active; 'I' for Inactive)
ROOT
ATOM      1  C   UNL d   1      -0.618   5.063  -5.995  0.00  0.00     0.077 C 
ATOM      2  C1  UNL d   1       0.871   4.878  -5.985  0.00  0.00    -0.074 A 
ATOM      3  C2  UNL d   1       1.732   5.979  -5.946  0.00  0.00    -0.005 A 
ATOM      4  C3  UNL d   1       3.114   5.791  -5.927  0.00  0.00     0.006 A 
ATOM      5  C4  UNL d   1       3.648   4.501  -5.946  0.00  0.00    -0.005 A 
ATOM      6  C5  UNL d   1       2.802   3.388  -5.984  0.00  0.00    -0.074 A 
ATOM      7  C6  UNL d   1       3.359   1.996  -5.995  0.00  0.00     0.077 C 
ATOM      8  C7  UNL d   1       1.414   3.586  -5.995  0.00  0.00    -0.001 A 
ENDROOT
TORSDOF 0
ENDMDL
