MODEL 1
REMARK minimizedAffinity -2.14565587
REMARK minimizedRMSD -1
REMARK  0 active torsions:
REMARK  status: ('A' for Active; 'I' for Inactive)
ROOT
ATOM      1  C   UNL d   1      -2.954  -1.908   0.126  0.00  0.00     0.077 C 
ATOM      2  C1  UNL d   1      -2.861  -2.505  -1.247  0.00  0.00    -0.074 A 
ATOM      3  C2  UNL d   1      -3.433  -3.750  -1.529  0.00  0.00    -0.005 A 
ATOM      4  C3  UNL d   1      -3.347  -4.287  -2.814  0.00  0.00     0.006 A 
ATOM      5  C4  UNL d   1      -2.690  -3.587  -3.826  0.00  0.00    -0.005 A 
ATOM      6  C5  UNL d   1      -2.113  -2.341  -3.562  0.00  0.00    -0.074 A 
ATOM      7  C6  UNL d   1      -1.412  -1.571  -4.641  0.00  0.00     0.077 C 
ATOM      8  C7  UNL d   1      -2.210  -1.804  -2.271  0.00  0.00    -0.001 A 
ENDROOT
TORSDOF 0
ENDMDL
