MODEL 1
REMARK minimizedAffinity 17.4654961
REMARK minimizedRMSD -1
REMARK  0 active torsions:
REMARK  status: ('A' for Active; 'I' for Inactive)
ROOT
ATOM      1  C   UNL d   1      -1.372  -2.252  -5.999  0.00  0.00     0.077 C 
ATOM      2  C1  UNL d   1      -2.044  -2.429  -4.670  0.00  0.00    -0.074 A 
ATOM      3  C2  UNL d   1      -3.218  -3.179  -4.553  0.00  0.00    -0.005 A 
ATOM      4  C3  UNL d   1      -3.827  -3.343  -3.308  0.00  0.00     0.006 A 
ATOM      5  C4  UNL d   1      -3.268  -2.759  -2.171  0.00  0.00    -0.005 A 
ATOM      6  C5  UNL d   1      -2.094  -2.006  -2.268  0.00  0.00    -0.074 A 
ATOM      7  C6  UNL d   1      -1.475  -1.380  -1.054  0.00  0.00     0.077 C 
ATOM      8  C7  UNL d   1      -1.485  -1.852  -3.521  0.00  0.00    -0.001 A 
ENDROOT
TORSDOF 0
ENDMDL
