MODEL 1
REMARK minimizedAffinity 4.03488541
REMARK minimizedRMSD -1
REMARK  0 active torsions:
REMARK  status: ('A' for Active; 'I' for Inactive)
ROOT
ATOM      1  C   UNL d   1       1.545  -1.089  -0.164  0.00  0.00     0.077 C 
ATOM      2  C1  UNL d   1       0.102  -1.379  -0.452  0.00  0.00    -0.074 A 
ATOM      3  C2  UNL d   1      -0.792  -1.675   0.582  0.00  0.00    -0.005 A 
ATOM      4  C3  UNL d   1      -2.133  -1.933   0.299  0.00  0.00     0.006 A 
ATOM      5  C4  UNL d   1      -2.593  -1.898  -1.018  0.00  0.00    -0.005 A 
ATOM      6  C5  UNL d   1      -1.714  -1.603  -2.065  0.00  0.00    -0.074 A 
ATOM      7  C6  UNL d   1      -2.194  -1.552  -3.485  0.00  0.00     0.077 C 
ATOM      8  C7  UNL d   1      -0.369  -1.338  -1.772  0.00  0.00    -0.001 A 
ENDROOT
TORSDOF 0
ENDMDL
