MODEL 1
REMARK minimizedAffinity 4.24599886
REMARK minimizedRMSD -1
REMARK  0 active torsions:
REMARK  status: ('A' for Active; 'I' for Inactive)
ROOT
ATOM      1  C   UNL d   1       3.478   2.235  -6.000  0.00  0.00     0.077 C 
ATOM      2  C1  UNL d   1       2.988   3.552  -5.476  0.00  0.00    -0.074 A 
ATOM      3  C2  UNL d   1       3.480   4.757  -5.988  0.00  0.00    -0.005 A 
ATOM      4  C3  UNL d   1       3.008   5.975  -5.497  0.00  0.00     0.006 A 
ATOM      5  C4  UNL d   1       2.040   5.999  -4.492  0.00  0.00    -0.005 A 
ATOM      6  C5  UNL d   1       1.536   4.805  -3.969  0.00  0.00    -0.074 A 
ATOM      7  C6  UNL d   1       0.489   4.813  -2.895  0.00  0.00     0.077 C 
ATOM      8  C7  UNL d   1       2.011   3.585  -4.472  0.00  0.00    -0.001 A 
ENDROOT
TORSDOF 0
ENDMDL
