MODEL 1
REMARK minimizedAffinity 9.13595486
REMARK minimizedRMSD -1
REMARK  0 active torsions:
REMARK  status: ('A' for Active; 'I' for Inactive)
ROOT
ATOM      1  C   UNL d   1       5.990   1.780   4.916  0.00  0.00     0.077 C 
ATOM      2  C1  UNL d   1       5.695   3.251   4.895  0.00  0.00    -0.074 A 
ATOM      3  C2  UNL d   1       5.999   4.060   5.994  0.00  0.00    -0.005 A 
ATOM      4  C3  UNL d   1       5.727   5.428   5.957  0.00  0.00     0.006 A 
ATOM      5  C4  UNL d   1       5.149   5.999   4.823  0.00  0.00    -0.005 A 
ATOM      6  C5  UNL d   1       4.838   5.205   3.714  0.00  0.00    -0.074 A 
ATOM      7  C6  UNL d   1       4.225   5.804   2.483  0.00  0.00     0.077 C 
ATOM      8  C7  UNL d   1       5.121   3.833   3.757  0.00  0.00    -0.001 A 
ENDROOT
TORSDOF 0
ENDMDL
