MODEL 1
REMARK minimizedAffinity 6.19612026
REMARK minimizedRMSD -1
REMARK  0 active torsions:
REMARK  status: ('A' for Active; 'I' for Inactive)
ROOT
ATOM      1  C   UNL d   1      -0.470  -0.050   3.910  0.00  0.00     0.077 C 
ATOM      2  C1  UNL d   1       0.982  -0.264   3.601  0.00  0.00    -0.074 A 
ATOM      3  C2  UNL d   1       1.871  -0.695   4.591  0.00  0.00    -0.005 A 
ATOM      4  C3  UNL d   1       3.217  -0.899   4.286  0.00  0.00     0.006 A 
ATOM      5  C4  UNL d   1       3.686  -0.674   2.991  0.00  0.00    -0.005 A 
ATOM      6  C5  UNL d   1       2.811  -0.243   1.989  0.00  0.00    -0.074 A 
ATOM      7  C6  UNL d   1       3.297  -0.006   0.590  0.00  0.00     0.077 C 
ATOM      8  C7  UNL d   1       1.459  -0.048   2.301  0.00  0.00    -0.001 A 
ENDROOT
TORSDOF 0
ENDMDL
