MODEL 1
REMARK minimizedAffinity 7.23441267
REMARK minimizedRMSD -1
REMARK  0 active torsions:
REMARK  status: ('A' for Active; 'I' for Inactive)
ROOT
ATOM      1  C   UNL d   1      -1.889  -0.508   2.853  0.00  0.00     0.077 C 
ATOM      2  C1  UNL d   1      -1.575  -1.923   2.468  0.00  0.00    -0.074 A 
ATOM      3  C2  UNL d   1      -0.786  -2.205   1.348  0.00  0.00    -0.005 A 
ATOM      4  C3  UNL d   1      -0.495  -3.526   1.007  0.00  0.00     0.006 A 
ATOM      5  C4  UNL d   1      -0.990  -4.576   1.781  0.00  0.00    -0.005 A 
ATOM      6  C5  UNL d   1      -1.780  -4.314   2.905  0.00  0.00    -0.074 A 
ATOM      7  C6  UNL d   1      -2.312  -5.431   3.753  0.00  0.00     0.077 C 
ATOM      8  C7  UNL d   1      -2.062  -2.983   3.245  0.00  0.00    -0.001 A 
ENDROOT
TORSDOF 0
ENDMDL
