MODEL 1
REMARK minimizedAffinity 0.93518877
REMARK minimizedRMSD -1
REMARK  0 active torsions:
REMARK  status: ('A' for Active; 'I' for Inactive)
ROOT
ATOM      1  C   UNL d   1      -5.948  -4.108  -0.054  0.00  0.00     0.077 C 
ATOM      2  C1  UNL d   1      -4.611  -3.975  -0.720  0.00  0.00    -0.074 A 
ATOM      3  C2  UNL d   1      -4.233  -4.841  -1.752  0.00  0.00    -0.005 A 
ATOM      4  C3  UNL d   1      -2.990  -4.700  -2.369  0.00  0.00     0.006 A 
ATOM      5  C4  UNL d   1      -2.114  -3.693  -1.961  0.00  0.00    -0.005 A 
ATOM      6  C5  UNL d   1      -2.474  -2.818  -0.931  0.00  0.00    -0.074 A 
ATOM      7  C6  UNL d   1      -1.548  -1.725  -0.487  0.00  0.00     0.077 C 
ATOM      8  C7  UNL d   1      -3.728  -2.962  -0.321  0.00  0.00    -0.001 A 
ENDROOT
TORSDOF 0
ENDMDL
