MODEL 1
REMARK minimizedAffinity 2.1226151
REMARK minimizedRMSD -1
REMARK  0 active torsions:
REMARK  status: ('A' for Active; 'I' for Inactive)
ROOT
ATOM      1  C   UNL d   1       4.317   5.999  -4.961  0.00  0.00     0.077 C 
ATOM      2  C1  UNL d   1       3.284   4.971  -5.317  0.00  0.00    -0.074 A 
ATOM      3  C2  UNL d   1       1.948   5.333  -5.517  0.00  0.00    -0.005 A 
ATOM      4  C3  UNL d   1       1.001   4.367  -5.856  0.00  0.00     0.006 A 
ATOM      5  C4  UNL d   1       1.379   3.032  -5.999  0.00  0.00    -0.005 A 
ATOM      6  C5  UNL d   1       2.711   2.651  -5.803  0.00  0.00    -0.074 A 
ATOM      7  C6  UNL d   1       3.136   1.222  -5.962  0.00  0.00     0.077 C 
ATOM      8  C7  UNL d   1       3.658   3.629  -5.469  0.00  0.00    -0.001 A 
ENDROOT
TORSDOF 0
ENDMDL
