MODEL 1
REMARK minimizedAffinity 5.72348547
REMARK minimizedRMSD -1
REMARK  0 active torsions:
REMARK  status: ('A' for Active; 'I' for Inactive)
ROOT
ATOM      1  C   UNL d   1      -1.109  -1.623   2.592  0.00  0.00     0.077 C 
ATOM      2  C1  UNL d   1      -1.453  -2.026   1.189  0.00  0.00    -0.074 A 
ATOM      3  C2  UNL d   1      -0.452  -2.227   0.233  0.00  0.00    -0.005 A 
ATOM      4  C3  UNL d   1      -0.786  -2.612  -1.066  0.00  0.00     0.006 A 
ATOM      5  C4  UNL d   1      -2.123  -2.799  -1.421  0.00  0.00    -0.005 A 
ATOM      6  C5  UNL d   1      -3.137  -2.604  -0.478  0.00  0.00    -0.074 A 
ATOM      7  C6  UNL d   1      -4.578  -2.811  -0.841  0.00  0.00     0.077 C 
ATOM      8  C7  UNL d   1      -2.793  -2.225   0.826  0.00  0.00    -0.001 A 
ENDROOT
TORSDOF 0
ENDMDL
