MODEL 1
REMARK minimizedAffinity -0.406531215
REMARK minimizedRMSD -1
REMARK  0 active torsions:
REMARK  status: ('A' for Active; 'I' for Inactive)
ROOT
ATOM      1  C   UNL d   1       1.333   5.963  -6.000  0.00  0.00     0.077 C 
ATOM      2  C1  UNL d   1       2.604   5.336  -5.508  0.00  0.00    -0.074 A 
ATOM      3  C2  UNL d   1       3.425   6.000  -4.590  0.00  0.00    -0.005 A 
ATOM      4  C3  UNL d   1       4.599   5.400  -4.135  0.00  0.00     0.006 A 
ATOM      5  C4  UNL d   1       4.963   4.133  -4.591  0.00  0.00    -0.005 A 
ATOM      6  C5  UNL d   1       4.154   3.453  -5.507  0.00  0.00    -0.074 A 
ATOM      7  C6  UNL d   1       4.525   2.086  -6.000  0.00  0.00     0.077 C 
ATOM      8  C7  UNL d   1       2.972   4.060  -5.955  0.00  0.00    -0.001 A 
ENDROOT
TORSDOF 0
ENDMDL
