MODEL 1
REMARK minimizedAffinity 4.57181215
REMARK minimizedRMSD -1
REMARK  0 active torsions:
REMARK  status: ('A' for Active; 'I' for Inactive)
ROOT
ATOM      1  C   UNL d   1      -2.923  -3.309  -5.583  0.00  0.00     0.077 C 
ATOM      2  C1  UNL d   1      -2.896  -2.867  -4.150  0.00  0.00    -0.074 A 
ATOM      3  C2  UNL d   1      -1.723  -2.369  -3.574  0.00  0.00    -0.005 A 
ATOM      4  C3  UNL d   1      -1.715  -1.953  -2.243  0.00  0.00     0.006 A 
ATOM      5  C4  UNL d   1      -2.878  -2.031  -1.475  0.00  0.00    -0.005 A 
ATOM      6  C5  UNL d   1      -4.061  -2.525  -2.035  0.00  0.00    -0.074 A 
ATOM      7  C6  UNL d   1      -5.322  -2.606  -1.227  0.00  0.00     0.077 C 
ATOM      8  C7  UNL d   1      -4.062  -2.935  -3.375  0.00  0.00    -0.001 A 
ENDROOT
TORSDOF 0
ENDMDL
