MODEL 1
REMARK minimizedAffinity 0.501867175
REMARK minimizedRMSD -1
REMARK  1 active torsions:
REMARK  status: ('A' for Active; 'I' for Inactive)
REMARK    1  A    between atoms: C1_2  and  C2_3 
ROOT
ATOM      1  C2  UNL d   1       1.007  -1.755   1.416  0.00  0.00    -0.077 A 
ATOM      2  C3  UNL d   1       0.272  -2.916   1.135  0.00  0.00     0.002 A 
ATOM      3  C4  UNL d   1       0.806  -3.907   0.309  0.00  0.00     0.002 A 
ATOM      4  C5  UNL d   1       2.077  -3.749  -0.238  0.00  0.00    -0.004 A 
ATOM      5  C6  UNL d   1       2.815  -2.598   0.034  0.00  0.00     0.002 A 
ATOM      6  C7  UNL d   1       2.283  -1.606   0.858  0.00  0.00     0.002 A 
ENDROOT
BRANCH   1   7
ATOM      7  C1  UNL d   1       0.453  -0.708   2.346  0.00  0.00     0.055 C 
ATOM      8  C   UNL d   1       1.092  -0.797   3.724  0.00  0.00     0.019 C 
ENDBRANCH   1   7
TORSDOF 1
ENDMDL
