MODEL 1
REMARK minimizedAffinity -0.0303798672
REMARK minimizedRMSD -1
REMARK  1 active torsions:
REMARK  status: ('A' for Active; 'I' for Inactive)
REMARK    1  A    between atoms: C1_2  and  C2_3 
ROOT
ATOM      1  C2  UNL d   1       1.714  -0.149  -0.021  0.00  0.00    -0.077 A 
ATOM      2  C3  UNL d   1       0.632  -0.914  -0.479  0.00  0.00     0.002 A 
ATOM      3  C4  UNL d   1      -0.311  -1.413   0.420  0.00  0.00     0.002 A 
ATOM      4  C5  UNL d   1      -0.185  -1.150   1.783  0.00  0.00    -0.004 A 
ATOM      5  C6  UNL d   1       0.888  -0.392   2.249  0.00  0.00     0.002 A 
ATOM      6  C7  UNL d   1       1.833   0.107   1.351  0.00  0.00     0.002 A 
ENDROOT
BRANCH   1   7
ATOM      7  C1  UNL d   1       2.705   0.432  -0.995  0.00  0.00     0.055 C 
ATOM      8  C   UNL d   1       2.354   0.063  -2.429  0.00  0.00     0.019 C 
ENDBRANCH   1   7
TORSDOF 1
ENDMDL
