MODEL 1
REMARK minimizedAffinity -0.635474741
REMARK minimizedRMSD -1
REMARK  1 active torsions:
REMARK  status: ('A' for Active; 'I' for Inactive)
REMARK    1  A    between atoms: C1_2  and  C2_3 
ROOT
ATOM      1  C2  UNL d   1       1.352  -2.610   0.692  0.00  0.00    -0.077 A 
ATOM      2  C3  UNL d   1       2.418  -1.725   0.908  0.00  0.00     0.002 A 
ATOM      3  C4  UNL d   1       2.174  -0.397   1.261  0.00  0.00     0.002 A 
ATOM      4  C5  UNL d   1       0.865   0.058   1.405  0.00  0.00    -0.004 A 
ATOM      5  C6  UNL d   1      -0.203  -0.814   1.191  0.00  0.00     0.002 A 
ATOM      6  C7  UNL d   1       0.040  -2.142   0.837  0.00  0.00     0.002 A 
ENDROOT
BRANCH   1   7
ATOM      7  C1  UNL d   1       1.615  -4.055   0.360  0.00  0.00     0.055 C 
ATOM      8  C   UNL d   1       3.107  -4.350   0.310  0.00  0.00     0.019 C 
ENDBRANCH   1   7
TORSDOF 1
ENDMDL
