MODEL 1
REMARK minimizedAffinity 1.52616358
REMARK minimizedRMSD -1
REMARK  1 active torsions:
REMARK  status: ('A' for Active; 'I' for Inactive)
REMARK    1  A    between atoms: C1_2  and  C2_3 
ROOT
ATOM      1  C2  UNL d   1       3.572  -4.455  -0.060  0.00  0.00    -0.077 A 
ATOM      2  C3  UNL d   1       2.207  -4.298   0.219  0.00  0.00     0.002 A 
ATOM      3  C4  UNL d   1       1.645  -3.023   0.305  0.00  0.00     0.002 A 
ATOM      4  C5  UNL d   1       2.439  -1.895   0.110  0.00  0.00    -0.004 A 
ATOM      5  C6  UNL d   1       3.798  -2.040  -0.167  0.00  0.00     0.002 A 
ATOM      6  C7  UNL d   1       4.362  -3.314  -0.252  0.00  0.00     0.002 A 
ENDROOT
BRANCH   1   7
ATOM      7  C1  UNL d   1       4.169  -5.830  -0.202  0.00  0.00     0.055 C 
ATOM      8  C   UNL d   1       5.580  -5.882   0.365  0.00  0.00     0.019 C 
ENDBRANCH   1   7
TORSDOF 1
ENDMDL
