MODEL 1
REMARK minimizedAffinity -3.08433318
REMARK minimizedRMSD -1
REMARK  1 active torsions:
REMARK  status: ('A' for Active; 'I' for Inactive)
REMARK    1  A    between atoms: C1_2  and  C2_3 
ROOT
ATOM      1  C2  UNL d   1       0.588  -1.983   0.397  0.00  0.00    -0.077 A 
ATOM      2  C3  UNL d   1       1.745  -1.210   0.569  0.00  0.00     0.002 A 
ATOM      3  C4  UNL d   1       3.008  -1.797   0.466  0.00  0.00     0.002 A 
ATOM      4  C5  UNL d   1       3.125  -3.157   0.188  0.00  0.00    -0.004 A 
ATOM      5  C6  UNL d   1       1.981  -3.934   0.018  0.00  0.00     0.002 A 
ATOM      6  C7  UNL d   1       0.718  -3.350   0.121  0.00  0.00     0.002 A 
ENDROOT
BRANCH   1   7
ATOM      7  C1  UNL d   1      -0.774  -1.342   0.458  0.00  0.00     0.055 C 
ATOM      8  C   UNL d   1      -0.803  -0.197   1.460  0.00  0.00     0.019 C 
ENDBRANCH   1   7
TORSDOF 1
ENDMDL
