MODEL 1
REMARK minimizedAffinity -0.0951082408
REMARK minimizedRMSD -1
REMARK  1 active torsions:
REMARK  status: ('A' for Active; 'I' for Inactive)
REMARK    1  A    between atoms: C1_2  and  C2_3 
ROOT
ATOM      1  C2  UNL d   1       2.881  -4.062  -0.127  0.00  0.00    -0.077 A 
ATOM      2  C3  UNL d   1       3.512  -2.815  -0.014  0.00  0.00     0.002 A 
ATOM      3  C4  UNL d   1       2.759  -1.661   0.209  0.00  0.00     0.002 A 
ATOM      4  C5  UNL d   1       1.373  -1.742   0.325  0.00  0.00    -0.004 A 
ATOM      5  C6  UNL d   1       0.736  -2.978   0.212  0.00  0.00     0.002 A 
ATOM      6  C7  UNL d   1       1.487  -4.133  -0.012  0.00  0.00     0.002 A 
ENDROOT
BRANCH   1   7
ATOM      7  C1  UNL d   1       3.695  -5.315  -0.319  0.00  0.00     0.055 C 
ATOM      8  C   UNL d   1       5.082  -5.173   0.293  0.00  0.00     0.019 C 
ENDBRANCH   1   7
TORSDOF 1
ENDMDL
