MODEL 1
REMARK minimizedAffinity -2.9452498
REMARK minimizedRMSD -1
REMARK  1 active torsions:
REMARK  status: ('A' for Active; 'I' for Inactive)
REMARK    1  A    between atoms: C1_2  and  C2_3 
ROOT
ATOM      1  C2  UNL d   1       0.619  -1.875   0.431  0.00  0.00    -0.077 A 
ATOM      2  C3  UNL d   1       0.622  -3.272   0.317  0.00  0.00     0.002 A 
ATOM      3  C4  UNL d   1       1.810  -3.958   0.058  0.00  0.00     0.002 A 
ATOM      4  C5  UNL d   1       3.005  -3.255  -0.085  0.00  0.00    -0.004 A 
ATOM      5  C6  UNL d   1       3.013  -1.865   0.025  0.00  0.00     0.002 A 
ATOM      6  C7  UNL d   1       1.825  -1.178   0.283  0.00  0.00     0.002 A 
ENDROOT
BRANCH   1   7
ATOM      7  C1  UNL d   1      -0.653  -1.138   0.759  0.00  0.00     0.055 C 
ATOM      8  C   UNL d   1      -0.453  -0.179   1.923  0.00  0.00     0.019 C 
ENDBRANCH   1   7
TORSDOF 1
ENDMDL
