MODEL 1
REMARK minimizedAffinity 4.86965322
REMARK minimizedRMSD -1
REMARK  1 active torsions:
REMARK  status: ('A' for Active; 'I' for Inactive)
REMARK    1  A    between atoms: C1_2  and  C2_3 
ROOT
ATOM      1  C2  UNL d   1      -2.040   2.977   1.232  0.00  0.00    -0.077 A 
ATOM      2  C3  UNL d   1      -1.623   1.868   1.981  0.00  0.00     0.002 A 
ATOM      3  C4  UNL d   1      -2.141   0.599   1.712  0.00  0.00     0.002 A 
ATOM      4  C5  UNL d   1      -3.076   0.428   0.692  0.00  0.00    -0.004 A 
ATOM      5  C6  UNL d   1      -3.498   1.526  -0.056  0.00  0.00     0.002 A 
ATOM      6  C7  UNL d   1      -2.982   2.795   0.212  0.00  0.00     0.002 A 
ENDROOT
BRANCH   1   7
ATOM      7  C1  UNL d   1      -1.445   4.338   1.488  0.00  0.00     0.055 C 
ATOM      8  C   UNL d   1      -1.380   5.162   0.211  0.00  0.00     0.019 C 
ENDBRANCH   1   7
TORSDOF 1
ENDMDL
