MODEL 1
REMARK minimizedAffinity -3.31967211
REMARK minimizedRMSD -1
REMARK  1 active torsions:
REMARK  status: ('A' for Active; 'I' for Inactive)
REMARK    1  A    between atoms: C1_2  and  C2_3 
ROOT
ATOM      1  C2  UNL d   1       0.660  -2.663   0.275  0.00  0.00    -0.077 A 
ATOM      2  C3  UNL d   1       1.630  -1.666   0.450  0.00  0.00     0.002 A 
ATOM      3  C4  UNL d   1       1.279  -0.424   0.982  0.00  0.00     0.002 A 
ATOM      4  C5  UNL d   1      -0.041  -0.168   1.347  0.00  0.00    -0.004 A 
ATOM      5  C6  UNL d   1      -1.014  -1.153   1.175  0.00  0.00     0.002 A 
ATOM      6  C7  UNL d   1      -0.665  -2.394   0.642  0.00  0.00     0.002 A 
ENDROOT
BRANCH   1   7
ATOM      7  C1  UNL d   1       1.046  -4.020  -0.252  0.00  0.00     0.055 C 
ATOM      8  C   UNL d   1       2.547  -4.247  -0.149  0.00  0.00     0.019 C 
ENDBRANCH   1   7
TORSDOF 1
ENDMDL
