MODEL 1
REMARK minimizedAffinity -1.35039639
REMARK minimizedRMSD -1
REMARK  1 active torsions:
REMARK  status: ('A' for Active; 'I' for Inactive)
REMARK    1  A    between atoms: C1_2  and  C2_3 
ROOT
ATOM      1  C2  UNL d   1       1.797  -1.120   0.030  0.00  0.00    -0.077 A 
ATOM      2  C3  UNL d   1       1.293  -2.409  -0.189  0.00  0.00     0.002 A 
ATOM      3  C4  UNL d   1      -0.021  -2.724   0.166  0.00  0.00     0.002 A 
ATOM      4  C5  UNL d   1      -0.841  -1.754   0.739  0.00  0.00    -0.004 A 
ATOM      5  C6  UNL d   1      -0.348  -0.469   0.962  0.00  0.00     0.002 A 
ATOM      6  C7  UNL d   1       0.965  -0.153   0.609  0.00  0.00     0.002 A 
ENDROOT
BRANCH   1   7
ATOM      7  C1  UNL d   1       3.197  -0.765  -0.397  0.00  0.00     0.055 C 
ATOM      8  C   UNL d   1       3.191   0.089  -1.657  0.00  0.00     0.019 C 
ENDBRANCH   1   7
TORSDOF 1
ENDMDL
