MODEL 1
REMARK minimizedAffinity -3.98660374
REMARK minimizedRMSD -1
REMARK  2 active torsions:
REMARK  status: ('A' for Active; 'I' for Inactive)
REMARK    1  A    between atoms: C2'_3  and  C1'_4 
REMARK    2  A    between atoms: C1'_4  and  C1_5 
ROOT
ATOM      1  C1  I4B d   1       0.350  -0.329  -1.422  0.00  0.00    -0.075 A 
ATOM      2  C2  I4B d   1      -0.029  -1.192  -2.419  0.00  0.00     0.003 A 
ATOM      3  C3  I4B d   1       0.342  -0.937  -3.762  0.00  0.00     0.002 A 
ATOM      4  C4  I4B d   1       1.043   0.212  -4.066  0.00  0.00    -0.004 A 
ATOM      5  C5  I4B d   1       1.447   1.074  -3.051  0.00  0.00     0.002 A 
ATOM      6  C6  I4B d   1       1.109   0.796  -1.718  0.00  0.00     0.003 A 
ENDROOT
BRANCH   1   7
ATOM      7  C1' I4B d   1      -0.086  -0.612  -0.019  0.00  0.00     0.060 C 
BRANCH   7   8
ATOM      8  C2' I4B d   1      -1.299   0.247   0.274  0.00  0.00    -0.013 C 
ATOM      9  C4' I4B d   1      -2.497  -0.214  -0.513  0.00  0.00     0.013 C 
ATOM     10  C3' I4B d   1      -1.564   0.185   1.749  0.00  0.00     0.013 C 
ENDBRANCH   7   8
ENDBRANCH   1   7
TORSDOF 2
ENDMDL
