MODEL 1
REMARK minimizedAffinity -4.00268507
REMARK minimizedRMSD -1
REMARK  2 active torsions:
REMARK  status: ('A' for Active; 'I' for Inactive)
REMARK    1  A    between atoms: C2'_3  and  C1'_4 
REMARK    2  A    between atoms: C1'_4  and  C1_5 
ROOT
ATOM      1  C1  I4B d   1       0.158  -0.321  -0.831  0.00  0.00    -0.075 A 
ATOM      2  C2  I4B d   1      -1.136   0.111  -0.672  0.00  0.00     0.003 A 
ATOM      3  C3  I4B d   1      -1.682   0.262   0.625  0.00  0.00     0.002 A 
ATOM      4  C4  I4B d   1      -0.922  -0.076   1.727  0.00  0.00    -0.004 A 
ATOM      5  C5  I4B d   1       0.396  -0.491   1.564  0.00  0.00     0.002 A 
ATOM      6  C6  I4B d   1       0.944  -0.603   0.278  0.00  0.00     0.003 A 
ENDROOT
BRANCH   1   7
ATOM      7  C1' I4B d   1       0.692  -0.501  -2.216  0.00  0.00     0.060 C 
BRANCH   7   8
ATOM      8  C2' I4B d   1       0.755   0.863  -2.873  0.00  0.00    -0.013 C 
ATOM      9  C4' I4B d   1       2.180   1.281  -3.128  0.00  0.00     0.013 C 
ATOM     10  C3' I4B d   1      -0.026   0.799  -4.151  0.00  0.00     0.013 C 
ENDBRANCH   7   8
ENDBRANCH   1   7
TORSDOF 2
ENDMDL
