MODEL 1
REMARK minimizedAffinity 5.80066538
REMARK minimizedRMSD -1
REMARK  2 active torsions:
REMARK  status: ('A' for Active; 'I' for Inactive)
REMARK    1  A    between atoms: C2'_3  and  C1'_4 
REMARK    2  A    between atoms: C1'_4  and  C1_5 
ROOT
ATOM      1  C1  I4B d   1      -0.534  -0.925  -3.133  0.00  0.00    -0.075 A 
ATOM      2  C2  I4B d   1      -1.376  -1.531  -4.032  0.00  0.00     0.003 A 
ATOM      3  C3  I4B d   1      -1.519  -1.007  -5.340  0.00  0.00     0.002 A 
ATOM      4  C4  I4B d   1      -0.845   0.146  -5.687  0.00  0.00    -0.004 A 
ATOM      5  C5  I4B d   1       0.025   0.746  -4.782  0.00  0.00     0.002 A 
ATOM      6  C6  I4B d   1       0.191   0.201  -3.500  0.00  0.00     0.003 A 
ENDROOT
BRANCH   1   7
ATOM      7  C1' I4B d   1      -0.432  -1.486  -1.750  0.00  0.00     0.060 C 
BRANCH   7   8
ATOM      8  C2' I4B d   1      -0.707  -0.364  -0.770  0.00  0.00    -0.013 C 
ATOM      9  C4' I4B d   1      -2.082  -0.491  -0.168  0.00  0.00     0.013 C 
ATOM     10  C3' I4B d   1       0.353  -0.403   0.290  0.00  0.00     0.013 C 
ENDBRANCH   7   8
ENDBRANCH   1   7
TORSDOF 2
ENDMDL
