MODEL 1
REMARK minimizedAffinity -3.07093596
REMARK minimizedRMSD -1
REMARK  2 active torsions:
REMARK  status: ('A' for Active; 'I' for Inactive)
REMARK    1  A    between atoms: C2'_3  and  C1'_4 
REMARK    2  A    between atoms: C1'_4  and  C1_5 
ROOT
ATOM      1  C1  I4B d   1       0.026  -0.575  -0.369  0.00  0.00    -0.075 A 
ATOM      2  C2  I4B d   1       0.543  -0.090   0.807  0.00  0.00     0.003 A 
ATOM      3  C3  I4B d   1      -0.314   0.473   1.783  0.00  0.00     0.002 A 
ATOM      4  C4  I4B d   1      -1.665   0.577   1.523  0.00  0.00    -0.004 A 
ATOM      5  C5  I4B d   1      -2.190   0.064   0.340  0.00  0.00     0.002 A 
ATOM      6  C6  I4B d   1      -1.341  -0.527  -0.607  0.00  0.00     0.003 A 
ENDROOT
BRANCH   1   7
ATOM      7  C1' I4B d   1       0.964  -1.133  -1.392  0.00  0.00     0.060 C 
BRANCH   7   8
ATOM      8  C2' I4B d   1       0.981  -0.186  -2.575  0.00  0.00    -0.013 C 
ATOM      9  C4' I4B d   1       2.383   0.260  -2.896  0.00  0.00     0.013 C 
ATOM     10  C3' I4B d   1       0.357  -0.892  -3.742  0.00  0.00     0.013 C 
ENDBRANCH   7   8
ENDBRANCH   1   7
TORSDOF 2
ENDMDL
