MODEL 1
REMARK minimizedAffinity 4.8180294
REMARK minimizedRMSD -1
REMARK  0 active torsions:
REMARK  status: ('A' for Active; 'I' for Inactive)
ROOT
ATOM      1  C1  BNZ d   1       0.664  -0.162  -1.681  0.00  0.00     0.000 A 
ATOM      2  C2  BNZ d   1       0.665   0.697  -2.748  0.00  0.00     0.000 A 
ATOM      3  C3  BNZ d   1       1.828   1.008  -3.395  0.00  0.00     0.000 A 
ATOM      4  C4  BNZ d   1       2.992   0.492  -2.951  0.00  0.00     0.000 A 
ATOM      5  C5  BNZ d   1       3.009  -0.368  -1.871  0.00  0.00     0.000 A 
ATOM      6  C6  BNZ d   1       1.832  -0.709  -1.246  0.00  0.00     0.000 A 
ENDROOT
TORSDOF 0
ENDMDL
