MODEL 1
REMARK minimizedAffinity 1.13193262
REMARK minimizedRMSD -1
REMARK  0 active torsions:
REMARK  status: ('A' for Active; 'I' for Inactive)
ROOT
ATOM      1  C1  BNZ d   1      -4.806   5.999   4.741  0.00  0.00     0.000 A 
ATOM      2  C2  BNZ d   1      -4.744   5.286   3.573  0.00  0.00     0.000 A 
ATOM      3  C3  BNZ d   1      -3.631   4.560   3.256  0.00  0.00     0.000 A 
ATOM      4  C4  BNZ d   1      -2.567   4.579   4.085  0.00  0.00     0.000 A 
ATOM      5  C5  BNZ d   1      -2.611   5.301   5.261  0.00  0.00     0.000 A 
ATOM      6  C6  BNZ d   1      -3.748   6.000   5.597  0.00  0.00     0.000 A 
ENDROOT
TORSDOF 0
ENDMDL
