MODEL 1
REMARK minimizedAffinity -1.45273411
REMARK minimizedRMSD -1
REMARK  0 active torsions:
REMARK  status: ('A' for Active; 'I' for Inactive)
ROOT
ATOM      1  C1  BNZ d   1      -3.609   4.686   1.469  0.00  0.00     0.000 A 
ATOM      2  C2  BNZ d   1      -2.672   4.783   2.463  0.00  0.00     0.000 A 
ATOM      3  C3  BNZ d   1      -3.008   5.264   3.698  0.00  0.00     0.000 A 
ATOM      4  C4  BNZ d   1      -4.269   5.684   3.925  0.00  0.00     0.000 A 
ATOM      5  C5  BNZ d   1      -5.223   5.601   2.930  0.00  0.00     0.000 A 
ATOM      6  C6  BNZ d   1      -4.891   5.081   1.701  0.00  0.00     0.000 A 
ENDROOT
TORSDOF 0
ENDMDL
