MODEL 1
REMARK minimizedAffinity 7.45153713
REMARK minimizedRMSD -1
REMARK  0 active torsions:
REMARK  status: ('A' for Active; 'I' for Inactive)
ROOT
ATOM      1  C1  BNZ d   1      -3.531  -0.954   2.415  0.00  0.00     0.000 A 
ATOM      2  C2  BNZ d   1      -3.703   0.049   3.331  0.00  0.00     0.000 A 
ATOM      3  C3  BNZ d   1      -2.919   1.168   3.299  0.00  0.00     0.000 A 
ATOM      4  C4  BNZ d   1      -1.938   1.265   2.378  0.00  0.00     0.000 A 
ATOM      5  C5  BNZ d   1      -1.746   0.258   1.454  0.00  0.00     0.000 A 
ATOM      6  C6  BNZ d   1      -2.563  -0.849   1.464  0.00  0.00     0.000 A 
ENDROOT
TORSDOF 0
ENDMDL
