MODEL 1
REMARK minimizedAffinity 5.80453014
REMARK minimizedRMSD -1
REMARK  0 active torsions:
REMARK  status: ('A' for Active; 'I' for Inactive)
ROOT
ATOM      1  C1  BNZ d   1      -2.485   5.586   3.342  0.00  0.00     0.000 A 
ATOM      2  C2  BNZ d   1      -1.570   6.000   4.273  0.00  0.00     0.000 A 
ATOM      3  C3  BNZ d   1      -1.879   6.000   5.605  0.00  0.00     0.000 A 
ATOM      4  C4  BNZ d   1      -3.113   5.625   6.000  0.00  0.00     0.000 A 
ATOM      5  C5  BNZ d   1      -4.049   5.214   5.072  0.00  0.00     0.000 A 
ATOM      6  C6  BNZ d   1      -3.722   5.178   3.736  0.00  0.00     0.000 A 
ENDROOT
TORSDOF 0
ENDMDL
