MODEL 1
REMARK minimizedAffinity -1.70771134
REMARK minimizedRMSD -1
REMARK  0 active torsions:
REMARK  status: ('A' for Active; 'I' for Inactive)
ROOT
ATOM      1  C1  BNZ d   1       3.597  -5.989   3.926  0.00  0.00     0.000 A 
ATOM      2  C2  BNZ d   1       4.779  -5.999   3.235  0.00  0.00     0.000 A 
ATOM      3  C3  BNZ d   1       5.976  -6.000   3.896  0.00  0.00     0.000 A 
ATOM      4  C4  BNZ d   1       5.989  -5.951   5.244  0.00  0.00     0.000 A 
ATOM      5  C5  BNZ d   1       4.806  -5.931   5.954  0.00  0.00     0.000 A 
ATOM      6  C6  BNZ d   1       3.603  -5.970   5.287  0.00  0.00     0.000 A 
ENDROOT
TORSDOF 0
ENDMDL
