MODEL 1
REMARK minimizedAffinity 9.1146841
REMARK minimizedRMSD -1
REMARK  0 active torsions:
REMARK  status: ('A' for Active; 'I' for Inactive)
ROOT
ATOM      1  C1  BNZ d   1      -4.610   5.468   5.058  0.00  0.00     0.000 A 
ATOM      2  C2  BNZ d   1      -4.099   4.941   3.902  0.00  0.00     0.000 A 
ATOM      3  C3  BNZ d   1      -2.751   4.917   3.679  0.00  0.00     0.000 A 
ATOM      4  C4  BNZ d   1      -1.918   5.456   4.592  0.00  0.00     0.000 A 
ATOM      5  C5  BNZ d   1      -2.418   6.000   5.759  0.00  0.00     0.000 A 
ATOM      6  C6  BNZ d   1      -3.773   5.986   5.998  0.00  0.00     0.000 A 
ENDROOT
TORSDOF 0
ENDMDL
