MODEL 1
REMARK minimizedAffinity 5.8043828
REMARK minimizedRMSD -1
REMARK  0 active torsions:
REMARK  status: ('A' for Active; 'I' for Inactive)
ROOT
ATOM      1  C1  BNZ d   1       6.000  -3.898   5.662  0.00  0.00     0.000 A 
ATOM      2  C2  BNZ d   1       5.987  -5.225   6.000  0.00  0.00     0.000 A 
ATOM      3  C3  BNZ d   1       4.885  -5.998   5.758  0.00  0.00     0.000 A 
ATOM      4  C4  BNZ d   1       3.786  -5.435   5.216  0.00  0.00     0.000 A 
ATOM      5  C5  BNZ d   1       3.781  -4.096   4.878  0.00  0.00     0.000 A 
ATOM      6  C6  BNZ d   1       4.905  -3.330   5.087  0.00  0.00     0.000 A 
ENDROOT
TORSDOF 0
ENDMDL
