MODEL 1
REMARK minimizedAffinity 3.02486539
REMARK minimizedRMSD -1
REMARK  0 active torsions:
REMARK  status: ('A' for Active; 'I' for Inactive)
ROOT
ATOM      1  C1  BNZ d   1      -4.029   5.247   5.032  0.00  0.00     0.000 A 
ATOM      2  C2  BNZ d   1      -3.352   5.993   5.960  0.00  0.00     0.000 A 
ATOM      3  C3  BNZ d   1      -1.985   5.990   5.998  0.00  0.00     0.000 A 
ATOM      4  C4  BNZ d   1      -1.300   5.212   5.136  0.00  0.00     0.000 A 
ATOM      5  C5  BNZ d   1      -1.968   4.447   4.201  0.00  0.00     0.000 A 
ATOM      6  C6  BNZ d   1      -3.342   4.482   4.140  0.00  0.00     0.000 A 
ENDROOT
TORSDOF 0
ENDMDL
