MODEL 1
REMARK minimizedAffinity 7.746243
REMARK minimizedRMSD -1
REMARK  0 active torsions:
REMARK  status: ('A' for Active; 'I' for Inactive)
ROOT
ATOM      1  C1  BNZ d   1      -3.881  -1.147   1.972  0.00  0.00     0.000 A 
ATOM      2  C2  BNZ d   1      -3.994  -0.369   3.093  0.00  0.00     0.000 A 
ATOM      3  C3  BNZ d   1      -3.183   0.716   3.276  0.00  0.00     0.000 A 
ATOM      4  C4  BNZ d   1      -2.235   0.997   2.359  0.00  0.00     0.000 A 
ATOM      5  C5  BNZ d   1      -2.102   0.216   1.228  0.00  0.00     0.000 A 
ATOM      6  C6  BNZ d   1      -2.946  -0.852   1.028  0.00  0.00     0.000 A 
ENDROOT
TORSDOF 0
ENDMDL
