MODEL 1
REMARK minimizedAffinity 0.483669072
REMARK minimizedRMSD -1
REMARK  0 active torsions:
REMARK  status: ('A' for Active; 'I' for Inactive)
ROOT
ATOM      1  C1  BNZ d   1      -2.548   5.960   3.559  0.00  0.00     0.000 A 
ATOM      2  C2  BNZ d   1      -3.916   5.951   3.629  0.00  0.00     0.000 A 
ATOM      3  C3  BNZ d   1      -4.556   5.991   4.836  0.00  0.00     0.000 A 
ATOM      4  C4  BNZ d   1      -3.828   5.999   5.972  0.00  0.00     0.000 A 
ATOM      5  C5  BNZ d   1      -2.448   5.999   5.918  0.00  0.00     0.000 A 
ATOM      6  C6  BNZ d   1      -1.808   5.998   4.700  0.00  0.00     0.000 A 
ENDROOT
TORSDOF 0
ENDMDL
