MODEL 1
REMARK minimizedAffinity 1.54823124
REMARK minimizedRMSD -1
REMARK  0 active torsions:
REMARK  status: ('A' for Active; 'I' for Inactive)
ROOT
ATOM      1  C1  BNZ d   1      -4.233   2.890   3.791  0.00  0.00     0.000 A 
ATOM      2  C2  BNZ d   1      -5.481   2.373   4.019  0.00  0.00     0.000 A 
ATOM      3  C3  BNZ d   1      -5.710   1.029   3.922  0.00  0.00     0.000 A 
ATOM      4  C4  BNZ d   1      -4.703   0.209   3.560  0.00  0.00     0.000 A 
ATOM      5  C5  BNZ d   1      -3.441   0.716   3.318  0.00  0.00     0.000 A 
ATOM      6  C6  BNZ d   1      -3.205   2.064   3.454  0.00  0.00     0.000 A 
ENDROOT
TORSDOF 0
ENDMDL
