MODEL 1
REMARK minimizedAffinity 2.21820569
REMARK minimizedRMSD -1
REMARK  0 active torsions:
REMARK  status: ('A' for Active; 'I' for Inactive)
ROOT
ATOM      1  C1  BNZ d   1       2.473  -0.968  -2.040  0.00  0.00     0.000 A 
ATOM      2  C2  BNZ d   1       2.307   0.213  -1.367  0.00  0.00     0.000 A 
ATOM      3  C3  BNZ d   1       1.602   1.243  -1.924  0.00  0.00     0.000 A 
ATOM      4  C4  BNZ d   1       1.098   1.105  -3.167  0.00  0.00     0.000 A 
ATOM      5  C5  BNZ d   1       1.264  -0.076  -3.862  0.00  0.00     0.000 A 
ATOM      6  C6  BNZ d   1       1.942  -1.125  -3.283  0.00  0.00     0.000 A 
ENDROOT
TORSDOF 0
ENDMDL
