MODEL 1
REMARK minimizedAffinity 4.79579926
REMARK minimizedRMSD -1
REMARK  0 active torsions:
REMARK  status: ('A' for Active; 'I' for Inactive)
ROOT
ATOM      1  C1  BNZ d   1       1.660  -0.043  -1.942  0.00  0.00     0.000 A 
ATOM      2  C2  BNZ d   1       0.765   0.071  -2.973  0.00  0.00     0.000 A 
ATOM      3  C3  BNZ d   1       0.835   1.119  -3.847  0.00  0.00     0.000 A 
ATOM      4  C4  BNZ d   1       1.772   2.072  -3.667  0.00  0.00     0.000 A 
ATOM      5  C5  BNZ d   1       2.676   1.976  -2.627  0.00  0.00     0.000 A 
ATOM      6  C6  BNZ d   1       2.627   0.899  -1.772  0.00  0.00     0.000 A 
ENDROOT
TORSDOF 0
ENDMDL
