MODEL 1
REMARK minimizedAffinity 4.26824808
REMARK minimizedRMSD -1
REMARK  0 active torsions:
REMARK  status: ('A' for Active; 'I' for Inactive)
ROOT
ATOM      1  C1  BNZ d   1       2.222   0.387  -1.806  0.00  0.00     0.000 A 
ATOM      2  C2  BNZ d   1       2.008   1.138  -2.930  0.00  0.00     0.000 A 
ATOM      3  C3  BNZ d   1       1.497   0.572  -4.064  0.00  0.00     0.000 A 
ATOM      4  C4  BNZ d   1       1.239  -0.752  -4.086  0.00  0.00     0.000 A 
ATOM      5  C5  BNZ d   1       1.459  -1.525  -2.963  0.00  0.00     0.000 A 
ATOM      6  C6  BNZ d   1       1.937  -0.944  -1.811  0.00  0.00     0.000 A 
ENDROOT
TORSDOF 0
ENDMDL
