MODEL 1
REMARK minimizedAffinity 1.85818315
REMARK minimizedRMSD -1
REMARK  0 active torsions:
REMARK  status: ('A' for Active; 'I' for Inactive)
ROOT
ATOM      1  C1  BNZ d   1       2.288   2.815  -2.874  0.00  0.00     0.000 A 
ATOM      2  C2  BNZ d   1       2.013   2.592  -1.552  0.00  0.00     0.000 A 
ATOM      3  C3  BNZ d   1       1.465   1.409  -1.141  0.00  0.00     0.000 A 
ATOM      4  C4  BNZ d   1       1.156   0.468  -2.056  0.00  0.00     0.000 A 
ATOM      5  C5  BNZ d   1       1.418   0.682  -3.394  0.00  0.00     0.000 A 
ATOM      6  C6  BNZ d   1       2.006   1.858  -3.800  0.00  0.00     0.000 A 
ENDROOT
TORSDOF 0
ENDMDL
