MODEL 1
REMARK minimizedAffinity 6.88577604
REMARK minimizedRMSD -1
REMARK  0 active torsions:
REMARK  status: ('A' for Active; 'I' for Inactive)
ROOT
ATOM      1  C1  BNZ d   1      -4.160   0.735   3.713  0.00  0.00     0.000 A 
ATOM      2  C2  BNZ d   1      -4.191   0.737   5.082  0.00  0.00     0.000 A 
ATOM      3  C3  BNZ d   1      -5.099  -0.025   5.762  0.00  0.00     0.000 A 
ATOM      4  C4  BNZ d   1      -6.000  -0.756   5.074  0.00  0.00     0.000 A 
ATOM      5  C5  BNZ d   1      -5.988  -0.762   3.694  0.00  0.00     0.000 A 
ATOM      6  C6  BNZ d   1      -5.047  -0.024   3.012  0.00  0.00     0.000 A 
ENDROOT
TORSDOF 0
ENDMDL
