MODEL 1
REMARK minimizedAffinity 20.0707722
REMARK minimizedRMSD -1
REMARK  2 active torsions:
REMARK  status: ('A' for Active; 'I' for Inactive)
REMARK    1  A    between atoms: C2'_3  and  C1'_4 
REMARK    2  A    between atoms: C1'_4  and  C1_5 
ROOT
ATOM      1  C1  I4B d   1       4.246  -1.828  -4.006  0.00  0.00    -0.075 A 
ATOM      2  C2  I4B d   1       5.244  -2.725  -3.720  0.00  0.00     0.003 A 
ATOM      3  C3  I4B d   1       5.486  -3.822  -4.583  0.00  0.00     0.002 A 
ATOM      4  C4  I4B d   1       4.678  -4.009  -5.686  0.00  0.00    -0.004 A 
ATOM      5  C5  I4B d   1       3.681  -3.086  -5.987  0.00  0.00     0.002 A 
ATOM      6  C6  I4B d   1       3.471  -1.981  -5.148  0.00  0.00     0.003 A 
ENDROOT
BRANCH   1   7
ATOM      7  C1' I4B d   1       3.996  -0.700  -3.055  0.00  0.00     0.060 C 
BRANCH   7   8
ATOM      8  C2' I4B d   1       3.671   0.535  -3.871  0.00  0.00    -0.013 C 
ATOM      9  C4' I4B d   1       2.705   1.431  -3.142  0.00  0.00     0.013 C 
ATOM     10  C3' I4B d   1       4.957   1.249  -4.162  0.00  0.00     0.013 C 
ENDBRANCH   7   8
ENDBRANCH   1   7
TORSDOF 2
ENDMDL
