MODEL 1
REMARK minimizedAffinity 8.1294899
REMARK minimizedRMSD -1
REMARK  2 active torsions:
REMARK  status: ('A' for Active; 'I' for Inactive)
REMARK    1  A    between atoms: C2'_3  and  C1'_4 
REMARK    2  A    between atoms: C1'_4  and  C1_5 
ROOT
ATOM      1  C1  I4B d   1      -4.908  -1.040   3.881  0.00  0.00    -0.075 A 
ATOM      2  C2  I4B d   1      -5.932  -1.498   3.091  0.00  0.00     0.003 A 
ATOM      3  C3  I4B d   1      -5.651  -2.161   1.872  0.00  0.00     0.002 A 
ATOM      4  C4  I4B d   1      -4.341  -2.299   1.460  0.00  0.00    -0.004 A 
ATOM      5  C5  I4B d   1      -3.303  -1.854   2.272  0.00  0.00     0.002 A 
ATOM      6  C6  I4B d   1      -3.587  -1.231   3.497  0.00  0.00     0.003 A 
ENDROOT
BRANCH   1   7
ATOM      7  C1' I4B d   1      -5.241  -0.315   5.146  0.00  0.00     0.060 C 
BRANCH   7   8
ATOM      8  C2' I4B d   1      -5.601   1.112   4.785  0.00  0.00    -0.013 C 
ATOM      9  C4' I4B d   1      -5.586   2.002   6.000  0.00  0.00     0.013 C 
ATOM     10  C3' I4B d   1      -4.625   1.589   3.752  0.00  0.00     0.013 C 
ENDBRANCH   7   8
ENDBRANCH   1   7
TORSDOF 2
ENDMDL
