MODEL 1
REMARK minimizedAffinity 8.32724762
REMARK minimizedRMSD -1
REMARK  2 active torsions:
REMARK  status: ('A' for Active; 'I' for Inactive)
REMARK    1  A    between atoms: C2'_3  and  C1'_4 
REMARK    2  A    between atoms: C1'_4  and  C1_5 
ROOT
ATOM      1  C1  I4B d   1      -3.521  -2.235   1.805  0.00  0.00    -0.075 A 
ATOM      2  C2  I4B d   1      -3.262  -1.674   3.031  0.00  0.00     0.003 A 
ATOM      3  C3  I4B d   1      -4.314  -1.111   3.794  0.00  0.00     0.002 A 
ATOM      4  C4  I4B d   1      -5.592  -1.086   3.274  0.00  0.00    -0.004 A 
ATOM      5  C5  I4B d   1      -5.857  -1.675   2.041  0.00  0.00     0.002 A 
ATOM      6  C6  I4B d   1      -4.817  -2.265   1.307  0.00  0.00     0.003 A 
ENDROOT
BRANCH   1   7
ATOM      7  C1' I4B d   1      -2.381  -2.791   1.012  0.00  0.00     0.060 C 
BRANCH   7   8
ATOM      8  C2' I4B d   1      -2.452  -4.302   1.090  0.00  0.00    -0.013 C 
ATOM      9  C4' I4B d   1      -2.092  -4.933  -0.229  0.00  0.00     0.013 C 
ATOM     10  C3' I4B d   1      -1.523  -4.753   2.177  0.00  0.00     0.013 C 
ENDBRANCH   7   8
ENDBRANCH   1   7
TORSDOF 2
ENDMDL
