MODEL 1
REMARK minimizedAffinity 1.55374992
REMARK minimizedRMSD -1
REMARK  2 active torsions:
REMARK  status: ('A' for Active; 'I' for Inactive)
REMARK    1  A    between atoms: C2'_3  and  C1'_4 
REMARK    2  A    between atoms: C1'_4  and  C1_5 
ROOT
ATOM      1  C1  I4B d   1      -2.436  -5.960   1.609  0.00  0.00    -0.075 A 
ATOM      2  C2  I4B d   1      -2.291  -5.953   2.974  0.00  0.00     0.003 A 
ATOM      3  C3  I4B d   1      -0.999  -5.947   3.554  0.00  0.00     0.002 A 
ATOM      4  C4  I4B d   1       0.112  -5.999   2.737  0.00  0.00    -0.004 A 
ATOM      5  C5  I4B d   1      -0.036  -5.983   1.354  0.00  0.00     0.002 A 
ATOM      6  C6  I4B d   1      -1.318  -5.951   0.785  0.00  0.00     0.003 A 
ENDROOT
BRANCH   1   7
ATOM      7  C1' I4B d   1      -3.815  -6.000   1.031  0.00  0.00     0.060 C 
BRANCH   7   8
ATOM      8  C2' I4B d   1      -4.711  -5.142   1.902  0.00  0.00    -0.013 C 
ATOM      9  C4' I4B d   1      -5.183  -3.919   1.159  0.00  0.00     0.013 C 
ATOM     10  C3' I4B d   1      -5.868  -5.985   2.348  0.00  0.00     0.013 C 
ENDBRANCH   7   8
ENDBRANCH   1   7
TORSDOF 2
ENDMDL
