MODEL 1
REMARK minimizedAffinity 11.6419592
REMARK minimizedRMSD -1
REMARK  2 active torsions:
REMARK  status: ('A' for Active; 'I' for Inactive)
REMARK    1  A    between atoms: C2'_3  and  C1'_4 
REMARK    2  A    between atoms: C1'_4  and  C1_5 
ROOT
ATOM      1  C1  I4B d   1      -1.195  -5.998   1.045  0.00  0.00    -0.075 A 
ATOM      2  C2  I4B d   1      -0.097  -5.997   1.869  0.00  0.00     0.003 A 
ATOM      3  C3  I4B d   1      -0.262  -5.987   3.275  0.00  0.00     0.002 A 
ATOM      4  C4  I4B d   1      -1.532  -5.928   3.810  0.00  0.00    -0.004 A 
ATOM      5  C5  I4B d   1      -2.644  -5.952   2.974  0.00  0.00     0.002 A 
ATOM      6  C6  I4B d   1      -2.476  -6.000   1.582  0.00  0.00     0.003 A 
ENDROOT
BRANCH   1   7
ATOM      7  C1' I4B d   1      -0.985  -5.975  -0.436  0.00  0.00     0.060 C 
BRANCH   7   8
ATOM      8  C2' I4B d   1       0.213  -5.093  -0.724  0.00  0.00    -0.013 C 
ATOM      9  C4' I4B d   1       1.081  -5.686  -1.803  0.00  0.00     0.013 C 
ATOM     10  C3' I4B d   1      -0.295  -3.739  -1.121  0.00  0.00     0.013 C 
ENDBRANCH   7   8
ENDBRANCH   1   7
TORSDOF 2
ENDMDL
