MODEL 1
REMARK minimizedAffinity 5.00266075
REMARK minimizedRMSD -1
REMARK  2 active torsions:
REMARK  status: ('A' for Active; 'I' for Inactive)
REMARK    1  A    between atoms: C2'_3  and  C1'_4 
REMARK    2  A    between atoms: C1'_4  and  C1_5 
ROOT
ATOM      1  C1  I4B d   1      -1.465  -0.468  -1.304  0.00  0.00    -0.075 A 
ATOM      2  C2  I4B d   1      -1.364  -1.581  -0.508  0.00  0.00     0.003 A 
ATOM      3  C3  I4B d   1      -2.025  -2.780  -0.871  0.00  0.00     0.002 A 
ATOM      4  C4  I4B d   1      -2.812  -2.805  -2.005  0.00  0.00    -0.004 A 
ATOM      5  C5  I4B d   1      -2.894  -1.682  -2.823  0.00  0.00     0.002 A 
ATOM      6  C6  I4B d   1      -2.207  -0.510  -2.478  0.00  0.00     0.003 A 
ENDROOT
BRANCH   1   7
ATOM      7  C1' I4B d   1      -0.781   0.791  -0.873  0.00  0.00     0.060 C 
BRANCH   7   8
ATOM      8  C2' I4B d   1      -0.060   0.508   0.429  0.00  0.00    -0.013 C 
ATOM      9  C4' I4B d   1       1.288   1.178   0.462  0.00  0.00     0.013 C 
ATOM     10  C3' I4B d   1      -0.930   0.985   1.553  0.00  0.00     0.013 C 
ENDBRANCH   7   8
ENDBRANCH   1   7
TORSDOF 2
ENDMDL
