MODEL 1
REMARK minimizedAffinity 8.89651108
REMARK minimizedRMSD -1
REMARK  2 active torsions:
REMARK  status: ('A' for Active; 'I' for Inactive)
REMARK    1  A    between atoms: C2'_3  and  C1'_4 
REMARK    2  A    between atoms: C1'_4  and  C1_5 
ROOT
ATOM      1  C1  I4B d   1       5.428  -1.283   4.240  0.00  0.00    -0.075 A 
ATOM      2  C2  I4B d   1       4.613  -0.198   4.449  0.00  0.00     0.003 A 
ATOM      3  C3  I4B d   1       4.334   0.698   3.389  0.00  0.00     0.002 A 
ATOM      4  C4  I4B d   1       4.927   0.502   2.159  0.00  0.00    -0.004 A 
ATOM      5  C5  I4B d   1       5.735  -0.610   1.943  0.00  0.00     0.002 A 
ATOM      6  C6  I4B d   1       5.977  -1.516   2.986  0.00  0.00     0.003 A 
ENDROOT
BRANCH   1   7
ATOM      7  C1' I4B d   1       5.728  -2.191   5.390  0.00  0.00     0.060 C 
BRANCH   7   8
ATOM      8  C2' I4B d   1       5.418  -3.610   4.957  0.00  0.00    -0.013 C 
ATOM      9  C4' I4B d   1       5.998  -3.905   3.599  0.00  0.00     0.013 C 
ATOM     10  C3' I4B d   1       5.968  -4.541   5.995  0.00  0.00     0.013 C 
ENDBRANCH   7   8
ENDBRANCH   1   7
TORSDOF 2
ENDMDL
