MODEL 1
REMARK minimizedAffinity 17.2027302
REMARK minimizedRMSD -1
REMARK  2 active torsions:
REMARK  status: ('A' for Active; 'I' for Inactive)
REMARK    1  A    between atoms: C2'_3  and  C1'_4 
REMARK    2  A    between atoms: C1'_4  and  C1_5 
ROOT
ATOM      1  C1  I4B d   1      -1.968  -1.926  -1.468  0.00  0.00    -0.075 A 
ATOM      2  C2  I4B d   1      -2.682  -1.027  -2.220  0.00  0.00     0.003 A 
ATOM      3  C3  I4B d   1      -3.371  -1.455  -3.380  0.00  0.00     0.002 A 
ATOM      4  C4  I4B d   1      -3.278  -2.773  -3.777  0.00  0.00    -0.004 A 
ATOM      5  C5  I4B d   1      -2.572  -3.689  -3.002  0.00  0.00     0.002 A 
ATOM      6  C6  I4B d   1      -1.923  -3.265  -1.833  0.00  0.00     0.003 A 
ENDROOT
BRANCH   1   7
ATOM      7  C1' I4B d   1      -1.225  -1.433  -0.267  0.00  0.00     0.060 C 
BRANCH   7   8
ATOM      8  C2' I4B d   1      -0.125  -0.507  -0.746  0.00  0.00    -0.013 C 
ATOM      9  C4' I4B d   1       0.111   0.612   0.233  0.00  0.00     0.013 C 
ATOM     10  C3' I4B d   1       1.116  -1.326  -0.942  0.00  0.00     0.013 C 
ENDBRANCH   7   8
ENDBRANCH   1   7
TORSDOF 2
ENDMDL
