MODEL 1
REMARK minimizedAffinity 4.53463364
REMARK minimizedRMSD -1
REMARK  2 active torsions:
REMARK  status: ('A' for Active; 'I' for Inactive)
REMARK    1  A    between atoms: C2'_3  and  C1'_4 
REMARK    2  A    between atoms: C1'_4  and  C1_5 
ROOT
ATOM      1  C1  I4B d   1      -1.134  -0.742  -0.837  0.00  0.00    -0.075 A 
ATOM      2  C2  I4B d   1      -2.060  -1.731  -1.057  0.00  0.00     0.003 A 
ATOM      3  C3  I4B d   1      -3.020  -1.593  -2.088  0.00  0.00     0.002 A 
ATOM      4  C4  I4B d   1      -3.050  -0.435  -2.838  0.00  0.00    -0.004 A 
ATOM      5  C5  I4B d   1      -2.097   0.557  -2.629  0.00  0.00     0.002 A 
ATOM      6  C6  I4B d   1      -1.124   0.398  -1.631  0.00  0.00     0.003 A 
ENDROOT
BRANCH   1   7
ATOM      7  C1' I4B d   1      -0.155  -0.906   0.282  0.00  0.00     0.060 C 
BRANCH   7   8
ATOM      8  C2' I4B d   1      -0.495   0.111   1.352  0.00  0.00    -0.013 C 
ATOM      9  C4' I4B d   1      -0.808  -0.561   2.663  0.00  0.00     0.013 C 
ATOM     10  C3' I4B d   1       0.669   1.047   1.487  0.00  0.00     0.013 C 
ENDBRANCH   7   8
ENDBRANCH   1   7
TORSDOF 2
ENDMDL
