MODEL 1
REMARK minimizedAffinity 8.21665478
REMARK minimizedRMSD -1
REMARK  2 active torsions:
REMARK  status: ('A' for Active; 'I' for Inactive)
REMARK    1  A    between atoms: C2'_3  and  C1'_4 
REMARK    2  A    between atoms: C1'_4  and  C1_5 
ROOT
ATOM      1  C1  I4B d   1      -0.393  -1.176  -1.087  0.00  0.00    -0.075 A 
ATOM      2  C2  I4B d   1      -0.016  -1.469  -2.374  0.00  0.00     0.003 A 
ATOM      3  C3  I4B d   1      -0.939  -2.062  -3.269  0.00  0.00     0.002 A 
ATOM      4  C4  I4B d   1      -2.204  -2.389  -2.824  0.00  0.00    -0.004 A 
ATOM      5  C5  I4B d   1      -2.591  -2.070  -1.525  0.00  0.00     0.002 A 
ATOM      6  C6  I4B d   1      -1.684  -1.448  -0.655  0.00  0.00     0.003 A 
ENDROOT
BRANCH   1   7
ATOM      7  C1' I4B d   1       0.618  -0.580  -0.158  0.00  0.00     0.060 C 
BRANCH   7   8
ATOM      8  C2' I4B d   1       0.271   0.883   0.032  0.00  0.00    -0.013 C 
ATOM      9  C4' I4B d   1      -0.438   1.109   1.341  0.00  0.00     0.013 C 
ATOM     10  C3' I4B d   1       1.544   1.673  -0.038  0.00  0.00     0.013 C 
ENDBRANCH   7   8
ENDBRANCH   1   7
TORSDOF 2
ENDMDL
