MODEL 1
REMARK minimizedAffinity 15.553915
REMARK minimizedRMSD -1
REMARK  0 active torsions:
REMARK  status: ('A' for Active; 'I' for Inactive)
ROOT
ATOM      1  C   UNL d   1       2.055   5.999   5.904  0.00  0.00     0.077 C 
ATOM      2  C1  UNL d   1       3.390   5.441   5.508  0.00  0.00    -0.074 A 
ATOM      3  C2  UNL d   1       4.575   5.997   6.000  0.00  0.00    -0.005 A 
ATOM      4  C3  UNL d   1       5.809   5.461   5.630  0.00  0.00     0.006 A 
ATOM      5  C4  UNL d   1       5.870   4.367   4.767  0.00  0.00    -0.005 A 
ATOM      6  C5  UNL d   1       4.695   3.798   4.265  0.00  0.00    -0.074 A 
ATOM      7  C6  UNL d   1       4.742   2.615   3.344  0.00  0.00     0.077 C 
ATOM      8  C7  UNL d   1       3.459   4.337   4.647  0.00  0.00    -0.001 A 
ENDROOT
TORSDOF 0
ENDMDL
