MODEL 1
REMARK minimizedAffinity 21.1579704
REMARK minimizedRMSD -1
REMARK  0 active torsions:
REMARK  status: ('A' for Active; 'I' for Inactive)
ROOT
ATOM      1  C   UNL d   1       4.098   2.809   0.205  0.00  0.00     0.077 C 
ATOM      2  C1  UNL d   1       3.657   1.746  -0.756  0.00  0.00    -0.074 A 
ATOM      3  C2  UNL d   1       2.299   1.488  -0.969  0.00  0.00    -0.005 A 
ATOM      4  C3  UNL d   1       1.904   0.502  -1.874  0.00  0.00     0.006 A 
ATOM      5  C4  UNL d   1       2.861  -0.234  -2.573  0.00  0.00    -0.005 A 
ATOM      6  C5  UNL d   1       4.224   0.010  -2.373  0.00  0.00    -0.074 A 
ATOM      7  C6  UNL d   1       5.265  -0.765  -3.124  0.00  0.00     0.077 C 
ATOM      8  C7  UNL d   1       4.613   1.007  -1.468  0.00  0.00    -0.001 A 
ENDROOT
TORSDOF 0
ENDMDL
