MODEL 1
REMARK minimizedAffinity 15.8879852
REMARK minimizedRMSD -1
REMARK  0 active torsions:
REMARK  status: ('A' for Active; 'I' for Inactive)
ROOT
ATOM      1  C   UNL d   1       4.136   3.767   0.764  0.00  0.00     0.077 C 
ATOM      2  C1  UNL d   1       3.966   2.935  -0.472  0.00  0.00    -0.074 A 
ATOM      3  C2  UNL d   1       2.771   2.251  -0.719  0.00  0.00    -0.005 A 
ATOM      4  C3  UNL d   1       2.625   1.488  -1.878  0.00  0.00     0.006 A 
ATOM      5  C4  UNL d   1       3.669   1.401  -2.799  0.00  0.00    -0.005 A 
ATOM      6  C5  UNL d   1       4.871   2.079  -2.569  0.00  0.00    -0.074 A 
ATOM      7  C6  UNL d   1       6.000   2.004  -3.553  0.00  0.00     0.077 C 
ATOM      8  C7  UNL d   1       5.008   2.849  -1.406  0.00  0.00    -0.001 A 
ENDROOT
TORSDOF 0
ENDMDL
