MODEL 1
REMARK minimizedAffinity 8.27984905
REMARK minimizedRMSD -1
REMARK  0 active torsions:
REMARK  status: ('A' for Active; 'I' for Inactive)
ROOT
ATOM      1  C   UNL d   1       1.397   5.961   5.913  0.00  0.00     0.077 C 
ATOM      2  C1  UNL d   1       2.727   5.267   5.931  0.00  0.00    -0.074 A 
ATOM      3  C2  UNL d   1       3.919   5.998   5.970  0.00  0.00    -0.005 A 
ATOM      4  C3  UNL d   1       5.148   5.339   5.996  0.00  0.00     0.006 A 
ATOM      5  C4  UNL d   1       5.198   3.945   5.982  0.00  0.00    -0.005 A 
ATOM      6  C5  UNL d   1       4.017   3.197   5.943  0.00  0.00    -0.074 A 
ATOM      7  C6  UNL d   1       4.052   1.697   5.938  0.00  0.00     0.077 C 
ATOM      8  C7  UNL d   1       2.785   3.866   5.925  0.00  0.00    -0.001 A 
ENDROOT
TORSDOF 0
ENDMDL
