MODEL 1
REMARK minimizedAffinity 12.5064173
REMARK minimizedRMSD -1
REMARK  0 active torsions:
REMARK  status: ('A' for Active; 'I' for Inactive)
ROOT
ATOM      1  C   UNL d   1       4.718   2.138   3.690  0.00  0.00     0.077 C 
ATOM      2  C1  UNL d   1       4.647   3.400   4.497  0.00  0.00    -0.074 A 
ATOM      3  C2  UNL d   1       5.811   4.076   4.877  0.00  0.00    -0.005 A 
ATOM      4  C3  UNL d   1       5.730   5.254   5.620  0.00  0.00     0.006 A 
ATOM      5  C4  UNL d   1       4.486   5.767   5.990  0.00  0.00    -0.005 A 
ATOM      6  C5  UNL d   1       3.311   5.105   5.618  0.00  0.00    -0.074 A 
ATOM      7  C6  UNL d   1       1.966   5.648   5.999  0.00  0.00     0.077 C 
ATOM      8  C7  UNL d   1       3.401   3.926   4.866  0.00  0.00    -0.001 A 
ENDROOT
TORSDOF 0
ENDMDL
