MODEL 1
REMARK minimizedAffinity 9.84591103
REMARK minimizedRMSD -1
REMARK  0 active torsions:
REMARK  status: ('A' for Active; 'I' for Inactive)
ROOT
ATOM      1  C   UNL d   1       1.428   0.376  -1.313  0.00  0.00     0.077 C 
ATOM      2  C1  UNL d   1       2.608   1.281  -1.123  0.00  0.00    -0.074 A 
ATOM      3  C2  UNL d   1       2.633   2.221  -0.088  0.00  0.00    -0.005 A 
ATOM      4  C3  UNL d   1       3.742   3.050   0.083  0.00  0.00     0.006 A 
ATOM      5  C4  UNL d   1       4.835   2.947  -0.778  0.00  0.00    -0.005 A 
ATOM      6  C5  UNL d   1       4.829   2.013  -1.818  0.00  0.00    -0.074 A 
ATOM      7  C6  UNL d   1       6.000   1.882  -2.746  0.00  0.00     0.077 C 
ATOM      8  C7  UNL d   1       3.714   1.179  -1.979  0.00  0.00    -0.001 A 
ENDROOT
TORSDOF 0
ENDMDL
