MODEL 1
REMARK minimizedAffinity 13.8875465
REMARK minimizedRMSD -1
REMARK  0 active torsions:
REMARK  status: ('A' for Active; 'I' for Inactive)
ROOT
ATOM      1  C   UNL d   1      -5.901   6.000  -1.213  0.00  0.00     0.077 C 
ATOM      2  C1  UNL d   1      -5.456   5.397   0.086  0.00  0.00    -0.074 A 
ATOM      3  C2  UNL d   1      -4.587   4.302   0.110  0.00  0.00    -0.005 A 
ATOM      4  C3  UNL d   1      -4.174   3.757   1.326  0.00  0.00     0.006 A 
ATOM      5  C4  UNL d   1      -4.627   4.301   2.528  0.00  0.00    -0.005 A 
ATOM      6  C5  UNL d   1      -5.496   5.397   2.524  0.00  0.00    -0.074 A 
ATOM      7  C6  UNL d   1      -5.984   5.999   3.808  0.00  0.00     0.077 C 
ATOM      8  C7  UNL d   1      -5.900   5.942   1.298  0.00  0.00    -0.001 A 
ENDROOT
TORSDOF 0
ENDMDL
