MODEL 1
REMARK minimizedAffinity 0.969749451
REMARK minimizedRMSD -1
REMARK  0 active torsions:
REMARK  status: ('A' for Active; 'I' for Inactive)
ROOT
ATOM      1  C   UNL d   1       1.694   5.998   6.000  0.00  0.00     0.077 C 
ATOM      2  C1  UNL d   1       2.994   5.384   5.573  0.00  0.00    -0.074 A 
ATOM      3  C2  UNL d   1       4.215   5.916   6.000  0.00  0.00    -0.005 A 
ATOM      4  C3  UNL d   1       5.416   5.328   5.602  0.00  0.00     0.006 A 
ATOM      5  C4  UNL d   1       5.408   4.205   4.775  0.00  0.00    -0.005 A 
ATOM      6  C5  UNL d   1       4.197   3.658   4.338  0.00  0.00    -0.074 A 
ATOM      7  C6  UNL d   1       4.171   2.445   3.457  0.00  0.00     0.077 C 
ATOM      8  C7  UNL d   1       2.995   4.250   4.748  0.00  0.00    -0.001 A 
ENDROOT
TORSDOF 0
ENDMDL
