MODEL 1
REMARK minimizedAffinity 12.3923683
REMARK minimizedRMSD -1
REMARK  0 active torsions:
REMARK  status: ('A' for Active; 'I' for Inactive)
ROOT
ATOM      1  C   UNL d   1      -1.644  -5.085  -1.918  0.00  0.00     0.077 C 
ATOM      2  C1  UNL d   1      -1.948  -3.626  -1.753  0.00  0.00    -0.074 A 
ATOM      3  C2  UNL d   1      -2.837  -2.975  -2.614  0.00  0.00    -0.005 A 
ATOM      4  C3  UNL d   1      -3.118  -1.619  -2.442  0.00  0.00     0.006 A 
ATOM      5  C4  UNL d   1      -2.513  -0.902  -1.409  0.00  0.00    -0.005 A 
ATOM      6  C5  UNL d   1      -1.622  -1.537  -0.537  0.00  0.00    -0.074 A 
ATOM      7  C6  UNL d   1      -0.971  -0.783   0.584  0.00  0.00     0.077 C 
ATOM      8  C7  UNL d   1      -1.351  -2.901  -0.712  0.00  0.00    -0.001 A 
ENDROOT
TORSDOF 0
ENDMDL
