MODEL 1
REMARK minimizedAffinity 22.2544289
REMARK minimizedRMSD -1
REMARK  0 active torsions:
REMARK  status: ('A' for Active; 'I' for Inactive)
ROOT
ATOM      1  C   UNL d   1      -5.210   5.844  -5.621  0.00  0.00     0.077 C 
ATOM      2  C1  UNL d   1      -4.990   4.363  -5.536  0.00  0.00    -0.074 A 
ATOM      3  C2  UNL d   1      -5.962   3.465  -5.989  0.00  0.00    -0.005 A 
ATOM      4  C3  UNL d   1      -5.739   2.090  -5.912  0.00  0.00     0.006 A 
ATOM      5  C4  UNL d   1      -4.544   1.600  -5.383  0.00  0.00    -0.005 A 
ATOM      6  C5  UNL d   1      -3.561   2.483  -4.925  0.00  0.00    -0.074 A 
ATOM      7  C6  UNL d   1      -2.268   1.974  -4.362  0.00  0.00     0.077 C 
ATOM      8  C7  UNL d   1      -3.789   3.863  -5.012  0.00  0.00    -0.001 A 
ENDROOT
TORSDOF 0
ENDMDL
