MODEL 1
REMARK minimizedAffinity 4.09711361
REMARK minimizedRMSD -1
REMARK  0 active torsions:
REMARK  status: ('A' for Active; 'I' for Inactive)
ROOT
ATOM      1  C   UNL d   1       4.551   2.483   3.371  0.00  0.00     0.077 C 
ATOM      2  C1  UNL d   1       4.578   3.666   4.293  0.00  0.00    -0.074 A 
ATOM      3  C2  UNL d   1       5.790   4.195   4.748  0.00  0.00    -0.005 A 
ATOM      4  C3  UNL d   1       5.800   5.301   5.597  0.00  0.00     0.006 A 
ATOM      5  C4  UNL d   1       4.600   5.889   6.000  0.00  0.00    -0.005 A 
ATOM      6  C5  UNL d   1       3.379   5.374   5.555  0.00  0.00    -0.074 A 
ATOM      7  C6  UNL d   1       2.080   6.000   5.970  0.00  0.00     0.077 C 
ATOM      8  C7  UNL d   1       3.377   4.266   4.696  0.00  0.00    -0.001 A 
ENDROOT
TORSDOF 0
ENDMDL
