MODEL 1
REMARK minimizedAffinity 5.72758245
REMARK minimizedRMSD -1
REMARK  0 active torsions:
REMARK  status: ('A' for Active; 'I' for Inactive)
ROOT
ATOM      1  C   UNL d   1       4.405   1.707   5.999  0.00  0.00     0.077 C 
ATOM      2  C1  UNL d   1       4.376   3.200   5.859  0.00  0.00    -0.074 A 
ATOM      3  C2  UNL d   1       5.544   3.920   5.590  0.00  0.00    -0.005 A 
ATOM      4  C3  UNL d   1       5.500   5.308   5.453  0.00  0.00     0.006 A 
ATOM      5  C4  UNL d   1       4.288   5.988   5.584  0.00  0.00    -0.005 A 
ATOM      6  C5  UNL d   1       3.110   5.285   5.852  0.00  0.00    -0.074 A 
ATOM      7  C6  UNL d   1       1.798   6.000   5.986  0.00  0.00     0.077 C 
ATOM      8  C7  UNL d   1       3.161   3.890   5.981  0.00  0.00    -0.001 A 
ENDROOT
TORSDOF 0
ENDMDL
