MODEL 1
REMARK minimizedAffinity 17.7857857
REMARK minimizedRMSD -1
REMARK  0 active torsions:
REMARK  status: ('A' for Active; 'I' for Inactive)
ROOT
ATOM      1  C   UNL d   1      -1.126  -1.123   1.295  0.00  0.00     0.077 C 
ATOM      2  C1  UNL d   1      -1.426  -1.521  -0.120  0.00  0.00    -0.074 A 
ATOM      3  C2  UNL d   1      -0.830  -2.650  -0.690  0.00  0.00    -0.005 A 
ATOM      4  C3  UNL d   1      -1.126  -3.013  -2.004  0.00  0.00     0.006 A 
ATOM      5  C4  UNL d   1      -2.019  -2.252  -2.759  0.00  0.00    -0.005 A 
ATOM      6  C5  UNL d   1      -2.625  -1.120  -2.205  0.00  0.00    -0.074 A 
ATOM      7  C6  UNL d   1      -3.594  -0.296  -3.000  0.00  0.00     0.077 C 
ATOM      8  C7  UNL d   1      -2.328  -0.765  -0.882  0.00  0.00    -0.001 A 
ENDROOT
TORSDOF 0
ENDMDL
