MODEL 1
REMARK minimizedAffinity 9.33227348
REMARK minimizedRMSD -1
REMARK  0 active torsions:
REMARK  status: ('A' for Active; 'I' for Inactive)
ROOT
ATOM      1  C   UNL d   1       4.779   2.770   3.006  0.00  0.00     0.077 C 
ATOM      2  C1  UNL d   1       4.793   3.842   4.055  0.00  0.00    -0.074 A 
ATOM      3  C2  UNL d   1       5.997   4.310   4.589  0.00  0.00    -0.005 A 
ATOM      4  C3  UNL d   1       5.995   5.314   5.557  0.00  0.00     0.006 A 
ATOM      5  C4  UNL d   1       4.789   5.860   5.999  0.00  0.00    -0.005 A 
ATOM      6  C5  UNL d   1       3.574   5.406   5.476  0.00  0.00    -0.074 A 
ATOM      7  C6  UNL d   1       2.270   5.989   5.933  0.00  0.00     0.077 C 
ATOM      8  C7  UNL d   1       3.586   4.401   4.498  0.00  0.00    -0.001 A 
ENDROOT
TORSDOF 0
ENDMDL
