MODEL 1
REMARK minimizedAffinity 8.31256676
REMARK minimizedRMSD -1
REMARK  0 active torsions:
REMARK  status: ('A' for Active; 'I' for Inactive)
ROOT
ATOM      1  C   UNL d   1      -0.248  -3.759   1.421  0.00  0.00     0.077 C 
ATOM      2  C1  UNL d   1      -1.347  -2.797   1.080  0.00  0.00    -0.074 A 
ATOM      3  C2  UNL d   1      -1.102  -1.683   0.272  0.00  0.00    -0.005 A 
ATOM      4  C3  UNL d   1      -2.136  -0.802  -0.045  0.00  0.00     0.006 A 
ATOM      5  C4  UNL d   1      -3.424  -1.027   0.442  0.00  0.00    -0.005 A 
ATOM      6  C5  UNL d   1      -3.689  -2.137   1.251  0.00  0.00    -0.074 A 
ATOM      7  C6  UNL d   1      -5.070  -2.399   1.775  0.00  0.00     0.077 C 
ATOM      8  C7  UNL d   1      -2.645  -3.021   1.559  0.00  0.00    -0.001 A 
ENDROOT
TORSDOF 0
ENDMDL
