MODEL 1
REMARK minimizedAffinity 3.59950042
REMARK minimizedRMSD -1
REMARK  0 active torsions:
REMARK  status: ('A' for Active; 'I' for Inactive)
ROOT
ATOM      1  C   UNL d   1       2.128   6.000   5.997  0.00  0.00     0.077 C 
ATOM      2  C1  UNL d   1       3.447   5.285   5.989  0.00  0.00    -0.074 A 
ATOM      3  C2  UNL d   1       4.650   5.997   5.999  0.00  0.00    -0.005 A 
ATOM      4  C3  UNL d   1       5.869   5.319   6.000  0.00  0.00     0.006 A 
ATOM      5  C4  UNL d   1       5.897   3.924   5.991  0.00  0.00    -0.005 A 
ATOM      6  C5  UNL d   1       4.703   3.195   5.982  0.00  0.00    -0.074 A 
ATOM      7  C6  UNL d   1       4.715   1.695   5.982  0.00  0.00     0.077 C 
ATOM      8  C7  UNL d   1       3.483   3.884   5.987  0.00  0.00    -0.001 A 
ENDROOT
TORSDOF 0
ENDMDL
