MODEL 1
REMARK minimizedAffinity 6.63788605
REMARK minimizedRMSD -1
REMARK  0 active torsions:
REMARK  status: ('A' for Active; 'I' for Inactive)
ROOT
ATOM      1  C   UNL d   1       5.982   4.978   6.000  0.00  0.00     0.077 C 
ATOM      2  C1  UNL d   1       4.724   5.081   5.191  0.00  0.00    -0.074 A 
ATOM      3  C2  UNL d   1       3.670   5.904   5.603  0.00  0.00    -0.005 A 
ATOM      4  C3  UNL d   1       2.509   5.997   4.835  0.00  0.00     0.006 A 
ATOM      5  C4  UNL d   1       2.390   5.271   3.650  0.00  0.00    -0.005 A 
ATOM      6  C5  UNL d   1       3.434   4.444   3.222  0.00  0.00    -0.074 A 
ATOM      7  C6  UNL d   1       3.326   3.664   1.945  0.00  0.00     0.077 C 
ATOM      8  C7  UNL d   1       4.600   4.361   3.995  0.00  0.00    -0.001 A 
ENDROOT
TORSDOF 0
ENDMDL
