MODEL 1
REMARK minimizedAffinity 17.6803455
REMARK minimizedRMSD -1
REMARK  0 active torsions:
REMARK  status: ('A' for Active; 'I' for Inactive)
ROOT
ATOM      1  C   UNL d   1      -0.416   2.809  -4.591  0.00  0.00     0.077 C 
ATOM      2  C1  UNL d   1      -1.236   1.690  -4.020  0.00  0.00    -0.074 A 
ATOM      3  C2  UNL d   1      -2.624   1.805  -3.900  0.00  0.00    -0.005 A 
ATOM      4  C3  UNL d   1      -3.375   0.753  -3.375  0.00  0.00     0.006 A 
ATOM      5  C4  UNL d   1      -2.745  -0.423  -2.967  0.00  0.00    -0.005 A 
ATOM      6  C5  UNL d   1      -1.358  -0.557  -3.080  0.00  0.00    -0.074 A 
ATOM      7  C6  UNL d   1      -0.667  -1.819  -2.655  0.00  0.00     0.077 C 
ATOM      8  C7  UNL d   1      -0.612   0.502  -3.614  0.00  0.00    -0.001 A 
ENDROOT
TORSDOF 0
ENDMDL
