MODEL 1
REMARK minimizedAffinity 2.10706592
REMARK minimizedRMSD -1
REMARK  0 active torsions:
REMARK  status: ('A' for Active; 'I' for Inactive)
ROOT
ATOM      1  C   UNL d   1       4.067   1.528   5.926  0.00  0.00     0.077 C 
ATOM      2  C1  UNL d   1       4.158   3.024   5.959  0.00  0.00    -0.074 A 
ATOM      3  C2  UNL d   1       5.399   3.669   5.968  0.00  0.00    -0.005 A 
ATOM      4  C3  UNL d   1       5.468   5.062   5.988  0.00  0.00     0.006 A 
ATOM      5  C4  UNL d   1       4.299   5.823   6.000  0.00  0.00    -0.005 A 
ATOM      6  C5  UNL d   1       3.048   5.196   5.989  0.00  0.00    -0.074 A 
ATOM      7  C6  UNL d   1       1.782   6.000   5.991  0.00  0.00     0.077 C 
ATOM      8  C7  UNL d   1       2.987   3.796   5.962  0.00  0.00    -0.001 A 
ENDROOT
TORSDOF 0
ENDMDL
