MODEL 1
REMARK minimizedAffinity 6.01492691
REMARK minimizedRMSD -1
REMARK  1 active torsions:
REMARK  status: ('A' for Active; 'I' for Inactive)
REMARK    1  A    between atoms: N_2  and  C1_3 
ROOT
ATOM      1  C1  UNL d   1       1.302   3.136   0.164  0.00  0.00     0.143 A 
ATOM      2  C2  UNL d   1       0.150   3.541  -0.518  0.00  0.00    -0.057 A 
ATOM      3  C3  UNL d   1      -0.614   4.627  -0.073  0.00  0.00     0.033 A 
ATOM      4  C4  UNL d   1      -0.253   5.311   1.083  0.00  0.00    -0.042 A 
ATOM      5  C5  UNL d   1       0.874   4.911   1.791  0.00  0.00     0.033 A 
ATOM      6  C6  UNL d   1       1.636   3.830   1.338  0.00  0.00    -0.057 A 
ENDROOT
BRANCH   1   7
ATOM      7  N   UNL d   1       2.048   2.004  -0.172  0.00  0.00    -0.732 N 
ATOM      8  C   UNL d   1       2.066   0.848   0.698  0.00  0.00     0.284 C 
ATOM      9  H3  UNL d   1       1.986   1.778  -1.163  0.00  0.00     0.395 HD
ENDBRANCH   1   7
TORSDOF 1
ENDMDL
