MODEL 1
REMARK minimizedAffinity 3.00003672
REMARK minimizedRMSD -1
REMARK  1 active torsions:
REMARK  status: ('A' for Active; 'I' for Inactive)
REMARK    1  A    between atoms: N_2  and  C1_3 
ROOT
ATOM      1  C1  UNL d   1       4.305   1.654  -1.453  0.00  0.00     0.143 A 
ATOM      2  C2  UNL d   1       3.888   0.469  -2.069  0.00  0.00    -0.057 A 
ATOM      3  C3  UNL d   1       2.929  -0.360  -1.475  0.00  0.00     0.033 A 
ATOM      4  C4  UNL d   1       2.390  -0.032  -0.236  0.00  0.00    -0.042 A 
ATOM      5  C5  UNL d   1       2.808   1.128   0.407  0.00  0.00     0.033 A 
ATOM      6  C6  UNL d   1       3.761   1.956  -0.195  0.00  0.00    -0.057 A 
ENDROOT
BRANCH   1   7
ATOM      7  N   UNL d   1       5.327   2.470  -1.947  0.00  0.00    -0.732 N 
ATOM      8  C   UNL d   1       5.476   3.830  -1.476  0.00  0.00     0.284 C 
ATOM      9  H3  UNL d   1       6.205   1.969  -2.056  0.00  0.00     0.395 HD
ENDBRANCH   1   7
TORSDOF 1
ENDMDL
