MODEL 1
REMARK minimizedAffinity 14.2156916
REMARK minimizedRMSD -1
REMARK  1 active torsions:
REMARK  status: ('A' for Active; 'I' for Inactive)
REMARK    1  A    between atoms: N_2  and  C1_3 
ROOT
ATOM      1  C1  UNL d   1       3.815   2.096  -0.236  0.00  0.00     0.143 A 
ATOM      2  C2  UNL d   1       2.477   1.964  -0.624  0.00  0.00    -0.057 A 
ATOM      3  C3  UNL d   1       1.645   0.998  -0.046  0.00  0.00     0.033 A 
ATOM      4  C4  UNL d   1       2.146   0.124   0.912  0.00  0.00    -0.042 A 
ATOM      5  C5  UNL d   1       3.479   0.220   1.296  0.00  0.00     0.033 A 
ATOM      6  C6  UNL d   1       4.303   1.191   0.720  0.00  0.00    -0.057 A 
ENDROOT
BRANCH   1   7
ATOM      7  N   UNL d   1       4.718   2.972  -0.843  0.00  0.00    -0.732 N 
ATOM      8  C   UNL d   1       5.464   3.927  -0.052  0.00  0.00     0.284 C 
ATOM      9  H3  UNL d   1       5.264   2.521  -1.574  0.00  0.00     0.395 HD
ENDBRANCH   1   7
TORSDOF 1
ENDMDL
