MODEL 1
REMARK minimizedAffinity 8.04349995
REMARK minimizedRMSD -1
REMARK  1 active torsions:
REMARK  status: ('A' for Active; 'I' for Inactive)
REMARK    1  A    between atoms: N_2  and  C1_3 
ROOT
ATOM      1  C1  UNL d   1       5.255   2.777  -1.106  0.00  0.00     0.143 A 
ATOM      2  C2  UNL d   1       5.996   2.226  -0.055  0.00  0.00    -0.057 A 
ATOM      3  C3  UNL d   1       5.473   1.200   0.743  0.00  0.00     0.033 A 
ATOM      4  C4  UNL d   1       4.184   0.727   0.521  0.00  0.00    -0.042 A 
ATOM      5  C5  UNL d   1       3.420   1.277  -0.502  0.00  0.00     0.033 A 
ATOM      6  C6  UNL d   1       3.950   2.296  -1.300  0.00  0.00    -0.057 A 
ENDROOT
BRANCH   1   7
ATOM      7  N   UNL d   1       5.681   3.865  -1.872  0.00  0.00    -0.732 N 
ATOM      8  C   UNL d   1       5.362   5.218  -1.470  0.00  0.00     0.284 C 
ATOM      9  H3  UNL d   1       6.630   3.747  -2.220  0.00  0.00     0.395 HD
ENDBRANCH   1   7
TORSDOF 1
ENDMDL
