MODEL 1
REMARK minimizedAffinity 1.77538133
REMARK minimizedRMSD -1
REMARK  1 active torsions:
REMARK  status: ('A' for Active; 'I' for Inactive)
REMARK    1  A    between atoms: N_2  and  C1_3 
ROOT
ATOM      1  C1  UNL d   1      -2.070   4.954   1.296  0.00  0.00     0.143 A 
ATOM      2  C2  UNL d   1      -2.718   5.562   2.377  0.00  0.00    -0.057 A 
ATOM      3  C3  UNL d   1      -4.106   5.747   2.380  0.00  0.00     0.033 A 
ATOM      4  C4  UNL d   1      -4.869   5.352   1.286  0.00  0.00    -0.042 A 
ATOM      5  C5  UNL d   1      -4.243   4.769   0.190  0.00  0.00     0.033 A 
ATOM      6  C6  UNL d   1      -2.858   4.580   0.196  0.00  0.00    -0.057 A 
ENDROOT
BRANCH   1   7
ATOM      7  N   UNL d   1      -0.683   4.831   1.191  0.00  0.00    -0.732 N 
ATOM      8  C   UNL d   1      -0.095   3.774   0.396  0.00  0.00     0.284 C 
ATOM      9  H3  UNL d   1      -0.219   5.731   1.094  0.00  0.00     0.395 HD
ENDBRANCH   1   7
TORSDOF 1
ENDMDL
