MODEL 1
REMARK minimizedAffinity -5.21277475
REMARK minimizedRMSD -1
REMARK  1 active torsions:
REMARK  status: ('A' for Active; 'I' for Inactive)
REMARK    1  A    between atoms: N_2  and  C1_3 
ROOT
ATOM      1  C1  UNL d   1       3.722  -0.434   0.812  0.00  0.00     0.143 A 
ATOM      2  C2  UNL d   1       5.118  -0.332   0.807  0.00  0.00    -0.057 A 
ATOM      3  C3  UNL d   1       5.757   0.864   0.456  0.00  0.00     0.033 A 
ATOM      4  C4  UNL d   1       5.009   1.973   0.074  0.00  0.00    -0.042 A 
ATOM      5  C5  UNL d   1       3.622   1.887   0.048  0.00  0.00     0.033 A 
ATOM      6  C6  UNL d   1       2.989   0.692   0.407  0.00  0.00    -0.057 A 
ENDROOT
BRANCH   1   7
ATOM      7  N   UNL d   1       3.030  -1.623   1.056  0.00  0.00    -0.732 N 
ATOM      8  C   UNL d   1       2.151  -2.183   0.053  0.00  0.00     0.284 C 
ATOM      9  H3  UNL d   1       3.601  -2.312   1.541  0.00  0.00     0.395 HD
ENDBRANCH   1   7
TORSDOF 1
ENDMDL
