MODEL 1
REMARK minimizedAffinity 7.61926937
REMARK minimizedRMSD -1
REMARK  1 active torsions:
REMARK  status: ('A' for Active; 'I' for Inactive)
REMARK    1  A    between atoms: N_2  and  C1_3 
ROOT
ATOM      1  C1  UNL d   1       3.663   3.176   4.413  0.00  0.00     0.143 A 
ATOM      2  C2  UNL d   1       2.715   2.784   5.364  0.00  0.00    -0.057 A 
ATOM      3  C3  UNL d   1       1.618   1.988   5.011  0.00  0.00     0.033 A 
ATOM      4  C4  UNL d   1       1.434   1.594   3.689  0.00  0.00    -0.042 A 
ATOM      5  C5  UNL d   1       2.350   1.993   2.723  0.00  0.00     0.033 A 
ATOM      6  C6  UNL d   1       3.447   2.782   3.083  0.00  0.00    -0.057 A 
ENDROOT
BRANCH   1   7
ATOM      7  N   UNL d   1       4.720   4.048   4.683  0.00  0.00    -0.732 N 
ATOM      8  C   UNL d   1       4.482   5.314   5.342  0.00  0.00     0.284 C 
ATOM      9  H3  UNL d   1       5.552   3.561   5.007  0.00  0.00     0.395 HD
ENDBRANCH   1   7
TORSDOF 1
ENDMDL
