MODEL 1
REMARK minimizedAffinity 1.50229943
REMARK minimizedRMSD -1
REMARK  1 active torsions:
REMARK  status: ('A' for Active; 'I' for Inactive)
REMARK    1  A    between atoms: N_2  and  C1_3 
ROOT
ATOM      1  C1  UNL d   1       4.154   2.454   1.004  0.00  0.00     0.143 A 
ATOM      2  C2  UNL d   1       2.898   1.946   1.355  0.00  0.00    -0.057 A 
ATOM      3  C3  UNL d   1       2.133   1.209   0.443  0.00  0.00     0.033 A 
ATOM      4  C4  UNL d   1       2.598   0.992  -0.850  0.00  0.00    -0.042 A 
ATOM      5  C5  UNL d   1       3.832   1.509  -1.228  0.00  0.00     0.033 A 
ATOM      6  C6  UNL d   1       4.595   2.238  -0.311  0.00  0.00    -0.057 A 
ENDROOT
BRANCH   1   7
ATOM      7  N   UNL d   1       4.919   3.278   1.834  0.00  0.00    -0.732 N 
ATOM      8  C   UNL d   1       5.983   4.092   1.286  0.00  0.00     0.284 C 
ATOM      9  H3  UNL d   1       4.357   3.748   2.539  0.00  0.00     0.395 HD
ENDBRANCH   1   7
TORSDOF 1
ENDMDL
