MODEL 1
REMARK minimizedAffinity 1.76054037
REMARK minimizedRMSD -1
REMARK  1 active torsions:
REMARK  status: ('A' for Active; 'I' for Inactive)
REMARK    1  A    between atoms: N_2  and  C1_3 
ROOT
ATOM      1  C1  UNL d   1       5.138   2.474   0.929  0.00  0.00     0.143 A 
ATOM      2  C2  UNL d   1       3.951   1.739   0.837  0.00  0.00    -0.057 A 
ATOM      3  C3  UNL d   1       3.440   1.337  -0.402  0.00  0.00     0.033 A 
ATOM      4  C4  UNL d   1       4.094   1.689  -1.578  0.00  0.00    -0.042 A 
ATOM      5  C5  UNL d   1       5.262   2.440  -1.513  0.00  0.00     0.033 A 
ATOM      6  C6  UNL d   1       5.771   2.833  -0.272  0.00  0.00    -0.057 A 
ENDROOT
BRANCH   1   7
ATOM      7  N   UNL d   1       5.645   2.988   2.125  0.00  0.00    -0.732 N 
ATOM      8  C   UNL d   1       4.763   3.274   3.237  0.00  0.00     0.284 C 
ATOM      9  H3  UNL d   1       6.524   2.551   2.394  0.00  0.00     0.395 HD
ENDBRANCH   1   7
TORSDOF 1
ENDMDL
