MODEL 1
REMARK minimizedAffinity 10.7329617
REMARK minimizedRMSD -1
REMARK  1 active torsions:
REMARK  status: ('A' for Active; 'I' for Inactive)
REMARK    1  A    between atoms: N_2  and  C1_3 
ROOT
ATOM      1  C1  UNL d   1       4.996   2.261   0.277  0.00  0.00     0.143 A 
ATOM      2  C2  UNL d   1       3.842   1.747   0.878  0.00  0.00    -0.057 A 
ATOM      3  C3  UNL d   1       2.824   1.163   0.114  0.00  0.00     0.033 A 
ATOM      4  C4  UNL d   1       2.929   1.110  -1.271  0.00  0.00    -0.042 A 
ATOM      5  C5  UNL d   1       4.056   1.637  -1.892  0.00  0.00     0.033 A 
ATOM      6  C6  UNL d   1       5.072   2.213  -1.124  0.00  0.00    -0.057 A 
ENDROOT
BRANCH   1   7
ATOM      7  N   UNL d   1       5.998   2.942   0.973  0.00  0.00    -0.732 N 
ATOM      8  C   UNL d   1       5.985   4.387   1.057  0.00  0.00     0.284 C 
ATOM      9  H3  UNL d   1       6.252   2.477   1.842  0.00  0.00     0.395 HD
ENDBRANCH   1   7
TORSDOF 1
ENDMDL
