MODEL 1
REMARK minimizedAffinity -2.03923965
REMARK minimizedRMSD -1
REMARK  0 active torsions:
REMARK  status: ('A' for Active; 'I' for Inactive)
ROOT
ATOM      1  C   UNL d   1      -0.006   3.756  -3.522  0.00  0.00    -0.002 A 
ATOM      2  C1  UNL d   1      -0.758   4.003  -2.382  0.00  0.00     0.010 A 
ATOM      3  C2  UNL d   1      -1.065   2.969  -1.496  0.00  0.00     0.041 A 
ATOM      4  C3  UNL d   1      -0.599   1.669  -1.778  0.00  0.00    -0.075 A 
ATOM      5  S   UNL d   1      -0.853   0.248  -0.836  0.00  0.00     0.015 SA
ATOM      6  C4  UNL d   1       0.031  -0.721  -1.924  0.00  0.00     0.022 A 
ATOM      7  C5  UNL d   1       0.514   0.006  -2.986  0.00  0.00     0.026 A 
ATOM      8  C6  UNL d   1       0.160   1.396  -2.919  0.00  0.00    -0.082 A 
ATOM      9  C7  UNL d   1       0.454   2.466  -3.798  0.00  0.00     0.045 A 
ENDROOT
TORSDOF 0
ENDMDL
