MODEL 1
REMARK minimizedAffinity -3.25061226
REMARK minimizedRMSD -1
REMARK  0 active torsions:
REMARK  status: ('A' for Active; 'I' for Inactive)
ROOT
ATOM      1  C   UNL d   1       1.203  -1.037   3.138  0.00  0.00    -0.002 A 
ATOM      2  C1  UNL d   1      -0.019  -0.382   3.104  0.00  0.00     0.010 A 
ATOM      3  C2  UNL d   1      -0.603  -0.028   1.886  0.00  0.00     0.041 A 
ATOM      4  C3  UNL d   1       0.069  -0.349   0.690  0.00  0.00    -0.075 A 
ATOM      5  S   UNL d   1      -0.455  -0.016  -0.918  0.00  0.00     0.015 SA
ATOM      6  C4  UNL d   1       0.932  -0.736  -1.599  0.00  0.00     0.022 A 
ATOM      7  C5  UNL d   1       1.784  -1.224  -0.637  0.00  0.00     0.026 A 
ATOM      8  C6  UNL d   1       1.301  -1.009   0.698  0.00  0.00    -0.082 A 
ATOM      9  C7  UNL d   1       1.867  -1.354   1.949  0.00  0.00     0.045 A 
ENDROOT
TORSDOF 0
ENDMDL
