MODEL 1
REMARK minimizedAffinity -2.30580354
REMARK minimizedRMSD -1
REMARK  0 active torsions:
REMARK  status: ('A' for Active; 'I' for Inactive)
ROOT
ATOM      1  C   UNL d   1       0.532  -0.080   2.599  0.00  0.00    -0.002 A 
ATOM      2  C1  UNL d   1       1.741  -0.668   2.256  0.00  0.00     0.010 A 
ATOM      3  C2  UNL d   1       2.061  -0.905   0.917  0.00  0.00     0.041 A 
ATOM      4  C3  UNL d   1       1.137  -0.537  -0.080  0.00  0.00    -0.075 A 
ATOM      5  S   UNL d   1       1.315  -0.731  -1.784  0.00  0.00     0.015 SA
ATOM      6  C4  UNL d   1      -0.211  -0.037  -2.097  0.00  0.00     0.022 A 
ATOM      7  C5  UNL d   1      -0.853   0.338  -0.941  0.00  0.00     0.026 A 
ATOM      8  C6  UNL d   1      -0.087   0.057   0.241  0.00  0.00    -0.082 A 
ATOM      9  C7  UNL d   1      -0.382   0.284   1.606  0.00  0.00     0.045 A 
ENDROOT
TORSDOF 0
ENDMDL
