MODEL 1
REMARK minimizedAffinity 2.46389008
REMARK minimizedRMSD -1
REMARK  0 active torsions:
REMARK  status: ('A' for Active; 'I' for Inactive)
ROOT
ATOM      1  C   UNL d   1      -1.757   2.593  -3.536  0.00  0.00    -0.002 A 
ATOM      2  C1  UNL d   1      -0.601   3.234  -3.113  0.00  0.00     0.010 A 
ATOM      3  C2  UNL d   1       0.167   2.703  -2.075  0.00  0.00     0.041 A 
ATOM      4  C3  UNL d   1      -0.249   1.503  -1.465  0.00  0.00    -0.075 A 
ATOM      5  S   UNL d   1       0.534   0.667  -0.176  0.00  0.00     0.015 SA
ATOM      6  C4  UNL d   1      -0.647  -0.562  -0.157  0.00  0.00     0.022 A 
ATOM      7  C5  UNL d   1      -1.622  -0.355  -1.104  0.00  0.00     0.026 A 
ATOM      8  C6  UNL d   1      -1.408   0.838  -1.873  0.00  0.00    -0.082 A 
ATOM      9  C7  UNL d   1      -2.166   1.403  -2.927  0.00  0.00     0.045 A 
ENDROOT
TORSDOF 0
ENDMDL
