MODEL 1
REMARK minimizedAffinity -0.665159941
REMARK minimizedRMSD -1
REMARK  0 active torsions:
REMARK  status: ('A' for Active; 'I' for Inactive)
ROOT
ATOM      1  C   UNL d   1      -2.031   0.260   0.643  0.00  0.00    -0.002 A 
ATOM      2  C1  UNL d   1      -1.414   0.041  -0.580  0.00  0.00     0.010 A 
ATOM      3  C2  UNL d   1      -0.072  -0.340  -0.641  0.00  0.00     0.041 A 
ATOM      4  C3  UNL d   1       0.645  -0.501   0.561  0.00  0.00    -0.075 A 
ATOM      5  S   UNL d   1       2.298  -0.963   0.731  0.00  0.00     0.015 SA
ATOM      6  C4  UNL d   1       2.223  -0.881   2.431  0.00  0.00     0.022 A 
ATOM      7  C5  UNL d   1       0.976  -0.511   2.876  0.00  0.00     0.026 A 
ATOM      8  C6  UNL d   1       0.046  -0.287   1.805  0.00  0.00    -0.082 A 
ATOM      9  C7  UNL d   1      -1.316   0.100   1.833  0.00  0.00     0.045 A 
ENDROOT
TORSDOF 0
ENDMDL
