MODEL 1
REMARK minimizedAffinity 4.64386606
REMARK minimizedRMSD -1
REMARK  0 active torsions:
REMARK  status: ('A' for Active; 'I' for Inactive)
ROOT
ATOM      1  C   UNL d   1      -3.849  -1.946  -3.027  0.00  0.00    -0.002 A 
ATOM      2  C1  UNL d   1      -4.671  -1.617  -4.095  0.00  0.00     0.010 A 
ATOM      3  C2  UNL d   1      -4.665  -0.325  -4.624  0.00  0.00     0.041 A 
ATOM      4  C3  UNL d   1      -3.809   0.640  -4.057  0.00  0.00    -0.075 A 
ATOM      5  S   UNL d   1      -3.632   2.285  -4.540  0.00  0.00     0.015 SA
ATOM      6  C4  UNL d   1      -2.460   2.590  -3.340  0.00  0.00     0.022 A 
ATOM      7  C5  UNL d   1      -2.199   1.474  -2.580  0.00  0.00     0.026 A 
ATOM      8  C6  UNL d   1      -2.971   0.332  -2.981  0.00  0.00    -0.082 A 
ATOM      9  C7  UNL d   1      -3.001  -0.987  -2.467  0.00  0.00     0.045 A 
ENDROOT
TORSDOF 0
ENDMDL
