MODEL 1
REMARK minimizedAffinity -4.0130558
REMARK minimizedRMSD -1
REMARK  0 active torsions:
REMARK  status: ('A' for Active; 'I' for Inactive)
ROOT
ATOM      1  C   UNL d   1       1.145  -0.549   2.701  0.00  0.00    -0.002 A 
ATOM      2  C1  UNL d   1       2.246  -0.808   1.897  0.00  0.00     0.010 A 
ATOM      3  C2  UNL d   1       2.146  -0.729   0.507  0.00  0.00     0.041 A 
ATOM      4  C3  UNL d   1       0.908  -0.380  -0.068  0.00  0.00    -0.075 A 
ATOM      5  S   UNL d   1       0.549  -0.221  -1.747  0.00  0.00     0.015 SA
ATOM      6  C4  UNL d   1      -1.074   0.196  -1.437  0.00  0.00     0.022 A 
ATOM      7  C5  UNL d   1      -1.353   0.217  -0.091  0.00  0.00     0.026 A 
ATOM      8  C6  UNL d   1      -0.215  -0.113   0.721  0.00  0.00    -0.082 A 
ATOM      9  C7  UNL d   1      -0.081  -0.203   2.127  0.00  0.00     0.045 A 
ENDROOT
TORSDOF 0
ENDMDL
