MODEL 1
REMARK minimizedAffinity -0.713767767
REMARK minimizedRMSD -1
REMARK  0 active torsions:
REMARK  status: ('A' for Active; 'I' for Inactive)
ROOT
ATOM      1  C   UNL d   1      -0.111  -0.392   2.800  0.00  0.00    -0.002 A 
ATOM      2  C1  UNL d   1      -0.667  -0.576   1.542  0.00  0.00     0.010 A 
ATOM      3  C2  UNL d   1       0.095  -1.104   0.498  0.00  0.00     0.041 A 
ATOM      4  C3  UNL d   1       1.439  -1.450   0.743  0.00  0.00    -0.075 A 
ATOM      5  S   UNL d   1       2.563  -2.113  -0.384  0.00  0.00     0.015 SA
ATOM      6  C4  UNL d   1       3.808  -2.169   0.778  0.00  0.00     0.022 A 
ATOM      7  C5  UNL d   1       3.394  -1.697   2.001  0.00  0.00     0.026 A 
ATOM      8  C6  UNL d   1       2.021  -1.275   2.001  0.00  0.00    -0.082 A 
ATOM      9  C7  UNL d   1       1.223  -0.736   3.038  0.00  0.00     0.045 A 
ENDROOT
TORSDOF 0
ENDMDL
