MODEL 1
REMARK minimizedAffinity -1.28419054
REMARK minimizedRMSD -1
REMARK  0 active torsions:
REMARK  status: ('A' for Active; 'I' for Inactive)
ROOT
ATOM      1  C   UNL d   1       0.724  -0.634   2.976  0.00  0.00    -0.002 A 
ATOM      2  C1  UNL d   1      -0.467   0.075   2.921  0.00  0.00     0.010 A 
ATOM      3  C2  UNL d   1      -0.977   0.514   1.697  0.00  0.00     0.041 A 
ATOM      4  C3  UNL d   1      -0.262   0.224   0.518  0.00  0.00    -0.075 A 
ATOM      5  S   UNL d   1      -0.694   0.661  -1.093  0.00  0.00     0.015 SA
ATOM      6  C4  UNL d   1       0.692  -0.084  -1.746  0.00  0.00     0.022 A 
ATOM      7  C5  UNL d   1       1.477  -0.657  -0.773  0.00  0.00     0.026 A 
ATOM      8  C6  UNL d   1       0.940  -0.489   0.548  0.00  0.00    -0.082 A 
ATOM      9  C7  UNL d   1       1.430  -0.919   1.804  0.00  0.00     0.045 A 
ENDROOT
TORSDOF 0
ENDMDL
