MODEL 1
REMARK minimizedAffinity -3.04649067
REMARK minimizedRMSD -1
REMARK  2 active torsions:
REMARK  status: ('A' for Active; 'I' for Inactive)
REMARK    1  A    between atoms: C1_2  and  C2_3 
REMARK    2  A    between atoms: C2_3  and  C3_4 
ROOT
ATOM      1  C3  UNL d   1      -0.611   1.112  -1.326  0.00  0.00    -0.075 A 
ATOM      2  C4  UNL d   1       0.466   1.755  -1.954  0.00  0.00     0.002 A 
ATOM      3  C5  UNL d   1       0.259   2.907  -2.714  0.00  0.00     0.002 A 
ATOM      4  C6  UNL d   1      -1.027   3.423  -2.864  0.00  0.00    -0.004 A 
ATOM      5  C7  UNL d   1      -2.106   2.783  -2.259  0.00  0.00     0.002 A 
ATOM      6  C8  UNL d   1      -1.900   1.633  -1.495  0.00  0.00     0.002 A 
ENDROOT
BRANCH   1   7
ATOM      7  C2  UNL d   1      -0.388  -0.117  -0.478  0.00  0.00     0.056 C 
BRANCH   7   8
ATOM      8  C1  UNL d   1      -0.841   0.039   0.977  0.00  0.00     0.007 C 
ATOM      9  C   UNL d   1      -0.017  -0.789   1.954  0.00  0.00     0.009 C 
ENDBRANCH   7   8
ENDBRANCH   1   7
TORSDOF 2
ENDMDL
