MODEL 1
REMARK minimizedAffinity -4.22253895
REMARK minimizedRMSD -1
REMARK  2 active torsions:
REMARK  status: ('A' for Active; 'I' for Inactive)
REMARK    1  A    between atoms: C1_2  and  C2_3 
REMARK    2  A    between atoms: C2_3  and  C3_4 
ROOT
ATOM      1  C3  UNL d   1       0.256  -0.633   1.089  0.00  0.00    -0.075 A 
ATOM      2  C4  UNL d   1       1.272  -1.361   0.451  0.00  0.00     0.002 A 
ATOM      3  C5  UNL d   1       1.505  -1.204  -0.915  0.00  0.00     0.002 A 
ATOM      4  C6  UNL d   1       0.721  -0.328  -1.663  0.00  0.00    -0.004 A 
ATOM      5  C7  UNL d   1      -0.301   0.388  -1.043  0.00  0.00     0.002 A 
ATOM      6  C8  UNL d   1      -0.534   0.237   0.325  0.00  0.00     0.002 A 
ENDROOT
BRANCH   1   7
ATOM      7  C2  UNL d   1       0.018  -0.776   2.573  0.00  0.00     0.056 C 
BRANCH   7   8
ATOM      8  C1  UNL d   1       0.612  -2.051   3.180  0.00  0.00     0.007 C 
ATOM      9  C   UNL d   1       1.928  -1.813   3.909  0.00  0.00     0.009 C 
ENDBRANCH   7   8
ENDBRANCH   1   7
TORSDOF 2
ENDMDL
