MODEL 1
REMARK minimizedAffinity -1.57681096
REMARK minimizedRMSD -1
REMARK  2 active torsions:
REMARK  status: ('A' for Active; 'I' for Inactive)
REMARK    1  A    between atoms: C1_2  and  C2_3 
REMARK    2  A    between atoms: C2_3  and  C3_4 
ROOT
ATOM      1  C3  UNL d   1      -0.906   1.249  -1.958  0.00  0.00    -0.075 A 
ATOM      2  C4  UNL d   1       0.107   2.044  -2.513  0.00  0.00     0.002 A 
ATOM      3  C5  UNL d   1      -0.158   3.358  -2.901  0.00  0.00     0.002 A 
ATOM      4  C6  UNL d   1      -1.437   3.889  -2.749  0.00  0.00    -0.004 A 
ATOM      5  C7  UNL d   1      -2.454   3.102  -2.214  0.00  0.00     0.002 A 
ATOM      6  C8  UNL d   1      -2.192   1.788  -1.821  0.00  0.00     0.002 A 
ENDROOT
BRANCH   1   7
ATOM      7  C2  UNL d   1      -0.619  -0.164  -1.509  0.00  0.00     0.056 C 
BRANCH   7   8
ATOM      8  C1  UNL d   1       0.168  -0.255  -0.198  0.00  0.00     0.007 C 
ATOM      9  C   UNL d   1      -0.724  -0.342   1.033  0.00  0.00     0.009 C 
ENDBRANCH   7   8
ENDBRANCH   1   7
TORSDOF 2
ENDMDL
