MODEL 1
REMARK minimizedAffinity -4.53180218
REMARK minimizedRMSD -1
REMARK  2 active torsions:
REMARK  status: ('A' for Active; 'I' for Inactive)
REMARK    1  A    between atoms: C1_2  and  C2_3 
REMARK    2  A    between atoms: C2_3  and  C3_4 
ROOT
ATOM      1  C3  UNL d   1      -0.330   1.049  -1.170  0.00  0.00    -0.075 A 
ATOM      2  C4  UNL d   1       0.425   1.091  -2.351  0.00  0.00     0.002 A 
ATOM      3  C5  UNL d   1       0.467   2.252  -3.124  0.00  0.00     0.002 A 
ATOM      4  C6  UNL d   1      -0.252   3.379  -2.733  0.00  0.00    -0.004 A 
ATOM      5  C7  UNL d   1      -1.019   3.343  -1.570  0.00  0.00     0.002 A 
ATOM      6  C8  UNL d   1      -1.059   2.185  -0.793  0.00  0.00     0.002 A 
ENDROOT
BRANCH   1   7
ATOM      7  C2  UNL d   1      -0.356  -0.194  -0.313  0.00  0.00     0.056 C 
BRANCH   7   8
ATOM      8  C1  UNL d   1      -0.737   0.063   1.148  0.00  0.00     0.007 C 
ATOM      9  C   UNL d   1       0.013  -0.828   2.130  0.00  0.00     0.009 C 
ENDBRANCH   7   8
ENDBRANCH   1   7
TORSDOF 2
ENDMDL
