MODEL 1
REMARK minimizedAffinity -0.0300668199
REMARK minimizedRMSD -1
REMARK  2 active torsions:
REMARK  status: ('A' for Active; 'I' for Inactive)
REMARK    1  A    between atoms: C1_2  and  C2_3 
REMARK    2  A    between atoms: C2_3  and  C3_4 
ROOT
ATOM      1  C3  UNL d   1       0.671  -1.288   1.632  0.00  0.00    -0.075 A 
ATOM      2  C4  UNL d   1      -0.442  -0.776   2.315  0.00  0.00     0.002 A 
ATOM      3  C5  UNL d   1      -1.374   0.023   1.652  0.00  0.00     0.002 A 
ATOM      4  C6  UNL d   1      -1.201   0.328   0.304  0.00  0.00    -0.004 A 
ATOM      5  C7  UNL d   1      -0.090  -0.161  -0.381  0.00  0.00     0.002 A 
ATOM      6  C8  UNL d   1       0.842  -0.964   0.279  0.00  0.00     0.002 A 
ENDROOT
BRANCH   1   7
ATOM      7  C2  UNL d   1       1.667  -2.177   2.336  0.00  0.00     0.056 C 
BRANCH   7   8
ATOM      8  C1  UNL d   1       2.256  -3.279   1.448  0.00  0.00     0.007 C 
ATOM      9  C   UNL d   1       2.961  -2.740   0.210  0.00  0.00     0.009 C 
ENDBRANCH   7   8
ENDBRANCH   1   7
TORSDOF 2
ENDMDL
