MODEL 1
REMARK minimizedAffinity 13.7978487
REMARK minimizedRMSD -1
REMARK  0 active torsions:
REMARK  status: ('A' for Active; 'I' for Inactive)
ROOT
ATOM      1  C1  DEN d   1      -2.326  -0.617   1.500  0.00  0.00     0.130 A 
ATOM      2  C2  DEN d   1      -2.192  -1.809   0.668  0.00  0.00    -0.031 A 
ATOM      3  C3  DEN d   1      -3.051  -1.636  -0.521  0.00  0.00     0.027 A 
ATOM      4  C4  DEN d   1      -4.564   0.355  -1.152  0.00  0.00     0.027 A 
ATOM      5  C5  DEN d   1      -5.016   1.593  -0.751  0.00  0.00    -0.003 A 
ATOM      6  C6  DEN d   1      -4.632   2.162   0.435  0.00  0.00     0.001 A 
ATOM      7  C7  DEN d   1      -3.736   1.511   1.241  0.00  0.00     0.017 A 
ATOM      8  C8  DEN d   1      -3.282   0.259   0.847  0.00  0.00    -0.094 A 
ATOM      9  C9  DEN d   1      -3.672  -0.293  -0.361  0.00  0.00    -0.072 A 
ENDROOT
TORSDOF 0
ENDMDL
