MODEL 1
REMARK minimizedAffinity 2.4241643
REMARK minimizedRMSD -1
REMARK  0 active torsions:
REMARK  status: ('A' for Active; 'I' for Inactive)
ROOT
ATOM      1  C1  DEN d   1       4.505  -1.913   5.583  0.00  0.00     0.130 A 
ATOM      2  C2  DEN d   1       4.489  -3.313   6.000  0.00  0.00    -0.031 A 
ATOM      3  C3  DEN d   1       3.297  -3.952   5.406  0.00  0.00     0.027 A 
ATOM      4  C4  DEN d   1       1.488  -2.917   3.887  0.00  0.00     0.027 A 
ATOM      5  C5  DEN d   1       1.068  -1.759   3.270  0.00  0.00    -0.003 A 
ATOM      6  C6  DEN d   1       1.740  -0.574   3.407  0.00  0.00     0.001 A 
ATOM      7  C7  DEN d   1       2.894  -0.529   4.143  0.00  0.00     0.017 A 
ATOM      8  C8  DEN d   1       3.320  -1.690   4.775  0.00  0.00    -0.094 A 
ATOM      9  C9  DEN d   1       2.633  -2.882   4.614  0.00  0.00    -0.072 A 
ENDROOT
TORSDOF 0
ENDMDL
