MODEL 1
REMARK minimizedAffinity 13.5148754
REMARK minimizedRMSD -1
REMARK  0 active torsions:
REMARK  status: ('A' for Active; 'I' for Inactive)
ROOT
ATOM      1  C1  DEN d   1      -1.277  -3.335  -6.000  0.00  0.00     0.130 A 
ATOM      2  C2  DEN d   1      -1.967  -4.438  -5.337  0.00  0.00    -0.031 A 
ATOM      3  C3  DEN d   1      -1.933  -4.189  -3.882  0.00  0.00     0.027 A 
ATOM      4  C4  DEN d   1      -0.890  -2.209  -2.598  0.00  0.00     0.027 A 
ATOM      5  C5  DEN d   1      -0.186  -1.033  -2.729  0.00  0.00    -0.003 A 
ATOM      6  C6  DEN d   1       0.231  -0.563  -3.946  0.00  0.00     0.001 A 
ATOM      7  C7  DEN d   1      -0.093  -1.250  -5.086  0.00  0.00     0.017 A 
ATOM      8  C8  DEN d   1      -0.797  -2.440  -4.962  0.00  0.00    -0.094 A 
ATOM      9  C9  DEN d   1      -1.220  -2.893  -3.724  0.00  0.00    -0.072 A 
ENDROOT
TORSDOF 0
ENDMDL
