MODEL 1
REMARK minimizedAffinity 3.34781265
REMARK minimizedRMSD -1
REMARK  1 active torsions:
REMARK  status: ('A' for Active; 'I' for Inactive)
REMARK    1  A    between atoms: C1_2  and  C2_3 
ROOT
ATOM      1  C2  UNL d   1       2.891  -1.993  -1.042  0.00  0.00    -0.077 A 
ATOM      2  C3  UNL d   1       2.592  -3.337  -0.776  0.00  0.00     0.002 A 
ATOM      3  C4  UNL d   1       3.541  -4.332  -1.015  0.00  0.00     0.002 A 
ATOM      4  C5  UNL d   1       4.796  -3.994  -1.517  0.00  0.00    -0.004 A 
ATOM      5  C6  UNL d   1       5.103  -2.661  -1.786  0.00  0.00     0.002 A 
ATOM      6  C7  UNL d   1       4.155  -1.665  -1.549  0.00  0.00     0.002 A 
ENDROOT
BRANCH   1   7
ATOM      7  C1  UNL d   1       1.886  -0.913  -0.739  0.00  0.00     0.055 C 
ATOM      8  C   UNL d   1       0.600  -1.116  -1.527  0.00  0.00     0.019 C 
ENDBRANCH   1   7
TORSDOF 1
ENDMDL
