MODEL 1
REMARK minimizedAffinity -2.94777322
REMARK minimizedRMSD -1
REMARK  1 active torsions:
REMARK  status: ('A' for Active; 'I' for Inactive)
REMARK    1  A    between atoms: C1_2  and  C2_3 
ROOT
ATOM      1  C2  UNL d   1      -0.091   1.223   0.909  0.00  0.00    -0.077 A 
ATOM      2  C3  UNL d   1      -0.702   2.384   0.417  0.00  0.00     0.002 A 
ATOM      3  C4  UNL d   1      -1.503   3.169   1.249  0.00  0.00     0.002 A 
ATOM      4  C5  UNL d   1      -1.697   2.802   2.579  0.00  0.00    -0.004 A 
ATOM      5  C6  UNL d   1      -1.095   1.648   3.078  0.00  0.00     0.002 A 
ATOM      6  C7  UNL d   1      -0.295   0.862   2.247  0.00  0.00     0.002 A 
ENDROOT
BRANCH   1   7
ATOM      7  C1  UNL d   1       0.813   0.402   0.027  0.00  0.00     0.055 C 
ATOM      8  C   UNL d   1       0.402   0.506  -1.435  0.00  0.00     0.019 C 
ENDBRANCH   1   7
TORSDOF 1
ENDMDL
