MODEL 1
REMARK minimizedAffinity 5.68201447
REMARK minimizedRMSD -1
REMARK  1 active torsions:
REMARK  status: ('A' for Active; 'I' for Inactive)
REMARK    1  A    between atoms: C1_2  and  C2_3 
ROOT
ATOM      1  C2  UNL d   1      -0.524   1.189   3.158  0.00  0.00    -0.077 A 
ATOM      2  C3  UNL d   1       0.377   1.913   2.363  0.00  0.00     0.002 A 
ATOM      3  C4  UNL d   1      -0.090   2.861   1.451  0.00  0.00     0.002 A 
ATOM      4  C5  UNL d   1      -1.457   3.098   1.328  0.00  0.00    -0.004 A 
ATOM      5  C6  UNL d   1      -2.361   2.382   2.112  0.00  0.00     0.002 A 
ATOM      6  C7  UNL d   1      -1.897   1.433   3.023  0.00  0.00     0.002 A 
ENDROOT
BRANCH   1   7
ATOM      7  C1  UNL d   1      -0.020   0.201   4.177  0.00  0.00     0.055 C 
ATOM      8  C   UNL d   1       0.982  -0.765   3.562  0.00  0.00     0.019 C 
ENDBRANCH   1   7
TORSDOF 1
ENDMDL
