MODEL 1
REMARK minimizedAffinity 3.38168168
REMARK minimizedRMSD -1
REMARK  1 active torsions:
REMARK  status: ('A' for Active; 'I' for Inactive)
REMARK    1  A    between atoms: C1_2  and  C2_3 
ROOT
ATOM      1  C2  UNL d   1      -0.544  -1.545  -1.756  0.00  0.00    -0.077 A 
ATOM      2  C3  UNL d   1       0.295  -0.438  -1.946  0.00  0.00     0.002 A 
ATOM      3  C4  UNL d   1       1.611  -0.460  -1.479  0.00  0.00     0.002 A 
ATOM      4  C5  UNL d   1       2.100  -1.588  -0.824  0.00  0.00    -0.004 A 
ATOM      5  C6  UNL d   1       1.273  -2.694  -0.628  0.00  0.00     0.002 A 
ATOM      6  C7  UNL d   1      -0.042  -2.673  -1.093  0.00  0.00     0.002 A 
ENDROOT
BRANCH   1   7
ATOM      7  C1  UNL d   1      -1.948  -1.542  -2.303  0.00  0.00     0.055 C 
ATOM      8  C   UNL d   1      -2.975  -1.415  -1.187  0.00  0.00     0.019 C 
ENDBRANCH   1   7
TORSDOF 1
ENDMDL
