MODEL 1
REMARK minimizedAffinity 6.69117403
REMARK minimizedRMSD -1
REMARK  1 active torsions:
REMARK  status: ('A' for Active; 'I' for Inactive)
REMARK    1  A    between atoms: C1_2  and  C2_3 
ROOT
ATOM      1  C2  UNL d   1      -0.404   2.932   0.959  0.00  0.00    -0.077 A 
ATOM      2  C3  UNL d   1      -0.000   4.156   0.408  0.00  0.00     0.002 A 
ATOM      3  C4  UNL d   1      -0.381   4.507  -0.889  0.00  0.00     0.002 A 
ATOM      4  C5  UNL d   1      -1.171   3.641  -1.643  0.00  0.00    -0.004 A 
ATOM      5  C6  UNL d   1      -1.576   2.421  -1.105  0.00  0.00     0.002 A 
ATOM      6  C7  UNL d   1      -1.195   2.068   0.191  0.00  0.00     0.002 A 
ENDROOT
BRANCH   1   7
ATOM      7  C1  UNL d   1      -0.035   2.573   2.375  0.00  0.00     0.055 C 
ATOM      8  C   UNL d   1      -1.036   1.598   2.977  0.00  0.00     0.019 C 
ENDBRANCH   1   7
TORSDOF 1
ENDMDL
