MODEL 1
REMARK minimizedAffinity -1.37656593
REMARK minimizedRMSD -1
REMARK  1 active torsions:
REMARK  status: ('A' for Active; 'I' for Inactive)
REMARK    1  A    between atoms: C1_2  and  C2_3 
ROOT
ATOM      1  C2  UNL d   1      -0.098   3.793   0.287  0.00  0.00    -0.077 A 
ATOM      2  C3  UNL d   1      -1.494   3.913   0.326  0.00  0.00     0.002 A 
ATOM      3  C4  UNL d   1      -2.240   3.180   1.252  0.00  0.00     0.002 A 
ATOM      4  C5  UNL d   1      -1.598   2.326   2.147  0.00  0.00    -0.004 A 
ATOM      5  C6  UNL d   1      -0.210   2.199   2.114  0.00  0.00     0.002 A 
ATOM      6  C7  UNL d   1       0.537   2.930   1.189  0.00  0.00     0.002 A 
ENDROOT
BRANCH   1   7
ATOM      7  C1  UNL d   1       0.712   4.620  -0.678  0.00  0.00     0.055 C 
ATOM      8  C   UNL d   1       1.981   5.148  -0.024  0.00  0.00     0.019 C 
ENDBRANCH   1   7
TORSDOF 1
ENDMDL
