MODEL 1
REMARK minimizedAffinity -6.15946293
REMARK minimizedRMSD -1
REMARK  1 active torsions:
REMARK  status: ('A' for Active; 'I' for Inactive)
REMARK    1  A    between atoms: C1_2  and  C2_3 
ROOT
ATOM      1  C2  UNL d   1      -1.661  -1.149   1.423  0.00  0.00    -0.073 A 
ATOM      2  C3  UNL d   1      -0.961  -2.340   1.649  0.00  0.00    -0.002 A 
ATOM      3  C4  UNL d   1       0.273  -2.559   1.036  0.00  0.00     0.004 A 
ATOM      4  C5  UNL d   1       0.822  -1.590   0.197  0.00  0.00    -0.004 A 
ATOM      5  C6  UNL d   1       0.144  -0.389  -0.032  0.00  0.00    -0.075 A 
ATOM      6  C7  UNL d   1       0.720   0.663  -0.934  0.00  0.00     0.076 C 
ATOM      7  C8  UNL d   1      -1.097  -0.177   0.585  0.00  0.00     0.001 A 
ENDROOT
BRANCH   1   8
ATOM      8  C1  UNL d   1      -2.991  -0.905   2.088  0.00  0.00     0.053 C 
ATOM      9  C   UNL d   1      -3.321   0.577   2.177  0.00  0.00     0.018 C 
ENDBRANCH   1   8
TORSDOF 1
ENDMDL
