MODEL 1
REMARK minimizedAffinity -4.68981266
REMARK minimizedRMSD -1
REMARK  1 active torsions:
REMARK  status: ('A' for Active; 'I' for Inactive)
REMARK    1  A    between atoms: C1_2  and  C2_3 
ROOT
ATOM      1  C2  UNL d   1       0.460   0.191   0.037  0.00  0.00    -0.073 A 
ATOM      2  C3  UNL d   1       1.667  -0.418   0.400  0.00  0.00    -0.002 A 
ATOM      3  C4  UNL d   1       1.669  -1.687   0.981  0.00  0.00     0.004 A 
ATOM      4  C5  UNL d   1       0.467  -2.362   1.197  0.00  0.00    -0.004 A 
ATOM      5  C6  UNL d   1      -0.748  -1.775   0.830  0.00  0.00    -0.075 A 
ATOM      6  C7  UNL d   1      -2.049  -2.487   1.058  0.00  0.00     0.076 C 
ATOM      7  C8  UNL d   1      -0.742  -0.499   0.250  0.00  0.00     0.001 A 
ENDROOT
BRANCH   1   8
ATOM      8  C1  UNL d   1       0.453   1.559  -0.596  0.00  0.00     0.053 C 
ATOM      9  C   UNL d   1       0.940   1.523  -2.036  0.00  0.00     0.018 C 
ENDBRANCH   1   8
TORSDOF 1
ENDMDL
