MODEL 1
REMARK minimizedAffinity -2.1350069
REMARK minimizedRMSD -1
REMARK  1 active torsions:
REMARK  status: ('A' for Active; 'I' for Inactive)
REMARK    1  A    between atoms: C1_2  and  C2_3 
ROOT
ATOM      1  C2  UNL d   1      -0.343  -1.242   0.800  0.00  0.00    -0.073 A 
ATOM      2  C3  UNL d   1       0.811  -1.013   0.042  0.00  0.00    -0.002 A 
ATOM      3  C4  UNL d   1       1.069   0.254  -0.483  0.00  0.00     0.004 A 
ATOM      4  C5  UNL d   1       0.183   1.305  -0.249  0.00  0.00    -0.004 A 
ATOM      5  C6  UNL d   1      -0.969   1.099   0.517  0.00  0.00    -0.075 A 
ATOM      6  C7  UNL d   1      -1.934   2.218   0.776  0.00  0.00     0.076 C 
ATOM      7  C8  UNL d   1      -1.224  -0.177   1.038  0.00  0.00     0.001 A 
ENDROOT
BRANCH   1   8
ATOM      8  C1  UNL d   1      -0.623  -2.607   1.374  0.00  0.00     0.053 C 
ATOM      9  C   UNL d   1       0.217  -2.890   2.609  0.00  0.00     0.018 C 
ENDBRANCH   1   8
TORSDOF 1
ENDMDL
