MODEL 1
REMARK minimizedAffinity -1.47027326
REMARK minimizedRMSD -1
REMARK  1 active torsions:
REMARK  status: ('A' for Active; 'I' for Inactive)
REMARK    1  A    between atoms: C1_2  and  C2_3 
ROOT
ATOM      1  C2  UNL d   1       0.257   0.399   0.223  0.00  0.00    -0.073 A 
ATOM      2  C3  UNL d   1      -0.476   1.535   0.584  0.00  0.00    -0.002 A 
ATOM      3  C4  UNL d   1      -1.821   1.422   0.940  0.00  0.00     0.004 A 
ATOM      4  C5  UNL d   1      -2.443   0.174   0.945  0.00  0.00    -0.004 A 
ATOM      5  C6  UNL d   1      -1.724  -0.974   0.598  0.00  0.00    -0.075 A 
ATOM      6  C7  UNL d   1      -2.380  -2.324   0.596  0.00  0.00     0.076 C 
ATOM      7  C8  UNL d   1      -0.375  -0.852   0.240  0.00  0.00     0.001 A 
ENDROOT
BRANCH   1   8
ATOM      8  C1  UNL d   1       1.711   0.515  -0.155  0.00  0.00     0.053 C 
ATOM      9  C   UNL d   1       1.906   1.319  -1.431  0.00  0.00     0.018 C 
ENDBRANCH   1   8
TORSDOF 1
ENDMDL
