MODEL 1
REMARK minimizedAffinity -5.10612583
REMARK minimizedRMSD -1
REMARK  1 active torsions:
REMARK  status: ('A' for Active; 'I' for Inactive)
REMARK    1  A    between atoms: C1_2  and  C2_3 
ROOT
ATOM      1  C2  UNL d   1       0.183   0.301   0.053  0.00  0.00    -0.073 A 
ATOM      2  C3  UNL d   1      -1.136  -0.094   0.303  0.00  0.00    -0.002 A 
ATOM      3  C4  UNL d   1      -1.427  -1.422   0.617  0.00  0.00     0.004 A 
ATOM      4  C5  UNL d   1      -0.403  -2.366   0.692  0.00  0.00    -0.004 A 
ATOM      5  C6  UNL d   1       0.923  -1.989   0.458  0.00  0.00    -0.075 A 
ATOM      6  C7  UNL d   1       2.035  -2.993   0.532  0.00  0.00     0.076 C 
ATOM      7  C8  UNL d   1       1.207  -0.654   0.140  0.00  0.00     0.001 A 
ENDROOT
BRANCH   1   8
ATOM      8  C1  UNL d   1       0.503   1.735  -0.280  0.00  0.00     0.053 C 
ATOM      9  C   UNL d   1       1.158   1.870  -1.646  0.00  0.00     0.018 C 
ENDBRANCH   1   8
TORSDOF 1
ENDMDL
