MODEL 1
REMARK minimizedAffinity -5.89988899
REMARK minimizedRMSD -1
REMARK  1 active torsions:
REMARK  status: ('A' for Active; 'I' for Inactive)
REMARK    1  A    between atoms: C1_2  and  C2_3 
ROOT
ATOM      1  C2  UNL d   1       0.196  -0.096   0.352  0.00  0.00    -0.073 A 
ATOM      2  C3  UNL d   1       0.310  -1.490   0.378  0.00  0.00    -0.002 A 
ATOM      3  C4  UNL d   1      -0.721  -2.272   0.900  0.00  0.00     0.004 A 
ATOM      4  C5  UNL d   1      -1.878  -1.669   1.394  0.00  0.00    -0.004 A 
ATOM      5  C6  UNL d   1      -2.015  -0.278   1.366  0.00  0.00    -0.075 A 
ATOM      6  C7  UNL d   1      -3.252   0.386   1.895  0.00  0.00     0.076 C 
ATOM      7  C8  UNL d   1      -0.974   0.501   0.842  0.00  0.00     0.001 A 
ENDROOT
BRANCH   1   8
ATOM      8  C1  UNL d   1       1.305   0.752  -0.217  0.00  0.00     0.053 C 
ATOM      9  C   UNL d   1       0.834   1.589  -1.396  0.00  0.00     0.018 C 
ENDBRANCH   1   8
TORSDOF 1
ENDMDL
