MODEL 1
REMARK minimizedAffinity -2.45821834
REMARK minimizedRMSD -1
REMARK  1 active torsions:
REMARK  status: ('A' for Active; 'I' for Inactive)
REMARK    1  A    between atoms: C1_2  and  C2_3 
ROOT
ATOM      1  C2  UNL d   1       0.150  -1.017   0.390  0.00  0.00    -0.073 A 
ATOM      2  C3  UNL d   1      -1.121  -1.452  -0.000  0.00  0.00    -0.002 A 
ATOM      3  C4  UNL d   1      -1.777  -2.449   0.723  0.00  0.00     0.004 A 
ATOM      4  C5  UNL d   1      -1.173  -3.015   1.845  0.00  0.00    -0.004 A 
ATOM      5  C6  UNL d   1       0.092  -2.586   2.257  0.00  0.00    -0.075 A 
ATOM      6  C7  UNL d   1       0.757  -3.187   3.461  0.00  0.00     0.076 C 
ATOM      7  C8  UNL d   1       0.746  -1.586   1.524  0.00  0.00     0.001 A 
ENDROOT
BRANCH   1   8
ATOM      8  C1  UNL d   1       0.860   0.064  -0.384  0.00  0.00     0.053 C 
ATOM      9  C   UNL d   1       0.159   1.408  -0.260  0.00  0.00     0.018 C 
ENDBRANCH   1   8
TORSDOF 1
ENDMDL
