MODEL 1
REMARK minimizedAffinity -4.09977102
REMARK minimizedRMSD -1
REMARK  1 active torsions:
REMARK  status: ('A' for Active; 'I' for Inactive)
REMARK    1  A    between atoms: C1_2  and  C2_3 
ROOT
ATOM      1  C2  UNL d   1       0.122  -0.371  -0.015  0.00  0.00    -0.073 A 
ATOM      2  C3  UNL d   1      -0.832   0.319   0.741  0.00  0.00    -0.002 A 
ATOM      3  C4  UNL d   1      -0.928   1.709   0.655  0.00  0.00     0.004 A 
ATOM      4  C5  UNL d   1      -0.078   2.420  -0.192  0.00  0.00    -0.004 A 
ATOM      5  C6  UNL d   1       0.873   1.747  -0.964  0.00  0.00    -0.075 A 
ATOM      6  C7  UNL d   1       1.797   2.498  -1.878  0.00  0.00     0.076 C 
ATOM      7  C8  UNL d   1       0.966   0.352  -0.870  0.00  0.00     0.001 A 
ENDROOT
BRANCH   1   8
ATOM      8  C1  UNL d   1       0.225  -1.872   0.070  0.00  0.00     0.053 C 
ATOM      9  C   UNL d   1      -1.004  -2.493   0.714  0.00  0.00     0.018 C 
ENDBRANCH   1   8
TORSDOF 1
ENDMDL
