MODEL 1
REMARK minimizedAffinity -2.93537354
REMARK minimizedRMSD -1
REMARK  1 active torsions:
REMARK  status: ('A' for Active; 'I' for Inactive)
REMARK    1  A    between atoms: C1_2  and  C2_3 
ROOT
ATOM      1  C2  UNL d   1       0.252  -0.748  -1.538  0.00  0.00    -0.073 A 
ATOM      2  C3  UNL d   1       1.424  -1.006  -0.817  0.00  0.00    -0.002 A 
ATOM      3  C4  UNL d   1       1.482  -0.741   0.551  0.00  0.00     0.004 A 
ATOM      4  C5  UNL d   1       0.369  -0.224   1.214  0.00  0.00    -0.004 A 
ATOM      5  C6  UNL d   1      -0.815   0.029   0.513  0.00  0.00    -0.075 A 
ATOM      6  C7  UNL d   1      -2.020   0.587   1.211  0.00  0.00     0.076 C 
ATOM      7  C8  UNL d   1      -0.864  -0.237  -0.862  0.00  0.00     0.001 A 
ENDROOT
BRANCH   1   8
ATOM      8  C1  UNL d   1       0.183  -1.038  -3.015  0.00  0.00     0.053 C 
ATOM      9  C   UNL d   1       1.007  -0.053  -3.829  0.00  0.00     0.018 C 
ENDBRANCH   1   8
TORSDOF 1
ENDMDL
