MODEL 1
REMARK minimizedAffinity -4.30096769
REMARK minimizedRMSD -1
REMARK  1 active torsions:
REMARK  status: ('A' for Active; 'I' for Inactive)
REMARK    1  A    between atoms: C1_2  and  C2_3 
ROOT
ATOM      1  C2  UNL d   1       0.101  -0.028  -1.381  0.00  0.00    -0.073 A 
ATOM      2  C3  UNL d   1      -1.048  -0.444  -2.063  0.00  0.00    -0.002 A 
ATOM      3  C4  UNL d   1      -2.240  -0.660  -1.369  0.00  0.00     0.004 A 
ATOM      4  C5  UNL d   1      -2.297  -0.456   0.009  0.00  0.00    -0.004 A 
ATOM      5  C6  UNL d   1      -1.162  -0.029   0.707  0.00  0.00    -0.075 A 
ATOM      6  C7  UNL d   1      -1.206   0.193   2.190  0.00  0.00     0.076 C 
ATOM      7  C8  UNL d   1       0.032   0.183   0.004  0.00  0.00     0.001 A 
ENDROOT
BRANCH   1   8
ATOM      8  C1  UNL d   1       1.388   0.213  -2.126  0.00  0.00     0.053 C 
ATOM      9  C   UNL d   1       1.152   0.888  -3.468  0.00  0.00     0.018 C 
ENDBRANCH   1   8
TORSDOF 1
ENDMDL
