MODEL 1
REMARK minimizedAffinity -3.16992402
REMARK minimizedRMSD -1
REMARK  1 active torsions:
REMARK  status: ('A' for Active; 'I' for Inactive)
REMARK    1  A    between atoms: C1_2  and  C2_3 
ROOT
ATOM      1  C2  UNL d   1      -0.064   0.175  -0.832  0.00  0.00    -0.073 A 
ATOM      2  C3  UNL d   1       0.425  -0.203   0.424  0.00  0.00    -0.002 A 
ATOM      3  C4  UNL d   1      -0.419  -0.216   1.535  0.00  0.00     0.004 A 
ATOM      4  C5  UNL d   1      -1.760   0.142   1.401  0.00  0.00    -0.004 A 
ATOM      5  C6  UNL d   1      -2.271   0.512   0.153  0.00  0.00    -0.075 A 
ATOM      6  C7  UNL d   1      -3.711   0.901  -0.007  0.00  0.00     0.076 C 
ATOM      7  C8  UNL d   1      -1.416   0.525  -0.958  0.00  0.00     0.001 A 
ENDROOT
BRANCH   1   8
ATOM      8  C1  UNL d   1       0.842   0.185  -2.036  0.00  0.00     0.053 C 
ATOM      9  C   UNL d   1       0.350  -0.752  -3.127  0.00  0.00     0.018 C 
ENDBRANCH   1   8
TORSDOF 1
ENDMDL
