MODEL 1
REMARK minimizedAffinity -2.61913919
REMARK minimizedRMSD -1
REMARK  1 active torsions:
REMARK  status: ('A' for Active; 'I' for Inactive)
REMARK    1  A    between atoms: C1_2  and  C2_3 
ROOT
ATOM      1  C2  UNL d   1      -0.017  -0.200   2.354  0.00  0.00    -0.073 A 
ATOM      2  C3  UNL d   1      -1.347   0.237   2.377  0.00  0.00    -0.002 A 
ATOM      3  C4  UNL d   1      -2.059   0.392   1.187  0.00  0.00     0.004 A 
ATOM      4  C5  UNL d   1      -1.453   0.105  -0.036  0.00  0.00    -0.004 A 
ATOM      5  C6  UNL d   1      -0.130  -0.345  -0.079  0.00  0.00    -0.075 A 
ATOM      6  C7  UNL d   1       0.537  -0.655  -1.387  0.00  0.00     0.076 C 
ATOM      7  C8  UNL d   1       0.580  -0.495   1.120  0.00  0.00     0.001 A 
ENDROOT
BRANCH   1   8
ATOM      8  C1  UNL d   1       0.754  -0.375   3.636  0.00  0.00     0.053 C 
ATOM      9  C   UNL d   1       2.200  -0.771   3.383  0.00  0.00     0.018 C 
ENDBRANCH   1   8
TORSDOF 1
ENDMDL
