MODEL 1
REMARK minimizedAffinity -0.525848508
REMARK minimizedRMSD -1
REMARK  1 active torsions:
REMARK  status: ('A' for Active; 'I' for Inactive)
REMARK    1  A    between atoms: C1_2  and  C2_3 
ROOT
ATOM      1  C2  UNL d   1       0.152  -0.086  -1.355  0.00  0.00    -0.073 A 
ATOM      2  C3  UNL d   1      -1.192   0.150  -1.043  0.00  0.00    -0.002 A 
ATOM      3  C4  UNL d   1      -1.611   0.185   0.287  0.00  0.00     0.004 A 
ATOM      4  C5  UNL d   1      -0.692  -0.008   1.318  0.00  0.00    -0.004 A 
ATOM      5  C6  UNL d   1       0.657  -0.233   1.028  0.00  0.00    -0.075 A 
ATOM      6  C7  UNL d   1       1.658  -0.445   2.125  0.00  0.00     0.076 C 
ATOM      7  C8  UNL d   1       1.070  -0.270  -0.311  0.00  0.00     0.001 A 
ENDROOT
BRANCH   1   8
ATOM      8  C1  UNL d   1       0.611  -0.119  -2.790  0.00  0.00     0.053 C 
ATOM      9  C   UNL d   1       1.918   0.633  -2.987  0.00  0.00     0.018 C 
ENDBRANCH   1   8
TORSDOF 1
ENDMDL
