MODEL 1
REMARK minimizedAffinity -4.58600998
REMARK minimizedRMSD -1
REMARK  1 active torsions:
REMARK  status: ('A' for Active; 'I' for Inactive)
REMARK    1  A    between atoms: C1_2  and  C2_3 
ROOT
ATOM      1  C2  UNL d   1      -0.038  -0.198   2.151  0.00  0.00    -0.073 A 
ATOM      2  C3  UNL d   1      -1.275   0.437   2.309  0.00  0.00    -0.002 A 
ATOM      3  C4  UNL d   1      -2.082   0.693   1.200  0.00  0.00     0.004 A 
ATOM      4  C5  UNL d   1      -1.666   0.311  -0.075  0.00  0.00    -0.004 A 
ATOM      5  C6  UNL d   1      -0.438  -0.336  -0.252  0.00  0.00    -0.075 A 
ATOM      6  C7  UNL d   1       0.025  -0.751  -1.617  0.00  0.00     0.076 C 
ATOM      7  C8  UNL d   1       0.368  -0.587   0.866  0.00  0.00     0.001 A 
ENDROOT
BRANCH   1   8
ATOM      8  C1  UNL d   1       0.835  -0.483   3.346  0.00  0.00     0.053 C 
ATOM      9  C   UNL d   1       2.264  -0.811   2.943  0.00  0.00     0.018 C 
ENDBRANCH   1   8
TORSDOF 1
ENDMDL
