MODEL 1
REMARK minimizedAffinity -0.980478227
REMARK minimizedRMSD -1
REMARK  1 active torsions:
REMARK  status: ('A' for Active; 'I' for Inactive)
REMARK    1  A    between atoms: C1_2  and  C2_3 
ROOT
ATOM      1  C2  UNL d   1      -0.259  -0.224  -0.112  0.00  0.00    -0.073 A 
ATOM      2  C3  UNL d   1      -1.553   0.088  -0.543  0.00  0.00    -0.002 A 
ATOM      3  C4  UNL d   1      -2.512   0.531   0.370  0.00  0.00     0.004 A 
ATOM      4  C5  UNL d   1      -2.185   0.672   1.718  0.00  0.00    -0.004 A 
ATOM      5  C6  UNL d   1      -0.893   0.376   2.166  0.00  0.00    -0.075 A 
ATOM      6  C7  UNL d   1      -0.526   0.521   3.613  0.00  0.00     0.076 C 
ATOM      7  C8  UNL d   1       0.063  -0.070   1.244  0.00  0.00     0.001 A 
ENDROOT
BRANCH   1   8
ATOM      8  C1  UNL d   1       0.782  -0.696  -1.095  0.00  0.00     0.053 C 
ATOM      9  C   UNL d   1       0.611  -0.048  -2.460  0.00  0.00     0.018 C 
ENDBRANCH   1   8
TORSDOF 1
ENDMDL
