MODEL 1
REMARK minimizedAffinity 3.61151981
REMARK minimizedRMSD -1
REMARK  1 active torsions:
REMARK  status: ('A' for Active; 'I' for Inactive)
REMARK    1  A    between atoms: C1_2  and  C2_3 
ROOT
ATOM      1  C2  UNL d   1       0.353   0.212  -1.160  0.00  0.00    -0.073 A 
ATOM      2  C3  UNL d   1      -0.646  -0.630  -1.662  0.00  0.00    -0.002 A 
ATOM      3  C4  UNL d   1      -1.694  -1.048  -0.841  0.00  0.00     0.004 A 
ATOM      4  C5  UNL d   1      -1.758  -0.624   0.486  0.00  0.00    -0.004 A 
ATOM      5  C6  UNL d   1      -0.776   0.227   1.003  0.00  0.00    -0.075 A 
ATOM      6  C7  UNL d   1      -0.829   0.690   2.429  0.00  0.00     0.076 C 
ATOM      7  C8  UNL d   1       0.275   0.640   0.173  0.00  0.00     0.001 A 
ENDROOT
BRANCH   1   8
ATOM      8  C1  UNL d   1       1.483   0.671  -2.044  0.00  0.00     0.053 C 
ATOM      9  C   UNL d   1       1.228   0.349  -3.508  0.00  0.00     0.018 C 
ENDBRANCH   1   8
TORSDOF 1
ENDMDL
