MODEL 1
REMARK minimizedAffinity 5.95007992
REMARK minimizedRMSD -1
REMARK  0 active torsions:
REMARK  status: ('A' for Active; 'I' for Inactive)
ROOT
ATOM      1  C   UNL d   1      -3.182  -0.699   3.133  0.00  0.00     0.172 C 
ATOM      2  N   UNL d   1      -2.913  -0.210   1.801  0.00  0.00    -0.070 N 
ATOM      3  C1  UNL d   1      -3.054  -0.928   0.643  0.00  0.00    -0.004 A 
ATOM      4  C2  UNL d   1      -2.700  -0.109  -0.407  0.00  0.00    -0.047 A 
ATOM      5  C3  UNL d   1      -2.333   1.144   0.138  0.00  0.00    -0.047 A 
ATOM      6  C4  UNL d   1      -2.474   1.054   1.506  0.00  0.00    -0.004 A 
ENDROOT
TORSDOF 0
ENDMDL
