MODEL 1
REMARK minimizedAffinity -0.769083977
REMARK minimizedRMSD -1
REMARK  0 active torsions:
REMARK  status: ('A' for Active; 'I' for Inactive)
ROOT
ATOM      1  C   UNL d   1      -1.762   0.421   2.661  0.00  0.00     0.172 C 
ATOM      2  N   UNL d   1      -1.417  -0.636   3.583  0.00  0.00    -0.070 N 
ATOM      3  C1  UNL d   1      -2.298  -1.511   4.160  0.00  0.00    -0.004 A 
ATOM      4  C2  UNL d   1      -1.578  -2.361   4.971  0.00  0.00    -0.047 A 
ATOM      5  C3  UNL d   1      -0.218  -1.983   4.879  0.00  0.00    -0.047 A 
ATOM      6  C4  UNL d   1      -0.146  -0.913   4.013  0.00  0.00    -0.004 A 
ENDROOT
TORSDOF 0
ENDMDL
