MODEL 1
REMARK minimizedAffinity -1.16028702
REMARK minimizedRMSD -1
REMARK  0 active torsions:
REMARK  status: ('A' for Active; 'I' for Inactive)
ROOT
ATOM      1  C   UNL d   1       1.379  -1.269   4.108  0.00  0.00     0.172 C 
ATOM      2  N   UNL d   1      -0.063  -1.233   4.052  0.00  0.00    -0.070 N 
ATOM      3  C1  UNL d   1      -0.909  -2.077   4.721  0.00  0.00    -0.004 A 
ATOM      4  C2  UNL d   1      -2.201  -1.716   4.405  0.00  0.00    -0.047 A 
ATOM      5  C3  UNL d   1      -2.129  -0.618   3.515  0.00  0.00    -0.047 A 
ATOM      6  C4  UNL d   1      -0.794  -0.340   3.314  0.00  0.00    -0.004 A 
ENDROOT
TORSDOF 0
ENDMDL
