MODEL 1
REMARK minimizedAffinity 3.90420461
REMARK minimizedRMSD -1
REMARK  0 active torsions:
REMARK  status: ('A' for Active; 'I' for Inactive)
ROOT
ATOM      1  C   UNL d   1      -2.652  -0.949   2.937  0.00  0.00     0.172 C 
ATOM      2  N   UNL d   1      -2.363  -0.055   1.840  0.00  0.00    -0.070 N 
ATOM      3  C1  UNL d   1      -2.536  -0.340   0.512  0.00  0.00    -0.004 A 
ATOM      4  C2  UNL d   1      -2.147   0.767  -0.211  0.00  0.00    -0.047 A 
ATOM      5  C3  UNL d   1      -1.724   1.750   0.715  0.00  0.00    -0.047 A 
ATOM      6  C4  UNL d   1      -1.868   1.215   1.977  0.00  0.00    -0.004 A 
ENDROOT
TORSDOF 0
ENDMDL
