MODEL 1
REMARK minimizedAffinity 0.494110644
REMARK minimizedRMSD -1
REMARK  0 active torsions:
REMARK  status: ('A' for Active; 'I' for Inactive)
ROOT
ATOM      1  C   UNL d   1       1.205  -0.869   2.636  0.00  0.00     0.172 C 
ATOM      2  N   UNL d   1       0.376  -0.465   1.525  0.00  0.00    -0.070 N 
ATOM      3  C1  UNL d   1       0.793  -0.318   0.230  0.00  0.00    -0.004 A 
ATOM      4  C2  UNL d   1      -0.293   0.077  -0.521  0.00  0.00    -0.047 A 
ATOM      5  C3  UNL d   1      -1.401   0.171   0.354  0.00  0.00    -0.047 A 
ATOM      6  C4  UNL d   1      -0.959  -0.170   1.615  0.00  0.00    -0.004 A 
ENDROOT
TORSDOF 0
ENDMDL
