MODEL 1
REMARK minimizedAffinity -0.610304892
REMARK minimizedRMSD -1
REMARK  0 active torsions:
REMARK  status: ('A' for Active; 'I' for Inactive)
ROOT
ATOM      1  C   UNL d   1      -2.285  -0.160   2.363  0.00  0.00     0.172 C 
ATOM      2  N   UNL d   1      -2.090  -0.802   3.642  0.00  0.00    -0.070 N 
ATOM      3  C1  UNL d   1      -3.024  -1.544   4.314  0.00  0.00    -0.004 A 
ATOM      4  C2  UNL d   1      -2.452  -1.980   5.489  0.00  0.00    -0.047 A 
ATOM      5  C3  UNL d   1      -1.128  -1.482   5.525  0.00  0.00    -0.047 A 
ATOM      6  C4  UNL d   1      -0.930  -0.756   4.370  0.00  0.00    -0.004 A 
ENDROOT
TORSDOF 0
ENDMDL
