MODEL 1
REMARK minimizedAffinity -4.135149
REMARK minimizedRMSD -1
REMARK  0 active torsions:
REMARK  status: ('A' for Active; 'I' for Inactive)
ROOT
ATOM      1  C   UNL d   1       0.451  -1.766   1.670  0.00  0.00     0.020 A 
ATOM      2  C1  UNL d   1       1.436  -0.940   1.129  0.00  0.00     0.020 A 
ATOM      3  C2  UNL d   1       1.169  -0.198  -0.023  0.00  0.00     0.034 A 
ATOM      4  C3  UNL d   1      -0.086  -0.279  -0.638  0.00  0.00     0.017 A 
ATOM      5  C4  UNL d   1      -1.073  -1.108  -0.094  0.00  0.00     0.017 A 
ATOM      6  C5  UNL d   1      -0.801  -1.849   1.060  0.00  0.00     0.034 A 
ATOM      7 Cl   UNL d   1      -2.645  -1.261  -0.796  0.00  0.00    -0.070 Cl
ATOM      8 Cl1  UNL d   1      -0.346   0.667  -2.060  0.00  0.00    -0.070 Cl
ENDROOT
TORSDOF 0
ENDMDL
