MODEL 1
REMARK minimizedAffinity -0.180775493
REMARK minimizedRMSD -1
REMARK  0 active torsions:
REMARK  status: ('A' for Active; 'I' for Inactive)
ROOT
ATOM      1  C   UNL d   1       5.082   5.016  -0.751  0.00  0.00     0.020 A 
ATOM      2  C1  UNL d   1       4.117   4.011  -0.808  0.00  0.00     0.020 A 
ATOM      3  C2  UNL d   1       3.719   3.358   0.361  0.00  0.00     0.034 A 
ATOM      4  C3  UNL d   1       4.286   3.710   1.591  0.00  0.00     0.017 A 
ATOM      5  C4  UNL d   1       5.254   4.719   1.648  0.00  0.00     0.017 A 
ATOM      6  C5  UNL d   1       5.649   5.370   0.474  0.00  0.00     0.034 A 
ATOM      7 Cl   UNL d   1       5.998   5.209   3.129  0.00  0.00    -0.070 Cl
ATOM      8 Cl1  UNL d   1       3.746   2.862   2.997  0.00  0.00    -0.070 Cl
ENDROOT
TORSDOF 0
ENDMDL
