MODEL 1
REMARK minimizedAffinity -5.36337805
REMARK minimizedRMSD -1
REMARK  0 active torsions:
REMARK  status: ('A' for Active; 'I' for Inactive)
ROOT
ATOM      1  C   UNL d   1      -1.734   0.712  -1.257  0.00  0.00     0.020 A 
ATOM      2  C1  UNL d   1      -2.426  -0.482  -1.059  0.00  0.00     0.020 A 
ATOM      3  C2  UNL d   1      -1.973  -1.403  -0.112  0.00  0.00     0.034 A 
ATOM      4  C3  UNL d   1      -0.824  -1.131   0.640  0.00  0.00     0.017 A 
ATOM      5  C4  UNL d   1      -0.130   0.068   0.441  0.00  0.00     0.017 A 
ATOM      6  C5  UNL d   1      -0.589   0.986  -0.508  0.00  0.00     0.034 A 
ATOM      7 Cl   UNL d   1       1.295   0.473   1.331  0.00  0.00    -0.070 Cl
ATOM      8 Cl1  UNL d   1      -0.321  -2.315   1.794  0.00  0.00    -0.070 Cl
ENDROOT
TORSDOF 0
ENDMDL
