MODEL 1
REMARK minimizedAffinity 5.59476089
REMARK minimizedRMSD -1
REMARK  0 active torsions:
REMARK  status: ('A' for Active; 'I' for Inactive)
ROOT
ATOM      1  C   UNL d   1       1.693   1.267   2.674  0.00  0.00     0.020 A 
ATOM      2  C1  UNL d   1       2.174   0.240   1.863  0.00  0.00     0.020 A 
ATOM      3  C2  UNL d   1       1.349  -0.840   1.542  0.00  0.00     0.034 A 
ATOM      4  C3  UNL d   1       0.040  -0.896   2.032  0.00  0.00     0.017 A 
ATOM      5  C4  UNL d   1      -0.442   0.136   2.847  0.00  0.00     0.017 A 
ATOM      6  C5  UNL d   1       0.388   1.215   3.165  0.00  0.00     0.034 A 
ATOM      7 Cl   UNL d   1      -2.046   0.137   3.489  0.00  0.00    -0.070 Cl
ATOM      8 Cl1  UNL d   1      -0.925  -2.261   1.595  0.00  0.00    -0.070 Cl
ENDROOT
TORSDOF 0
ENDMDL
