MODEL 1
REMARK minimizedAffinity 7.47248602
REMARK minimizedRMSD -1
REMARK  0 active torsions:
REMARK  status: ('A' for Active; 'I' for Inactive)
ROOT
ATOM      1  C   UNL d   1      -0.077  -2.473   2.222  0.00  0.00     0.020 A 
ATOM      2  C1  UNL d   1       1.302  -2.328   2.369  0.00  0.00     0.020 A 
ATOM      3  C2  UNL d   1       1.826  -1.161   2.930  0.00  0.00     0.034 A 
ATOM      4  C3  UNL d   1       0.970  -0.135   3.345  0.00  0.00     0.017 A 
ATOM      5  C4  UNL d   1      -0.414  -0.281   3.197  0.00  0.00     0.017 A 
ATOM      6  C5  UNL d   1      -0.933  -1.452   2.635  0.00  0.00     0.034 A 
ATOM      7 Cl   UNL d   1      -1.533   0.941   3.686  0.00  0.00    -0.070 Cl
ATOM      8 Cl1  UNL d   1       1.686   1.280   4.030  0.00  0.00    -0.070 Cl
ENDROOT
TORSDOF 0
ENDMDL
