MODEL 1
REMARK minimizedAffinity 7.79833269
REMARK minimizedRMSD -1
REMARK  0 active torsions:
REMARK  status: ('A' for Active; 'I' for Inactive)
ROOT
ATOM      1  C   UNL d   1      -3.339  -1.093  -0.434  0.00  0.00     0.020 A 
ATOM      2  C1  UNL d   1      -3.941   0.122  -0.755  0.00  0.00     0.020 A 
ATOM      3  C2  UNL d   1      -3.284   1.027  -1.593  0.00  0.00     0.034 A 
ATOM      4  C3  UNL d   1      -2.022   0.716  -2.112  0.00  0.00     0.017 A 
ATOM      5  C4  UNL d   1      -1.419  -0.504  -1.788  0.00  0.00     0.017 A 
ATOM      6  C5  UNL d   1      -2.081  -1.406  -0.949  0.00  0.00     0.034 A 
ATOM      7 Cl   UNL d   1       0.137  -0.958  -2.390  0.00  0.00    -0.070 Cl
ATOM      8 Cl1  UNL d   1      -1.268   1.881  -3.141  0.00  0.00    -0.070 Cl
ENDROOT
TORSDOF 0
ENDMDL
