MODEL 1
REMARK minimizedAffinity -2.53677011
REMARK minimizedRMSD -1
REMARK  0 active torsions:
REMARK  status: ('A' for Active; 'I' for Inactive)
ROOT
ATOM      1  C   UNL d   1      -3.778   0.241  -0.198  0.00  0.00     0.020 A 
ATOM      2  C1  UNL d   1      -3.033  -0.796   0.361  0.00  0.00     0.020 A 
ATOM      3  C2  UNL d   1      -1.757  -1.083  -0.131  0.00  0.00     0.034 A 
ATOM      4  C3  UNL d   1      -1.224  -0.331  -1.184  0.00  0.00     0.017 A 
ATOM      5  C4  UNL d   1      -1.973   0.710  -1.744  0.00  0.00     0.017 A 
ATOM      6  C5  UNL d   1      -3.249   0.993  -1.248  0.00  0.00     0.034 A 
ATOM      7 Cl   UNL d   1      -1.381   1.681  -3.045  0.00  0.00    -0.070 Cl
ATOM      8 Cl1  UNL d   1       0.360  -0.740  -1.741  0.00  0.00    -0.070 Cl
ENDROOT
TORSDOF 0
ENDMDL
