MODEL 1
REMARK minimizedAffinity 6.97180748
REMARK minimizedRMSD -1
REMARK  0 active torsions:
REMARK  status: ('A' for Active; 'I' for Inactive)
ROOT
ATOM      1  C   UNL d   1      -1.070   0.205  -2.353  0.00  0.00     0.020 A 
ATOM      2  C1  UNL d   1      -2.425   0.065  -2.652  0.00  0.00     0.020 A 
ATOM      3  C2  UNL d   1      -3.244  -0.714  -1.832  0.00  0.00     0.034 A 
ATOM      4  C3  UNL d   1      -2.709  -1.356  -0.709  0.00  0.00     0.017 A 
ATOM      5  C4  UNL d   1      -1.349  -1.215  -0.410  0.00  0.00     0.017 A 
ATOM      6  C5  UNL d   1      -0.534  -0.434  -1.235  0.00  0.00     0.034 A 
ATOM      7 Cl   UNL d   1      -0.617  -1.976   0.958  0.00  0.00    -0.070 Cl
ATOM      8 Cl1  UNL d   1      -3.780  -2.303   0.261  0.00  0.00    -0.070 Cl
ENDROOT
TORSDOF 0
ENDMDL
