MODEL 1
REMARK minimizedAffinity -5.03419542
REMARK minimizedRMSD -1
REMARK  0 active torsions:
REMARK  status: ('A' for Active; 'I' for Inactive)
ROOT
ATOM      1  C   UNL d   1      -1.273  -1.046   1.452  0.00  0.00     0.020 A 
ATOM      2  C1  UNL d   1      -2.158  -0.975   0.378  0.00  0.00     0.020 A 
ATOM      3  C2  UNL d   1      -1.793  -0.290  -0.784  0.00  0.00     0.034 A 
ATOM      4  C3  UNL d   1      -0.539   0.326  -0.873  0.00  0.00     0.017 A 
ATOM      5  C4  UNL d   1       0.349   0.254   0.207  0.00  0.00     0.017 A 
ATOM      6  C5  UNL d   1      -0.022  -0.433   1.367  0.00  0.00     0.034 A 
ATOM      7 Cl   UNL d   1       1.913   0.989   0.171  0.00  0.00    -0.070 Cl
ATOM      8 Cl1  UNL d   1      -0.154   1.155  -2.339  0.00  0.00    -0.070 Cl
ENDROOT
TORSDOF 0
ENDMDL
