MODEL 1
REMARK minimizedAffinity -0.447472304
REMARK minimizedRMSD -1
REMARK  0 active torsions:
REMARK  status: ('A' for Active; 'I' for Inactive)
ROOT
ATOM      1  C   UNL d   1      -3.079  -3.038  -0.487  0.00  0.00     0.020 A 
ATOM      2  C1  UNL d   1      -3.012  -2.924   0.901  0.00  0.00     0.020 A 
ATOM      3  C2  UNL d   1      -2.120  -2.021   1.484  0.00  0.00     0.034 A 
ATOM      4  C3  UNL d   1      -1.292  -1.230   0.680  0.00  0.00     0.017 A 
ATOM      5  C4  UNL d   1      -1.360  -1.346  -0.713  0.00  0.00     0.017 A 
ATOM      6  C5  UNL d   1      -2.255  -2.251  -1.292  0.00  0.00     0.034 A 
ATOM      7 Cl   UNL d   1      -0.370  -0.404  -1.771  0.00  0.00    -0.070 Cl
ATOM      8 Cl1  UNL d   1      -0.213  -0.135   1.469  0.00  0.00    -0.070 Cl
ENDROOT
TORSDOF 0
ENDMDL
