MODEL 1
REMARK minimizedAffinity -1.27432704
REMARK minimizedRMSD -1
REMARK  0 active torsions:
REMARK  status: ('A' for Active; 'I' for Inactive)
ROOT
ATOM      1  C   UNL d   1       0.094   0.232  -1.992  0.00  0.00     0.020 A 
ATOM      2  C1  UNL d   1       0.417   0.042  -3.335  0.00  0.00     0.020 A 
ATOM      3  C2  UNL d   1      -0.430  -0.704  -4.157  0.00  0.00     0.034 A 
ATOM      4  C3  UNL d   1      -1.603  -1.263  -3.638  0.00  0.00     0.017 A 
ATOM      5  C4  UNL d   1      -1.926  -1.072  -2.289  0.00  0.00     0.017 A 
ATOM      6  C5  UNL d   1      -1.075  -0.324  -1.470  0.00  0.00     0.034 A 
ATOM      7 Cl   UNL d   1      -3.356  -1.730  -1.576  0.00  0.00    -0.070 Cl
ATOM      8 Cl1  UNL d   1      -2.604  -2.174  -4.712  0.00  0.00    -0.070 Cl
ENDROOT
TORSDOF 0
ENDMDL
