MODEL 1
REMARK minimizedAffinity 4.50058413
REMARK minimizedRMSD -1
REMARK  0 active torsions:
REMARK  status: ('A' for Active; 'I' for Inactive)
ROOT
ATOM      1  C   UNL d   1      -2.969   0.380   6.000  0.00  0.00     0.020 A 
ATOM      2  C1  UNL d   1      -2.332   1.194   5.064  0.00  0.00     0.020 A 
ATOM      3  C2  UNL d   1      -1.963   0.672   3.822  0.00  0.00     0.034 A 
ATOM      4  C3  UNL d   1      -2.230  -0.666   3.513  0.00  0.00     0.017 A 
ATOM      5  C4  UNL d   1      -2.869  -1.482   4.453  0.00  0.00     0.017 A 
ATOM      6  C5  UNL d   1      -3.237  -0.955   5.695  0.00  0.00     0.034 A 
ATOM      7 Cl   UNL d   1      -3.232  -3.144   4.144  0.00  0.00    -0.070 Cl
ATOM      8 Cl1  UNL d   1      -1.745  -1.244   1.958  0.00  0.00    -0.070 Cl
ENDROOT
TORSDOF 0
ENDMDL
