MODEL 1
REMARK minimizedAffinity 5.21409369
REMARK minimizedRMSD -1
REMARK  0 active torsions:
REMARK  status: ('A' for Active; 'I' for Inactive)
ROOT
ATOM      1  C   UNL d   1      -1.237  -0.362   0.849  0.00  0.00     0.020 A 
ATOM      2  C1  UNL d   1      -0.206   0.524   0.537  0.00  0.00     0.020 A 
ATOM      3  C2  UNL d   1       0.127   0.765  -0.798  0.00  0.00     0.034 A 
ATOM      4  C3  UNL d   1      -0.572   0.120  -1.825  0.00  0.00     0.017 A 
ATOM      5  C4  UNL d   1      -1.606  -0.769  -1.510  0.00  0.00     0.017 A 
ATOM      6  C5  UNL d   1      -1.935  -1.007  -0.172  0.00  0.00     0.034 A 
ATOM      7 Cl   UNL d   1      -2.513  -1.602  -2.723  0.00  0.00    -0.070 Cl
ATOM      8 Cl1  UNL d   1      -0.107   0.465  -3.453  0.00  0.00    -0.070 Cl
ENDROOT
TORSDOF 0
ENDMDL
