MODEL 1
REMARK minimizedAffinity 9.90363312
REMARK minimizedRMSD -1
REMARK  0 active torsions:
REMARK  status: ('A' for Active; 'I' for Inactive)
ROOT
ATOM      1  C   UNL d   1      -5.402   5.201   1.614  0.00  0.00     0.020 A 
ATOM      2  C1  UNL d   1      -6.000   6.000   0.640  0.00  0.00     0.020 A 
ATOM      3  C2  UNL d   1      -5.756   5.753  -0.712  0.00  0.00     0.034 A 
ATOM      4  C3  UNL d   1      -4.911   4.704  -1.095  0.00  0.00     0.017 A 
ATOM      5  C4  UNL d   1      -4.311   3.903  -0.117  0.00  0.00     0.017 A 
ATOM      6  C5  UNL d   1      -4.559   4.155   1.236  0.00  0.00     0.034 A 
ATOM      7 Cl   UNL d   1      -3.257   2.591  -0.512  0.00  0.00    -0.070 Cl
ATOM      8 Cl1  UNL d   1      -4.654   4.456  -2.786  0.00  0.00    -0.070 Cl
ENDROOT
TORSDOF 0
ENDMDL
