MODEL 1
REMARK minimizedAffinity 2.18059087
REMARK minimizedRMSD -1
REMARK  0 active torsions:
REMARK  status: ('A' for Active; 'I' for Inactive)
ROOT
ATOM      1  C   UNL d   1      -5.901   5.437   1.809  0.00  0.00     0.020 A 
ATOM      2  C1  UNL d   1      -5.487   4.114   1.661  0.00  0.00     0.020 A 
ATOM      3  C2  UNL d   1      -5.172   3.351   2.788  0.00  0.00     0.034 A 
ATOM      4  C3  UNL d   1      -5.269   3.910   4.067  0.00  0.00     0.017 A 
ATOM      5  C4  UNL d   1      -5.684   5.239   4.214  0.00  0.00     0.017 A 
ATOM      6  C5  UNL d   1      -5.999   5.998   3.083  0.00  0.00     0.034 A 
ATOM      7 Cl   UNL d   1      -5.829   5.998   5.760  0.00  0.00    -0.070 Cl
ATOM      8 Cl1  UNL d   1      -4.864   2.908   5.415  0.00  0.00    -0.070 Cl
ENDROOT
TORSDOF 0
ENDMDL
