MODEL 1
REMARK minimizedAffinity -1.43537092
REMARK minimizedRMSD -1
REMARK  0 active torsions:
REMARK  status: ('A' for Active; 'I' for Inactive)
ROOT
ATOM      1  C   UNL d   1      -2.236  -1.116  -2.211  0.00  0.00     0.020 A 
ATOM      2  C1  UNL d   1      -1.243  -0.170  -1.957  0.00  0.00     0.020 A 
ATOM      3  C2  UNL d   1      -0.401  -0.321  -0.853  0.00  0.00     0.034 A 
ATOM      4  C3  UNL d   1      -0.550  -1.420   0.001  0.00  0.00     0.017 A 
ATOM      5  C4  UNL d   1      -1.546  -2.369  -0.255  0.00  0.00     0.017 A 
ATOM      6  C5  UNL d   1      -2.387  -2.213  -1.362  0.00  0.00     0.034 A 
ATOM      7 Cl   UNL d   1      -1.791  -3.751   0.753  0.00  0.00    -0.070 Cl
ATOM      8 Cl1  UNL d   1       0.526  -1.543   1.347  0.00  0.00    -0.070 Cl
ENDROOT
TORSDOF 0
ENDMDL
