MODEL 1
REMARK minimizedAffinity -4.15927267
REMARK minimizedRMSD -1
REMARK  0 active torsions:
REMARK  status: ('A' for Active; 'I' for Inactive)
ROOT
ATOM      1  C   UNL d   1      -2.272  -2.856   0.605  0.00  0.00     0.020 A 
ATOM      2  C1  UNL d   1      -1.217  -2.937   1.513  0.00  0.00     0.020 A 
ATOM      3  C2  UNL d   1      -0.214  -1.965   1.506  0.00  0.00     0.034 A 
ATOM      4  C3  UNL d   1      -0.264  -0.909   0.589  0.00  0.00     0.017 A 
ATOM      5  C4  UNL d   1      -1.323  -0.828  -0.322  0.00  0.00     0.017 A 
ATOM      6  C5  UNL d   1      -2.325  -1.804  -0.311  0.00  0.00     0.034 A 
ATOM      7 Cl   UNL d   1      -1.453   0.446  -1.482  0.00  0.00    -0.070 Cl
ATOM      8 Cl1  UNL d   1       1.010   0.257   0.638  0.00  0.00    -0.070 Cl
ENDROOT
TORSDOF 0
ENDMDL
