MODEL 1
REMARK minimizedAffinity -4.49375629
REMARK minimizedRMSD -1
REMARK  0 active torsions:
REMARK  status: ('A' for Active; 'I' for Inactive)
ROOT
ATOM      1  C   UNL d   1       2.670   2.463   1.227  0.00  0.00     0.020 A 
ATOM      2  C1  UNL d   1       2.357   2.068   2.527  0.00  0.00     0.020 A 
ATOM      3  C2  UNL d   1       1.541   0.954   2.741  0.00  0.00     0.034 A 
ATOM      4  C3  UNL d   1       1.037   0.232   1.654  0.00  0.00     0.017 A 
ATOM      5  C4  UNL d   1       1.352   0.629   0.349  0.00  0.00     0.017 A 
ATOM      6  C5  UNL d   1       2.168   1.745   0.140  0.00  0.00     0.034 A 
ATOM      7 Cl   UNL d   1       0.767  -0.212  -1.043  0.00  0.00    -0.070 Cl
ATOM      8 Cl1  UNL d   1       0.035  -1.135   1.992  0.00  0.00    -0.070 Cl
ENDROOT
TORSDOF 0
ENDMDL
