MODEL 1
REMARK minimizedAffinity -0.355537325
REMARK minimizedRMSD -1
REMARK  0 active torsions:
REMARK  status: ('A' for Active; 'I' for Inactive)
ROOT
ATOM      1  C   UNL d   1       1.953   0.464   1.498  0.00  0.00     0.020 A 
ATOM      2  C1  UNL d   1       1.794  -0.796   0.922  0.00  0.00     0.020 A 
ATOM      3  C2  UNL d   1       0.627  -1.527   1.152  0.00  0.00     0.034 A 
ATOM      4  C3  UNL d   1      -0.387  -0.998   1.960  0.00  0.00     0.017 A 
ATOM      5  C4  UNL d   1      -0.227   0.267   2.537  0.00  0.00     0.017 A 
ATOM      6  C5  UNL d   1       0.944   0.994   2.303  0.00  0.00     0.034 A 
ATOM      7 Cl   UNL d   1      -1.433   0.986   3.545  0.00  0.00    -0.070 Cl
ATOM      8 Cl1  UNL d   1      -1.804  -1.956   2.201  0.00  0.00    -0.070 Cl
ENDROOT
TORSDOF 0
ENDMDL
