MODEL 1
REMARK minimizedAffinity 4.53453684
REMARK minimizedRMSD -1
REMARK  1 active torsions:
REMARK  status: ('A' for Active; 'I' for Inactive)
REMARK    1  A    between atoms: C1_2  and  C2_3 
ROOT
ATOM      1  C2  UNL d   1       0.227   0.188  -0.369  0.00  0.00    -0.073 A 
ATOM      2  C3  UNL d   1      -0.338   1.468  -0.389  0.00  0.00    -0.002 A 
ATOM      3  C4  UNL d   1      -1.719   1.631  -0.276  0.00  0.00     0.004 A 
ATOM      4  C5  UNL d   1      -2.548   0.518  -0.135  0.00  0.00    -0.004 A 
ATOM      5  C6  UNL d   1      -2.002  -0.769  -0.101  0.00  0.00    -0.075 A 
ATOM      6  C7  UNL d   1      -2.880  -1.976   0.048  0.00  0.00     0.076 C 
ATOM      7  C8  UNL d   1      -0.614  -0.924  -0.218  0.00  0.00     0.001 A 
ENDROOT
BRANCH   1   8
ATOM      8  C1  UNL d   1       1.718   0.007  -0.484  0.00  0.00     0.053 C 
ATOM      9  C   UNL d   1       2.288  -0.789   0.680  0.00  0.00     0.018 C 
ENDBRANCH   1   8
TORSDOF 1
ENDMDL
