MODEL 1
REMARK minimizedAffinity 6.57083893
REMARK minimizedRMSD -1
REMARK  1 active torsions:
REMARK  status: ('A' for Active; 'I' for Inactive)
REMARK    1  A    between atoms: C1_2  and  C2_3 
ROOT
ATOM      1  C2  UNL d   1       0.635  -0.485   0.726  0.00  0.00    -0.073 A 
ATOM      2  C3  UNL d   1       0.917   0.612  -0.096  0.00  0.00    -0.002 A 
ATOM      3  C4  UNL d   1      -0.020   1.051  -1.032  0.00  0.00     0.004 A 
ATOM      4  C5  UNL d   1      -1.250   0.405  -1.150  0.00  0.00    -0.004 A 
ATOM      5  C6  UNL d   1      -1.556  -0.685  -0.329  0.00  0.00    -0.075 A 
ATOM      6  C7  UNL d   1      -2.874  -1.393  -0.445  0.00  0.00     0.076 C 
ATOM      7  C8  UNL d   1      -0.608  -1.122   0.607  0.00  0.00     0.001 A 
ENDROOT
BRANCH   1   8
ATOM      8  C1  UNL d   1       1.641  -0.959   1.743  0.00  0.00     0.053 C 
ATOM      9  C   UNL d   1       3.050  -1.003   1.172  0.00  0.00     0.018 C 
ENDBRANCH   1   8
TORSDOF 1
ENDMDL
