MODEL 1
REMARK minimizedAffinity -1.6957128
REMARK minimizedRMSD -1
REMARK  1 active torsions:
REMARK  status: ('A' for Active; 'I' for Inactive)
REMARK    1  A    between atoms: C1_2  and  C2_3 
ROOT
ATOM      1  C2  UNL d   1      -0.828  -0.038  -0.299  0.00  0.00    -0.073 A 
ATOM      2  C3  UNL d   1       0.216  -0.359   0.576  0.00  0.00    -0.002 A 
ATOM      3  C4  UNL d   1       1.465  -0.731   0.076  0.00  0.00     0.004 A 
ATOM      4  C5  UNL d   1       1.684  -0.778  -1.301  0.00  0.00    -0.004 A 
ATOM      5  C6  UNL d   1       0.657  -0.449  -2.191  0.00  0.00    -0.075 A 
ATOM      6  C7  UNL d   1       0.876  -0.497  -3.674  0.00  0.00     0.076 C 
ATOM      7  C8  UNL d   1      -0.596  -0.080  -1.681  0.00  0.00     0.001 A 
ENDROOT
BRANCH   1   8
ATOM      8  C1  UNL d   1      -2.177   0.370   0.236  0.00  0.00     0.053 C 
ATOM      9  C   UNL d   1      -2.211   0.369   1.756  0.00  0.00     0.018 C 
ENDBRANCH   1   8
TORSDOF 1
ENDMDL
