MODEL 1
REMARK minimizedAffinity -3.39669847
REMARK minimizedRMSD -1
REMARK  1 active torsions:
REMARK  status: ('A' for Active; 'I' for Inactive)
REMARK    1  A    between atoms: C1_2  and  C2_3 
ROOT
ATOM      1  C2  UNL d   1      -0.961   0.728   0.979  0.00  0.00    -0.073 A 
ATOM      2  C3  UNL d   1      -1.340   1.185   2.246  0.00  0.00    -0.002 A 
ATOM      3  C4  UNL d   1      -0.473   1.055   3.331  0.00  0.00     0.004 A 
ATOM      4  C5  UNL d   1       0.783   0.473   3.160  0.00  0.00    -0.004 A 
ATOM      5  C6  UNL d   1       1.185   0.021   1.899  0.00  0.00    -0.075 A 
ATOM      6  C7  UNL d   1       2.533  -0.609   1.699  0.00  0.00     0.076 C 
ATOM      7  C8  UNL d   1       0.308   0.153   0.815  0.00  0.00     0.001 A 
ENDROOT
BRANCH   1   8
ATOM      8  C1  UNL d   1      -1.891   0.872  -0.198  0.00  0.00     0.053 C 
ATOM      9  C   UNL d   1      -3.352   0.800   0.219  0.00  0.00     0.018 C 
ENDBRANCH   1   8
TORSDOF 1
ENDMDL
