MODEL 1
REMARK minimizedAffinity -1.18075156
REMARK minimizedRMSD -1
REMARK  1 active torsions:
REMARK  status: ('A' for Active; 'I' for Inactive)
REMARK    1  A    between atoms: C1_2  and  C2_3 
ROOT
ATOM      1  C2  UNL d   1       0.896  -0.151  -1.002  0.00  0.00    -0.073 A 
ATOM      2  C3  UNL d   1       2.069   0.604  -0.903  0.00  0.00    -0.002 A 
ATOM      3  C4  UNL d   1       2.556   1.301  -2.010  0.00  0.00     0.004 A 
ATOM      4  C5  UNL d   1       1.871   1.254  -3.224  0.00  0.00    -0.004 A 
ATOM      5  C6  UNL d   1       0.690   0.514  -3.340  0.00  0.00    -0.075 A 
ATOM      6  C7  UNL d   1      -0.058   0.453  -4.640  0.00  0.00     0.076 C 
ATOM      7  C8  UNL d   1       0.209  -0.184  -2.225  0.00  0.00     0.001 A 
ENDROOT
BRANCH   1   8
ATOM      8  C1  UNL d   1       0.363  -0.900   0.193  0.00  0.00     0.053 C 
ATOM      9  C   UNL d   1      -1.148  -0.784   0.311  0.00  0.00     0.018 C 
ENDBRANCH   1   8
TORSDOF 1
ENDMDL
