MODEL 1
REMARK minimizedAffinity -1.76390386
REMARK minimizedRMSD -1
REMARK  1 active torsions:
REMARK  status: ('A' for Active; 'I' for Inactive)
REMARK    1  A    between atoms: C1_2  and  C2_3 
ROOT
ATOM      1  C2  UNL d   1      -1.020  -0.119   0.730  0.00  0.00    -0.073 A 
ATOM      2  C3  UNL d   1      -1.807   0.008   1.880  0.00  0.00    -0.002 A 
ATOM      3  C4  UNL d   1      -1.229   0.388   3.092  0.00  0.00     0.004 A 
ATOM      4  C5  UNL d   1       0.139   0.651   3.165  0.00  0.00    -0.004 A 
ATOM      5  C6  UNL d   1       0.940   0.541   2.024  0.00  0.00    -0.075 A 
ATOM      6  C7  UNL d   1       2.414   0.819   2.087  0.00  0.00     0.076 C 
ATOM      7  C8  UNL d   1       0.353   0.157   0.811  0.00  0.00     0.001 A 
ENDROOT
BRANCH   1   8
ATOM      8  C1  UNL d   1      -1.641  -0.522  -0.583  0.00  0.00     0.053 C 
ATOM      9  C   UNL d   1      -3.039  -1.090  -0.401  0.00  0.00     0.018 C 
ENDBRANCH   1   8
TORSDOF 1
ENDMDL
