MODEL 1
REMARK minimizedAffinity -3.86373663
REMARK minimizedRMSD -1
REMARK  0 active torsions:
REMARK  status: ('A' for Active; 'I' for Inactive)
ROOT
ATOM      1  C   UNL d   1       2.983   0.641   0.985  0.00  0.00     0.078 C 
ATOM      2  C1  UNL d   1       1.566   0.575   0.500  0.00  0.00    -0.077 A 
ATOM      3  C2  UNL d   1       0.845   1.742   0.217  0.00  0.00    -0.001 A 
ATOM      4  C3  UNL d   1      -0.477   1.666  -0.224  0.00  0.00     0.003 A 
ATOM      5  C4  UNL d   1      -1.090   0.425  -0.384  0.00  0.00    -0.005 A 
ATOM      6  C5  UNL d   1      -0.382  -0.741  -0.102  0.00  0.00     0.003 A 
ATOM      7  C6  UNL d   1       0.940  -0.667   0.339  0.00  0.00    -0.001 A 
ENDROOT
TORSDOF 0
ENDMDL
