MODEL 1
REMARK minimizedAffinity -3.71269941
REMARK minimizedRMSD -1
REMARK  0 active torsions:
REMARK  status: ('A' for Active; 'I' for Inactive)
ROOT
ATOM      1  C   UNL d   1      -1.050   0.042  -0.468  0.00  0.00     0.078 C 
ATOM      2  C1  UNL d   1       0.157   0.001   0.421  0.00  0.00    -0.077 A 
ATOM      3  C2  UNL d   1       1.168   0.963   0.309  0.00  0.00    -0.001 A 
ATOM      4  C3  UNL d   1       2.291   0.907   1.137  0.00  0.00     0.003 A 
ATOM      5  C4  UNL d   1       2.413  -0.110   2.082  0.00  0.00    -0.005 A 
ATOM      6  C5  UNL d   1       1.413  -1.073   2.199  0.00  0.00     0.003 A 
ATOM      7  C6  UNL d   1       0.290  -1.019   1.372  0.00  0.00    -0.001 A 
ENDROOT
TORSDOF 0
ENDMDL
