MODEL 1
REMARK minimizedAffinity -4.03940296
REMARK minimizedRMSD -1
REMARK  0 active torsions:
REMARK  status: ('A' for Active; 'I' for Inactive)
ROOT
ATOM      1  C   UNL d   1      -1.889  -0.058  -0.317  0.00  0.00     0.078 C 
ATOM      2  C1  UNL d   1      -0.504   0.345   0.093  0.00  0.00    -0.077 A 
ATOM      3  C2  UNL d   1       0.367  -0.573   0.692  0.00  0.00    -0.001 A 
ATOM      4  C3  UNL d   1       1.650  -0.182   1.077  0.00  0.00     0.003 A 
ATOM      5  C4  UNL d   1       2.073   1.130   0.869  0.00  0.00    -0.005 A 
ATOM      6  C5  UNL d   1       1.213   2.051   0.276  0.00  0.00     0.003 A 
ATOM      7  C6  UNL d   1      -0.071   1.661  -0.110  0.00  0.00    -0.001 A 
ENDROOT
TORSDOF 0
ENDMDL
