MODEL 1
REMARK minimizedAffinity -4.06851387
REMARK minimizedRMSD -1
REMARK  0 active torsions:
REMARK  status: ('A' for Active; 'I' for Inactive)
ROOT
ATOM      1  C   UNL d   1      -1.859   0.289  -1.175  0.00  0.00     0.078 C 
ATOM      2  C1  UNL d   1      -0.522   0.423  -0.511  0.00  0.00    -0.077 A 
ATOM      3  C2  UNL d   1       0.165   1.644  -0.512  0.00  0.00    -0.001 A 
ATOM      4  C3  UNL d   1       1.414   1.752   0.102  0.00  0.00     0.003 A 
ATOM      5  C4  UNL d   1       1.988   0.643   0.720  0.00  0.00    -0.005 A 
ATOM      6  C5  UNL d   1       1.313  -0.577   0.725  0.00  0.00     0.003 A 
ATOM      7  C6  UNL d   1       0.064  -0.687   0.111  0.00  0.00    -0.001 A 
ENDROOT
TORSDOF 0
ENDMDL
