MODEL 1
REMARK minimizedAffinity -3.36314416
REMARK minimizedRMSD -1
REMARK  0 active torsions:
REMARK  status: ('A' for Active; 'I' for Inactive)
ROOT
ATOM      1  C   UNL d   1       0.269   0.183  -0.073  0.00  0.00     0.078 C 
ATOM      2  C1  UNL d   1      -0.853   0.167  -1.069  0.00  0.00    -0.077 A 
ATOM      3  C2  UNL d   1      -2.169   0.438  -0.676  0.00  0.00    -0.001 A 
ATOM      4  C3  UNL d   1      -3.205   0.410  -1.611  0.00  0.00     0.003 A 
ATOM      5  C4  UNL d   1      -2.935   0.110  -2.945  0.00  0.00    -0.005 A 
ATOM      6  C5  UNL d   1      -1.629  -0.163  -3.345  0.00  0.00     0.003 A 
ATOM      7  C6  UNL d   1      -0.592  -0.135  -2.411  0.00  0.00    -0.001 A 
ENDROOT
TORSDOF 0
ENDMDL
