MODEL 1
REMARK minimizedAffinity -5.3506422
REMARK minimizedRMSD -1
REMARK  0 active torsions:
REMARK  status: ('A' for Active; 'I' for Inactive)
ROOT
ATOM      1  C   UNL d   1      -1.003  -0.042  -0.329  0.00  0.00     0.078 C 
ATOM      2  C1  UNL d   1       0.186  -0.263   0.558  0.00  0.00    -0.077 A 
ATOM      3  C2  UNL d   1       1.298   0.585   0.498  0.00  0.00    -0.001 A 
ATOM      4  C3  UNL d   1       2.402   0.361   1.323  0.00  0.00     0.003 A 
ATOM      5  C4  UNL d   1       2.404  -0.710   2.214  0.00  0.00    -0.005 A 
ATOM      6  C5  UNL d   1       1.302  -1.560   2.280  0.00  0.00     0.003 A 
ATOM      7  C6  UNL d   1       0.197  -1.338   1.455  0.00  0.00    -0.001 A 
ENDROOT
TORSDOF 0
ENDMDL
