MODEL 1
REMARK minimizedAffinity -3.69912672
REMARK minimizedRMSD -1
REMARK  0 active torsions:
REMARK  status: ('A' for Active; 'I' for Inactive)
ROOT
ATOM      1  C   UNL d   1       2.003  -1.948   3.017  0.00  0.00     0.078 C 
ATOM      2  C1  UNL d   1       1.459  -1.089   1.915  0.00  0.00    -0.077 A 
ATOM      3  C2  UNL d   1       0.304  -1.459   1.216  0.00  0.00    -0.001 A 
ATOM      4  C3  UNL d   1      -0.186  -0.655   0.185  0.00  0.00     0.003 A 
ATOM      5  C4  UNL d   1       0.474   0.523  -0.157  0.00  0.00    -0.005 A 
ATOM      6  C5  UNL d   1       1.626   0.899   0.532  0.00  0.00     0.003 A 
ATOM      7  C6  UNL d   1       2.117   0.096   1.563  0.00  0.00    -0.001 A 
ENDROOT
TORSDOF 0
ENDMDL
