MODEL 1
REMARK minimizedAffinity -3.78272581
REMARK minimizedRMSD -1
REMARK  0 active torsions:
REMARK  status: ('A' for Active; 'I' for Inactive)
ROOT
ATOM      1  C   UNL d   1      -2.068   0.332  -0.997  0.00  0.00     0.078 C 
ATOM      2  C1  UNL d   1      -0.738   0.569  -0.347  0.00  0.00    -0.077 A 
ATOM      3  C2  UNL d   1      -0.090   1.805  -0.461  0.00  0.00    -0.001 A 
ATOM      4  C3  UNL d   1       1.153   2.009   0.141  0.00  0.00     0.003 A 
ATOM      5  C4  UNL d   1       1.759   0.981   0.860  0.00  0.00    -0.005 A 
ATOM      6  C5  UNL d   1       1.123  -0.253   0.977  0.00  0.00     0.003 A 
ATOM      7  C6  UNL d   1      -0.120  -0.459   0.376  0.00  0.00    -0.001 A 
ENDROOT
TORSDOF 0
ENDMDL
