MODEL 1
REMARK minimizedAffinity -4.90582752
REMARK minimizedRMSD -1
REMARK  0 active torsions:
REMARK  status: ('A' for Active; 'I' for Inactive)
ROOT
ATOM      1  C   UNL d   1      -1.023  -0.499   0.128  0.00  0.00     0.078 C 
ATOM      2  C1  UNL d   1       0.323  -0.581   0.785  0.00  0.00    -0.077 A 
ATOM      3  C2  UNL d   1       0.672  -1.682   1.577  0.00  0.00    -0.001 A 
ATOM      4  C3  UNL d   1       1.924  -1.742   2.191  0.00  0.00     0.003 A 
ATOM      5  C4  UNL d   1       2.837  -0.702   2.020  0.00  0.00    -0.005 A 
ATOM      6  C5  UNL d   1       2.497   0.398   1.236  0.00  0.00     0.003 A 
ATOM      7  C6  UNL d   1       1.245   0.459   0.622  0.00  0.00    -0.001 A 
ENDROOT
TORSDOF 0
ENDMDL
