MODEL 1
REMARK minimizedAffinity -2.95943785
REMARK minimizedRMSD -1
REMARK  0 active torsions:
REMARK  status: ('A' for Active; 'I' for Inactive)
ROOT
ATOM      1  C   UNL d   1      -1.292  -0.325  -0.350  0.00  0.00     0.078 C 
ATOM      2  C1  UNL d   1       0.107   0.083   0.003  0.00  0.00    -0.077 A 
ATOM      3  C2  UNL d   1       0.761  -0.469   1.111  0.00  0.00    -0.001 A 
ATOM      4  C3  UNL d   1       2.060  -0.073   1.433  0.00  0.00     0.003 A 
ATOM      5  C4  UNL d   1       2.716   0.878   0.654  0.00  0.00    -0.005 A 
ATOM      6  C5  UNL d   1       2.072   1.435  -0.449  0.00  0.00     0.003 A 
ATOM      7  C6  UNL d   1       0.773   1.040  -0.773  0.00  0.00    -0.001 A 
ENDROOT
TORSDOF 0
ENDMDL
