MODEL 1
REMARK minimizedAffinity -5.19279194
REMARK minimizedRMSD -1
REMARK  0 active torsions:
REMARK  status: ('A' for Active; 'I' for Inactive)
ROOT
ATOM      1  C1  DEN d   1       0.844  -1.012   0.437  0.00  0.00     0.130 A 
ATOM      2  C2  DEN d   1       0.951  -1.204  -1.007  0.00  0.00    -0.031 A 
ATOM      3  C3  DEN d   1       0.076  -0.213  -1.665  0.00  0.00     0.027 A 
ATOM      4  C4  DEN d   1      -1.420   1.595  -0.594  0.00  0.00     0.027 A 
ATOM      5  C5  DEN d   1      -1.849   2.136   0.598  0.00  0.00    -0.003 A 
ATOM      6  C6  DEN d   1      -1.440   1.647   1.810  0.00  0.00     0.001 A 
ATOM      7  C7  DEN d   1      -0.541   0.615   1.858  0.00  0.00     0.017 A 
ATOM      8  C8  DEN d   1      -0.110   0.059   0.660  0.00  0.00    -0.094 A 
ATOM      9  C9  DEN d   1      -0.525   0.576  -0.556  0.00  0.00    -0.072 A 
ENDROOT
TORSDOF 0
ENDMDL
