MODEL 1
REMARK minimizedAffinity -3.6135385
REMARK minimizedRMSD -1
REMARK  0 active torsions:
REMARK  status: ('A' for Active; 'I' for Inactive)
ROOT
ATOM      1  C1  DEN d   1      -0.706  -3.428  -0.474  0.00  0.00     0.130 A 
ATOM      2  C2  DEN d   1       0.326  -4.087  -1.269  0.00  0.00    -0.031 A 
ATOM      3  C3  DEN d   1       1.344  -3.077  -1.623  0.00  0.00     0.027 A 
ATOM      4  C4  DEN d   1       1.424  -0.572  -1.015  0.00  0.00     0.027 A 
ATOM      5  C5  DEN d   1       0.764   0.447  -0.364  0.00  0.00    -0.003 A 
ATOM      6  C6  DEN d   1      -0.439   0.255   0.262  0.00  0.00     0.001 A 
ATOM      7  C7  DEN d   1      -0.998  -0.996   0.289  0.00  0.00     0.017 A 
ATOM      8  C8  DEN d   1      -0.342  -2.026  -0.371  0.00  0.00    -0.094 A 
ATOM      9  C9  DEN d   1       0.879  -1.815  -0.988  0.00  0.00    -0.072 A 
ENDROOT
TORSDOF 0
ENDMDL
