MODEL 1
REMARK minimizedAffinity -3.74203229
REMARK minimizedRMSD -1
REMARK  0 active torsions:
REMARK  status: ('A' for Active; 'I' for Inactive)
ROOT
ATOM      1  C1  DEN d   1       1.526  -4.170  -0.245  0.00  0.00     0.130 A 
ATOM      2  C2  DEN d   1       0.813  -5.221  -0.966  0.00  0.00    -0.031 A 
ATOM      3  C3  DEN d   1       0.087  -4.593  -2.089  0.00  0.00     0.027 A 
ATOM      4  C4  DEN d   1       0.002  -2.109  -2.778  0.00  0.00     0.027 A 
ATOM      5  C5  DEN d   1       0.436  -0.840  -2.462  0.00  0.00    -0.003 A 
ATOM      6  C6  DEN d   1       1.230  -0.590  -1.375  0.00  0.00     0.001 A 
ATOM      7  C7  DEN d   1       1.651  -1.630  -0.588  0.00  0.00     0.017 A 
ATOM      8  C8  DEN d   1       1.211  -2.911  -0.896  0.00  0.00    -0.094 A 
ATOM      9  C9  DEN d   1       0.419  -3.145  -2.007  0.00  0.00    -0.072 A 
ENDROOT
TORSDOF 0
ENDMDL
