MODEL 1
REMARK minimizedAffinity -6.14072561
REMARK minimizedRMSD -1
REMARK  0 active torsions:
REMARK  status: ('A' for Active; 'I' for Inactive)
ROOT
ATOM      1  C1  DEN d   1      -0.754  -4.120  -2.145  0.00  0.00     0.130 A 
ATOM      2  C2  DEN d   1      -0.525  -2.805  -2.738  0.00  0.00    -0.031 A 
ATOM      3  C3  DEN d   1       0.654  -2.207  -2.081  0.00  0.00     0.027 A 
ATOM      4  C4  DEN d   1       2.144  -3.187  -0.218  0.00  0.00     0.027 A 
ATOM      5  C5  DEN d   1       2.337  -4.268   0.613  0.00  0.00    -0.003 A 
ATOM      6  C6  DEN d   1       1.501  -5.352   0.607  0.00  0.00     0.001 A 
ATOM      7  C7  DEN d   1       0.457  -5.399  -0.280  0.00  0.00     0.017 A 
ATOM      8  C8  DEN d   1       0.252  -4.310  -1.115  0.00  0.00    -0.094 A 
ATOM      9  C9  DEN d   1       1.116  -3.228  -1.102  0.00  0.00    -0.072 A 
ENDROOT
TORSDOF 0
ENDMDL
