MODEL 1
REMARK minimizedAffinity -2.07285476
REMARK minimizedRMSD -1
REMARK  0 active torsions:
REMARK  status: ('A' for Active; 'I' for Inactive)
ROOT
ATOM      1  C1  DEN d   1       1.125  -5.994  -0.851  0.00  0.00     0.130 A 
ATOM      2  C2  DEN d   1       2.029  -5.950   0.295  0.00  0.00    -0.031 A 
ATOM      3  C3  DEN d   1       2.264  -4.533   0.638  0.00  0.00     0.027 A 
ATOM      4  C4  DEN d   1       1.315  -2.414  -0.485  0.00  0.00     0.027 A 
ATOM      5  C5  DEN d   1       0.513  -1.946  -1.503  0.00  0.00    -0.003 A 
ATOM      6  C6  DEN d   1      -0.109  -2.786  -2.388  0.00  0.00     0.001 A 
ATOM      7  C7  DEN d   1       0.025  -4.142  -2.245  0.00  0.00     0.017 A 
ATOM      8  C8  DEN d   1       0.838  -4.621  -1.226  0.00  0.00    -0.094 A 
ATOM      9  C9  DEN d   1       1.448  -3.756  -0.334  0.00  0.00    -0.072 A 
ENDROOT
TORSDOF 0
ENDMDL
