MODEL 1
REMARK minimizedAffinity -4.1655674
REMARK minimizedRMSD -1
REMARK  0 active torsions:
REMARK  status: ('A' for Active; 'I' for Inactive)
ROOT
ATOM      1  C1  DEN d   1       1.111  -0.156   1.288  0.00  0.00     0.130 A 
ATOM      2  C2  DEN d   1       1.411  -0.826   0.025  0.00  0.00    -0.031 A 
ATOM      3  C3  DEN d   1       0.322  -0.518  -0.924  0.00  0.00     0.027 A 
ATOM      4  C4  DEN d   1      -1.785   0.925  -0.565  0.00  0.00     0.027 A 
ATOM      5  C5  DEN d   1      -2.480   1.690   0.346  0.00  0.00    -0.003 A 
ATOM      6  C6  DEN d   1      -2.047   1.864   1.634  0.00  0.00     0.001 A 
ATOM      7  C7  DEN d   1      -0.864   1.301   2.035  0.00  0.00     0.017 A 
ATOM      8  C8  DEN d   1      -0.162   0.523   1.124  0.00  0.00    -0.094 A 
ATOM      9  C9  DEN d   1      -0.609   0.369  -0.177  0.00  0.00    -0.072 A 
ENDROOT
TORSDOF 0
ENDMDL
