MODEL 1
REMARK minimizedAffinity -2.12701225
REMARK minimizedRMSD -1
REMARK  0 active torsions:
REMARK  status: ('A' for Active; 'I' for Inactive)
ROOT
ATOM      1  C1  DEN d   1       0.371  -0.032  -0.748  0.00  0.00     0.130 A 
ATOM      2  C2  DEN d   1       1.430  -0.612   0.074  0.00  0.00    -0.031 A 
ATOM      3  C3  DEN d   1       1.187  -0.218   1.476  0.00  0.00     0.027 A 
ATOM      4  C4  DEN d   1      -0.718   1.222   2.450  0.00  0.00     0.027 A 
ATOM      5  C5  DEN d   1      -1.848   1.947   2.141  0.00  0.00    -0.003 A 
ATOM      6  C6  DEN d   1      -2.294   2.091   0.854  0.00  0.00     0.001 A 
ATOM      7  C7  DEN d   1      -1.632   1.462  -0.167  0.00  0.00     0.017 A 
ATOM      8  C8  DEN d   1      -0.488   0.735   0.135  0.00  0.00    -0.094 A 
ATOM      9  C9  DEN d   1      -0.060   0.592   1.444  0.00  0.00    -0.072 A 
ENDROOT
TORSDOF 0
ENDMDL
