MODEL 1
REMARK minimizedAffinity -6.77508259
REMARK minimizedRMSD -1
REMARK  0 active torsions:
REMARK  status: ('A' for Active; 'I' for Inactive)
ROOT
ATOM      1  C1  DEN d   1      -1.280   3.309   0.270  0.00  0.00     0.130 A 
ATOM      2  C2  DEN d   1      -2.067   3.074   1.478  0.00  0.00    -0.031 A 
ATOM      3  C3  DEN d   1      -1.684   1.757   2.024  0.00  0.00     0.027 A 
ATOM      4  C4  DEN d   1       0.046   0.069   1.124  0.00  0.00     0.027 A 
ATOM      5  C5  DEN d   1       0.956  -0.179   0.119  0.00  0.00    -0.003 A 
ATOM      6  C6  DEN d   1       1.157   0.696  -0.915  0.00  0.00     0.001 A 
ATOM      7  C7  DEN d   1       0.472   1.882  -0.945  0.00  0.00     0.017 A 
ATOM      8  C8  DEN d   1      -0.452   2.135   0.061  0.00  0.00    -0.094 A 
ATOM      9  C9  DEN d   1      -0.632   1.244   1.105  0.00  0.00    -0.072 A 
ENDROOT
TORSDOF 0
ENDMDL
