MODEL 1
REMARK minimizedAffinity 0.766082168
REMARK minimizedRMSD -1
REMARK  0 active torsions:
REMARK  status: ('A' for Active; 'I' for Inactive)
ROOT
ATOM      1  C1  DEN d   1      -1.506   1.576  -1.417  0.00  0.00     0.130 A 
ATOM      2  C2  DEN d   1      -0.141   1.178  -1.749  0.00  0.00    -0.031 A 
ATOM      3  C3  DEN d   1       0.604   1.003  -0.486  0.00  0.00     0.027 A 
ATOM      4  C4  DEN d   1      -0.222   1.304   1.939  0.00  0.00     0.027 A 
ATOM      5  C5  DEN d   1      -1.302   1.645   2.723  0.00  0.00    -0.003 A 
ATOM      6  C6  DEN d   1      -2.506   2.017   2.186  0.00  0.00     0.001 A 
ATOM      7  C7  DEN d   1      -2.673   2.013   0.826  0.00  0.00     0.017 A 
ATOM      8  C8  DEN d   1      -1.586   1.677   0.029  0.00  0.00    -0.094 A 
ATOM      9  C9  DEN d   1      -0.381   1.292   0.591  0.00  0.00    -0.072 A 
ENDROOT
TORSDOF 0
ENDMDL
