MODEL 1
REMARK minimizedAffinity 1.8074683
REMARK minimizedRMSD -1
REMARK  0 active torsions:
REMARK  status: ('A' for Active; 'I' for Inactive)
ROOT
ATOM      1  C1  DEN d   1      -1.335   0.435  -4.199  0.00  0.00     0.130 A 
ATOM      2  C2  DEN d   1      -0.214  -0.113  -4.957  0.00  0.00    -0.031 A 
ATOM      3  C3  DEN d   1       0.909  -0.327  -4.022  0.00  0.00     0.027 A 
ATOM      4  C4  DEN d   1       1.017   0.130  -1.486  0.00  0.00     0.027 A 
ATOM      5  C5  DEN d   1       0.316   0.605  -0.400  0.00  0.00    -0.003 A 
ATOM      6  C6  DEN d   1      -0.962   1.086  -0.510  0.00  0.00     0.001 A 
ATOM      7  C7  DEN d   1      -1.596   1.059  -1.724  0.00  0.00     0.017 A 
ATOM      8  C8  DEN d   1      -0.893   0.587  -2.825  0.00  0.00    -0.094 A 
ATOM      9  C9  DEN d   1       0.395   0.095  -2.691  0.00  0.00    -0.072 A 
ENDROOT
TORSDOF 0
ENDMDL
