MODEL 1
REMARK minimizedAffinity -4.97616673
REMARK minimizedRMSD -1
REMARK  0 active torsions:
REMARK  status: ('A' for Active; 'I' for Inactive)
ROOT
ATOM      1  C1  DEN d   1      -0.600   1.256  -1.781  0.00  0.00     0.130 A 
ATOM      2  C2  DEN d   1       0.556   0.364  -1.822  0.00  0.00    -0.031 A 
ATOM      3  C3  DEN d   1       0.956   0.070  -0.431  0.00  0.00     0.027 A 
ATOM      4  C4  DEN d   1      -0.099   0.902   1.771  0.00  0.00     0.027 A 
ATOM      5  C5  DEN d   1      -1.092   1.687   2.313  0.00  0.00    -0.003 A 
ATOM      6  C6  DEN d   1      -1.962   2.405   1.536  0.00  0.00     0.001 A 
ATOM      7  C7  DEN d   1      -1.884   2.317   0.171  0.00  0.00     0.017 A 
ATOM      8  C8  DEN d   1      -0.881   1.532  -0.383  0.00  0.00    -0.094 A 
ATOM      9  C9  DEN d   1      -0.019   0.805   0.419  0.00  0.00    -0.072 A 
ENDROOT
TORSDOF 0
ENDMDL
