MODEL 1
REMARK minimizedAffinity 0.124663457
REMARK minimizedRMSD -1
REMARK  0 active torsions:
REMARK  status: ('A' for Active; 'I' for Inactive)
ROOT
ATOM      1  C1  DEN d   1       0.144   0.401  -0.915  0.00  0.00     0.130 A 
ATOM      2  C2  DEN d   1       0.494   1.717  -1.443  0.00  0.00    -0.031 A 
ATOM      3  C3  DEN d   1       0.458   2.682  -0.326  0.00  0.00     0.027 A 
ATOM      4  C4  DEN d   1      -0.098   2.268   2.159  0.00  0.00     0.027 A 
ATOM      5  C5  DEN d   1      -0.468   1.316   3.082  0.00  0.00    -0.003 A 
ATOM      6  C6  DEN d   1      -0.692   0.010   2.736  0.00  0.00     0.001 A 
ATOM      7  C7  DEN d   1      -0.503  -0.390   1.439  0.00  0.00     0.017 A 
ATOM      8  C8  DEN d   1      -0.137   0.566   0.500  0.00  0.00    -0.094 A 
ATOM      9  C9  DEN d   1       0.096   1.878   0.873  0.00  0.00    -0.072 A 
ENDROOT
TORSDOF 0
ENDMDL
