MODEL 1
REMARK minimizedAffinity 7.63010073
REMARK minimizedRMSD -1
REMARK  0 active torsions:
REMARK  status: ('A' for Active; 'I' for Inactive)
ROOT
ATOM      1  C1  DEN d   1      -0.109   2.190   2.129  0.00  0.00     0.130 A 
ATOM      2  C2  DEN d   1      -0.655   1.082   2.908  0.00  0.00    -0.031 A 
ATOM      3  C3  DEN d   1      -0.971  -0.019   1.976  0.00  0.00     0.027 A 
ATOM      4  C4  DEN d   1      -0.665  -0.117  -0.583  0.00  0.00     0.027 A 
ATOM      5  C5  DEN d   1      -0.248   0.586  -1.691  0.00  0.00    -0.003 A 
ATOM      6  C6  DEN d   1       0.209   1.875  -1.609  0.00  0.00     0.001 A 
ATOM      7  C7  DEN d   1       0.302   2.485  -0.386  0.00  0.00     0.017 A 
ATOM      8  C8  DEN d   1      -0.123   1.785   0.735  0.00  0.00    -0.094 A 
ATOM      9  C9  DEN d   1      -0.570   0.479   0.633  0.00  0.00    -0.072 A 
ENDROOT
TORSDOF 0
ENDMDL
