MODEL 1
REMARK minimizedAffinity 10.1690578
REMARK minimizedRMSD -1
REMARK  0 active torsions:
REMARK  status: ('A' for Active; 'I' for Inactive)
ROOT
ATOM      1  C1  DEN d   1      -2.271   0.034   2.558  0.00  0.00     0.130 A 
ATOM      2  C2  DEN d   1      -1.217  -0.922   2.887  0.00  0.00    -0.031 A 
ATOM      3  C3  DEN d   1      -0.066  -0.167   3.420  0.00  0.00     0.027 A 
ATOM      4  C4  DEN d   1       0.184   2.376   3.772  0.00  0.00     0.027 A 
ATOM      5  C5  DEN d   1      -0.439   3.596   3.629  0.00  0.00    -0.003 A 
ATOM      6  C6  DEN d   1      -1.694   3.716   3.092  0.00  0.00     0.001 A 
ATOM      7  C7  DEN d   1      -2.383   2.593   2.720  0.00  0.00     0.017 A 
ATOM      8  C8  DEN d   1      -1.758   1.360   2.854  0.00  0.00    -0.094 A 
ATOM      9  C9  DEN d   1      -0.494   1.258   3.410  0.00  0.00    -0.072 A 
ENDROOT
TORSDOF 0
ENDMDL
