MODEL 1
REMARK minimizedAffinity 8.31624603
REMARK minimizedRMSD -1
REMARK  0 active torsions:
REMARK  status: ('A' for Active; 'I' for Inactive)
ROOT
ATOM      1  C   UNL d   1      -1.159   0.556   2.668  0.00  0.00     0.124 A 
ATOM      2  C1  UNL d   1      -0.222   1.576   2.760  0.00  0.00     0.062 A 
ATOM      3  C2  UNL d   1       0.105   2.330   1.637  0.00  0.00     0.162 A 
ATOM      4  C3  UNL d   1      -0.506   2.067   0.411  0.00  0.00    -0.034 A 
ATOM      5  C4  UNL d   1      -1.447   1.039   0.326  0.00  0.00     0.162 A 
ATOM      6  C5  UNL d   1      -1.770   0.289   1.451  0.00  0.00     0.062 A 
ATOM      7  F   UNL d   1      -2.676  -0.697   1.360  0.00  0.00    -0.097 F 
ATOM      8  F1  UNL d   1      -2.053   0.760  -0.838  0.00  0.00    -0.096 F 
ATOM      9  I   UNL d   1      -0.020   3.192  -1.271  0.00  0.00    -0.060 I 
ATOM     10  F2  UNL d   1       1.013   3.309   1.755  0.00  0.00    -0.096 F 
ATOM     11  F3  UNL d   1       0.370   1.836   3.935  0.00  0.00    -0.097 F 
ATOM     12  F4  UNL d   1      -1.471  -0.168   3.750  0.00  0.00    -0.092 F 
ENDROOT
TORSDOF 0
ENDMDL
