MODEL 1
REMARK minimizedAffinity 9.46606255
REMARK minimizedRMSD -1
REMARK  0 active torsions:
REMARK  status: ('A' for Active; 'I' for Inactive)
ROOT
ATOM      1  C   UNL d   1      -0.593   1.750   0.091  0.00  0.00     0.124 A 
ATOM      2  C1  UNL d   1      -1.867   2.149  -0.288  0.00  0.00     0.062 A 
ATOM      3  C2  UNL d   1      -2.984   1.460   0.176  0.00  0.00     0.162 A 
ATOM      4  C3  UNL d   1      -2.831   0.364   1.025  0.00  0.00    -0.034 A 
ATOM      5  C4  UNL d   1      -1.547  -0.032   1.401  0.00  0.00     0.162 A 
ATOM      6  C5  UNL d   1      -0.434   0.660   0.935  0.00  0.00     0.062 A 
ATOM      7  F   UNL d   1       0.796   0.273   1.303  0.00  0.00    -0.097 F 
ATOM      8  F1  UNL d   1      -1.364  -1.082   2.217  0.00  0.00    -0.096 F 
ATOM      9  I   UNL d   1      -4.498  -0.670   1.720  0.00  0.00    -0.060 I 
ATOM     10  F2  UNL d   1      -4.203   1.867  -0.207  0.00  0.00    -0.096 F 
ATOM     11  F3  UNL d   1      -2.023   3.202  -1.104  0.00  0.00    -0.097 F 
ATOM     12  F4  UNL d   1       0.480   2.415  -0.357  0.00  0.00    -0.092 F 
ENDROOT
TORSDOF 0
ENDMDL
