MODEL 1
REMARK minimizedAffinity 16.3892517
REMARK minimizedRMSD -1
REMARK  0 active torsions:
REMARK  status: ('A' for Active; 'I' for Inactive)
ROOT
ATOM      1  C   UNL d   1       2.408   2.239   2.016  0.00  0.00     0.124 A 
ATOM      2  C1  UNL d   1       3.439   3.167   2.022  0.00  0.00     0.062 A 
ATOM      3  C2  UNL d   1       4.384   3.171   0.999  0.00  0.00     0.162 A 
ATOM      4  C3  UNL d   1       4.300   2.243  -0.039  0.00  0.00    -0.034 A 
ATOM      5  C4  UNL d   1       3.261   1.311  -0.037  0.00  0.00     0.162 A 
ATOM      6  C5  UNL d   1       2.319   1.312   0.987  0.00  0.00     0.062 A 
ATOM      7  F   UNL d   1       1.323   0.414   0.980  0.00  0.00    -0.097 F 
ATOM      8  F1  UNL d   1       3.151   0.405  -1.020  0.00  0.00    -0.096 F 
ATOM      9  I   UNL d   1       5.711   2.244  -1.570  0.00  0.00    -0.060 I 
ATOM     10  F2  UNL d   1       5.370   4.080   1.030  0.00  0.00    -0.096 F 
ATOM     11  F3  UNL d   1       3.528   4.063   3.015  0.00  0.00    -0.097 F 
ATOM     12  F4  UNL d   1       1.501   2.237   3.002  0.00  0.00    -0.092 F 
ENDROOT
TORSDOF 0
ENDMDL
