MODEL 1
REMARK minimizedAffinity 17.9968605
REMARK minimizedRMSD -1
REMARK  0 active torsions:
REMARK  status: ('A' for Active; 'I' for Inactive)
ROOT
ATOM      1  C   UNL d   1       1.420   3.410   2.388  0.00  0.00     0.124 A 
ATOM      2  C1  UNL d   1       0.812   2.585   3.324  0.00  0.00     0.062 A 
ATOM      3  C2  UNL d   1      -0.448   2.050   3.071  0.00  0.00     0.162 A 
ATOM      4  C3  UNL d   1      -1.108   2.339   1.876  0.00  0.00    -0.034 A 
ATOM      5  C4  UNL d   1      -0.490   3.171   0.941  0.00  0.00     0.162 A 
ATOM      6  C5  UNL d   1       0.769   3.703   1.199  0.00  0.00     0.062 A 
ATOM      7  F   UNL d   1       1.355   4.500   0.294  0.00  0.00    -0.097 F 
ATOM      8  F1  UNL d   1      -1.097   3.469  -0.217  0.00  0.00    -0.096 F 
ATOM      9  I   UNL d   1      -2.993   1.542   1.495  0.00  0.00    -0.060 I 
ATOM     10  F2  UNL d   1      -1.012   1.255   3.992  0.00  0.00    -0.096 F 
ATOM     11  F3  UNL d   1       1.439   2.301   4.474  0.00  0.00    -0.097 F 
ATOM     12  F4  UNL d   1       2.633   3.924   2.635  0.00  0.00    -0.092 F 
ENDROOT
TORSDOF 0
ENDMDL
