MODEL 1
REMARK minimizedAffinity 11.2584963
REMARK minimizedRMSD -1
REMARK  0 active torsions:
REMARK  status: ('A' for Active; 'I' for Inactive)
ROOT
ATOM      1  C   UNL d   1       2.947   1.268   1.800  0.00  0.00     0.124 A 
ATOM      2  C1  UNL d   1       1.989   1.879   2.597  0.00  0.00     0.062 A 
ATOM      3  C2  UNL d   1       0.704   2.093   2.107  0.00  0.00     0.162 A 
ATOM      4  C3  UNL d   1       0.368   1.694   0.813  0.00  0.00    -0.034 A 
ATOM      5  C4  UNL d   1       1.338   1.081   0.017  0.00  0.00     0.162 A 
ATOM      6  C5  UNL d   1       2.621   0.869   0.512  0.00  0.00     0.062 A 
ATOM      7  F   UNL d   1       3.545   0.279  -0.260  0.00  0.00    -0.097 F 
ATOM      8  F1  UNL d   1       1.049   0.685  -1.231  0.00  0.00    -0.096 F 
ATOM      9  I   UNL d   1      -1.552   2.012   0.077  0.00  0.00    -0.060 I 
ATOM     10  F2  UNL d   1      -0.202   2.686   2.899  0.00  0.00    -0.096 F 
ATOM     11  F3  UNL d   1       2.302   2.266   3.842  0.00  0.00    -0.097 F 
ATOM     12  F4  UNL d   1       4.183   1.065   2.274  0.00  0.00    -0.092 F 
ENDROOT
TORSDOF 0
ENDMDL
