MODEL 1
REMARK minimizedAffinity 12.5597057
REMARK minimizedRMSD -1
REMARK  0 active torsions:
REMARK  status: ('A' for Active; 'I' for Inactive)
ROOT
ATOM      1  C   UNL d   1      -1.310   1.584   0.613  0.00  0.00     0.124 A 
ATOM      2  C1  UNL d   1      -0.383   1.246  -0.363  0.00  0.00     0.062 A 
ATOM      3  C2  UNL d   1       0.980   1.327  -0.091  0.00  0.00     0.162 A 
ATOM      4  C3  UNL d   1       1.424   1.748   1.162  0.00  0.00    -0.034 A 
ATOM      5  C4  UNL d   1       0.485   2.087   2.138  0.00  0.00     0.162 A 
ATOM      6  C5  UNL d   1      -0.876   2.004   1.862  0.00  0.00     0.062 A 
ATOM      7  F   UNL d   1      -1.770   2.331   2.806  0.00  0.00    -0.097 F 
ATOM      8  F1  UNL d   1       0.878   2.495   3.354  0.00  0.00    -0.096 F 
ATOM      9  I   UNL d   1       3.461   1.870   1.572  0.00  0.00    -0.060 I 
ATOM     10  F2  UNL d   1       1.853   0.995  -1.053  0.00  0.00    -0.096 F 
ATOM     11  F3  UNL d   1      -0.800   0.841  -1.571  0.00  0.00    -0.097 F 
ATOM     12  F4  UNL d   1      -2.621   1.506   0.349  0.00  0.00    -0.092 F 
ENDROOT
TORSDOF 0
ENDMDL
