MODEL 1
REMARK minimizedAffinity 16.2770405
REMARK minimizedRMSD -1
REMARK  0 active torsions:
REMARK  status: ('A' for Active; 'I' for Inactive)
ROOT
ATOM      1  C   UNL d   1       4.321   2.876   0.066  0.00  0.00     0.124 A 
ATOM      2  C1  UNL d   1       5.117   4.013   0.078  0.00  0.00     0.062 A 
ATOM      3  C2  UNL d   1       5.046   4.906   1.143  0.00  0.00     0.162 A 
ATOM      4  C3  UNL d   1       4.175   4.666   2.206  0.00  0.00    -0.034 A 
ATOM      5  C4  UNL d   1       3.377   3.521   2.186  0.00  0.00     0.162 A 
ATOM      6  C5  UNL d   1       3.452   2.631   1.120  0.00  0.00     0.062 A 
ATOM      7  F   UNL d   1       2.682   1.533   1.110  0.00  0.00    -0.097 F 
ATOM      8  F1  UNL d   1       2.528   3.259   3.192  0.00  0.00    -0.096 F 
ATOM      9  I   UNL d   1       4.064   6.000   3.800  0.00  0.00    -0.060 I 
ATOM     10  F2  UNL d   1       5.826   5.997   1.128  0.00  0.00    -0.096 F 
ATOM     11  F3  UNL d   1       5.957   4.252  -0.939  0.00  0.00    -0.097 F 
ATOM     12  F4  UNL d   1       4.392   2.018  -0.960  0.00  0.00    -0.092 F 
ENDROOT
TORSDOF 0
ENDMDL
