MODEL 1
REMARK minimizedAffinity 15.8477449
REMARK minimizedRMSD -1
REMARK  0 active torsions:
REMARK  status: ('A' for Active; 'I' for Inactive)
ROOT
ATOM      1  C   UNL d   1      -0.921   1.606   1.166  0.00  0.00     0.124 A 
ATOM      2  C1  UNL d   1      -0.321   2.187   2.275  0.00  0.00     0.062 A 
ATOM      3  C2  UNL d   1       1.065   2.184   2.403  0.00  0.00     0.162 A 
ATOM      4  C3  UNL d   1       1.861   1.599   1.419  0.00  0.00    -0.034 A 
ATOM      5  C4  UNL d   1       1.251   1.016   0.307  0.00  0.00     0.162 A 
ATOM      6  C5  UNL d   1      -0.135   1.021   0.184  0.00  0.00     0.062 A 
ATOM      7  F   UNL d   1      -0.712   0.459  -0.888  0.00  0.00    -0.097 F 
ATOM      8  F1  UNL d   1       1.987   0.445  -0.658  0.00  0.00    -0.096 F 
ATOM      9  I   UNL d   1       3.934   1.593   1.606  0.00  0.00    -0.060 I 
ATOM     10  F2  UNL d   1       1.618   2.753   3.485  0.00  0.00    -0.096 F 
ATOM     11  F3  UNL d   1      -1.078   2.752   3.226  0.00  0.00    -0.097 F 
ATOM     12  F4  UNL d   1      -2.255   1.610   1.046  0.00  0.00    -0.092 F 
ENDROOT
TORSDOF 0
ENDMDL
