MODEL 1
REMARK minimizedAffinity 15.8131638
REMARK minimizedRMSD -1
REMARK  0 active torsions:
REMARK  status: ('A' for Active; 'I' for Inactive)
ROOT
ATOM      1  C   UNL d   1       0.999   2.689   3.041  0.00  0.00     0.124 A 
ATOM      2  C1  UNL d   1       1.512   1.819   2.089  0.00  0.00     0.062 A 
ATOM      3  C2  UNL d   1       0.653   1.100   1.263  0.00  0.00     0.162 A 
ATOM      4  C3  UNL d   1      -0.728   1.248   1.384  0.00  0.00    -0.034 A 
ATOM      5  C4  UNL d   1      -1.237   2.125   2.344  0.00  0.00     0.162 A 
ATOM      6  C5  UNL d   1      -0.375   2.841   3.167  0.00  0.00     0.062 A 
ATOM      7  F   UNL d   1      -0.873   3.682   4.086  0.00  0.00    -0.097 F 
ATOM      8  F1  UNL d   1      -2.560   2.291   2.487  0.00  0.00    -0.096 F 
ATOM      9  I   UNL d   1      -2.015   0.174   0.151  0.00  0.00    -0.060 I 
ATOM     10  F2  UNL d   1       1.177   0.266   0.352  0.00  0.00    -0.096 F 
ATOM     11  F3  UNL d   1       2.839   1.670   1.965  0.00  0.00    -0.097 F 
ATOM     12  F4  UNL d   1       1.827   3.380   3.835  0.00  0.00    -0.092 F 
ENDROOT
TORSDOF 0
ENDMDL
