MODEL 1
REMARK minimizedAffinity 16.093317
REMARK minimizedRMSD -1
REMARK  0 active torsions:
REMARK  status: ('A' for Active; 'I' for Inactive)
ROOT
ATOM      1  C   UNL d   1       2.451   2.389  -4.339  0.00  0.00     0.124 A 
ATOM      2  C1  UNL d   1       3.426   2.695  -3.399  0.00  0.00     0.062 A 
ATOM      3  C2  UNL d   1       3.280   2.281  -2.079  0.00  0.00     0.162 A 
ATOM      4  C3  UNL d   1       2.154   1.555  -1.689  0.00  0.00    -0.034 A 
ATOM      5  C4  UNL d   1       1.177   1.253  -2.639  0.00  0.00     0.162 A 
ATOM      6  C5  UNL d   1       1.328   1.669  -3.957  0.00  0.00     0.062 A 
ATOM      7  F   UNL d   1       0.384   1.373  -4.863  0.00  0.00    -0.097 F 
ATOM      8  F1  UNL d   1       0.082   0.557  -2.298  0.00  0.00    -0.096 F 
ATOM      9  I   UNL d   1       1.933   0.934   0.285  0.00  0.00    -0.060 I 
ATOM     10  F2  UNL d   1       4.239   2.590  -1.193  0.00  0.00    -0.096 F 
ATOM     11  F3  UNL d   1       4.512   3.391  -3.765  0.00  0.00    -0.097 F 
ATOM     12  F4  UNL d   1       2.593   2.790  -5.609  0.00  0.00    -0.092 F 
ENDROOT
TORSDOF 0
ENDMDL
