MODEL 1
REMARK minimizedAffinity 15.8958178
REMARK minimizedRMSD -1
REMARK  0 active torsions:
REMARK  status: ('A' for Active; 'I' for Inactive)
ROOT
ATOM      1  C   UNL d   1       0.003   2.899   2.534  0.00  0.00     0.124 A 
ATOM      2  C1  UNL d   1       1.390   2.948   2.569  0.00  0.00     0.062 A 
ATOM      3  C2  UNL d   1       2.139   2.235   1.637  0.00  0.00     0.162 A 
ATOM      4  C3  UNL d   1       1.503   1.466   0.662  0.00  0.00    -0.034 A 
ATOM      5  C4  UNL d   1       0.108   1.421   0.635  0.00  0.00     0.162 A 
ATOM      6  C5  UNL d   1      -0.636   2.135   1.568  0.00  0.00     0.062 A 
ATOM      7  F   UNL d   1      -1.976   2.086   1.534  0.00  0.00    -0.097 F 
ATOM      8  F1  UNL d   1      -0.536   0.692  -0.289  0.00  0.00    -0.096 F 
ATOM      9  I   UNL d   1       2.619   0.398  -0.732  0.00  0.00    -0.060 I 
ATOM     10  F2  UNL d   1       3.478   2.301   1.694  0.00  0.00    -0.096 F 
ATOM     11  F3  UNL d   1       2.011   3.684   3.502  0.00  0.00    -0.097 F 
ATOM     12  F4  UNL d   1      -0.715   3.585   3.432  0.00  0.00    -0.092 F 
ENDROOT
TORSDOF 0
ENDMDL
