MODEL 1
REMARK minimizedAffinity 13.414012
REMARK minimizedRMSD -1
REMARK  0 active torsions:
REMARK  status: ('A' for Active; 'I' for Inactive)
ROOT
ATOM      1  C   UNL d   1       2.020   2.276   1.898  0.00  0.00     0.124 A 
ATOM      2  C1  UNL d   1       2.032   1.464   0.772  0.00  0.00     0.062 A 
ATOM      3  C2  UNL d   1       0.855   0.871   0.324  0.00  0.00     0.162 A 
ATOM      4  C3  UNL d   1      -0.345   1.088   1.002  0.00  0.00    -0.034 A 
ATOM      5  C4  UNL d   1      -0.349   1.905   2.134  0.00  0.00     0.162 A 
ATOM      6  C5  UNL d   1       0.830   2.495   2.578  0.00  0.00     0.062 A 
ATOM      7  F   UNL d   1       0.817   3.279   3.666  0.00  0.00    -0.097 F 
ATOM      8  F1  UNL d   1      -1.484   2.135   2.810  0.00  0.00    -0.096 F 
ATOM      9  I   UNL d   1      -2.107   0.203   0.336  0.00  0.00    -0.060 I 
ATOM     10  F2  UNL d   1       0.895   0.091  -0.767  0.00  0.00    -0.096 F 
ATOM     11  F3  UNL d   1       3.180   1.250   0.114  0.00  0.00    -0.097 F 
ATOM     12  F4  UNL d   1       3.154   2.844   2.327  0.00  0.00    -0.092 F 
ENDROOT
TORSDOF 0
ENDMDL
