MODEL 1
REMARK minimizedAffinity 9.98484325
REMARK minimizedRMSD -1
REMARK  0 active torsions:
REMARK  status: ('A' for Active; 'I' for Inactive)
ROOT
ATOM      1  C   UNL d   1       0.105   2.861   2.995  0.00  0.00     0.124 A 
ATOM      2  C1  UNL d   1      -0.555   1.994   2.136  0.00  0.00     0.062 A 
ATOM      3  C2  UNL d   1       0.150   1.322   1.142  0.00  0.00     0.162 A 
ATOM      4  C3  UNL d   1       1.525   1.514   1.002  0.00  0.00    -0.034 A 
ATOM      5  C4  UNL d   1       2.182   2.388   1.870  0.00  0.00     0.162 A 
ATOM      6  C5  UNL d   1       1.472   3.057   2.862  0.00  0.00     0.062 A 
ATOM      7  F   UNL d   1       2.112   3.894   3.691  0.00  0.00    -0.097 F 
ATOM      8  F1  UNL d   1       3.503   2.595   1.764  0.00  0.00    -0.096 F 
ATOM      9  I   UNL d   1       2.583   0.511  -0.483  0.00  0.00    -0.060 I 
ATOM     10  F2  UNL d   1      -0.514   0.491   0.325  0.00  0.00    -0.096 F 
ATOM     11  F3  UNL d   1      -1.876   1.804   2.262  0.00  0.00    -0.097 F 
ATOM     12  F4  UNL d   1      -0.576   3.507   3.950  0.00  0.00    -0.092 F 
ENDROOT
TORSDOF 0
ENDMDL
