MODEL 1
REMARK minimizedAffinity 12.2678766
REMARK minimizedRMSD -1
REMARK  0 active torsions:
REMARK  status: ('A' for Active; 'I' for Inactive)
ROOT
ATOM      1  C   UNL d   1       0.306   2.841   2.767  0.00  0.00     0.124 A 
ATOM      2  C1  UNL d   1      -0.430   2.029   1.915  0.00  0.00     0.062 A 
ATOM      3  C2  UNL d   1       0.215   1.264   0.947  0.00  0.00     0.162 A 
ATOM      4  C3  UNL d   1       1.604   1.306   0.826  0.00  0.00    -0.034 A 
ATOM      5  C4  UNL d   1       2.337   2.127   1.686  0.00  0.00     0.162 A 
ATOM      6  C5  UNL d   1       1.688   2.889   2.651  0.00  0.00     0.062 A 
ATOM      7  F   UNL d   1       2.401   3.674   3.473  0.00  0.00    -0.097 F 
ATOM      8  F1  UNL d   1       3.674   2.191   1.597  0.00  0.00    -0.096 F 
ATOM      9  I   UNL d   1       2.571   0.164  -0.619  0.00  0.00    -0.060 I 
ATOM     10  F2  UNL d   1      -0.521   0.488   0.138  0.00  0.00    -0.096 F 
ATOM     11  F3  UNL d   1      -1.765   1.981   2.024  0.00  0.00    -0.097 F 
ATOM     12  F4  UNL d   1      -0.316   3.577   3.696  0.00  0.00    -0.092 F 
ENDROOT
TORSDOF 0
ENDMDL
