MODEL 1
REMARK minimizedAffinity 8.92294884
REMARK minimizedRMSD -1
REMARK  0 active torsions:
REMARK  status: ('A' for Active; 'I' for Inactive)
ROOT
ATOM      1  C   UNL d   1       1.756   3.018   2.466  0.00  0.00     0.124 A 
ATOM      2  C1  UNL d   1       2.055   2.024   1.546  0.00  0.00     0.062 A 
ATOM      3  C2  UNL d   1       1.040   1.237   1.009  0.00  0.00     0.162 A 
ATOM      4  C3  UNL d   1      -0.286   1.443   1.391  0.00  0.00    -0.034 A 
ATOM      5  C4  UNL d   1      -0.580   2.445   2.318  0.00  0.00     0.162 A 
ATOM      6  C5  UNL d   1       0.439   3.228   2.852  0.00  0.00     0.062 A 
ATOM      7  F   UNL d   1       0.147   4.189   3.741  0.00  0.00    -0.097 F 
ATOM      8  F1  UNL d   1      -1.843   2.670   2.707  0.00  0.00    -0.096 F 
ATOM      9  I   UNL d   1      -1.807   0.270   0.591  0.00  0.00    -0.060 I 
ATOM     10  F2  UNL d   1       1.358   0.283   0.122  0.00  0.00    -0.096 F 
ATOM     11  F3  UNL d   1       3.327   1.818   1.173  0.00  0.00    -0.097 F 
ATOM     12  F4  UNL d   1       2.735   3.773   2.982  0.00  0.00    -0.092 F 
ENDROOT
TORSDOF 0
ENDMDL
