MODEL 1
REMARK minimizedAffinity 17.2579975
REMARK minimizedRMSD -1
REMARK  0 active torsions:
REMARK  status: ('A' for Active; 'I' for Inactive)
ROOT
ATOM      1  C   UNL d   1       1.595   2.597   2.814  0.00  0.00     0.124 A 
ATOM      2  C1  UNL d   1       1.925   1.733   1.779  0.00  0.00     0.062 A 
ATOM      3  C2  UNL d   1       0.925   1.154   1.004  0.00  0.00     0.162 A 
ATOM      4  C3  UNL d   1      -0.417   1.437   1.260  0.00  0.00    -0.034 A 
ATOM      5  C4  UNL d   1      -0.742   2.306   2.304  0.00  0.00     0.162 A 
ATOM      6  C5  UNL d   1       0.262   2.882   3.076  0.00  0.00     0.062 A 
ATOM      7  F   UNL d   1      -0.059   3.716   4.076  0.00  0.00    -0.097 F 
ATOM      8  F1  UNL d   1      -2.021   2.600   2.578  0.00  0.00    -0.096 F 
ATOM      9  I   UNL d   1      -1.916   0.574   0.103  0.00  0.00    -0.060 I 
ATOM     10  F2  UNL d   1       1.273   0.324   0.009  0.00  0.00    -0.096 F 
ATOM     11  F3  UNL d   1       3.212   1.455   1.525  0.00  0.00    -0.097 F 
ATOM     12  F4  UNL d   1       2.559   3.152   3.559  0.00  0.00    -0.092 F 
ENDROOT
TORSDOF 0
ENDMDL
