MODEL 1
REMARK minimizedAffinity -3.01677322
REMARK minimizedRMSD -1
REMARK  2 active torsions:
REMARK  status: ('A' for Active; 'I' for Inactive)
REMARK    1  A    between atoms: C1_2  and  C2_3 
REMARK    2  A    between atoms: C2_3  and  C3_4 
ROOT
ATOM      1  C3  UNL d   1       0.022  -1.484  -0.802  0.00  0.00    -0.075 A 
ATOM      2  C4  UNL d   1       1.027  -2.314  -1.319  0.00  0.00     0.002 A 
ATOM      3  C5  UNL d   1       0.739  -3.626  -1.697  0.00  0.00     0.002 A 
ATOM      4  C6  UNL d   1      -0.553  -4.127  -1.553  0.00  0.00    -0.004 A 
ATOM      5  C7  UNL d   1      -1.556  -3.317  -1.026  0.00  0.00     0.002 A 
ATOM      6  C8  UNL d   1      -1.271  -2.002  -0.651  0.00  0.00     0.002 A 
ENDROOT
BRANCH   1   7
ATOM      7  C2  UNL d   1       0.321  -0.054  -0.419  0.00  0.00     0.056 C 
BRANCH   7   8
ATOM      8  C1  UNL d   1      -0.058   0.297   1.023  0.00  0.00     0.007 C 
ATOM      9  C   UNL d   1       0.648  -0.569   2.057  0.00  0.00     0.009 C 
ENDBRANCH   7   8
ENDBRANCH   1   7
TORSDOF 2
ENDMDL
