MODEL 1
REMARK minimizedAffinity -2.09244442
REMARK minimizedRMSD -1
REMARK  2 active torsions:
REMARK  status: ('A' for Active; 'I' for Inactive)
REMARK    1  A    between atoms: C1_2  and  C2_3 
REMARK    2  A    between atoms: C2_3  and  C3_4 
ROOT
ATOM      1  C3  UNL d   1       0.395  -0.397  -0.295  0.00  0.00    -0.075 A 
ATOM      2  C4  UNL d   1       0.593  -0.317   1.091  0.00  0.00     0.002 A 
ATOM      3  C5  UNL d   1       0.282   0.852   1.785  0.00  0.00     0.002 A 
ATOM      4  C6  UNL d   1      -0.220   1.958   1.103  0.00  0.00    -0.004 A 
ATOM      5  C7  UNL d   1      -0.406   1.895  -0.277  0.00  0.00     0.002 A 
ATOM      6  C8  UNL d   1      -0.100   0.725  -0.973  0.00  0.00     0.002 A 
ENDROOT
BRANCH   1   7
ATOM      7  C2  UNL d   1       0.702  -1.670  -1.047  0.00  0.00     0.056 C 
BRANCH   7   8
ATOM      8  C1  UNL d   1      -0.049  -2.900  -0.525  0.00  0.00     0.007 C 
ATOM      9  C   UNL d   1      -1.215  -3.313  -1.413  0.00  0.00     0.009 C 
ENDBRANCH   7   8
ENDBRANCH   1   7
TORSDOF 2
ENDMDL
