MODEL 1
REMARK minimizedAffinity -2.27102184
REMARK minimizedRMSD -1
REMARK  2 active torsions:
REMARK  status: ('A' for Active; 'I' for Inactive)
REMARK    1  A    between atoms: C1_2  and  C2_3 
REMARK    2  A    between atoms: C2_3  and  C3_4 
ROOT
ATOM      1  C3  UNL d   1       0.449  -1.413  -1.009  0.00  0.00    -0.075 A 
ATOM      2  C4  UNL d   1       0.631  -1.057   0.335  0.00  0.00     0.002 A 
ATOM      3  C5  UNL d   1       0.351   0.239   0.769  0.00  0.00     0.002 A 
ATOM      4  C6  UNL d   1      -0.104   1.196  -0.135  0.00  0.00    -0.004 A 
ATOM      5  C7  UNL d   1      -0.273   0.858  -1.475  0.00  0.00     0.002 A 
ATOM      6  C8  UNL d   1       0.002  -0.439  -1.912  0.00  0.00     0.002 A 
ENDROOT
BRANCH   1   7
ATOM      7  C2  UNL d   1       0.722  -2.822  -1.479  0.00  0.00     0.056 C 
BRANCH   7   8
ATOM      8  C1  UNL d   1      -0.526  -3.573  -1.956  0.00  0.00     0.007 C 
ATOM      9  C   UNL d   1      -0.928  -4.716  -1.033  0.00  0.00     0.009 C 
ENDBRANCH   7   8
ENDBRANCH   1   7
TORSDOF 2
ENDMDL
