MODEL 1
REMARK minimizedAffinity -6.03854895
REMARK minimizedRMSD -1
REMARK  2 active torsions:
REMARK  status: ('A' for Active; 'I' for Inactive)
REMARK    1  A    between atoms: C1_2  and  C2_3 
REMARK    2  A    between atoms: C2_3  and  C3_4 
ROOT
ATOM      1  C3  UNL d   1      -0.098   0.858   0.350  0.00  0.00    -0.075 A 
ATOM      2  C4  UNL d   1      -0.364   1.640  -0.783  0.00  0.00     0.002 A 
ATOM      3  C5  UNL d   1      -1.032   2.859  -0.662  0.00  0.00     0.002 A 
ATOM      4  C6  UNL d   1      -1.450   3.306   0.589  0.00  0.00    -0.004 A 
ATOM      5  C7  UNL d   1      -1.206   2.530   1.720  0.00  0.00     0.002 A 
ATOM      6  C8  UNL d   1      -0.534   1.312   1.602  0.00  0.00     0.002 A 
ENDROOT
BRANCH   1   7
ATOM      7  C2  UNL d   1       0.650  -0.448   0.229  0.00  0.00     0.056 C 
BRANCH   7   8
ATOM      8  C1  UNL d   1       0.705  -1.006  -1.197  0.00  0.00     0.007 C 
ATOM      9  C   UNL d   1       0.181  -2.432  -1.304  0.00  0.00     0.009 C 
ENDBRANCH   7   8
ENDBRANCH   1   7
TORSDOF 2
ENDMDL
