MODEL 1
REMARK minimizedAffinity -1.86853004
REMARK minimizedRMSD -1
REMARK  2 active torsions:
REMARK  status: ('A' for Active; 'I' for Inactive)
REMARK    1  A    between atoms: C1_2  and  C2_3 
REMARK    2  A    between atoms: C2_3  and  C3_4 
ROOT
ATOM      1  C3  UNL d   1       0.568   3.673   0.641  0.00  0.00    -0.075 A 
ATOM      2  C4  UNL d   1       0.626   2.993   1.867  0.00  0.00     0.002 A 
ATOM      3  C5  UNL d   1       0.389   1.620   1.927  0.00  0.00     0.002 A 
ATOM      4  C6  UNL d   1       0.082   0.911   0.767  0.00  0.00    -0.004 A 
ATOM      5  C7  UNL d   1       0.006   1.579  -0.453  0.00  0.00     0.002 A 
ATOM      6  C8  UNL d   1       0.247   2.953  -0.517  0.00  0.00     0.002 A 
ENDROOT
BRANCH   1   7
ATOM      7  C2  UNL d   1       0.853   5.154   0.565  0.00  0.00     0.056 C 
BRANCH   7   8
ATOM      8  C1  UNL d   1      -0.352   5.999   0.140  0.00  0.00     0.007 C 
ATOM      9  C   UNL d   1      -1.478   5.999   1.165  0.00  0.00     0.009 C 
ENDBRANCH   7   8
ENDBRANCH   1   7
TORSDOF 2
ENDMDL
