MODEL 1
REMARK minimizedAffinity 0.767605841
REMARK minimizedRMSD -1
REMARK  2 active torsions:
REMARK  status: ('A' for Active; 'I' for Inactive)
REMARK    1  A    between atoms: C1_2  and  C2_3 
REMARK    2  A    between atoms: C2_3  and  C3_4 
ROOT
ATOM      1  C3  UNL d   1       0.082   1.621  -0.065  0.00  0.00    -0.075 A 
ATOM      2  C4  UNL d   1       0.092   1.788   1.327  0.00  0.00     0.002 A 
ATOM      3  C5  UNL d   1       0.452   0.733   2.165  0.00  0.00     0.002 A 
ATOM      4  C6  UNL d   1       0.797  -0.504   1.624  0.00  0.00    -0.004 A 
ATOM      5  C7  UNL d   1       0.775  -0.687   0.243  0.00  0.00     0.002 A 
ATOM      6  C8  UNL d   1       0.418   0.369  -0.598  0.00  0.00     0.002 A 
ENDROOT
BRANCH   1   7
ATOM      7  C2  UNL d   1      -0.279   2.767  -0.979  0.00  0.00     0.056 C 
BRANCH   7   8
ATOM      8  C1  UNL d   1       0.367   4.101  -0.591  0.00  0.00     0.007 C 
ATOM      9  C   UNL d   1       0.128   5.204  -1.614  0.00  0.00     0.009 C 
ENDBRANCH   7   8
ENDBRANCH   1   7
TORSDOF 2
ENDMDL
