MODEL 1
REMARK minimizedAffinity -4.950912
REMARK minimizedRMSD -1
REMARK  2 active torsions:
REMARK  status: ('A' for Active; 'I' for Inactive)
REMARK    1  A    between atoms: C1_2  and  C2_3 
REMARK    2  A    between atoms: C2_3  and  C3_4 
ROOT
ATOM      1  C3  UNL d   1      -0.407  -0.847   0.142  0.00  0.00    -0.075 A 
ATOM      2  C4  UNL d   1       0.319  -1.270  -0.981  0.00  0.00     0.002 A 
ATOM      3  C5  UNL d   1       0.533  -2.629  -1.215  0.00  0.00     0.002 A 
ATOM      4  C6  UNL d   1       0.033  -3.579  -0.327  0.00  0.00    -0.004 A 
ATOM      5  C7  UNL d   1      -0.675  -3.169   0.800  0.00  0.00     0.002 A 
ATOM      6  C8  UNL d   1      -0.894  -1.810   1.035  0.00  0.00     0.002 A 
ENDROOT
BRANCH   1   7
ATOM      7  C2  UNL d   1      -0.666   0.621   0.386  0.00  0.00     0.056 C 
BRANCH   7   8
ATOM      8  C1  UNL d   1       0.095   1.554  -0.561  0.00  0.00     0.007 C 
ATOM      9  C   UNL d   1       0.760   2.723   0.154  0.00  0.00     0.009 C 
ENDBRANCH   7   8
ENDBRANCH   1   7
TORSDOF 2
ENDMDL
