MODEL 1
REMARK minimizedAffinity -1.72128046
REMARK minimizedRMSD -1
REMARK  2 active torsions:
REMARK  status: ('A' for Active; 'I' for Inactive)
REMARK    1  A    between atoms: C1_2  and  C2_3 
REMARK    2  A    between atoms: C2_3  and  C3_4 
ROOT
ATOM      1  C3  UNL d   1      -1.908   0.237   0.886  0.00  0.00    -0.075 A 
ATOM      2  C4  UNL d   1      -1.102   1.254   1.418  0.00  0.00     0.002 A 
ATOM      3  C5  UNL d   1       0.016   1.710   0.719  0.00  0.00     0.002 A 
ATOM      4  C6  UNL d   1       0.347   1.151  -0.513  0.00  0.00    -0.004 A 
ATOM      5  C7  UNL d   1      -0.437   0.130  -1.044  0.00  0.00     0.002 A 
ATOM      6  C8  UNL d   1      -1.559  -0.326  -0.349  0.00  0.00     0.002 A 
ENDROOT
BRANCH   1   7
ATOM      7  C2  UNL d   1      -3.136  -0.241   1.623  0.00  0.00     0.056 C 
BRANCH   7   8
ATOM      8  C1  UNL d   1      -3.327   0.403   3.000  0.00  0.00     0.007 C 
ATOM      9  C   UNL d   1      -4.637   1.169   3.128  0.00  0.00     0.009 C 
ENDBRANCH   7   8
ENDBRANCH   1   7
TORSDOF 2
ENDMDL
