MODEL 1
REMARK minimizedAffinity -2.90665817
REMARK minimizedRMSD -1
REMARK  2 active torsions:
REMARK  status: ('A' for Active; 'I' for Inactive)
REMARK    1  A    between atoms: C1_2  and  C2_3 
REMARK    2  A    between atoms: C2_3  and  C3_4 
ROOT
ATOM      1  C3  UNL d   1      -0.011   1.388   0.349  0.00  0.00    -0.075 A 
ATOM      2  C4  UNL d   1       1.356   1.394   0.036  0.00  0.00     0.002 A 
ATOM      3  C5  UNL d   1       2.166   2.464   0.420  0.00  0.00     0.002 A 
ATOM      4  C6  UNL d   1       1.619   3.543   1.110  0.00  0.00    -0.004 A 
ATOM      5  C7  UNL d   1       0.258   3.555   1.412  0.00  0.00     0.002 A 
ATOM      6  C8  UNL d   1      -0.553   2.484   1.033  0.00  0.00     0.002 A 
ENDROOT
BRANCH   1   7
ATOM      7  C2  UNL d   1      -0.887   0.220  -0.038  0.00  0.00     0.056 C 
BRANCH   7   8
ATOM      8  C1  UNL d   1      -1.801  -0.274   1.088  0.00  0.00     0.007 C 
ATOM      9  C   UNL d   1      -1.069  -1.101   2.136  0.00  0.00     0.009 C 
ENDBRANCH   7   8
ENDBRANCH   1   7
TORSDOF 2
ENDMDL
