MODEL 1
REMARK minimizedAffinity -4.7801466
REMARK minimizedRMSD -1
REMARK  2 active torsions:
REMARK  status: ('A' for Active; 'I' for Inactive)
REMARK    1  A    between atoms: C1_2  and  C2_3 
REMARK    2  A    between atoms: C2_3  and  C3_4 
ROOT
ATOM      1  C3  UNL d   1      -0.095  -2.487  -0.363  0.00  0.00    -0.075 A 
ATOM      2  C4  UNL d   1      -0.886  -2.595   0.790  0.00  0.00     0.002 A 
ATOM      3  C5  UNL d   1      -1.096  -1.487   1.612  0.00  0.00     0.002 A 
ATOM      4  C6  UNL d   1      -0.510  -0.263   1.298  0.00  0.00    -0.004 A 
ATOM      5  C7  UNL d   1       0.292  -0.148   0.165  0.00  0.00     0.002 A 
ATOM      6  C8  UNL d   1       0.499  -1.254  -0.662  0.00  0.00     0.002 A 
ENDROOT
BRANCH   1   7
ATOM      7  C2  UNL d   1       0.111  -3.675  -1.273  0.00  0.00     0.056 C 
BRANCH   7   8
ATOM      8  C1  UNL d   1       0.267  -3.307  -2.752  0.00  0.00     0.007 C 
ATOM      9  C   UNL d   1      -1.060  -3.031  -3.446  0.00  0.00     0.009 C 
ENDBRANCH   7   8
ENDBRANCH   1   7
TORSDOF 2
ENDMDL
