MODEL 1
REMARK minimizedAffinity 1.95974374
REMARK minimizedRMSD -1
REMARK  2 active torsions:
REMARK  status: ('A' for Active; 'I' for Inactive)
REMARK    1  A    between atoms: C1_2  and  C2_3 
REMARK    2  A    between atoms: C2_3  and  C3_4 
ROOT
ATOM      1  C3  UNL d   1      -1.651  -1.122   2.774  0.00  0.00    -0.075 A 
ATOM      2  C4  UNL d   1      -2.378  -0.760   1.631  0.00  0.00     0.002 A 
ATOM      3  C5  UNL d   1      -1.773  -0.029   0.608  0.00  0.00     0.002 A 
ATOM      4  C6  UNL d   1      -0.439   0.357   0.720  0.00  0.00    -0.004 A 
ATOM      5  C7  UNL d   1       0.288   0.017   1.858  0.00  0.00     0.002 A 
ATOM      6  C8  UNL d   1      -0.314  -0.718   2.881  0.00  0.00     0.002 A 
ENDROOT
BRANCH   1   7
ATOM      7  C2  UNL d   1      -2.292  -1.939   3.871  0.00  0.00     0.056 C 
BRANCH   7   8
ATOM      8  C1  UNL d   1      -3.027  -1.101   4.923  0.00  0.00     0.007 C 
ATOM      9  C   UNL d   1      -3.701  -1.945   5.997  0.00  0.00     0.009 C 
ENDBRANCH   7   8
ENDBRANCH   1   7
TORSDOF 2
ENDMDL
