MODEL 1
REMARK minimizedAffinity -5.70718288
REMARK minimizedRMSD -1
REMARK  2 active torsions:
REMARK  status: ('A' for Active; 'I' for Inactive)
REMARK    1  A    between atoms: C1_2  and  C2_3 
REMARK    2  A    between atoms: C2_3  and  C3_4 
ROOT
ATOM      1  C3  UNL d   1      -0.015  -1.074   0.263  0.00  0.00    -0.075 A 
ATOM      2  C4  UNL d   1       0.273  -1.227  -1.101  0.00  0.00     0.002 A 
ATOM      3  C5  UNL d   1       0.267  -2.492  -1.689  0.00  0.00     0.002 A 
ATOM      4  C6  UNL d   1      -0.016  -3.619  -0.921  0.00  0.00    -0.004 A 
ATOM      5  C7  UNL d   1      -0.288  -3.481   0.439  0.00  0.00     0.002 A 
ATOM      6  C8  UNL d   1      -0.287  -2.216   1.028  0.00  0.00     0.002 A 
ENDROOT
BRANCH   1   7
ATOM      7  C2  UNL d   1      -0.040   0.295   0.898  0.00  0.00     0.056 C 
BRANCH   7   8
ATOM      8  C1  UNL d   1       0.046   1.450  -0.105  0.00  0.00     0.007 C 
ATOM      9  C   UNL d   1       1.139   2.456   0.229  0.00  0.00     0.009 C 
ENDBRANCH   7   8
ENDBRANCH   1   7
TORSDOF 2
ENDMDL
