MODEL 1
REMARK minimizedAffinity 2.67448354
REMARK minimizedRMSD -1
REMARK  2 active torsions:
REMARK  status: ('A' for Active; 'I' for Inactive)
REMARK    1  A    between atoms: C1_2  and  C2_3 
REMARK    2  A    between atoms: C2_3  and  C3_4 
ROOT
ATOM      1  C3  UNL d   1      -1.136  -0.320  -0.016  0.00  0.00    -0.075 A 
ATOM      2  C4  UNL d   1      -1.213  -1.396  -0.911  0.00  0.00     0.002 A 
ATOM      3  C5  UNL d   1      -1.622  -2.656  -0.471  0.00  0.00     0.002 A 
ATOM      4  C6  UNL d   1      -1.948  -2.857   0.868  0.00  0.00    -0.004 A 
ATOM      5  C7  UNL d   1      -1.859  -1.799   1.770  0.00  0.00     0.002 A 
ATOM      6  C8  UNL d   1      -1.455  -0.536   1.332  0.00  0.00     0.002 A 
ENDROOT
BRANCH   1   7
ATOM      7  C2  UNL d   1      -0.723   1.053  -0.491  0.00  0.00     0.056 C 
BRANCH   7   8
ATOM      8  C1  UNL d   1       0.263   1.765   0.440  0.00  0.00     0.007 C 
ATOM      9  C   UNL d   1      -0.059   3.240   0.641  0.00  0.00     0.009 C 
ENDBRANCH   7   8
ENDBRANCH   1   7
TORSDOF 2
ENDMDL
