MODEL 1
REMARK minimizedAffinity 2.45135498
REMARK minimizedRMSD -1
REMARK  2 active torsions:
REMARK  status: ('A' for Active; 'I' for Inactive)
REMARK    1  A    between atoms: C1_2  and  C2_3 
REMARK    2  A    between atoms: C2_3  and  C3_4 
ROOT
ATOM      1  C3  UNL d   1      -0.122   1.372   0.835  0.00  0.00    -0.075 A 
ATOM      2  C4  UNL d   1      -1.215   1.287  -0.039  0.00  0.00     0.002 A 
ATOM      3  C5  UNL d   1      -2.280   0.432   0.240  0.00  0.00     0.002 A 
ATOM      4  C6  UNL d   1      -2.263  -0.356   1.389  0.00  0.00    -0.004 A 
ATOM      5  C7  UNL d   1      -1.174  -0.292   2.256  0.00  0.00     0.002 A 
ATOM      6  C8  UNL d   1      -0.108   0.567   1.982  0.00  0.00     0.002 A 
ENDROOT
BRANCH   1   7
ATOM      7  C2  UNL d   1       1.021   2.318   0.554  0.00  0.00     0.056 C 
BRANCH   7   8
ATOM      8  C1  UNL d   1       0.767   3.758   1.012  0.00  0.00     0.007 C 
ATOM      9  C   UNL d   1       2.047   4.552   1.238  0.00  0.00     0.009 C 
ENDBRANCH   7   8
ENDBRANCH   1   7
TORSDOF 2
ENDMDL
