MODEL 1
REMARK minimizedAffinity -4.03133821
REMARK minimizedRMSD -1
REMARK  2 active torsions:
REMARK  status: ('A' for Active; 'I' for Inactive)
REMARK    1  A    between atoms: C1_2  and  C2_3 
REMARK    2  A    between atoms: C2_3  and  C3_4 
ROOT
ATOM      1  C3  UNL d   1      -0.483  -0.616  -0.095  0.00  0.00    -0.075 A 
ATOM      2  C4  UNL d   1      -0.013  -0.955  -1.372  0.00  0.00     0.002 A 
ATOM      3  C5  UNL d   1       0.075  -2.291  -1.762  0.00  0.00     0.002 A 
ATOM      4  C6  UNL d   1      -0.294  -3.304  -0.880  0.00  0.00    -0.004 A 
ATOM      5  C7  UNL d   1      -0.747  -2.979   0.397  0.00  0.00     0.002 A 
ATOM      6  C8  UNL d   1      -0.841  -1.643   0.789  0.00  0.00     0.002 A 
ENDROOT
BRANCH   1   7
ATOM      7  C2  UNL d   1      -0.609   0.830   0.324  0.00  0.00     0.056 C 
BRANCH   7   8
ATOM      8  C1  UNL d   1       0.724   1.583   0.373  0.00  0.00     0.007 C 
ATOM      9  C   UNL d   1       0.664   2.856   1.207  0.00  0.00     0.009 C 
ENDBRANCH   7   8
ENDBRANCH   1   7
TORSDOF 2
ENDMDL
