MODEL 1
REMARK minimizedAffinity -5.87010384
REMARK minimizedRMSD -1
REMARK  2 active torsions:
REMARK  status: ('A' for Active; 'I' for Inactive)
REMARK    1  A    between atoms: C1_2  and  C2_3 
REMARK    2  A    between atoms: C2_3  and  C3_4 
ROOT
ATOM      1  C3  UNL d   1       0.384   3.429   1.787  0.00  0.00    -0.075 A 
ATOM      2  C4  UNL d   1       1.567   3.975   1.268  0.00  0.00     0.002 A 
ATOM      3  C5  UNL d   1       2.007   3.629  -0.010  0.00  0.00     0.002 A 
ATOM      4  C6  UNL d   1       1.277   2.727  -0.780  0.00  0.00    -0.004 A 
ATOM      5  C7  UNL d   1       0.109   2.166  -0.269  0.00  0.00     0.002 A 
ATOM      6  C8  UNL d   1      -0.336   2.513   1.008  0.00  0.00     0.002 A 
ENDROOT
BRANCH   1   7
ATOM      7  C2  UNL d   1      -0.112   3.822   3.158  0.00  0.00     0.056 C 
BRANCH   7   8
ATOM      8  C1  UNL d   1      -0.234   5.335   3.367  0.00  0.00     0.007 C 
ATOM      9  C   UNL d   1      -1.655   5.853   3.188  0.00  0.00     0.009 C 
ENDBRANCH   7   8
ENDBRANCH   1   7
TORSDOF 2
ENDMDL
