MODEL 1
REMARK minimizedAffinity 2.98579645
REMARK minimizedRMSD -1
REMARK  2 active torsions:
REMARK  status: ('A' for Active; 'I' for Inactive)
REMARK    1  A    between atoms: C1_2  and  C2_3 
REMARK    2  A    between atoms: C2_3  and  C3_4 
ROOT
ATOM      1  C3  UNL d   1      -1.143  -0.301   0.386  0.00  0.00    -0.075 A 
ATOM      2  C4  UNL d   1      -1.662   0.344   1.518  0.00  0.00     0.002 A 
ATOM      3  C5  UNL d   1      -2.153  -0.397   2.593  0.00  0.00     0.002 A 
ATOM      4  C6  UNL d   1      -2.141  -1.789   2.546  0.00  0.00    -0.004 A 
ATOM      5  C7  UNL d   1      -1.644  -2.441   1.420  0.00  0.00     0.002 A 
ATOM      6  C8  UNL d   1      -1.148  -1.702   0.344  0.00  0.00     0.002 A 
ENDROOT
BRANCH   1   7
ATOM      7  C2  UNL d   1      -0.583   0.495  -0.769  0.00  0.00     0.056 C 
BRANCH   7   8
ATOM      8  C1  UNL d   1       0.710  -0.082  -1.355  0.00  0.00     0.007 C 
ATOM      9  C   UNL d   1       0.545  -0.599  -2.778  0.00  0.00     0.009 C 
ENDBRANCH   7   8
ENDBRANCH   1   7
TORSDOF 2
ENDMDL
