MODEL 1
REMARK minimizedAffinity -4.19887924
REMARK minimizedRMSD -1
REMARK  2 active torsions:
REMARK  status: ('A' for Active; 'I' for Inactive)
REMARK    1  A    between atoms: C1_2  and  C2_3 
REMARK    2  A    between atoms: C2_3  and  C3_4 
ROOT
ATOM      1  C3  UNL d   1      -0.087  -0.927  -0.731  0.00  0.00    -0.075 A 
ATOM      2  C4  UNL d   1       0.244  -1.069  -2.087  0.00  0.00     0.002 A 
ATOM      3  C5  UNL d   1       0.229  -2.326  -2.692  0.00  0.00     0.002 A 
ATOM      4  C6  UNL d   1      -0.106  -3.456  -1.949  0.00  0.00    -0.004 A 
ATOM      5  C7  UNL d   1      -0.421  -3.329  -0.598  0.00  0.00     0.002 A 
ATOM      6  C8  UNL d   1      -0.411  -2.072   0.009  0.00  0.00     0.002 A 
ENDROOT
BRANCH   1   7
ATOM      7  C2  UNL d   1      -0.102   0.434  -0.078  0.00  0.00     0.056 C 
BRANCH   7   8
ATOM      8  C1  UNL d   1      -0.073   1.602  -1.069  0.00  0.00     0.007 C 
ATOM      9  C   UNL d   1       0.671   2.821  -0.539  0.00  0.00     0.009 C 
ENDBRANCH   7   8
ENDBRANCH   1   7
TORSDOF 2
ENDMDL
