MODEL 1
REMARK minimizedAffinity -5.03322029
REMARK minimizedRMSD -1
REMARK  2 active torsions:
REMARK  status: ('A' for Active; 'I' for Inactive)
REMARK    1  A    between atoms: C1_2  and  C2_3 
REMARK    2  A    between atoms: C2_3  and  C3_4 
ROOT
ATOM      1  C3  UNL d   1      -0.154  -1.937  -0.024  0.00  0.00    -0.075 A 
ATOM      2  C4  UNL d   1      -0.906  -2.320   1.097  0.00  0.00     0.002 A 
ATOM      3  C5  UNL d   1      -1.541  -1.360   1.885  0.00  0.00     0.002 A 
ATOM      4  C6  UNL d   1      -1.426  -0.008   1.570  0.00  0.00    -0.004 A 
ATOM      5  C7  UNL d   1      -0.668   0.385   0.469  0.00  0.00     0.002 A 
ATOM      6  C8  UNL d   1      -0.035  -0.573  -0.324  0.00  0.00     0.002 A 
ENDROOT
BRANCH   1   7
ATOM      7  C2  UNL d   1       0.511  -2.972  -0.898  0.00  0.00     0.056 C 
BRANCH   7   8
ATOM      8  C1  UNL d   1       0.022  -2.971  -2.350  0.00  0.00     0.007 C 
ATOM      9  C   UNL d   1       1.040  -2.397  -3.326  0.00  0.00     0.009 C 
ENDBRANCH   7   8
ENDBRANCH   1   7
TORSDOF 2
ENDMDL
