MODEL 1
REMARK minimizedAffinity -4.06975746
REMARK minimizedRMSD -1
REMARK  2 active torsions:
REMARK  status: ('A' for Active; 'I' for Inactive)
REMARK    1  A    between atoms: C1_2  and  C2_3 
REMARK    2  A    between atoms: C2_3  and  C3_4 
ROOT
ATOM      1  C3  UNL d   1      -0.330  -2.193  -0.348  0.00  0.00    -0.075 A 
ATOM      2  C4  UNL d   1      -0.714  -2.789   0.862  0.00  0.00     0.002 A 
ATOM      3  C5  UNL d   1      -1.223  -2.014   1.904  0.00  0.00     0.002 A 
ATOM      4  C6  UNL d   1      -1.344  -0.634   1.754  0.00  0.00    -0.004 A 
ATOM      5  C7  UNL d   1      -0.951  -0.029   0.563  0.00  0.00     0.002 A 
ATOM      6  C8  UNL d   1      -0.446  -0.803  -0.483  0.00  0.00     0.002 A 
ENDROOT
BRANCH   1   7
ATOM      7  C2  UNL d   1       0.193  -3.030  -1.490  0.00  0.00     0.056 C 
BRANCH   7   8
ATOM      8  C1  UNL d   1       0.402  -2.249  -2.792  0.00  0.00     0.007 C 
ATOM      9  C   UNL d   1       1.643  -2.683  -3.560  0.00  0.00     0.009 C 
ENDBRANCH   7   8
ENDBRANCH   1   7
TORSDOF 2
ENDMDL
