MODEL 1
REMARK minimizedAffinity -5.97090387
REMARK minimizedRMSD -1
REMARK  2 active torsions:
REMARK  status: ('A' for Active; 'I' for Inactive)
REMARK    1  A    between atoms: C1_2  and  C2_3 
REMARK    2  A    between atoms: C2_3  and  C3_4 
ROOT
ATOM      1  C3  UNL d   1      -0.117  -0.413  -0.337  0.00  0.00    -0.075 A 
ATOM      2  C4  UNL d   1       0.064  -1.086  -1.553  0.00  0.00     0.002 A 
ATOM      3  C5  UNL d   1      -0.027  -2.477  -1.613  0.00  0.00     0.002 A 
ATOM      4  C6  UNL d   1      -0.289  -3.211  -0.459  0.00  0.00    -0.004 A 
ATOM      5  C7  UNL d   1      -0.454  -2.554   0.759  0.00  0.00     0.002 A 
ATOM      6  C8  UNL d   1      -0.368  -1.162   0.821  0.00  0.00     0.002 A 
ENDROOT
BRANCH   1   7
ATOM      7  C2  UNL d   1      -0.049   1.094  -0.270  0.00  0.00     0.056 C 
BRANCH   7   8
ATOM      8  C1  UNL d   1       1.235   1.634   0.368  0.00  0.00     0.007 C 
ATOM      9  C   UNL d   1       1.232   3.147   0.538  0.00  0.00     0.009 C 
ENDBRANCH   7   8
ENDBRANCH   1   7
TORSDOF 2
ENDMDL
