MODEL 1
REMARK minimizedAffinity -3.40011692
REMARK minimizedRMSD -1
REMARK  0 active torsions:
REMARK  status: ('A' for Active; 'I' for Inactive)
ROOT
ATOM      1  O1  BZF d   1       3.036  -0.299   0.937  0.00  0.00    -0.204 OA
ATOM      2  C2  BZF d   1       3.471  -1.573   0.629  0.00  0.00     0.174 A 
ATOM      3  C3  BZF d   1       2.487  -2.287   0.046  0.00  0.00    -0.012 A 
ATOM      4  C3A BZF d   1       1.394  -1.374  -0.098  0.00  0.00    -0.107 A 
ATOM      5  C4  BZF d   1       0.139  -1.487  -0.623  0.00  0.00     0.055 A 
ATOM      6  C5  BZF d   1      -0.709  -0.428  -0.543  0.00  0.00    -0.016 A 
ATOM      7  C6  BZF d   1      -0.336   0.756   0.059  0.00  0.00     0.022 A 
ATOM      8  C7  BZF d   1       0.900   0.918   0.590  0.00  0.00     0.029 A 
ATOM      9  C7A BZF d   1       1.770  -0.140   0.481  0.00  0.00     0.058 A 
ENDROOT
TORSDOF 0
ENDMDL
