MODEL 1
REMARK minimizedAffinity -5.74667597
REMARK minimizedRMSD -1
REMARK  0 active torsions:
REMARK  status: ('A' for Active; 'I' for Inactive)
ROOT
ATOM      1  O1  BZF d   1      -0.061   1.165  -0.316  0.00  0.00    -0.204 OA
ATOM      2  C2  BZF d   1      -1.064   0.274   0.017  0.00  0.00     0.174 A 
ATOM      3  C3  BZF d   1      -0.546  -0.850   0.553  0.00  0.00    -0.012 A 
ATOM      4  C3A BZF d   1       0.862  -0.611   0.641  0.00  0.00    -0.107 A 
ATOM      5  C4  BZF d   1       1.912  -1.350   1.105  0.00  0.00     0.055 A 
ATOM      6  C5  BZF d   1       3.173  -0.858   0.980  0.00  0.00    -0.016 A 
ATOM      7  C6  BZF d   1       3.419   0.367   0.394  0.00  0.00     0.022 A 
ATOM      8  C7  BZF d   1       2.409   1.138  -0.076  0.00  0.00     0.029 A 
ATOM      9  C7A BZF d   1       1.131   0.658   0.078  0.00  0.00     0.058 A 
ENDROOT
TORSDOF 0
ENDMDL
