MODEL 1
REMARK minimizedAffinity -3.89961982
REMARK minimizedRMSD -1
REMARK  0 active torsions:
REMARK  status: ('A' for Active; 'I' for Inactive)
ROOT
ATOM      1  O1  BZF d   1       2.255  -1.790  -0.482  0.00  0.00    -0.204 OA
ATOM      2  C2  BZF d   1       3.073  -1.112   0.401  0.00  0.00     0.174 A 
ATOM      3  C3  BZF d   1       2.448  -0.024   0.893  0.00  0.00    -0.012 A 
ATOM      4  C3A BZF d   1       1.125  -0.072   0.351  0.00  0.00    -0.107 A 
ATOM      5  C4  BZF d   1       0.025   0.726   0.484  0.00  0.00     0.055 A 
ATOM      6  C5  BZF d   1      -1.090   0.441  -0.238  0.00  0.00    -0.016 A 
ATOM      7  C6  BZF d   1      -1.139  -0.630  -1.106  0.00  0.00     0.022 A 
ATOM      8  C7  BZF d   1      -0.075  -1.454  -1.268  0.00  0.00     0.029 A 
ATOM      9  C7A BZF d   1       1.042  -1.188  -0.515  0.00  0.00     0.058 A 
ENDROOT
TORSDOF 0
ENDMDL
