MODEL 1
REMARK minimizedAffinity 0.989826262
REMARK minimizedRMSD -1
REMARK  0 active torsions:
REMARK  status: ('A' for Active; 'I' for Inactive)
ROOT
ATOM      1  O1  BZF d   1      -1.256   1.423   0.861  0.00  0.00    -0.204 OA
ATOM      2  C2  BZF d   1      -2.402   0.942   0.258  0.00  0.00     0.174 A 
ATOM      3  C3  BZF d   1      -2.108  -0.057  -0.599  0.00  0.00    -0.012 A 
ATOM      4  C3A BZF d   1      -0.701  -0.273  -0.457  0.00  0.00    -0.107 A 
ATOM      5  C4  BZF d   1       0.178  -1.145  -1.033  0.00  0.00     0.055 A 
ATOM      6  C5  BZF d   1       1.499  -1.047  -0.731  0.00  0.00    -0.016 A 
ATOM      7  C6  BZF d   1       1.976  -0.087   0.136  0.00  0.00     0.022 A 
ATOM      8  C7  BZF d   1       1.143   0.797   0.736  0.00  0.00     0.029 A 
ATOM      9  C7A BZF d   1      -0.198   0.679   0.459  0.00  0.00     0.058 A 
ENDROOT
TORSDOF 0
ENDMDL
