MODEL 1
REMARK minimizedAffinity -5.52401495
REMARK minimizedRMSD -1
REMARK  0 active torsions:
REMARK  status: ('A' for Active; 'I' for Inactive)
ROOT
ATOM      1  O1  BZF d   1       0.134   1.151  -0.121  0.00  0.00    -0.204 OA
ATOM      2  C2  BZF d   1      -0.816   0.424  -0.811  0.00  0.00     0.174 A 
ATOM      3  C3  BZF d   1      -0.485  -0.883  -0.848  0.00  0.00    -0.012 A 
ATOM      4  C3A BZF d   1       0.702  -0.993  -0.057  0.00  0.00    -0.107 A 
ATOM      5  C4  BZF d   1       1.501  -2.042   0.297  0.00  0.00     0.055 A 
ATOM      6  C5  BZF d   1       2.627  -1.802   1.019  0.00  0.00    -0.016 A 
ATOM      7  C6  BZF d   1       2.986  -0.525   1.400  0.00  0.00     0.022 A 
ATOM      8  C7  BZF d   1       2.223   0.547   1.077  0.00  0.00     0.029 A 
ATOM      9  C7A BZF d   1       1.067   0.303   0.375  0.00  0.00     0.058 A 
ENDROOT
TORSDOF 0
ENDMDL
