MODEL 1
REMARK minimizedAffinity 0.0224933829
REMARK minimizedRMSD -1
REMARK  0 active torsions:
REMARK  status: ('A' for Active; 'I' for Inactive)
ROOT
ATOM      1  O1  BZF d   1       3.240   1.023  -0.255  0.00  0.00    -0.204 OA
ATOM      2  C2  BZF d   1       3.780  -0.248  -0.294  0.00  0.00     0.174 A 
ATOM      3  C3  BZF d   1       2.812  -1.182  -0.196  0.00  0.00    -0.012 A 
ATOM      4  C3A BZF d   1       1.582  -0.450  -0.181  0.00  0.00    -0.107 A 
ATOM      5  C4  BZF d   1       0.270  -0.821  -0.114  0.00  0.00     0.055 A 
ATOM      6  C5  BZF d   1      -0.686   0.143  -0.045  0.00  0.00    -0.016 A 
ATOM      7  C6  BZF d   1      -0.365   1.484  -0.037  0.00  0.00     0.022 A 
ATOM      8  C7  BZF d   1       0.923   1.901  -0.107  0.00  0.00     0.029 A 
ATOM      9  C7A BZF d   1       1.889   0.930  -0.209  0.00  0.00     0.058 A 
ENDROOT
TORSDOF 0
ENDMDL
