MODEL 1
REMARK minimizedAffinity -5.15935946
REMARK minimizedRMSD -1
REMARK  0 active torsions:
REMARK  status: ('A' for Active; 'I' for Inactive)
ROOT
ATOM      1  O1  BZF d   1       0.217   1.512   0.367  0.00  0.00    -0.204 OA
ATOM      2  C2  BZF d   1      -1.055   1.201  -0.073  0.00  0.00     0.174 A 
ATOM      3  C3  BZF d   1      -1.185  -0.129  -0.256  0.00  0.00    -0.012 A 
ATOM      4  C3A BZF d   1       0.056  -0.692   0.179  0.00  0.00    -0.107 A 
ATOM      5  C4  BZF d   1       0.531  -1.970   0.257  0.00  0.00     0.055 A 
ATOM      6  C5  BZF d   1       1.813  -2.175   0.658  0.00  0.00    -0.016 A 
ATOM      7  C6  BZF d   1       2.648  -1.126   0.984  0.00  0.00     0.022 A 
ATOM      8  C7  BZF d   1       2.220   0.158   0.928  0.00  0.00     0.029 A 
ATOM      9  C7A BZF d   1       0.915   0.367   0.554  0.00  0.00     0.058 A 
ENDROOT
TORSDOF 0
ENDMDL
