MODEL 1
REMARK minimizedAffinity -1.85975373
REMARK minimizedRMSD -1
REMARK  0 active torsions:
REMARK  status: ('A' for Active; 'I' for Inactive)
ROOT
ATOM      1  O1  BZF d   1       2.658  -1.674   0.665  0.00  0.00    -0.204 OA
ATOM      2  C2  BZF d   1       3.156  -0.688   1.494  0.00  0.00     0.174 A 
ATOM      3  C3  BZF d   1       2.341   0.386   1.505  0.00  0.00    -0.012 A 
ATOM      4  C3A BZF d   1       1.218   0.014   0.700  0.00  0.00    -0.107 A 
ATOM      5  C4  BZF d   1       0.065   0.653   0.343  0.00  0.00     0.055 A 
ATOM      6  C5  BZF d   1      -0.792   0.040  -0.515  0.00  0.00    -0.016 A 
ATOM      7  C6  BZF d   1      -0.525  -1.207  -1.040  0.00  0.00     0.022 A 
ATOM      8  C7  BZF d   1       0.603  -1.882  -0.712  0.00  0.00     0.029 A 
ATOM      9  C7A BZF d   1       1.455  -1.280   0.181  0.00  0.00     0.058 A 
ENDROOT
TORSDOF 0
ENDMDL
