MODEL 1
REMARK minimizedAffinity 0.325960338
REMARK minimizedRMSD -1
REMARK  0 active torsions:
REMARK  status: ('A' for Active; 'I' for Inactive)
ROOT
ATOM      1  C2' OXE d   1       0.528   0.810  -0.705  0.00  0.00     0.078 C 
ATOM      2  C1' OXE d   1       0.683   2.015   1.826  0.00  0.00     0.078 C 
ATOM      3  C1  OXE d   1       0.564   2.917   0.623  0.00  0.00    -0.078 A 
ATOM      4  C2  OXE d   1       0.536   2.321  -0.615  0.00  0.00    -0.078 A 
ATOM      5  C3  OXE d   1       0.371   3.104  -1.754  0.00  0.00     0.003 A 
ATOM      6  C4  OXE d   1       0.389   4.501  -1.662  0.00  0.00    -0.002 A 
ATOM      7  C5  OXE d   1       0.457   5.130  -0.414  0.00  0.00    -0.002 A 
ATOM      8  C6  OXE d   1       0.502   4.353   0.738  0.00  0.00     0.003 A 
ENDROOT
TORSDOF 0
ENDMDL
