MODEL 1
REMARK minimizedAffinity -1.25284636
REMARK minimizedRMSD -1
REMARK  0 active torsions:
REMARK  status: ('A' for Active; 'I' for Inactive)
ROOT
ATOM      1  C2' OXE d   1       0.291   3.702  -1.114  0.00  0.00     0.078 C 
ATOM      2  C1' OXE d   1       0.367   0.970  -1.757  0.00  0.00     0.078 C 
ATOM      3  C1  OXE d   1       0.412   1.352  -0.298  0.00  0.00    -0.078 A 
ATOM      4  C2  OXE d   1       0.421   2.692   0.005  0.00  0.00    -0.078 A 
ATOM      5  C3  OXE d   1       0.407   3.097   1.337  0.00  0.00     0.003 A 
ATOM      6  C4  OXE d   1       0.538   2.157   2.366  0.00  0.00    -0.002 A 
ATOM      7  C5  OXE d   1       0.570   0.789   2.077  0.00  0.00    -0.002 A 
ATOM      8  C6  OXE d   1       0.465   0.368   0.756  0.00  0.00     0.003 A 
ENDROOT
TORSDOF 0
ENDMDL
