MODEL 1
REMARK minimizedAffinity 9.71236992
REMARK minimizedRMSD -1
REMARK  0 active torsions:
REMARK  status: ('A' for Active; 'I' for Inactive)
ROOT
ATOM      1  C2' OXE d   1       5.495  -6.000  -1.466  0.00  0.00     0.078 C 
ATOM      2  C1' OXE d   1       3.983  -4.353  -3.163  0.00  0.00     0.078 C 
ATOM      3  C1  OXE d   1       3.370  -4.755  -1.845  0.00  0.00    -0.078 A 
ATOM      4  C2  OXE d   1       4.098  -5.600  -1.042  0.00  0.00    -0.078 A 
ATOM      5  C3  OXE d   1       3.603  -5.958   0.209  0.00  0.00     0.003 A 
ATOM      6  C4  OXE d   1       2.307  -5.592   0.590  0.00  0.00    -0.002 A 
ATOM      7  C5  OXE d   1       1.533  -4.765  -0.231  0.00  0.00    -0.002 A 
ATOM      8  C6  OXE d   1       2.065  -4.304  -1.430  0.00  0.00     0.003 A 
ENDROOT
TORSDOF 0
ENDMDL
