MODEL 1
REMARK minimizedAffinity 5.12403107
REMARK minimizedRMSD -1
REMARK  0 active torsions:
REMARK  status: ('A' for Active; 'I' for Inactive)
ROOT
ATOM      1  C2' OXE d   1       2.259   3.024   3.497  0.00  0.00     0.078 C 
ATOM      2  C1' OXE d   1       0.554   1.161   2.272  0.00  0.00     0.078 C 
ATOM      3  C1  OXE d   1       0.870   2.428   1.517  0.00  0.00    -0.078 A 
ATOM      4  C2  OXE d   1       1.668   3.355   2.144  0.00  0.00    -0.078 A 
ATOM      5  C3  OXE d   1       2.034   4.516   1.470  0.00  0.00     0.003 A 
ATOM      6  C4  OXE d   1       1.475   4.819   0.223  0.00  0.00    -0.002 A 
ATOM      7  C5  OXE d   1       0.629   3.906  -0.416  0.00  0.00    -0.002 A 
ATOM      8  C6  OXE d   1       0.351   2.690   0.198  0.00  0.00     0.003 A 
ENDROOT
TORSDOF 0
ENDMDL
