MODEL 1
REMARK minimizedAffinity -1.1960907
REMARK minimizedRMSD -1
REMARK  3 active torsions:
REMARK  status: ('A' for Active; 'I' for Inactive)
REMARK    1  A    between atoms: C3'_2  and  C2'_3 
REMARK    2  A    between atoms: C2'_3  and  C1'_4 
REMARK    3  A    between atoms: C1'_4  and  C1_5 
ROOT
ATOM      1  C1  N4B d   1      -4.591  -2.689  -2.851  0.00  0.00    -0.075 A 
ATOM      2  C2  N4B d   1      -5.161  -3.266  -1.695  0.00  0.00     0.002 A 
ATOM      3  C3  N4B d   1      -5.262  -4.631  -1.587  0.00  0.00     0.002 A 
ATOM      4  C4  N4B d   1      -4.819  -5.436  -2.626  0.00  0.00    -0.004 A 
ATOM      5  C5  N4B d   1      -4.247  -4.872  -3.729  0.00  0.00     0.002 A 
ATOM      6  C6  N4B d   1      -4.136  -3.501  -3.849  0.00  0.00     0.002 A 
ENDROOT
BRANCH   1   7
ATOM      7  C1' N4B d   1      -4.538  -1.199  -3.052  0.00  0.00     0.057 C 
BRANCH   7   8
ATOM      8  C2' N4B d   1      -3.185  -0.678  -2.575  0.00  0.00     0.009 C 
BRANCH   8   9
ATOM      9  C3' N4B d   1      -3.136   0.840  -2.556  0.00  0.00     0.004 C 
ATOM     10  C4' N4B d   1      -4.304   1.468  -3.257  0.00  0.00     0.003 C 
ENDBRANCH   8   9
ENDBRANCH   7   8
ENDBRANCH   1   7
TORSDOF 3
ENDMDL
