MODEL 1
REMARK minimizedAffinity -1.36291885
REMARK minimizedRMSD -1
REMARK  3 active torsions:
REMARK  status: ('A' for Active; 'I' for Inactive)
REMARK    1  A    between atoms: C3'_2  and  C2'_3 
REMARK    2  A    between atoms: C2'_3  and  C1'_4 
REMARK    3  A    between atoms: C1'_4  and  C1_5 
ROOT
ATOM      1  C1  N4B d   1      -5.882  -4.653  -4.052  0.00  0.00    -0.075 A 
ATOM      2  C2  N4B d   1      -5.659  -5.906  -3.440  0.00  0.00     0.002 A 
ATOM      3  C3  N4B d   1      -5.553  -5.994  -2.074  0.00  0.00     0.002 A 
ATOM      4  C4  N4B d   1      -5.646  -4.844  -1.304  0.00  0.00    -0.004 A 
ATOM      5  C5  N4B d   1      -5.886  -3.641  -1.901  0.00  0.00     0.002 A 
ATOM      6  C6  N4B d   1      -5.999  -3.539  -3.273  0.00  0.00     0.002 A 
ENDROOT
BRANCH   1   7
ATOM      7  C1' N4B d   1      -5.920  -4.496  -5.548  0.00  0.00     0.057 C 
BRANCH   7   8
ATOM      8  C2' N4B d   1      -4.704  -3.691  -5.997  0.00  0.00     0.009 C 
BRANCH   8   9
ATOM      9  C3' N4B d   1      -3.427  -4.513  -5.944  0.00  0.00     0.004 C 
ATOM     10  C4' N4B d   1      -3.684  -5.989  -5.997  0.00  0.00     0.003 C 
ENDBRANCH   8   9
ENDBRANCH   7   8
ENDBRANCH   1   7
TORSDOF 3
ENDMDL
