MODEL 1
REMARK minimizedAffinity 4.27581167
REMARK minimizedRMSD -1
REMARK  3 active torsions:
REMARK  status: ('A' for Active; 'I' for Inactive)
REMARK    1  A    between atoms: C3'_2  and  C2'_3 
REMARK    2  A    between atoms: C2'_3  and  C1'_4 
REMARK    3  A    between atoms: C1'_4  and  C1_5 
ROOT
ATOM      1  C1  N4B d   1      -4.542  -5.109  -3.569  0.00  0.00    -0.075 A 
ATOM      2  C2  N4B d   1      -4.522  -3.750  -3.187  0.00  0.00     0.002 A 
ATOM      3  C3  N4B d   1      -5.241  -3.333  -2.093  0.00  0.00     0.002 A 
ATOM      4  C4  N4B d   1      -5.999  -4.250  -1.381  0.00  0.00    -0.004 A 
ATOM      5  C5  N4B d   1      -5.994  -5.566  -1.742  0.00  0.00     0.002 A 
ATOM      6  C6  N4B d   1      -5.273  -6.000  -2.836  0.00  0.00     0.002 A 
ENDROOT
BRANCH   1   7
ATOM      7  C1' N4B d   1      -3.841  -5.597  -4.808  0.00  0.00     0.057 C 
BRANCH   7   8
ATOM      8  C2' N4B d   1      -4.789  -5.481  -5.998  0.00  0.00     0.009 C 
BRANCH   8   9
ATOM      9  C3' N4B d   1      -5.980  -4.590  -5.691  0.00  0.00     0.004 C 
ATOM     10  C4' N4B d   1      -5.719  -3.145  -5.996  0.00  0.00     0.003 C 
ENDBRANCH   8   9
ENDBRANCH   7   8
ENDBRANCH   1   7
TORSDOF 3
ENDMDL
