MODEL 1
REMARK minimizedAffinity 2.16930246
REMARK minimizedRMSD -1
REMARK  3 active torsions:
REMARK  status: ('A' for Active; 'I' for Inactive)
REMARK    1  A    between atoms: C3'_2  and  C2'_3 
REMARK    2  A    between atoms: C2'_3  and  C1'_4 
REMARK    3  A    between atoms: C1'_4  and  C1_5 
ROOT
ATOM      1  C1  N4B d   1      -5.815  -4.180  -4.412  0.00  0.00    -0.075 A 
ATOM      2  C2  N4B d   1      -6.000  -5.048  -3.313  0.00  0.00     0.002 A 
ATOM      3  C3  N4B d   1      -5.759  -4.600  -2.037  0.00  0.00     0.002 A 
ATOM      4  C4  N4B d   1      -5.316  -3.301  -1.838  0.00  0.00    -0.004 A 
ATOM      5  C5  N4B d   1      -5.165  -2.462  -2.903  0.00  0.00     0.002 A 
ATOM      6  C6  N4B d   1      -5.407  -2.896  -4.190  0.00  0.00     0.002 A 
ENDROOT
BRANCH   1   7
ATOM      7  C1' N4B d   1      -5.983  -4.649  -5.832  0.00  0.00     0.057 C 
BRANCH   7   8
ATOM      8  C2' N4B d   1      -5.290  -5.999  -5.998  0.00  0.00     0.009 C 
BRANCH   8   9
ATOM      9  C3' N4B d   1      -3.777  -5.867  -5.981  0.00  0.00     0.004 C 
ATOM     10  C4' N4B d   1      -3.198  -5.999  -4.604  0.00  0.00     0.003 C 
ENDBRANCH   8   9
ENDBRANCH   7   8
ENDBRANCH   1   7
TORSDOF 3
ENDMDL
