MODEL 1
REMARK minimizedAffinity -0.387063473
REMARK minimizedRMSD -1
REMARK  3 active torsions:
REMARK  status: ('A' for Active; 'I' for Inactive)
REMARK    1  A    between atoms: C3'_2  and  C2'_3 
REMARK    2  A    between atoms: C2'_3  and  C1'_4 
REMARK    3  A    between atoms: C1'_4  and  C1_5 
ROOT
ATOM      1  C1  N4B d   1      -5.990  -4.471  -3.665  0.00  0.00    -0.075 A 
ATOM      2  C2  N4B d   1      -5.998  -5.785  -3.147  0.00  0.00     0.002 A 
ATOM      3  C3  N4B d   1      -5.984  -5.987  -1.788  0.00  0.00     0.002 A 
ATOM      4  C4  N4B d   1      -5.943  -4.896  -0.933  0.00  0.00    -0.004 A 
ATOM      5  C5  N4B d   1      -5.962  -3.630  -1.442  0.00  0.00     0.002 A 
ATOM      6  C6  N4B d   1      -5.980  -3.412  -2.805  0.00  0.00     0.002 A 
ENDROOT
BRANCH   1   7
ATOM      7  C1' N4B d   1      -5.918  -4.202  -5.143  0.00  0.00     0.057 C 
BRANCH   7   8
ATOM      8  C2' N4B d   1      -5.745  -5.524  -5.886  0.00  0.00     0.009 C 
BRANCH   8   9
ATOM      9  C3' N4B d   1      -4.284  -5.927  -5.996  0.00  0.00     0.004 C 
ATOM     10  C4' N4B d   1      -3.600  -6.000  -4.663  0.00  0.00     0.003 C 
ENDBRANCH   8   9
ENDBRANCH   7   8
ENDBRANCH   1   7
TORSDOF 3
ENDMDL
