MODEL 1
REMARK minimizedAffinity 9.04939079
REMARK minimizedRMSD -1
REMARK  3 active torsions:
REMARK  status: ('A' for Active; 'I' for Inactive)
REMARK    1  A    between atoms: C3'_2  and  C2'_3 
REMARK    2  A    between atoms: C2'_3  and  C1'_4 
REMARK    3  A    between atoms: C1'_4  and  C1_5 
ROOT
ATOM      1  C1  N4B d   1       4.162   4.537  -3.754  0.00  0.00    -0.075 A 
ATOM      2  C2  N4B d   1       3.916   4.508  -5.145  0.00  0.00     0.002 A 
ATOM      3  C3  N4B d   1       4.717   5.226  -5.999  0.00  0.00     0.002 A 
ATOM      4  C4  N4B d   1       5.753   5.992  -5.486  0.00  0.00    -0.004 A 
ATOM      5  C5  N4B d   1       6.000   5.994  -4.144  0.00  0.00     0.002 A 
ATOM      6  C6  N4B d   1       5.205   5.274  -3.275  0.00  0.00     0.002 A 
ENDROOT
BRANCH   1   7
ATOM      7  C1' N4B d   1       3.260   3.838  -2.774  0.00  0.00     0.057 C 
BRANCH   7   8
ATOM      8  C2' N4B d   1       3.731   4.143  -1.355  0.00  0.00     0.009 C 
BRANCH   8   9
ATOM      9  C3' N4B d   1       2.568   4.268  -0.385  0.00  0.00     0.004 C 
ATOM     10  C4' N4B d   1       1.476   5.158  -0.899  0.00  0.00     0.003 C 
ENDBRANCH   8   9
ENDBRANCH   7   8
ENDBRANCH   1   7
TORSDOF 3
ENDMDL
