MODEL 1
REMARK minimizedAffinity 12.6461859
REMARK minimizedRMSD -1
REMARK  3 active torsions:
REMARK  status: ('A' for Active; 'I' for Inactive)
REMARK    1  A    between atoms: C3'_2  and  C2'_3 
REMARK    2  A    between atoms: C2'_3  and  C1'_4 
REMARK    3  A    between atoms: C1'_4  and  C1_5 
ROOT
ATOM      1  C1  N4B d   1      -2.728   1.651  -1.539  0.00  0.00    -0.075 A 
ATOM      2  C2  N4B d   1      -2.076   0.477  -1.103  0.00  0.00     0.002 A 
ATOM      3  C3  N4B d   1      -1.979   0.203   0.239  0.00  0.00     0.002 A 
ATOM      4  C4  N4B d   1      -2.509   1.094   1.161  0.00  0.00    -0.004 A 
ATOM      5  C5  N4B d   1      -3.160   2.213   0.731  0.00  0.00     0.002 A 
ATOM      6  C6  N4B d   1      -3.268   2.499  -0.615  0.00  0.00     0.002 A 
ENDROOT
BRANCH   1   7
ATOM      7  C1' N4B d   1      -2.783   2.037  -2.992  0.00  0.00     0.057 C 
BRANCH   7   8
ATOM      8  C2' N4B d   1      -4.031   1.428  -3.624  0.00  0.00     0.009 C 
BRANCH   8   9
ATOM      9  C3' N4B d   1      -4.637   2.340  -4.677  0.00  0.00     0.004 C 
ATOM     10  C4' N4B d   1      -4.828   1.656  -5.998  0.00  0.00     0.003 C 
ENDBRANCH   8   9
ENDBRANCH   7   8
ENDBRANCH   1   7
TORSDOF 3
ENDMDL
