MODEL 1
REMARK minimizedAffinity -1.83246124
REMARK minimizedRMSD -1
REMARK  0 active torsions:
REMARK  status: ('A' for Active; 'I' for Inactive)
ROOT
ATOM      1  N1  IND d   1      -5.203  -5.998  -5.097  0.00  0.00    -0.196 N 
ATOM      2  C2  IND d   1      -5.640  -5.067  -5.998  0.00  0.00     0.054 A 
ATOM      3  C3  IND d   1      -5.999  -3.929  -5.362  0.00  0.00    -0.031 A 
ATOM      4  C4  IND d   1      -5.853  -3.339  -2.860  0.00  0.00     0.051 A 
ATOM      5  C5  IND d   1      -5.552  -3.879  -1.641  0.00  0.00    -0.031 A 
ATOM      6  C6  IND d   1      -5.107  -5.179  -1.510  0.00  0.00     0.015 A 
ATOM      7  C7  IND d   1      -4.936  -5.986  -2.599  0.00  0.00    -0.016 A 
ATOM      8  C8  IND d   1      -5.247  -5.443  -3.837  0.00  0.00    -0.047 A 
ATOM      9  C9  IND d   1      -5.740  -4.139  -3.972  0.00  0.00    -0.096 A 
ATOM     10  HN1 IND d   1      -4.943  -6.795  -5.286  0.00  0.00     0.298 HD
ENDROOT
TORSDOF 0
ENDMDL
