MODEL 1
REMARK minimizedAffinity -0.708495378
REMARK minimizedRMSD -1
REMARK  0 active torsions:
REMARK  status: ('A' for Active; 'I' for Inactive)
ROOT
ATOM      1  N1  IND d   1      -5.610  -3.098  -5.017  0.00  0.00    -0.196 N 
ATOM      2  C2  IND d   1      -5.225  -3.973  -5.994  0.00  0.00     0.054 A 
ATOM      3  C3  IND d   1      -4.976  -5.191  -5.463  0.00  0.00    -0.031 A 
ATOM      4  C4  IND d   1      -5.236  -5.999  -3.033  0.00  0.00     0.051 A 
ATOM      5  C5  IND d   1      -5.525  -5.553  -1.774  0.00  0.00    -0.031 A 
ATOM      6  C6  IND d   1      -5.868  -4.239  -1.527  0.00  0.00     0.015 A 
ATOM      7  C7  IND d   1      -5.945  -3.321  -2.537  0.00  0.00    -0.016 A 
ATOM      8  C8  IND d   1      -5.644  -3.770  -3.815  0.00  0.00    -0.047 A 
ATOM      9  C9  IND d   1      -5.255  -5.092  -4.065  0.00  0.00    -0.096 A 
ATOM     10  HN1 IND d   1      -5.800  -2.267  -5.134  0.00  0.00     0.298 HD
ENDROOT
TORSDOF 0
ENDMDL
