MODEL 1
REMARK minimizedAffinity -0.725984693
REMARK minimizedRMSD -1
REMARK  0 active torsions:
REMARK  status: ('A' for Active; 'I' for Inactive)
ROOT
ATOM      1  N1  IND d   1      -5.614  -2.487  -4.766  0.00  0.00    -0.196 N 
ATOM      2  C2  IND d   1      -5.979  -2.955  -5.997  0.00  0.00     0.054 A 
ATOM      3  C3  IND d   1      -6.000  -4.307  -6.000  0.00  0.00    -0.031 A 
ATOM      4  C4  IND d   1      -5.569  -5.953  -4.067  0.00  0.00     0.051 A 
ATOM      5  C5  IND d   1      -5.167  -6.000  -2.762  0.00  0.00    -0.031 A 
ATOM      6  C6  IND d   1      -4.890  -4.855  -2.043  0.00  0.00     0.015 A 
ATOM      7  C7  IND d   1      -5.017  -3.615  -2.601  0.00  0.00    -0.016 A 
ATOM      8  C8  IND d   1      -5.418  -3.564  -3.928  0.00  0.00    -0.047 A 
ATOM      9  C9  IND d   1      -5.659  -4.723  -4.676  0.00  0.00    -0.096 A 
ATOM     10  HN1 IND d   1      -5.522  -1.660  -4.550  0.00  0.00     0.298 HD
ENDROOT
TORSDOF 0
ENDMDL
