MODEL 1
REMARK minimizedAffinity -0.102393098
REMARK minimizedRMSD -1
REMARK  0 active torsions:
REMARK  status: ('A' for Active; 'I' for Inactive)
ROOT
ATOM      1  N1  IND d   1      -5.746  -2.773  -4.860  0.00  0.00    -0.196 N 
ATOM      2  C2  IND d   1      -5.966  -3.495  -5.999  0.00  0.00     0.054 A 
ATOM      3  C3  IND d   1      -5.714  -4.806  -5.782  0.00  0.00    -0.031 A 
ATOM      4  C4  IND d   1      -5.028  -6.000  -3.607  0.00  0.00     0.051 A 
ATOM      5  C5  IND d   1      -4.670  -5.756  -2.310  0.00  0.00    -0.031 A 
ATOM      6  C6  IND d   1      -4.655  -4.479  -1.786  0.00  0.00     0.015 A 
ATOM      7  C7  IND d   1      -5.010  -3.396  -2.539  0.00  0.00    -0.016 A 
ATOM      8  C8  IND d   1      -5.367  -3.639  -3.858  0.00  0.00    -0.047 A 
ATOM      9  C9  IND d   1      -5.343  -4.928  -4.407  0.00  0.00    -0.096 A 
ATOM     10  HN1 IND d   1      -5.830  -1.921  -4.782  0.00  0.00     0.298 HD
ENDROOT
TORSDOF 0
ENDMDL
