MODEL 1
REMARK minimizedAffinity 11.0125904
REMARK minimizedRMSD -1
REMARK  0 active torsions:
REMARK  status: ('A' for Active; 'I' for Inactive)
ROOT
ATOM      1  N1  IND d   1       3.409   1.438  -5.021  0.00  0.00    -0.196 N 
ATOM      2  C2  IND d   1       4.282   1.827  -5.998  0.00  0.00     0.054 A 
ATOM      3  C3  IND d   1       5.409   1.081  -5.946  0.00  0.00    -0.031 A 
ATOM      4  C4  IND d   1       5.990  -0.899  -4.406  0.00  0.00     0.051 A 
ATOM      5  C5  IND d   1       5.522  -1.600  -3.330  0.00  0.00    -0.031 A 
ATOM      6  C6  IND d   1       4.301  -1.320  -2.752  0.00  0.00     0.015 A 
ATOM      7  C7  IND d   1       3.492  -0.332  -3.239  0.00  0.00    -0.016 A 
ATOM      8  C8  IND d   1       3.967   0.386  -4.327  0.00  0.00    -0.047 A 
ATOM      9  C9  IND d   1       5.224   0.135  -4.891  0.00  0.00    -0.096 A 
ATOM     10  HN1 IND d   1       2.640   1.791  -4.865  0.00  0.00     0.298 HD
ENDROOT
TORSDOF 0
ENDMDL
