MODEL 1
REMARK minimizedAffinity -2.25620484
REMARK minimizedRMSD -1
REMARK  0 active torsions:
REMARK  status: ('A' for Active; 'I' for Inactive)
ROOT
ATOM      1  N1  IND d   1      -4.702  -3.847  -1.965  0.00  0.00    -0.196 N 
ATOM      2  C2  IND d   1      -4.125  -4.964  -1.428  0.00  0.00     0.054 A 
ATOM      3  C3  IND d   1      -4.146  -5.979  -2.321  0.00  0.00    -0.031 A 
ATOM      4  C4  IND d   1      -4.984  -6.000  -4.755  0.00  0.00     0.051 A 
ATOM      5  C5  IND d   1      -5.627  -5.225  -5.679  0.00  0.00    -0.031 A 
ATOM      6  C6  IND d   1      -5.999  -3.924  -5.408  0.00  0.00     0.015 A 
ATOM      7  C7  IND d   1      -5.731  -3.343  -4.201  0.00  0.00    -0.016 A 
ATOM      8  C8  IND d   1      -5.085  -4.129  -3.257  0.00  0.00    -0.047 A 
ATOM      9  C9  IND d   1      -4.743  -5.464  -3.512  0.00  0.00    -0.096 A 
ATOM     10  HN1 IND d   1      -4.807  -3.095  -1.562  0.00  0.00     0.298 HD
ENDROOT
TORSDOF 0
ENDMDL
