MODEL 1
REMARK minimizedAffinity 2.57464576
REMARK minimizedRMSD -1
REMARK  0 active torsions:
REMARK  status: ('A' for Active; 'I' for Inactive)
ROOT
ATOM      1  N1  IND d   1       0.810   0.519   0.845  0.00  0.00    -0.196 N 
ATOM      2  C2  IND d   1       2.149   0.674   1.078  0.00  0.00     0.054 A 
ATOM      3  C3  IND d   1       2.570   1.874   0.620  0.00  0.00    -0.031 A 
ATOM      4  C4  IND d   1       1.216   3.782  -0.455  0.00  0.00     0.051 A 
ATOM      5  C5  IND d   1      -0.036   4.092  -0.908  0.00  0.00    -0.031 A 
ATOM      6  C6  IND d   1      -1.091   3.210  -0.795  0.00  0.00     0.015 A 
ATOM      7  C7  IND d   1      -0.936   1.984  -0.212  0.00  0.00    -0.016 A 
ATOM      8  C8  IND d   1       0.335   1.663   0.243  0.00  0.00    -0.047 A 
ATOM      9  C9  IND d   1       1.419   2.537   0.093  0.00  0.00    -0.096 A 
ATOM     10  HN1 IND d   1       0.344  -0.176   1.042  0.00  0.00     0.298 HD
ENDROOT
TORSDOF 0
ENDMDL
