MODEL 1
REMARK minimizedAffinity 2.2387383
REMARK minimizedRMSD -1
REMARK  0 active torsions:
REMARK  status: ('A' for Active; 'I' for Inactive)
ROOT
ATOM      1  N1  IND d   1      -4.889  -5.582  -2.331  0.00  0.00    -0.196 N 
ATOM      2  C2  IND d   1      -4.915  -4.452  -1.562  0.00  0.00     0.054 A 
ATOM      3  C3  IND d   1      -5.139  -3.364  -2.332  0.00  0.00    -0.031 A 
ATOM      4  C4  IND d   1      -5.592  -3.216  -4.862  0.00  0.00     0.051 A 
ATOM      5  C5  IND d   1      -5.633  -3.978  -5.996  0.00  0.00    -0.031 A 
ATOM      6  C6  IND d   1      -5.427  -5.342  -5.965  0.00  0.00     0.015 A 
ATOM      7  C7  IND d   1      -5.182  -5.999  -4.792  0.00  0.00    -0.016 A 
ATOM      8  C8  IND d   1      -5.133  -5.227  -3.640  0.00  0.00    -0.047 A 
ATOM      9  C9  IND d   1      -5.299  -3.837  -3.671  0.00  0.00    -0.096 A 
ATOM     10  HN1 IND d   1      -4.745  -6.380  -2.046  0.00  0.00     0.298 HD
ENDROOT
TORSDOF 0
ENDMDL
