MODEL 1
REMARK minimizedAffinity -4.39809704
REMARK minimizedRMSD -1
REMARK  0 active torsions:
REMARK  status: ('A' for Active; 'I' for Inactive)
ROOT
ATOM      1  C   UNL d   1       0.995  -1.249  -0.787  0.00  0.00     0.078 C 
ATOM      2  C1  UNL d   1       0.202  -0.315   0.078  0.00  0.00    -0.077 A 
ATOM      3  C2  UNL d   1      -0.651  -0.805   1.075  0.00  0.00    -0.001 A 
ATOM      4  C3  UNL d   1      -1.390   0.076   1.866  0.00  0.00     0.003 A 
ATOM      5  C4  UNL d   1      -1.285   1.451   1.668  0.00  0.00    -0.005 A 
ATOM      6  C5  UNL d   1      -0.440   1.948   0.677  0.00  0.00     0.003 A 
ATOM      7  C6  UNL d   1       0.300   1.069  -0.115  0.00  0.00    -0.001 A 
ENDROOT
TORSDOF 0
ENDMDL
