MODEL 1
REMARK minimizedAffinity -2.46532774
REMARK minimizedRMSD -1
REMARK  0 active torsions:
REMARK  status: ('A' for Active; 'I' for Inactive)
ROOT
ATOM      1  C   UNL d   1       1.303  -1.124  -0.532  0.00  0.00     0.078 C 
ATOM      2  C1  UNL d   1       0.392  -0.520   0.494  0.00  0.00    -0.077 A 
ATOM      3  C2  UNL d   1       0.161  -1.159   1.718  0.00  0.00    -0.001 A 
ATOM      4  C3  UNL d   1      -0.698  -0.591   2.661  0.00  0.00     0.003 A 
ATOM      5  C4  UNL d   1      -1.332   0.620   2.388  0.00  0.00    -0.005 A 
ATOM      6  C5  UNL d   1      -1.110   1.262   1.172  0.00  0.00     0.003 A 
ATOM      7  C6  UNL d   1      -0.252   0.695   0.229  0.00  0.00    -0.001 A 
ENDROOT
TORSDOF 0
ENDMDL
