MODEL 1
REMARK minimizedAffinity -2.52833033
REMARK minimizedRMSD -1
REMARK  0 active torsions:
REMARK  status: ('A' for Active; 'I' for Inactive)
ROOT
ATOM      1  C   UNL d   1      -1.162   1.933   2.229  0.00  0.00     0.078 C 
ATOM      2  C1  UNL d   1      -0.468   1.063   1.224  0.00  0.00    -0.077 A 
ATOM      3  C2  UNL d   1      -0.162  -0.272   1.514  0.00  0.00    -0.001 A 
ATOM      4  C3  UNL d   1       0.493  -1.067   0.572  0.00  0.00     0.003 A 
ATOM      5  C4  UNL d   1       0.849  -0.535  -0.666  0.00  0.00    -0.005 A 
ATOM      6  C5  UNL d   1       0.551   0.793  -0.963  0.00  0.00     0.003 A 
ATOM      7  C6  UNL d   1      -0.104   1.589  -0.022  0.00  0.00    -0.001 A 
ENDROOT
TORSDOF 0
ENDMDL
