MODEL 1
REMARK minimizedAffinity -1.38008559
REMARK minimizedRMSD -1
REMARK  0 active torsions:
REMARK  status: ('A' for Active; 'I' for Inactive)
ROOT
ATOM      1  C   UNL d   1       0.400  -3.044  -2.529  0.00  0.00     0.078 C 
ATOM      2  C1  UNL d   1       0.198  -2.001  -1.471  0.00  0.00    -0.077 A 
ATOM      3  C2  UNL d   1      -0.868  -2.088  -0.567  0.00  0.00    -0.001 A 
ATOM      4  C3  UNL d   1      -1.050  -1.105   0.407  0.00  0.00     0.003 A 
ATOM      5  C4  UNL d   1      -0.171  -0.027   0.486  0.00  0.00    -0.005 A 
ATOM      6  C5  UNL d   1       0.892   0.069  -0.411  0.00  0.00     0.003 A 
ATOM      7  C6  UNL d   1       1.075  -0.913  -1.385  0.00  0.00    -0.001 A 
ENDROOT
TORSDOF 0
ENDMDL
