MODEL 1
REMARK minimizedAffinity -3.90074253
REMARK minimizedRMSD -1
REMARK  0 active torsions:
REMARK  status: ('A' for Active; 'I' for Inactive)
ROOT
ATOM      1  C   UNL d   1       0.550  -1.203  -0.985  0.00  0.00     0.078 C 
ATOM      2  C1  UNL d   1      -0.031  -0.158  -0.080  0.00  0.00    -0.077 A 
ATOM      3  C2  UNL d   1       0.054   1.202  -0.402  0.00  0.00    -0.001 A 
ATOM      4  C3  UNL d   1      -0.483   2.165   0.454  0.00  0.00     0.003 A 
ATOM      5  C4  UNL d   1      -1.107   1.778   1.639  0.00  0.00    -0.005 A 
ATOM      6  C5  UNL d   1      -1.194   0.428   1.969  0.00  0.00     0.003 A 
ATOM      7  C6  UNL d   1      -0.658  -0.537   1.114  0.00  0.00    -0.001 A 
ENDROOT
TORSDOF 0
ENDMDL
