MODEL 1
REMARK minimizedAffinity -3.7217474
REMARK minimizedRMSD -1
REMARK  0 active torsions:
REMARK  status: ('A' for Active; 'I' for Inactive)
ROOT
ATOM      1  C   UNL d   1      -1.165   0.834   1.821  0.00  0.00     0.078 C 
ATOM      2  C1  UNL d   1      -0.689  -0.015   0.681  0.00  0.00    -0.077 A 
ATOM      3  C2  UNL d   1      -1.559  -0.890   0.021  0.00  0.00    -0.001 A 
ATOM      4  C3  UNL d   1      -1.100  -1.682  -1.033  0.00  0.00     0.003 A 
ATOM      5  C4  UNL d   1       0.233  -1.607  -1.435  0.00  0.00    -0.005 A 
ATOM      6  C5  UNL d   1       1.107  -0.740  -0.782  0.00  0.00     0.003 A 
ATOM      7  C6  UNL d   1       0.649   0.052   0.272  0.00  0.00    -0.001 A 
ENDROOT
TORSDOF 0
ENDMDL
