MODEL 1
REMARK minimizedAffinity -3.48789811
REMARK minimizedRMSD -1
REMARK  0 active torsions:
REMARK  status: ('A' for Active; 'I' for Inactive)
ROOT
ATOM      1  C   UNL d   1       0.685  -2.300  -1.515  0.00  0.00     0.078 C 
ATOM      2  C1  UNL d   1       0.284  -1.073  -0.753  0.00  0.00    -0.077 A 
ATOM      3  C2  UNL d   1       0.687   0.201  -1.173  0.00  0.00    -0.001 A 
ATOM      4  C3  UNL d   1       0.314   1.334  -0.448  0.00  0.00     0.003 A 
ATOM      5  C4  UNL d   1      -0.462   1.205   0.702  0.00  0.00    -0.005 A 
ATOM      6  C5  UNL d   1      -0.866  -0.059   1.128  0.00  0.00     0.003 A 
ATOM      7  C6  UNL d   1      -0.495  -1.193   0.405  0.00  0.00    -0.001 A 
ENDROOT
TORSDOF 0
ENDMDL
