MODEL 1
REMARK minimizedAffinity -4.39831161
REMARK minimizedRMSD -1
REMARK  0 active torsions:
REMARK  status: ('A' for Active; 'I' for Inactive)
ROOT
ATOM      1  C   UNL d   1      -1.514   0.455   1.855  0.00  0.00     0.078 C 
ATOM      2  C1  UNL d   1      -0.756  -0.355   0.846  0.00  0.00    -0.077 A 
ATOM      3  C2  UNL d   1       0.586  -0.077   0.558  0.00  0.00    -0.001 A 
ATOM      4  C3  UNL d   1       1.275  -0.833  -0.391  0.00  0.00     0.003 A 
ATOM      5  C4  UNL d   1       0.632  -1.872  -1.061  0.00  0.00    -0.005 A 
ATOM      6  C5  UNL d   1      -0.704  -2.155  -0.782  0.00  0.00     0.003 A 
ATOM      7  C6  UNL d   1      -1.396  -1.400   0.166  0.00  0.00    -0.001 A 
ENDROOT
TORSDOF 0
ENDMDL
