MODEL 1
REMARK minimizedAffinity -4.81736994
REMARK minimizedRMSD -1
REMARK  0 active torsions:
REMARK  status: ('A' for Active; 'I' for Inactive)
ROOT
ATOM      1  C   UNL d   1       0.817   2.199  -1.011  0.00  0.00     0.078 C 
ATOM      2  C1  UNL d   1      -0.098   1.853   0.126  0.00  0.00    -0.077 A 
ATOM      3  C2  UNL d   1      -0.401   0.520   0.427  0.00  0.00    -0.001 A 
ATOM      4  C3  UNL d   1      -1.262   0.212   1.482  0.00  0.00     0.003 A 
ATOM      5  C4  UNL d   1      -1.828   1.233   2.243  0.00  0.00    -0.005 A 
ATOM      6  C5  UNL d   1      -1.534   2.563   1.949  0.00  0.00     0.003 A 
ATOM      7  C6  UNL d   1      -0.673   2.872   0.895  0.00  0.00    -0.001 A 
ENDROOT
TORSDOF 0
ENDMDL
