MODEL 1
REMARK minimizedAffinity -3.94739056
REMARK minimizedRMSD -1
REMARK  0 active torsions:
REMARK  status: ('A' for Active; 'I' for Inactive)
ROOT
ATOM      1  C   UNL d   1       0.752  -0.990  -0.761  0.00  0.00     0.078 C 
ATOM      2  C1  UNL d   1       0.100   0.021   0.134  0.00  0.00    -0.077 A 
ATOM      3  C2  UNL d   1      -0.684  -0.379   1.223  0.00  0.00    -0.001 A 
ATOM      4  C3  UNL d   1      -1.293   0.573   2.042  0.00  0.00     0.003 A 
ATOM      5  C4  UNL d   1      -1.126   1.931   1.780  0.00  0.00    -0.005 A 
ATOM      6  C5  UNL d   1      -0.349   2.339   0.698  0.00  0.00     0.003 A 
ATOM      7  C6  UNL d   1       0.261   1.388  -0.122  0.00  0.00    -0.001 A 
ENDROOT
TORSDOF 0
ENDMDL
