MODEL 1
REMARK minimizedAffinity -3.69627643
REMARK minimizedRMSD -1
REMARK  0 active torsions:
REMARK  status: ('A' for Active; 'I' for Inactive)
ROOT
ATOM      1  C   UNL d   1       0.959  -2.329  -1.890  0.00  0.00     0.078 C 
ATOM      2  C1  UNL d   1       0.574  -1.538  -0.676  0.00  0.00    -0.077 A 
ATOM      3  C2  UNL d   1       1.545  -0.904   0.110  0.00  0.00    -0.001 A 
ATOM      4  C3  UNL d   1       1.173  -0.179   1.243  0.00  0.00     0.003 A 
ATOM      5  C4  UNL d   1      -0.170  -0.082   1.602  0.00  0.00    -0.005 A 
ATOM      6  C5  UNL d   1      -1.143  -0.712   0.828  0.00  0.00     0.003 A 
ATOM      7  C6  UNL d   1      -0.773  -1.437  -0.305  0.00  0.00    -0.001 A 
ENDROOT
TORSDOF 0
ENDMDL
