MODEL 1
REMARK minimizedAffinity -3.63354301
REMARK minimizedRMSD -1
REMARK  0 active torsions:
REMARK  status: ('A' for Active; 'I' for Inactive)
ROOT
ATOM      1  C   UNL d   1       0.988  -1.046  -0.381  0.00  0.00     0.078 C 
ATOM      2  C1  UNL d   1       0.299   0.206   0.072  0.00  0.00    -0.077 A 
ATOM      3  C2  UNL d   1       0.440   1.405  -0.637  0.00  0.00    -0.001 A 
ATOM      4  C3  UNL d   1      -0.199   2.565  -0.198  0.00  0.00     0.003 A 
ATOM      5  C4  UNL d   1      -0.984   2.538   0.953  0.00  0.00    -0.005 A 
ATOM      6  C5  UNL d   1      -1.130   1.350   1.667  0.00  0.00     0.003 A 
ATOM      7  C6  UNL d   1      -0.491   0.189   1.229  0.00  0.00    -0.001 A 
ENDROOT
TORSDOF 0
ENDMDL
