MODEL 1
REMARK minimizedAffinity -4.04821873
REMARK minimizedRMSD -1
REMARK  0 active torsions:
REMARK  status: ('A' for Active; 'I' for Inactive)
ROOT
ATOM      1  C   UNL d   1       0.390  -3.007  -2.996  0.00  0.00     0.078 C 
ATOM      2  C1  UNL d   1       0.399  -2.123  -1.785  0.00  0.00    -0.077 A 
ATOM      3  C2  UNL d   1       1.538  -2.019  -0.977  0.00  0.00    -0.001 A 
ATOM      4  C3  UNL d   1       1.529  -1.200   0.153  0.00  0.00     0.003 A 
ATOM      5  C4  UNL d   1       0.383  -0.479   0.486  0.00  0.00    -0.005 A 
ATOM      6  C5  UNL d   1      -0.755  -0.578  -0.311  0.00  0.00     0.003 A 
ATOM      7  C6  UNL d   1      -0.748  -1.397  -1.441  0.00  0.00    -0.001 A 
ENDROOT
TORSDOF 0
ENDMDL
