MODEL 1
REMARK minimizedAffinity 2.75688958
REMARK minimizedRMSD -1
REMARK  2 active torsions:
REMARK  status: ('A' for Active; 'I' for Inactive)
REMARK    1  A    between atoms: C2'_3  and  C1'_4 
REMARK    2  A    between atoms: C1'_4  and  C1_5 
ROOT
ATOM      1  C1  I4B d   1      -1.149   0.407  -1.499  0.00  0.00    -0.075 A 
ATOM      2  C2  I4B d   1       0.094   0.022  -1.937  0.00  0.00     0.003 A 
ATOM      3  C3  I4B d   1       1.021  -0.554  -1.034  0.00  0.00     0.002 A 
ATOM      4  C4  I4B d   1       0.684  -0.679   0.298  0.00  0.00    -0.004 A 
ATOM      5  C5  I4B d   1      -0.585  -0.310   0.735  0.00  0.00     0.002 A 
ATOM      6  C6  I4B d   1      -1.512   0.225  -0.171  0.00  0.00     0.003 A 
ENDROOT
BRANCH   1   7
ATOM      7  C1' I4B d   1      -2.091   1.042  -2.473  0.00  0.00     0.060 C 
BRANCH   7   8
ATOM      8  C2' I4B d   1      -1.875   2.541  -2.421  0.00  0.00    -0.013 C 
ATOM      9  C4' I4B d   1      -0.940   2.995  -3.510  0.00  0.00     0.013 C 
ATOM     10  C3' I4B d   1      -3.214   3.205  -2.544  0.00  0.00     0.013 C 
ENDBRANCH   7   8
ENDBRANCH   1   7
TORSDOF 2
ENDMDL
