MODEL 1
REMARK minimizedAffinity 2.82290792
REMARK minimizedRMSD -1
REMARK  2 active torsions:
REMARK  status: ('A' for Active; 'I' for Inactive)
REMARK    1  A    between atoms: C2'_3  and  C1'_4 
REMARK    2  A    between atoms: C1'_4  and  C1_5 
ROOT
ATOM      1  C1  I4B d   1       2.394  -4.520   1.817  0.00  0.00    -0.075 A 
ATOM      2  C2  I4B d   1       1.514  -3.472   1.703  0.00  0.00     0.003 A 
ATOM      3  C3  I4B d   1       0.217  -3.567   2.262  0.00  0.00     0.002 A 
ATOM      4  C4  I4B d   1      -0.175  -4.739   2.876  0.00  0.00    -0.004 A 
ATOM      5  C5  I4B d   1       0.726  -5.792   3.010  0.00  0.00     0.002 A 
ATOM      6  C6  I4B d   1       2.023  -5.678   2.488  0.00  0.00     0.003 A 
ENDROOT
BRANCH   1   7
ATOM      7  C1' I4B d   1       3.745  -4.398   1.187  0.00  0.00     0.060 C 
BRANCH   7   8
ATOM      8  C2' I4B d   1       4.289  -5.796   0.975  0.00  0.00    -0.013 C 
ATOM      9  C4' I4B d   1       4.733  -5.999  -0.449  0.00  0.00     0.013 C 
ATOM     10  C3' I4B d   1       5.427  -6.000   1.931  0.00  0.00     0.013 C 
ENDBRANCH   7   8
ENDBRANCH   1   7
TORSDOF 2
ENDMDL
