MODEL 1
REMARK minimizedAffinity 4.41381311
REMARK minimizedRMSD -1
REMARK  2 active torsions:
REMARK  status: ('A' for Active; 'I' for Inactive)
REMARK    1  A    between atoms: C2'_3  and  C1'_4 
REMARK    2  A    between atoms: C1'_4  and  C1_5 
ROOT
ATOM      1  C1  I4B d   1      -0.316  -1.017   0.875  0.00  0.00    -0.075 A 
ATOM      2  C2  I4B d   1      -0.030   0.319   0.749  0.00  0.00     0.003 A 
ATOM      3  C3  I4B d   1      -1.055   1.285   0.899  0.00  0.00     0.002 A 
ATOM      4  C4  I4B d   1      -2.352   0.870   1.123  0.00  0.00    -0.004 A 
ATOM      5  C5  I4B d   1      -2.636  -0.484   1.273  0.00  0.00     0.002 A 
ATOM      6  C6  I4B d   1      -1.610  -1.434   1.161  0.00  0.00     0.003 A 
ENDROOT
BRANCH   1   7
ATOM      7  C1' I4B d   1       0.784  -2.011   0.678  0.00  0.00     0.060 C 
BRANCH   7   8
ATOM      8  C2' I4B d   1       0.598  -3.121   1.692  0.00  0.00    -0.013 C 
ATOM      9  C4' I4B d   1       1.769  -4.068   1.686  0.00  0.00     0.013 C 
ATOM     10  C3' I4B d   1       0.418  -2.491   3.041  0.00  0.00     0.013 C 
ENDBRANCH   7   8
ENDBRANCH   1   7
TORSDOF 2
ENDMDL
