MODEL 1
REMARK minimizedAffinity -0.965857565
REMARK minimizedRMSD -1
REMARK  2 active torsions:
REMARK  status: ('A' for Active; 'I' for Inactive)
REMARK    1  A    between atoms: C2'_3  and  C1'_4 
REMARK    2  A    between atoms: C1'_4  and  C1_5 
ROOT
ATOM      1  C1  I4B d   1      -0.096   0.085   0.013  0.00  0.00    -0.075 A 
ATOM      2  C2  I4B d   1       0.510  -1.142  -0.094  0.00  0.00     0.003 A 
ATOM      3  C3  I4B d   1       0.343  -2.111   0.925  0.00  0.00     0.002 A 
ATOM      4  C4  I4B d   1      -0.392  -1.795   2.049  0.00  0.00    -0.004 A 
ATOM      5  C5  I4B d   1      -1.025  -0.559   2.146  0.00  0.00     0.002 A 
ATOM      6  C6  I4B d   1      -0.887   0.383   1.116  0.00  0.00     0.003 A 
ENDROOT
BRANCH   1   7
ATOM      7  C1' I4B d   1       0.128   1.097  -1.065  0.00  0.00     0.060 C 
BRANCH   7   8
ATOM      8  C2' I4B d   1      -1.225   1.611  -1.512  0.00  0.00    -0.013 C 
ATOM      9  C4' I4B d   1      -1.088   2.593  -2.645  0.00  0.00     0.013 C 
ATOM     10  C3' I4B d   1      -2.059   0.431  -1.915  0.00  0.00     0.013 C 
ENDBRANCH   7   8
ENDBRANCH   1   7
TORSDOF 2
ENDMDL
