MODEL 1
REMARK minimizedAffinity -4.53786993
REMARK minimizedRMSD -1
REMARK  0 active torsions:
REMARK  status: ('A' for Active; 'I' for Inactive)
ROOT
ATOM      1  C   UNL d   1      -2.999  -2.268   0.691  0.00  0.00     0.023 A 
ATOM      2  C1  UNL d   1      -2.787  -1.158  -0.128  0.00  0.00     0.003 A 
ATOM      3  C2  UNL d   1      -1.554  -0.504  -0.114  0.00  0.00     0.048 A 
ATOM      4  C3  UNL d   1      -0.536  -0.966   0.720  0.00  0.00     0.023 A 
ATOM      5  C4  UNL d   1      -0.743  -2.076   1.541  0.00  0.00     0.048 A 
ATOM      6  C5  UNL d   1      -1.979  -2.726   1.524  0.00  0.00     0.003 A 
ATOM      7  I   UNL d   1       1.301   0.006   0.743  0.00  0.00    -0.146 I 
ENDROOT
TORSDOF 0
ENDMDL
