MODEL 1
REMARK minimizedAffinity -3.42194676
REMARK minimizedRMSD -1
REMARK  0 active torsions:
REMARK  status: ('A' for Active; 'I' for Inactive)
ROOT
ATOM      1  C   UNL d   1      -2.143  -0.900  -0.880  0.00  0.00     0.023 A 
ATOM      2  C1  UNL d   1      -1.241  -0.489  -1.862  0.00  0.00     0.003 A 
ATOM      3  C2  UNL d   1       0.013   0.004  -1.497  0.00  0.00     0.048 A 
ATOM      4  C3  UNL d   1       0.360   0.080  -0.149  0.00  0.00     0.023 A 
ATOM      5  C4  UNL d   1      -0.538  -0.331   0.837  0.00  0.00     0.048 A 
ATOM      6  C5  UNL d   1      -1.792  -0.822   0.467  0.00  0.00     0.003 A 
ATOM      7  I   UNL d   1       2.228   0.812   0.397  0.00  0.00    -0.146 I 
ENDROOT
TORSDOF 0
ENDMDL
