MODEL 1
REMARK minimizedAffinity -4.98915625
REMARK minimizedRMSD -1
REMARK  0 active torsions:
REMARK  status: ('A' for Active; 'I' for Inactive)
ROOT
ATOM      1  C   UNL d   1      -2.614  -0.876  -0.259  0.00  0.00     0.023 A 
ATOM      2  C1  UNL d   1      -1.921  -0.412  -1.377  0.00  0.00     0.003 A 
ATOM      3  C2  UNL d   1      -0.641   0.127  -1.232  0.00  0.00     0.048 A 
ATOM      4  C3  UNL d   1      -0.060   0.198   0.033  0.00  0.00     0.023 A 
ATOM      5  C4  UNL d   1      -0.750  -0.266   1.155  0.00  0.00     0.048 A 
ATOM      6  C5  UNL d   1      -2.030  -0.803   1.005  0.00  0.00     0.003 A 
ATOM      7  I   UNL d   1       1.845   1.000   0.252  0.00  0.00    -0.146 I 
ENDROOT
TORSDOF 0
ENDMDL
