MODEL 1
REMARK minimizedAffinity -3.17731094
REMARK minimizedRMSD -1
REMARK  0 active torsions:
REMARK  status: ('A' for Active; 'I' for Inactive)
ROOT
ATOM      1  C   UNL d   1      -2.507  -1.168  -0.825  0.00  0.00     0.023 A 
ATOM      2  C1  UNL d   1      -1.555  -0.636  -1.695  0.00  0.00     0.003 A 
ATOM      3  C2  UNL d   1      -0.527   0.168  -1.199  0.00  0.00     0.048 A 
ATOM      4  C3  UNL d   1      -0.456   0.435   0.168  0.00  0.00     0.023 A 
ATOM      5  C4  UNL d   1      -1.406  -0.096   1.042  0.00  0.00     0.048 A 
ATOM      6  C5  UNL d   1      -2.432  -0.899   0.541  0.00  0.00     0.003 A 
ATOM      7  I   UNL d   1       1.074   1.632   0.909  0.00  0.00    -0.146 I 
ENDROOT
TORSDOF 0
ENDMDL
