MODEL 1
REMARK minimizedAffinity -2.94592714
REMARK minimizedRMSD -1
REMARK  0 active torsions:
REMARK  status: ('A' for Active; 'I' for Inactive)
ROOT
ATOM      1  C   UNL d   1      -2.677  -0.998  -0.501  0.00  0.00     0.023 A 
ATOM      2  C1  UNL d   1      -1.631  -0.769  -1.396  0.00  0.00     0.003 A 
ATOM      3  C2  UNL d   1      -0.528  -0.009  -1.004  0.00  0.00     0.048 A 
ATOM      4  C3  UNL d   1      -0.475   0.518   0.286  0.00  0.00     0.023 A 
ATOM      5  C4  UNL d   1      -1.519   0.292   1.185  0.00  0.00     0.048 A 
ATOM      6  C5  UNL d   1      -2.620  -0.468   0.788  0.00  0.00     0.003 A 
ATOM      7  I   UNL d   1       1.166   1.650   0.873  0.00  0.00    -0.146 I 
ENDROOT
TORSDOF 0
ENDMDL
