MODEL 1
REMARK minimizedAffinity -2.26010513
REMARK minimizedRMSD -1
REMARK  0 active torsions:
REMARK  status: ('A' for Active; 'I' for Inactive)
ROOT
ATOM      1  C   UNL d   1      -2.672  -0.509  -0.772  0.00  0.00     0.023 A 
ATOM      2  C1  UNL d   1      -1.509  -0.323  -1.520  0.00  0.00     0.003 A 
ATOM      3  C2  UNL d   1      -0.369   0.215  -0.920  0.00  0.00     0.048 A 
ATOM      4  C3  UNL d   1      -0.398   0.565   0.430  0.00  0.00     0.023 A 
ATOM      5  C4  UNL d   1      -1.559   0.380   1.183  0.00  0.00     0.048 A 
ATOM      6  C5  UNL d   1      -2.697  -0.158   0.578  0.00  0.00     0.003 A 
ATOM      7  I   UNL d   1       1.297   1.366   1.326  0.00  0.00    -0.146 I 
ENDROOT
TORSDOF 0
ENDMDL
