MODEL 1
REMARK minimizedAffinity -4.42123413
REMARK minimizedRMSD -1
REMARK  0 active torsions:
REMARK  status: ('A' for Active; 'I' for Inactive)
ROOT
ATOM      1  C   UNL d   1      -3.025  -0.730  -0.281  0.00  0.00     0.023 A 
ATOM      2  C1  UNL d   1      -2.290  -0.220  -1.351  0.00  0.00     0.003 A 
ATOM      3  C2  UNL d   1      -0.954   0.144  -1.171  0.00  0.00     0.048 A 
ATOM      4  C3  UNL d   1      -0.359  -0.007   0.081  0.00  0.00     0.023 A 
ATOM      5  C4  UNL d   1      -1.091  -0.518   1.154  0.00  0.00     0.048 A 
ATOM      6  C5  UNL d   1      -2.427  -0.879   0.970  0.00  0.00     0.003 A 
ATOM      7  I   UNL d   1       1.630   0.533   0.352  0.00  0.00    -0.146 I 
ENDROOT
TORSDOF 0
ENDMDL
