MODEL 1
REMARK minimizedAffinity -3.94170499
REMARK minimizedRMSD -1
REMARK  0 active torsions:
REMARK  status: ('A' for Active; 'I' for Inactive)
ROOT
ATOM      1  C   UNL d   1      -2.833  -1.634  -0.016  0.00  0.00     0.023 A 
ATOM      2  C1  UNL d   1      -2.060  -1.941   1.104  0.00  0.00     0.003 A 
ATOM      3  C2  UNL d   1      -0.825  -1.317   1.294  0.00  0.00     0.048 A 
ATOM      4  C3  UNL d   1      -0.369  -0.387   0.360  0.00  0.00     0.023 A 
ATOM      5  C4  UNL d   1      -1.139  -0.077  -0.762  0.00  0.00     0.048 A 
ATOM      6  C5  UNL d   1      -2.373  -0.703  -0.948  0.00  0.00     0.003 A 
ATOM      7  I   UNL d   1       1.469   0.542   0.640  0.00  0.00    -0.146 I 
ENDROOT
TORSDOF 0
ENDMDL
