MODEL 1
REMARK minimizedAffinity -3.10040379
REMARK minimizedRMSD -1
REMARK  0 active torsions:
REMARK  status: ('A' for Active; 'I' for Inactive)
ROOT
ATOM      1  C   UNL d   1      -2.664  -2.669  -0.092  0.00  0.00     0.023 A 
ATOM      2  C1  UNL d   1      -1.640  -2.864   0.835  0.00  0.00     0.003 A 
ATOM      3  C2  UNL d   1      -0.524  -2.024   0.832  0.00  0.00     0.048 A 
ATOM      4  C3  UNL d   1      -0.440  -0.990  -0.100  0.00  0.00     0.023 A 
ATOM      5  C4  UNL d   1      -1.462  -0.791  -1.029  0.00  0.00     0.048 A 
ATOM      6  C5  UNL d   1      -2.575  -1.634  -1.023  0.00  0.00     0.003 A 
ATOM      7  I   UNL d   1       1.220   0.261  -0.106  0.00  0.00    -0.146 I 
ENDROOT
TORSDOF 0
ENDMDL
