MODEL 1
REMARK minimizedAffinity -4.60988092
REMARK minimizedRMSD -1
REMARK  0 active torsions:
REMARK  status: ('A' for Active; 'I' for Inactive)
ROOT
ATOM      1  C   UNL d   1       1.544  -0.587   0.680  0.00  0.00     0.023 A 
ATOM      2  C1  UNL d   1       0.950   0.212  -0.297  0.00  0.00     0.003 A 
ATOM      3  C2  UNL d   1      -0.376  -0.014  -0.674  0.00  0.00     0.048 A 
ATOM      4  C3  UNL d   1      -1.101  -1.041  -0.070  0.00  0.00     0.023 A 
ATOM      5  C4  UNL d   1      -0.510  -1.842   0.909  0.00  0.00     0.048 A 
ATOM      6  C5  UNL d   1       0.815  -1.613   1.282  0.00  0.00     0.003 A 
ATOM      7  I   UNL d   1      -3.074  -1.379  -0.629  0.00  0.00    -0.146 I 
ENDROOT
TORSDOF 0
ENDMDL
