MODEL 1
REMARK minimizedAffinity -3.66956234
REMARK minimizedRMSD -1
REMARK  0 active torsions:
REMARK  status: ('A' for Active; 'I' for Inactive)
ROOT
ATOM      1  C   UNL d   1       2.652   3.179  -0.041  0.00  0.00     0.023 A 
ATOM      2  C1  UNL d   1       3.037   4.446  -0.480  0.00  0.00     0.003 A 
ATOM      3  C2  UNL d   1       3.822   4.580  -1.628  0.00  0.00     0.048 A 
ATOM      4  C3  UNL d   1       4.216   3.443  -2.332  0.00  0.00     0.023 A 
ATOM      5  C4  UNL d   1       3.832   2.174  -1.897  0.00  0.00     0.048 A 
ATOM      6  C5  UNL d   1       3.049   2.045  -0.749  0.00  0.00     0.003 A 
ATOM      7  I   UNL d   1       5.383   3.640  -4.040  0.00  0.00    -0.146 I 
ENDROOT
TORSDOF 0
ENDMDL
