MODEL 1
REMARK minimizedAffinity -1.9250046
REMARK minimizedRMSD -1
REMARK  0 active torsions:
REMARK  status: ('A' for Active; 'I' for Inactive)
ROOT
ATOM      1  C   UNL d   1       3.236   3.856   0.665  0.00  0.00     0.023 A 
ATOM      2  C1  UNL d   1       2.087   3.550   1.394  0.00  0.00     0.003 A 
ATOM      3  C2  UNL d   1       1.441   2.328   1.200  0.00  0.00     0.048 A 
ATOM      4  C3  UNL d   1       1.949   1.416   0.276  0.00  0.00     0.023 A 
ATOM      5  C4  UNL d   1       3.099   1.717  -0.455  0.00  0.00     0.048 A 
ATOM      6  C5  UNL d   1       3.742   2.941  -0.258  0.00  0.00     0.003 A 
ATOM      7  I   UNL d   1       0.989  -0.404  -0.014  0.00  0.00    -0.146 I 
ENDROOT
TORSDOF 0
ENDMDL
