MODEL 1
REMARK minimizedAffinity -2.96218872
REMARK minimizedRMSD -1
REMARK  0 active torsions:
REMARK  status: ('A' for Active; 'I' for Inactive)
ROOT
ATOM      1  C   UNL d   1       3.942   3.669  -2.569  0.00  0.00     0.023 A 
ATOM      2  C1  UNL d   1       3.643   2.344  -2.253  0.00  0.00     0.003 A 
ATOM      3  C2  UNL d   1       3.112   2.026  -1.001  0.00  0.00     0.048 A 
ATOM      4  C3  UNL d   1       2.883   3.038  -0.070  0.00  0.00     0.023 A 
ATOM      5  C4  UNL d   1       3.181   4.366  -0.382  0.00  0.00     0.048 A 
ATOM      6  C5  UNL d   1       3.712   4.679  -1.634  0.00  0.00     0.003 A 
ATOM      7  I   UNL d   1       2.094   2.567   1.794  0.00  0.00    -0.146 I 
ENDROOT
TORSDOF 0
ENDMDL
