MODEL 1
REMARK minimizedAffinity -3.03476357
REMARK minimizedRMSD -1
REMARK  0 active torsions:
REMARK  status: ('A' for Active; 'I' for Inactive)
ROOT
ATOM      1  C   UNL d   1       2.033   2.805   1.417  0.00  0.00     0.023 A 
ATOM      2  C1  UNL d   1       2.538   4.076   1.143  0.00  0.00     0.003 A 
ATOM      3  C2  UNL d   1       3.207   4.318  -0.058  0.00  0.00     0.048 A 
ATOM      4  C3  UNL d   1       3.368   3.285  -0.981  0.00  0.00     0.023 A 
ATOM      5  C4  UNL d   1       2.864   2.012  -0.711  0.00  0.00     0.048 A 
ATOM      6  C5  UNL d   1       2.196   1.774   0.491  0.00  0.00     0.003 A 
ATOM      7  I   UNL d   1       4.365   3.643  -2.769  0.00  0.00    -0.146 I 
ENDROOT
TORSDOF 0
ENDMDL
