MODEL 1
REMARK minimizedAffinity -1.02090192
REMARK minimizedRMSD -1
REMARK  0 active torsions:
REMARK  status: ('A' for Active; 'I' for Inactive)
ROOT
ATOM      1  C   UNL d   1      -0.512   0.058  -1.239  0.00  0.00     0.172 C 
ATOM      2  N   UNL d   1       0.538  -0.072  -0.257  0.00  0.00    -0.070 N 
ATOM      3  C1  UNL d   1       0.579   0.561   0.957  0.00  0.00    -0.004 A 
ATOM      4  C2  UNL d   1       1.738   0.176   1.595  0.00  0.00    -0.047 A 
ATOM      5  C3  UNL d   1       2.418  -0.719   0.735  0.00  0.00    -0.047 A 
ATOM      6  C4  UNL d   1       1.653  -0.855  -0.404  0.00  0.00    -0.004 A 
ENDROOT
TORSDOF 0
ENDMDL
