MODEL 1
REMARK minimizedAffinity -1.16338742
REMARK minimizedRMSD -1
REMARK  0 active torsions:
REMARK  status: ('A' for Active; 'I' for Inactive)
ROOT
ATOM      1  C   UNL d   1      -0.032  -1.999   2.975  0.00  0.00     0.172 C 
ATOM      2  N   UNL d   1      -0.077  -1.106   1.841  0.00  0.00    -0.070 N 
ATOM      3  C1  UNL d   1      -1.178  -0.856   1.065  0.00  0.00    -0.004 A 
ATOM      4  C2  UNL d   1      -0.811   0.048   0.091  0.00  0.00    -0.047 A 
ATOM      5  C3  UNL d   1       0.557   0.351   0.288  0.00  0.00    -0.047 A 
ATOM      6  C4  UNL d   1       0.986  -0.377   1.378  0.00  0.00    -0.004 A 
ENDROOT
TORSDOF 0
ENDMDL
