MODEL 1
REMARK minimizedAffinity 1.07684338
REMARK minimizedRMSD -1
REMARK  0 active torsions:
REMARK  status: ('A' for Active; 'I' for Inactive)
ROOT
ATOM      1  C   UNL d   1      -3.009   1.670  -3.129  0.00  0.00     0.172 C 
ATOM      2  N   UNL d   1      -3.541   0.345  -3.344  0.00  0.00    -0.070 N 
ATOM      3  C1  UNL d   1      -4.590   0.030  -4.166  0.00  0.00    -0.004 A 
ATOM      4  C2  UNL d   1      -4.787  -1.333  -4.095  0.00  0.00    -0.047 A 
ATOM      5  C3  UNL d   1      -3.823  -1.854  -3.199  0.00  0.00    -0.047 A 
ATOM      6  C4  UNL d   1      -3.065  -0.793  -2.749  0.00  0.00    -0.004 A 
ENDROOT
TORSDOF 0
ENDMDL
