MODEL 1
REMARK minimizedAffinity -3.42482495
REMARK minimizedRMSD -1
REMARK  0 active torsions:
REMARK  status: ('A' for Active; 'I' for Inactive)
ROOT
ATOM      1  C   UNL d   1      -0.047   0.293  -1.016  0.00  0.00     0.172 C 
ATOM      2  N   UNL d   1       0.221  -0.171   0.325  0.00  0.00    -0.070 N 
ATOM      3  C1  UNL d   1      -0.666  -0.152   1.368  0.00  0.00    -0.004 A 
ATOM      4  C2  UNL d   1      -0.031  -0.679   2.472  0.00  0.00    -0.047 A 
ATOM      5  C3  UNL d   1       1.284  -1.024   2.079  0.00  0.00    -0.047 A 
ATOM      6  C4  UNL d   1       1.413  -0.699   0.745  0.00  0.00    -0.004 A 
ENDROOT
TORSDOF 0
ENDMDL
