MODEL 1
REMARK minimizedAffinity -1.98276949
REMARK minimizedRMSD -1
REMARK  0 active torsions:
REMARK  status: ('A' for Active; 'I' for Inactive)
ROOT
ATOM      1  C   UNL d   1      -1.782   0.360   1.177  0.00  0.00     0.172 C 
ATOM      2  N   UNL d   1      -0.499  -0.086   1.667  0.00  0.00    -0.070 N 
ATOM      3  C1  UNL d   1      -0.248  -0.569   2.923  0.00  0.00    -0.004 A 
ATOM      4  C2  UNL d   1       1.092  -0.885   2.994  0.00  0.00    -0.047 A 
ATOM      5  C3  UNL d   1       1.666  -0.581   1.737  0.00  0.00    -0.047 A 
ATOM      6  C4  UNL d   1       0.659  -0.088   0.934  0.00  0.00    -0.004 A 
ENDROOT
TORSDOF 0
ENDMDL
