MODEL 1
REMARK minimizedAffinity -2.85496044
REMARK minimizedRMSD -1
REMARK  0 active torsions:
REMARK  status: ('A' for Active; 'I' for Inactive)
ROOT
ATOM      1  C   UNL d   1       1.835  -1.288  -0.236  0.00  0.00     0.172 C 
ATOM      2  N   UNL d   1       0.746  -0.791   0.571  0.00  0.00    -0.070 N 
ATOM      3  C1  UNL d   1      -0.448  -0.318   0.097  0.00  0.00    -0.004 A 
ATOM      4  C2  UNL d   1      -1.213   0.058   1.180  0.00  0.00    -0.047 A 
ATOM      5  C3  UNL d   1      -0.452  -0.197   2.345  0.00  0.00    -0.047 A 
ATOM      6  C4  UNL d   1       0.757  -0.723   1.939  0.00  0.00    -0.004 A 
ENDROOT
TORSDOF 0
ENDMDL
