MODEL 1
REMARK minimizedAffinity -1.0920223
REMARK minimizedRMSD -1
REMARK  0 active torsions:
REMARK  status: ('A' for Active; 'I' for Inactive)
ROOT
ATOM      1  C   UNL d   1      -0.325   0.483  -1.289  0.00  0.00     0.172 C 
ATOM      2  N   UNL d   1      -0.134  -0.014   0.054  0.00  0.00    -0.070 N 
ATOM      3  C1  UNL d   1      -1.130  -0.295   0.951  0.00  0.00    -0.004 A 
ATOM      4  C2  UNL d   1      -0.538  -0.745   2.111  0.00  0.00    -0.047 A 
ATOM      5  C3  UNL d   1       0.862  -0.734   1.904  0.00  0.00    -0.047 A 
ATOM      6  C4  UNL d   1       1.084  -0.278   0.622  0.00  0.00    -0.004 A 
ENDROOT
TORSDOF 0
ENDMDL
