MODEL 1
REMARK minimizedAffinity -3.03010988
REMARK minimizedRMSD -1
REMARK  0 active torsions:
REMARK  status: ('A' for Active; 'I' for Inactive)
ROOT
ATOM      1  C   UNL d   1      -0.284   0.415  -0.795  0.00  0.00     0.172 C 
ATOM      2  N   UNL d   1      -0.043   0.068   0.585  0.00  0.00    -0.070 N 
ATOM      3  C1  UNL d   1      -0.994   0.002   1.569  0.00  0.00    -0.004 A 
ATOM      4  C2  UNL d   1      -0.364  -0.362   2.740  0.00  0.00    -0.047 A 
ATOM      5  C3  UNL d   1       1.012  -0.518   2.450  0.00  0.00    -0.047 A 
ATOM      6  C4  UNL d   1       1.183  -0.246   1.109  0.00  0.00    -0.004 A 
ENDROOT
TORSDOF 0
ENDMDL
