MODEL 1
REMARK minimizedAffinity 0.549946666
REMARK minimizedRMSD -1
REMARK  0 active torsions:
REMARK  status: ('A' for Active; 'I' for Inactive)
ROOT
ATOM      1  C   UNL d   1       1.763  -1.438   1.030  0.00  0.00     0.020 A 
ATOM      2  C1  UNL d   1       1.838  -2.724   1.563  0.00  0.00     0.020 A 
ATOM      3  C2  UNL d   1       0.840  -3.183   2.425  0.00  0.00     0.034 A 
ATOM      4  C3  UNL d   1      -0.238  -2.354   2.757  0.00  0.00     0.017 A 
ATOM      5  C4  UNL d   1      -0.313  -1.064   2.222  0.00  0.00     0.017 A 
ATOM      6  C5  UNL d   1       0.689  -0.610   1.359  0.00  0.00     0.034 A 
ATOM      7 Cl   UNL d   1      -1.613   0.016   2.585  0.00  0.00    -0.070 Cl
ATOM      8 Cl1  UNL d   1      -1.437  -2.987   3.829  0.00  0.00    -0.070 Cl
ENDROOT
TORSDOF 0
ENDMDL
