MODEL 1
REMARK minimizedAffinity 0.0538731962
REMARK minimizedRMSD -1
REMARK  0 active torsions:
REMARK  status: ('A' for Active; 'I' for Inactive)
ROOT
ATOM      1  C   UNL d   1       2.550  -3.113   1.384  0.00  0.00     0.020 A 
ATOM      2  C1  UNL d   1       2.208  -4.331   1.972  0.00  0.00     0.020 A 
ATOM      3  C2  UNL d   1       1.113  -4.406   2.835  0.00  0.00     0.034 A 
ATOM      4  C3  UNL d   1       0.355  -3.263   3.112  0.00  0.00     0.017 A 
ATOM      5  C4  UNL d   1       0.699  -2.041   2.522  0.00  0.00     0.017 A 
ATOM      6  C5  UNL d   1       1.797  -1.971   1.659  0.00  0.00     0.034 A 
ATOM      7 Cl   UNL d   1      -0.188  -0.587   2.816  0.00  0.00    -0.070 Cl
ATOM      8 Cl1  UNL d   1      -0.987  -3.429   4.188  0.00  0.00    -0.070 Cl
ENDROOT
TORSDOF 0
ENDMDL
