MODEL 1
REMARK minimizedAffinity 1.42022216
REMARK minimizedRMSD -1
REMARK  0 active torsions:
REMARK  status: ('A' for Active; 'I' for Inactive)
ROOT
ATOM      1  C   UNL d   1       1.822   4.065  -5.630  0.00  0.00     0.020 A 
ATOM      2  C1  UNL d   1       1.956   5.420  -5.930  0.00  0.00     0.020 A 
ATOM      3  C2  UNL d   1       3.226   5.997  -5.998  0.00  0.00     0.034 A 
ATOM      4  C3  UNL d   1       4.367   5.220  -5.767  0.00  0.00     0.017 A 
ATOM      5  C4  UNL d   1       4.231   3.860  -5.466  0.00  0.00     0.017 A 
ATOM      6  C5  UNL d   1       2.957   3.286  -5.399  0.00  0.00     0.034 A 
ATOM      7 Cl   UNL d   1       5.591   2.836  -5.169  0.00  0.00    -0.070 Cl
ATOM      8 Cl1  UNL d   1       5.905   6.000  -5.868  0.00  0.00    -0.070 Cl
ENDROOT
TORSDOF 0
ENDMDL
