MODEL 1
REMARK minimizedAffinity 3.94376302
REMARK minimizedRMSD -1
REMARK  0 active torsions:
REMARK  status: ('A' for Active; 'I' for Inactive)
ROOT
ATOM      1  C   UNL d   1       0.721  -0.316   3.209  0.00  0.00     0.020 A 
ATOM      2  C1  UNL d   1       1.824  -0.533   2.385  0.00  0.00     0.020 A 
ATOM      3  C2  UNL d   1       1.904  -1.698   1.618  0.00  0.00     0.034 A 
ATOM      4  C3  UNL d   1       0.880  -2.650   1.675  0.00  0.00     0.017 A 
ATOM      5  C4  UNL d   1      -0.227  -2.431   2.502  0.00  0.00     0.017 A 
ATOM      6  C5  UNL d   1      -0.303  -1.262   3.267  0.00  0.00     0.034 A 
ATOM      7 Cl   UNL d   1      -1.531  -3.559   2.625  0.00  0.00    -0.070 Cl
ATOM      8 Cl1  UNL d   1       1.045  -4.067   0.700  0.00  0.00    -0.070 Cl
ENDROOT
TORSDOF 0
ENDMDL
