MODEL 1
REMARK minimizedAffinity 4.8067441
REMARK minimizedRMSD -1
REMARK  0 active torsions:
REMARK  status: ('A' for Active; 'I' for Inactive)
ROOT
ATOM      1  C   UNL d   1      -2.016   2.290  -3.729  0.00  0.00     0.020 A 
ATOM      2  C1  UNL d   1      -2.385   3.568  -3.313  0.00  0.00     0.020 A 
ATOM      3  C2  UNL d   1      -3.603   4.112  -3.725  0.00  0.00     0.034 A 
ATOM      4  C3  UNL d   1      -4.456   3.378  -4.556  0.00  0.00     0.017 A 
ATOM      5  C4  UNL d   1      -4.085   2.095  -4.974  0.00  0.00     0.017 A 
ATOM      6  C5  UNL d   1      -2.864   1.555  -4.558  0.00  0.00     0.034 A 
ATOM      7 Cl   UNL d   1      -5.085   1.128  -6.000  0.00  0.00    -0.070 Cl
ATOM      8 Cl1  UNL d   1      -5.948   4.112  -5.027  0.00  0.00    -0.070 Cl
ENDROOT
TORSDOF 0
ENDMDL
