MODEL 1
REMARK minimizedAffinity 12.1952591
REMARK minimizedRMSD -1
REMARK  0 active torsions:
REMARK  status: ('A' for Active; 'I' for Inactive)
ROOT
ATOM      1  C   UNL d   1       2.048  -1.230   0.675  0.00  0.00     0.020 A 
ATOM      2  C1  UNL d   1       0.930  -1.442   1.481  0.00  0.00     0.020 A 
ATOM      3  C2  UNL d   1       0.298  -2.688   1.484  0.00  0.00     0.034 A 
ATOM      4  C3  UNL d   1       0.783  -3.725   0.680  0.00  0.00     0.017 A 
ATOM      5  C4  UNL d   1       1.905  -3.512  -0.129  0.00  0.00     0.017 A 
ATOM      6  C5  UNL d   1       2.534  -2.263  -0.128  0.00  0.00     0.034 A 
ATOM      7 Cl   UNL d   1       2.562  -4.744  -1.148  0.00  0.00    -0.070 Cl
ATOM      8 Cl1  UNL d   1      -0.048  -5.239   0.734  0.00  0.00    -0.070 Cl
ENDROOT
TORSDOF 0
ENDMDL
