MODEL 1
REMARK minimizedAffinity 3.90635109
REMARK minimizedRMSD -1
REMARK  0 active torsions:
REMARK  status: ('A' for Active; 'I' for Inactive)
ROOT
ATOM      1  C   UNL d   1      -1.116   2.542  -4.041  0.00  0.00     0.020 A 
ATOM      2  C1  UNL d   1      -2.253   2.184  -3.317  0.00  0.00     0.020 A 
ATOM      3  C2  UNL d   1      -3.380   3.007  -3.334  0.00  0.00     0.034 A 
ATOM      4  C3  UNL d   1      -3.375   4.193  -4.078  0.00  0.00     0.017 A 
ATOM      5  C4  UNL d   1      -2.234   4.552  -4.805  0.00  0.00     0.017 A 
ATOM      6  C5  UNL d   1      -1.107   3.724  -4.784  0.00  0.00     0.034 A 
ATOM      7 Cl   UNL d   1      -2.151   5.999  -5.745  0.00  0.00    -0.070 Cl
ATOM      8 Cl1  UNL d   1      -4.804   5.163  -4.054  0.00  0.00    -0.070 Cl
ENDROOT
TORSDOF 0
ENDMDL
