MODEL 1
REMARK minimizedAffinity 8.75447559
REMARK minimizedRMSD -1
REMARK  0 active torsions:
REMARK  status: ('A' for Active; 'I' for Inactive)
ROOT
ATOM      1  C   UNL d   1       0.556  -2.434   0.232  0.00  0.00     0.020 A 
ATOM      2  C1  UNL d   1       1.921  -2.235   0.435  0.00  0.00     0.020 A 
ATOM      3  C2  UNL d   1       2.360  -1.449   1.502  0.00  0.00     0.034 A 
ATOM      4  C3  UNL d   1       1.435  -0.859   2.370  0.00  0.00     0.017 A 
ATOM      5  C4  UNL d   1       0.065  -1.059   2.165  0.00  0.00     0.017 A 
ATOM      6  C5  UNL d   1      -0.370  -1.847   1.095  0.00  0.00     0.034 A 
ATOM      7 Cl   UNL d   1      -1.138  -0.363   3.194  0.00  0.00    -0.070 Cl
ATOM      8 Cl1  UNL d   1       2.049   0.100   3.669  0.00  0.00    -0.070 Cl
ENDROOT
TORSDOF 0
ENDMDL
