MODEL 1
REMARK minimizedAffinity 8.98641396
REMARK minimizedRMSD -1
REMARK  0 active torsions:
REMARK  status: ('A' for Active; 'I' for Inactive)
ROOT
ATOM      1  C   UNL d   1       3.347  -1.441   2.856  0.00  0.00     0.020 A 
ATOM      2  C1  UNL d   1       2.305  -0.547   3.102  0.00  0.00     0.020 A 
ATOM      3  C2  UNL d   1       1.145  -0.596   2.327  0.00  0.00     0.034 A 
ATOM      4  C3  UNL d   1       1.023  -1.540   1.301  0.00  0.00     0.017 A 
ATOM      5  C4  UNL d   1       2.069  -2.437   1.054  0.00  0.00     0.017 A 
ATOM      6  C5  UNL d   1       3.229  -2.384   1.834  0.00  0.00     0.034 A 
ATOM      7 Cl   UNL d   1       1.992  -3.630  -0.194  0.00  0.00    -0.070 Cl
ATOM      8 Cl1  UNL d   1      -0.440  -1.544   0.381  0.00  0.00    -0.070 Cl
ENDROOT
TORSDOF 0
ENDMDL
