MODEL 1
REMARK minimizedAffinity 14.5554981
REMARK minimizedRMSD -1
REMARK  0 active torsions:
REMARK  status: ('A' for Active; 'I' for Inactive)
ROOT
ATOM      1  C   UNL d   1      -0.037  -2.200  -0.487  0.00  0.00     0.020 A 
ATOM      2  C1  UNL d   1       0.827  -2.818  -1.389  0.00  0.00     0.020 A 
ATOM      3  C2  UNL d   1       2.202  -2.829  -1.144  0.00  0.00     0.034 A 
ATOM      4  C3  UNL d   1       2.716  -2.221   0.007  0.00  0.00     0.017 A 
ATOM      5  C4  UNL d   1       1.847  -1.601   0.913  0.00  0.00     0.017 A 
ATOM      6  C5  UNL d   1       0.472  -1.593   0.662  0.00  0.00     0.034 A 
ATOM      7 Cl   UNL d   1       2.407  -0.830   2.355  0.00  0.00    -0.070 Cl
ATOM      8 Cl1  UNL d   1       4.426  -2.273   0.248  0.00  0.00    -0.070 Cl
ENDROOT
TORSDOF 0
ENDMDL
