MODEL 1
REMARK minimizedAffinity 12.4516125
REMARK minimizedRMSD -1
REMARK  0 active torsions:
REMARK  status: ('A' for Active; 'I' for Inactive)
ROOT
ATOM      1  C   UNL d   1       2.664  -1.583  -0.620  0.00  0.00     0.020 A 
ATOM      2  C1  UNL d   1       1.655  -1.421  -1.569  0.00  0.00     0.020 A 
ATOM      3  C2  UNL d   1       1.052  -2.542  -2.144  0.00  0.00     0.034 A 
ATOM      4  C3  UNL d   1       1.457  -3.829  -1.772  0.00  0.00     0.017 A 
ATOM      5  C4  UNL d   1       2.469  -3.990  -0.819  0.00  0.00     0.017 A 
ATOM      6  C5  UNL d   1       3.070  -2.865  -0.246  0.00  0.00     0.034 A 
ATOM      7 Cl   UNL d   1       3.022  -5.546  -0.309  0.00  0.00    -0.070 Cl
ATOM      8 Cl1  UNL d   1       0.667  -5.169  -2.524  0.00  0.00    -0.070 Cl
ENDROOT
TORSDOF 0
ENDMDL
