MODEL 1
REMARK minimizedAffinity 10.6382923
REMARK minimizedRMSD -1
REMARK  0 active torsions:
REMARK  status: ('A' for Active; 'I' for Inactive)
ROOT
ATOM      1  C   UNL d   1       1.497  -1.852  -1.940  0.00  0.00     0.020 A 
ATOM      2  C1  UNL d   1       2.537  -2.144  -1.059  0.00  0.00     0.020 A 
ATOM      3  C2  UNL d   1       3.079  -3.431  -1.019  0.00  0.00     0.034 A 
ATOM      4  C3  UNL d   1       2.580  -4.431  -1.862  0.00  0.00     0.017 A 
ATOM      5  C4  UNL d   1       1.535  -4.137  -2.746  0.00  0.00     0.017 A 
ATOM      6  C5  UNL d   1       0.997  -2.847  -2.782  0.00  0.00     0.034 A 
ATOM      7 Cl   UNL d   1       0.867  -5.318  -3.816  0.00  0.00    -0.070 Cl
ATOM      8 Cl1  UNL d   1       3.296  -5.999  -1.759  0.00  0.00    -0.070 Cl
ENDROOT
TORSDOF 0
ENDMDL
