MODEL 1
REMARK minimizedAffinity 4.72857141
REMARK minimizedRMSD -1
REMARK  0 active torsions:
REMARK  status: ('A' for Active; 'I' for Inactive)
ROOT
ATOM      1  C   UNL d   1      -3.917  -1.511  -5.518  0.00  0.00     0.020 A 
ATOM      2  C1  UNL d   1      -3.109  -1.347  -4.394  0.00  0.00     0.020 A 
ATOM      3  C2  UNL d   1      -2.577  -2.465  -3.748  0.00  0.00     0.034 A 
ATOM      4  C3  UNL d   1      -2.853  -3.751  -4.224  0.00  0.00     0.017 A 
ATOM      5  C4  UNL d   1      -3.665  -3.915  -5.353  0.00  0.00     0.017 A 
ATOM      6  C5  UNL d   1      -4.195  -2.792  -5.996  0.00  0.00     0.034 A 
ATOM      7 Cl   UNL d   1      -4.050  -5.471  -6.000  0.00  0.00    -0.070 Cl
ATOM      8 Cl1  UNL d   1      -2.162  -5.088  -3.376  0.00  0.00    -0.070 Cl
ENDROOT
TORSDOF 0
ENDMDL
