MODEL 1
REMARK minimizedAffinity 18.9841709
REMARK minimizedRMSD -1
REMARK  0 active torsions:
REMARK  status: ('A' for Active; 'I' for Inactive)
ROOT
ATOM      1  C   UNL d   1       3.883   2.208  -0.620  0.00  0.00     0.020 A 
ATOM      2  C1  UNL d   1       4.008   1.169   0.301  0.00  0.00     0.020 A 
ATOM      3  C2  UNL d   1       3.116   1.075   1.372  0.00  0.00     0.034 A 
ATOM      4  C3  UNL d   1       2.097   2.022   1.524  0.00  0.00     0.017 A 
ATOM      5  C4  UNL d   1       1.973   3.064   0.599  0.00  0.00     0.017 A 
ATOM      6  C5  UNL d   1       2.868   3.154  -0.472  0.00  0.00     0.034 A 
ATOM      7 Cl   UNL d   1       0.740   4.270   0.720  0.00  0.00    -0.070 Cl
ATOM      8 Cl1  UNL d   1       1.030   1.844   2.871  0.00  0.00    -0.070 Cl
ENDROOT
TORSDOF 0
ENDMDL
