MODEL 1
REMARK minimizedAffinity 14.9549074
REMARK minimizedRMSD -1
REMARK  0 active torsions:
REMARK  status: ('A' for Active; 'I' for Inactive)
ROOT
ATOM      1  C   UNL d   1      -4.533  -3.661  -5.402  0.00  0.00     0.020 A 
ATOM      2  C1  UNL d   1      -3.573  -2.836  -5.987  0.00  0.00     0.020 A 
ATOM      3  C2  UNL d   1      -2.287  -2.770  -5.448  0.00  0.00     0.034 A 
ATOM      4  C3  UNL d   1      -1.956  -3.531  -4.321  0.00  0.00     0.017 A 
ATOM      5  C4  UNL d   1      -2.920  -4.358  -3.734  0.00  0.00     0.017 A 
ATOM      6  C5  UNL d   1      -4.207  -4.420  -4.277  0.00  0.00     0.034 A 
ATOM      7 Cl   UNL d   1      -2.586  -5.326  -2.341  0.00  0.00    -0.070 Cl
ATOM      8 Cl1  UNL d   1      -0.346  -3.401  -3.708  0.00  0.00    -0.070 Cl
ENDROOT
TORSDOF 0
ENDMDL
