MODEL 1
REMARK minimizedAffinity 9.04924107
REMARK minimizedRMSD -1
REMARK  0 active torsions:
REMARK  status: ('A' for Active; 'I' for Inactive)
ROOT
ATOM      1  C   UNL d   1       0.835  -3.011  -3.293  0.00  0.00     0.020 A 
ATOM      2  C1  UNL d   1       1.162  -1.888  -2.535  0.00  0.00     0.020 A 
ATOM      3  C2  UNL d   1       2.013  -2.011  -1.435  0.00  0.00     0.034 A 
ATOM      4  C3  UNL d   1       2.539  -3.261  -1.089  0.00  0.00     0.017 A 
ATOM      5  C4  UNL d   1       2.210  -4.388  -1.850  0.00  0.00     0.017 A 
ATOM      6  C5  UNL d   1       1.358  -4.259  -2.951  0.00  0.00     0.034 A 
ATOM      7 Cl   UNL d   1       2.820  -5.964  -1.485  0.00  0.00    -0.070 Cl
ATOM      8 Cl1  UNL d   1       3.584  -3.341   0.285  0.00  0.00    -0.070 Cl
ENDROOT
TORSDOF 0
ENDMDL
