MODEL 1
REMARK minimizedAffinity 7.73046446
REMARK minimizedRMSD -1
REMARK  0 active torsions:
REMARK  status: ('A' for Active; 'I' for Inactive)
ROOT
ATOM      1  C   UNL d   1      -3.989  -5.609  -5.995  0.00  0.00     0.020 A 
ATOM      2  C1  UNL d   1      -5.374  -5.454  -5.999  0.00  0.00     0.020 A 
ATOM      3  C2  UNL d   1      -5.934  -4.175  -6.000  0.00  0.00     0.034 A 
ATOM      4  C3  UNL d   1      -5.107  -3.045  -5.996  0.00  0.00     0.017 A 
ATOM      5  C4  UNL d   1      -3.717  -3.201  -5.993  0.00  0.00     0.017 A 
ATOM      6  C5  UNL d   1      -3.162  -4.485  -5.992  0.00  0.00     0.034 A 
ATOM      7 Cl   UNL d   1      -2.632  -1.855  -5.989  0.00  0.00    -0.070 Cl
ATOM      8 Cl1  UNL d   1      -5.867  -1.493  -5.997  0.00  0.00    -0.070 Cl
ENDROOT
TORSDOF 0
ENDMDL
