MODEL 1
REMARK minimizedAffinity 17.61236
REMARK minimizedRMSD -1
REMARK  0 active torsions:
REMARK  status: ('A' for Active; 'I' for Inactive)
ROOT
ATOM      1  C   UNL d   1      -0.302   0.805   2.059  0.00  0.00     0.020 A 
ATOM      2  C1  UNL d   1      -0.653   2.149   2.183  0.00  0.00     0.020 A 
ATOM      3  C2  UNL d   1      -1.946   2.499   2.575  0.00  0.00     0.034 A 
ATOM      4  C3  UNL d   1      -2.894   1.505   2.845  0.00  0.00     0.017 A 
ATOM      5  C4  UNL d   1      -2.540   0.157   2.721  0.00  0.00     0.017 A 
ATOM      6  C5  UNL d   1      -1.244  -0.189   2.328  0.00  0.00     0.034 A 
ATOM      7 Cl   UNL d   1      -3.655  -1.126   3.037  0.00  0.00    -0.070 Cl
ATOM      8 Cl1  UNL d   1      -4.475   2.011   3.325  0.00  0.00    -0.070 Cl
ENDROOT
TORSDOF 0
ENDMDL
