MODEL 1
REMARK minimizedAffinity 15.1595974
REMARK minimizedRMSD -1
REMARK  0 active torsions:
REMARK  status: ('A' for Active; 'I' for Inactive)
ROOT
ATOM      1  C   UNL d   1       0.987   6.000   0.170  0.00  0.00     0.020 A 
ATOM      2  C1  UNL d   1       1.128   6.000  -1.217  0.00  0.00     0.020 A 
ATOM      3  C2  UNL d   1       1.520   4.835  -1.879  0.00  0.00     0.034 A 
ATOM      4  C3  UNL d   1       1.774   3.665  -1.154  0.00  0.00     0.017 A 
ATOM      5  C4  UNL d   1       1.633   3.666   0.239  0.00  0.00     0.017 A 
ATOM      6  C5  UNL d   1       1.239   4.835   0.896  0.00  0.00     0.034 A 
ATOM      7 Cl   UNL d   1       1.928   2.261   1.201  0.00  0.00    -0.070 Cl
ATOM      8 Cl1  UNL d   1       2.256   2.260  -2.038  0.00  0.00    -0.070 Cl
ENDROOT
TORSDOF 0
ENDMDL
