MODEL 1
REMARK minimizedAffinity 13.8982716
REMARK minimizedRMSD -1
REMARK  0 active torsions:
REMARK  status: ('A' for Active; 'I' for Inactive)
ROOT
ATOM      1  C   UNL d   1       2.686  -6.000   0.717  0.00  0.00     0.020 A 
ATOM      2  C1  UNL d   1       1.450  -5.390   0.507  0.00  0.00     0.020 A 
ATOM      3  C2  UNL d   1       1.383  -4.019   0.246  0.00  0.00     0.034 A 
ATOM      4  C3  UNL d   1       2.555  -3.255   0.194  0.00  0.00     0.017 A 
ATOM      5  C4  UNL d   1       3.795  -3.869   0.404  0.00  0.00     0.017 A 
ATOM      6  C5  UNL d   1       3.856  -5.241   0.665  0.00  0.00     0.034 A 
ATOM      7 Cl   UNL d   1       5.283  -2.991   0.355  0.00  0.00    -0.070 Cl
ATOM      8 Cl1  UNL d   1       2.398  -1.566  -0.135  0.00  0.00    -0.070 Cl
ENDROOT
TORSDOF 0
ENDMDL
