MODEL 1
REMARK minimizedAffinity 11.2724314
REMARK minimizedRMSD -1
REMARK  0 active torsions:
REMARK  status: ('A' for Active; 'I' for Inactive)
ROOT
ATOM      1  C   UNL d   1       1.948  -0.593  -0.863  0.00  0.00     0.020 A 
ATOM      2  C1  UNL d   1       1.312  -0.616  -2.104  0.00  0.00     0.020 A 
ATOM      3  C2  UNL d   1       1.174  -1.821  -2.796  0.00  0.00     0.034 A 
ATOM      4  C3  UNL d   1       1.673  -3.008  -2.248  0.00  0.00     0.017 A 
ATOM      5  C4  UNL d   1       2.310  -2.985  -1.002  0.00  0.00     0.017 A 
ATOM      6  C5  UNL d   1       2.445  -1.775  -0.313  0.00  0.00     0.034 A 
ATOM      7 Cl   UNL d   1       2.951  -4.409  -0.261  0.00  0.00    -0.070 Cl
ATOM      8 Cl1  UNL d   1       1.467  -4.462  -3.158  0.00  0.00    -0.070 Cl
ENDROOT
TORSDOF 0
ENDMDL
