MODEL 1
REMARK minimizedAffinity 3.56735563
REMARK minimizedRMSD -1
REMARK  0 active torsions:
REMARK  status: ('A' for Active; 'I' for Inactive)
ROOT
ATOM      1  C   UNL d   1      -2.103  -4.806  -5.967  0.00  0.00     0.020 A 
ATOM      2  C1  UNL d   1      -2.079  -3.412  -5.966  0.00  0.00     0.020 A 
ATOM      3  C2  UNL d   1      -3.276  -2.693  -5.975  0.00  0.00     0.034 A 
ATOM      4  C3  UNL d   1      -4.502  -3.368  -5.986  0.00  0.00     0.017 A 
ATOM      5  C4  UNL d   1      -4.526  -4.767  -5.987  0.00  0.00     0.017 A 
ATOM      6  C5  UNL d   1      -3.324  -5.482  -5.978  0.00  0.00     0.034 A 
ATOM      7 Cl   UNL d   1      -6.000  -5.669  -6.000  0.00  0.00    -0.070 Cl
ATOM      8 Cl1  UNL d   1      -5.943  -2.414  -5.997  0.00  0.00    -0.070 Cl
ENDROOT
TORSDOF 0
ENDMDL
