MODEL 1
REMARK minimizedAffinity 4.32809067
REMARK minimizedRMSD -1
REMARK  0 active torsions:
REMARK  status: ('A' for Active; 'I' for Inactive)
ROOT
ATOM      1  C   UNL d   1       1.583  -1.971  -1.495  0.00  0.00     0.020 A 
ATOM      2  C1  UNL d   1       2.642  -2.276  -0.642  0.00  0.00     0.020 A 
ATOM      3  C2  UNL d   1       3.262  -3.526  -0.717  0.00  0.00     0.034 A 
ATOM      4  C3  UNL d   1       2.822  -4.474  -1.647  0.00  0.00     0.017 A 
ATOM      5  C4  UNL d   1       1.758  -4.167  -2.503  0.00  0.00     0.017 A 
ATOM      6  C5  UNL d   1       1.142  -2.914  -2.423  0.00  0.00     0.034 A 
ATOM      7 Cl   UNL d   1       1.160  -5.286  -3.677  0.00  0.00    -0.070 Cl
ATOM      8 Cl1  UNL d   1       3.634  -5.999  -1.685  0.00  0.00    -0.070 Cl
ENDROOT
TORSDOF 0
ENDMDL
