MODEL 1
REMARK minimizedAffinity 6.36333847
REMARK minimizedRMSD -1
REMARK  0 active torsions:
REMARK  status: ('A' for Active; 'I' for Inactive)
ROOT
ATOM      1  C   UNL d   1       4.575   2.168   0.840  0.00  0.00     0.020 A 
ATOM      2  C1  UNL d   1       4.683   2.938  -0.317  0.00  0.00     0.020 A 
ATOM      3  C2  UNL d   1       3.614   3.738  -0.725  0.00  0.00     0.034 A 
ATOM      4  C3  UNL d   1       2.432   3.770   0.024  0.00  0.00     0.017 A 
ATOM      5  C4  UNL d   1       2.325   2.996   1.186  0.00  0.00     0.017 A 
ATOM      6  C5  UNL d   1       3.398   2.196   1.590  0.00  0.00     0.034 A 
ATOM      7 Cl   UNL d   1       0.899   2.982   2.162  0.00  0.00    -0.070 Cl
ATOM      8 Cl1  UNL d   1       1.150   4.782  -0.539  0.00  0.00    -0.070 Cl
ENDROOT
TORSDOF 0
ENDMDL
