MODEL 1
REMARK minimizedAffinity 14.6982775
REMARK minimizedRMSD -1
REMARK  0 active torsions:
REMARK  status: ('A' for Active; 'I' for Inactive)
ROOT
ATOM      1  C   UNL d   1       4.700   1.380  -0.999  0.00  0.00     0.020 A 
ATOM      2  C1  UNL d   1       3.835   2.055  -1.859  0.00  0.00     0.020 A 
ATOM      3  C2  UNL d   1       2.798   2.832  -1.339  0.00  0.00     0.034 A 
ATOM      4  C3  UNL d   1       2.623   2.935   0.046  0.00  0.00     0.017 A 
ATOM      5  C4  UNL d   1       3.491   2.258   0.909  0.00  0.00     0.017 A 
ATOM      6  C5  UNL d   1       4.528   1.481   0.382  0.00  0.00     0.034 A 
ATOM      7 Cl   UNL d   1       3.339   2.337   2.629  0.00  0.00    -0.070 Cl
ATOM      8 Cl1  UNL d   1       1.319   3.914   0.620  0.00  0.00    -0.070 Cl
ENDROOT
TORSDOF 0
ENDMDL
