MODEL 1
REMARK minimizedAffinity 19.6420879
REMARK minimizedRMSD -1
REMARK  0 active torsions:
REMARK  status: ('A' for Active; 'I' for Inactive)
ROOT
ATOM      1  C   UNL d   1      -3.066   0.366   1.858  0.00  0.00     0.020 A 
ATOM      2  C1  UNL d   1      -2.897   0.401   3.241  0.00  0.00     0.020 A 
ATOM      3  C2  UNL d   1      -3.690  -0.403   4.062  0.00  0.00     0.034 A 
ATOM      4  C3  UNL d   1      -4.657  -1.245   3.501  0.00  0.00     0.017 A 
ATOM      5  C4  UNL d   1      -4.826  -1.279   2.112  0.00  0.00     0.017 A 
ATOM      6  C5  UNL d   1      -4.029  -0.472   1.295  0.00  0.00     0.034 A 
ATOM      7 Cl   UNL d   1      -5.998  -2.293   1.346  0.00  0.00    -0.070 Cl
ATOM      8 Cl1  UNL d   1      -5.602  -2.212   4.576  0.00  0.00    -0.070 Cl
ENDROOT
TORSDOF 0
ENDMDL
