MODEL 1
REMARK minimizedAffinity 11.9334602
REMARK minimizedRMSD -1
REMARK  1 active torsions:
REMARK  status: ('A' for Active; 'I' for Inactive)
REMARK    1  A    between atoms: C1_2  and  C2_3 
ROOT
ATOM      1  C2  UNL d   1       5.043  -3.135   2.726  0.00  0.00    -0.073 A 
ATOM      2  C3  UNL d   1       6.000  -3.864   3.441  0.00  0.00    -0.002 A 
ATOM      3  C4  UNL d   1       5.994  -5.259   3.405  0.00  0.00     0.004 A 
ATOM      4  C5  UNL d   1       5.038  -5.938   2.650  0.00  0.00    -0.004 A 
ATOM      5  C6  UNL d   1       4.081  -5.227   1.919  0.00  0.00    -0.075 A 
ATOM      6  C7  UNL d   1       3.045  -5.942   1.103  0.00  0.00     0.076 C 
ATOM      7  C8  UNL d   1       4.092  -3.826   1.963  0.00  0.00     0.001 A 
ENDROOT
BRANCH   1   8
ATOM      8  C1  UNL d   1       5.049  -1.628   2.757  0.00  0.00     0.053 C 
ATOM      9  C   UNL d   1       5.355  -1.031   1.393  0.00  0.00     0.018 C 
ENDBRANCH   1   8
TORSDOF 1
ENDMDL
