MODEL 1
REMARK minimizedAffinity 5.71318007
REMARK minimizedRMSD -1
REMARK  1 active torsions:
REMARK  status: ('A' for Active; 'I' for Inactive)
REMARK    1  A    between atoms: C1_2  and  C2_3 
ROOT
ATOM      1  C2  UNL d   1      -0.509   0.590   2.481  0.00  0.00    -0.073 A 
ATOM      2  C3  UNL d   1      -0.974   0.842   3.777  0.00  0.00    -0.002 A 
ATOM      3  C4  UNL d   1      -2.339   1.012   4.015  0.00  0.00     0.004 A 
ATOM      4  C5  UNL d   1      -3.251   0.926   2.964  0.00  0.00    -0.004 A 
ATOM      5  C6  UNL d   1      -2.807   0.664   1.664  0.00  0.00    -0.075 A 
ATOM      6  C7  UNL d   1      -3.775   0.570   0.522  0.00  0.00     0.076 C 
ATOM      7  C8  UNL d   1      -1.435   0.496   1.432  0.00  0.00     0.001 A 
ENDROOT
BRANCH   1   8
ATOM      8  C1  UNL d   1       0.963   0.399   2.220  0.00  0.00     0.053 C 
ATOM      9  C   UNL d   1       1.708  -0.055   3.465  0.00  0.00     0.018 C 
ENDBRANCH   1   8
TORSDOF 1
ENDMDL
