MODEL 1
REMARK minimizedAffinity 2.38649416
REMARK minimizedRMSD -1
REMARK  1 active torsions:
REMARK  status: ('A' for Active; 'I' for Inactive)
REMARK    1  A    between atoms: C1_2  and  C2_3 
ROOT
ATOM      1  C2  UNL d   1      -1.190   0.201   2.656  0.00  0.00    -0.073 A 
ATOM      2  C3  UNL d   1      -1.067   0.082   1.267  0.00  0.00    -0.002 A 
ATOM      3  C4  UNL d   1      -2.203   0.088   0.457  0.00  0.00     0.004 A 
ATOM      4  C5  UNL d   1      -3.470   0.220   1.024  0.00  0.00    -0.004 A 
ATOM      5  C6  UNL d   1      -3.612   0.352   2.409  0.00  0.00    -0.075 A 
ATOM      6  C7  UNL d   1      -4.969   0.493   3.036  0.00  0.00     0.076 C 
ATOM      7  C8  UNL d   1      -2.467   0.343   3.217  0.00  0.00     0.001 A 
ENDROOT
BRANCH   1   8
ATOM      8  C1  UNL d   1       0.034   0.202   3.535  0.00  0.00     0.053 C 
ATOM      9  C   UNL d   1       0.688   1.573   3.600  0.00  0.00     0.018 C 
ENDBRANCH   1   8
TORSDOF 1
ENDMDL
