MODEL 1
REMARK minimizedAffinity 9.543993
REMARK minimizedRMSD -1
REMARK  1 active torsions:
REMARK  status: ('A' for Active; 'I' for Inactive)
REMARK    1  A    between atoms: C1_2  and  C2_3 
ROOT
ATOM      1  C2  UNL d   1      -1.830  -2.123  -6.000  0.00  0.00    -0.073 A 
ATOM      2  C3  UNL d   1      -2.730  -1.051  -5.996  0.00  0.00    -0.002 A 
ATOM      3  C4  UNL d   1      -4.106  -1.287  -6.000  0.00  0.00     0.004 A 
ATOM      4  C5  UNL d   1      -4.595  -2.593  -6.000  0.00  0.00    -0.004 A 
ATOM      5  C6  UNL d   1      -3.711  -3.677  -5.991  0.00  0.00    -0.075 A 
ATOM      6  C7  UNL d   1      -4.220  -5.088  -5.993  0.00  0.00     0.076 C 
ATOM      7  C8  UNL d   1      -2.331  -3.432  -5.990  0.00  0.00     0.001 A 
ENDROOT
BRANCH   1   8
ATOM      8  C1  UNL d   1      -0.344  -1.873  -5.990  0.00  0.00     0.053 C 
ATOM      9  C   UNL d   1       0.451  -3.169  -5.981  0.00  0.00     0.018 C 
ENDBRANCH   1   8
TORSDOF 1
ENDMDL
