MODEL 1
REMARK minimizedAffinity 3.92907524
REMARK minimizedRMSD -1
REMARK  1 active torsions:
REMARK  status: ('A' for Active; 'I' for Inactive)
REMARK    1  A    between atoms: C1_2  and  C2_3 
ROOT
ATOM      1  C2  UNL d   1      -4.659  -1.001   3.600  0.00  0.00    -0.073 A 
ATOM      2  C3  UNL d   1      -5.645  -0.521   2.730  0.00  0.00    -0.002 A 
ATOM      3  C4  UNL d   1      -5.318   0.400   1.734  0.00  0.00     0.004 A 
ATOM      4  C5  UNL d   1      -4.003   0.845   1.593  0.00  0.00    -0.004 A 
ATOM      5  C6  UNL d   1      -3.002   0.368   2.446  0.00  0.00    -0.075 A 
ATOM      6  C7  UNL d   1      -1.584   0.838   2.309  0.00  0.00     0.076 C 
ATOM      7  C8  UNL d   1      -3.339  -0.555   3.445  0.00  0.00     0.001 A 
ENDROOT
BRANCH   1   8
ATOM      8  C1  UNL d   1      -5.006  -2.001   4.673  0.00  0.00     0.053 C 
ATOM      9  C   UNL d   1      -5.586  -3.281   4.093  0.00  0.00     0.018 C 
ENDBRANCH   1   8
TORSDOF 1
ENDMDL
