MODEL 1
REMARK minimizedAffinity 7.04200935
REMARK minimizedRMSD -1
REMARK  1 active torsions:
REMARK  status: ('A' for Active; 'I' for Inactive)
REMARK    1  A    between atoms: C1_2  and  C2_3 
ROOT
ATOM      1  C2  UNL d   1      -3.416  -0.845   1.235  0.00  0.00    -0.073 A 
ATOM      2  C3  UNL d   1      -2.383  -0.021   0.775  0.00  0.00    -0.002 A 
ATOM      3  C4  UNL d   1      -2.240   1.275   1.272  0.00  0.00     0.004 A 
ATOM      4  C5  UNL d   1      -3.123   1.758   2.238  0.00  0.00    -0.004 A 
ATOM      5  C6  UNL d   1      -4.155   0.946   2.719  0.00  0.00    -0.075 A 
ATOM      6  C7  UNL d   1      -5.115   1.451   3.756  0.00  0.00     0.076 C 
ATOM      7  C8  UNL d   1      -4.294  -0.354   2.213  0.00  0.00     0.001 A 
ENDROOT
BRANCH   1   8
ATOM      8  C1  UNL d   1      -3.571  -2.247   0.706  0.00  0.00     0.053 C 
ATOM      9  C   UNL d   1      -2.315  -3.078   0.918  0.00  0.00     0.018 C 
ENDBRANCH   1   8
TORSDOF 1
ENDMDL
