MODEL 1
REMARK minimizedAffinity 5.74695969
REMARK minimizedRMSD -1
REMARK  1 active torsions:
REMARK  status: ('A' for Active; 'I' for Inactive)
REMARK    1  A    between atoms: C1_2  and  C2_3 
ROOT
ATOM      1  C2  UNL d   1      -2.461   0.604   1.788  0.00  0.00    -0.073 A 
ATOM      2  C3  UNL d   1      -3.353   0.004   0.891  0.00  0.00    -0.002 A 
ATOM      3  C4  UNL d   1      -4.720   0.267   0.974  0.00  0.00     0.004 A 
ATOM      4  C5  UNL d   1      -5.210   1.139   1.947  0.00  0.00    -0.004 A 
ATOM      5  C6  UNL d   1      -4.334   1.758   2.844  0.00  0.00    -0.075 A 
ATOM      6  C7  UNL d   1      -4.845   2.696   3.898  0.00  0.00     0.076 C 
ATOM      7  C8  UNL d   1      -2.962   1.486   2.757  0.00  0.00     0.001 A 
ENDROOT
BRANCH   1   8
ATOM      8  C1  UNL d   1      -0.983   0.328   1.699  0.00  0.00     0.053 C 
ATOM      9  C   UNL d   1      -0.308   0.389   3.060  0.00  0.00     0.018 C 
ENDBRANCH   1   8
TORSDOF 1
ENDMDL
