MODEL 1
REMARK minimizedAffinity 3.10597038
REMARK minimizedRMSD -1
REMARK  1 active torsions:
REMARK  status: ('A' for Active; 'I' for Inactive)
REMARK    1  A    between atoms: C1_2  and  C2_3 
ROOT
ATOM      1  C2  UNL d   1       3.812  -0.205   1.245  0.00  0.00    -0.073 A 
ATOM      2  C3  UNL d   1       3.248  -0.035  -0.024  0.00  0.00    -0.002 A 
ATOM      3  C4  UNL d   1       1.903   0.313  -0.157  0.00  0.00     0.004 A 
ATOM      4  C5  UNL d   1       1.111   0.501   0.976  0.00  0.00    -0.004 A 
ATOM      5  C6  UNL d   1       1.660   0.347   2.253  0.00  0.00    -0.075 A 
ATOM      6  C7  UNL d   1       0.822   0.543   3.482  0.00  0.00     0.076 C 
ATOM      7  C8  UNL d   1       3.011  -0.005   2.378  0.00  0.00     0.001 A 
ENDROOT
BRANCH   1   8
ATOM      8  C1  UNL d   1       5.265  -0.574   1.393  0.00  0.00     0.053 C 
ATOM      9  C   UNL d   1       5.897   0.076   2.613  0.00  0.00     0.018 C 
ENDBRANCH   1   8
TORSDOF 1
ENDMDL
