MODEL 1
REMARK minimizedAffinity 4.36747456
REMARK minimizedRMSD -1
REMARK  1 active torsions:
REMARK  status: ('A' for Active; 'I' for Inactive)
REMARK    1  A    between atoms: C1_2  and  C2_3 
ROOT
ATOM      1  C2  UNL d   1      -3.809  -0.691   1.036  0.00  0.00    -0.073 A 
ATOM      2  C3  UNL d   1      -4.697   0.226   1.610  0.00  0.00    -0.002 A 
ATOM      3  C4  UNL d   1      -4.228   1.213   2.478  0.00  0.00     0.004 A 
ATOM      4  C5  UNL d   1      -2.868   1.298   2.775  0.00  0.00    -0.004 A 
ATOM      5  C6  UNL d   1      -1.963   0.398   2.202  0.00  0.00    -0.075 A 
ATOM      6  C7  UNL d   1      -0.498   0.475   2.514  0.00  0.00     0.076 C 
ATOM      7  C8  UNL d   1      -2.442  -0.592   1.334  0.00  0.00     0.001 A 
ENDROOT
BRANCH   1   8
ATOM      8  C1  UNL d   1      -4.310  -1.754   0.093  0.00  0.00     0.053 C 
ATOM      9  C   UNL d   1      -3.491  -3.032   0.189  0.00  0.00     0.018 C 
ENDBRANCH   1   8
TORSDOF 1
ENDMDL
