MODEL 1
REMARK minimizedAffinity 11.4675789
REMARK minimizedRMSD -1
REMARK  1 active torsions:
REMARK  status: ('A' for Active; 'I' for Inactive)
REMARK    1  A    between atoms: C1_2  and  C2_3 
ROOT
ATOM      1  C2  UNL d   1      -4.446   1.532   1.440  0.00  0.00    -0.073 A 
ATOM      2  C3  UNL d   1      -5.173   0.618   0.669  0.00  0.00    -0.002 A 
ATOM      3  C4  UNL d   1      -4.572  -0.557   0.215  0.00  0.00     0.004 A 
ATOM      4  C5  UNL d   1      -3.242  -0.833   0.534  0.00  0.00    -0.004 A 
ATOM      5  C6  UNL d   1      -2.503   0.063   1.313  0.00  0.00    -0.075 A 
ATOM      6  C7  UNL d   1      -1.071  -0.219   1.662  0.00  0.00     0.076 C 
ATOM      7  C8  UNL d   1      -3.113   1.242   1.763  0.00  0.00     0.001 A 
ENDROOT
BRANCH   1   8
ATOM      8  C1  UNL d   1      -5.093   2.799   1.938  0.00  0.00     0.053 C 
ATOM      9  C   UNL d   1      -5.483   2.702   3.404  0.00  0.00     0.018 C 
ENDBRANCH   1   8
TORSDOF 1
ENDMDL
