MODEL 1
REMARK minimizedAffinity 9.28980637
REMARK minimizedRMSD -1
REMARK  0 active torsions:
REMARK  status: ('A' for Active; 'I' for Inactive)
ROOT
ATOM      1  C   UNL d   1       3.364   1.492  -0.590  0.00  0.00     0.077 C 
ATOM      2  C1  UNL d   1       3.385   0.046  -0.191  0.00  0.00    -0.074 A 
ATOM      3  C2  UNL d   1       2.198  -0.682  -0.063  0.00  0.00    -0.005 A 
ATOM      4  C3  UNL d   1       2.233  -2.028   0.298  0.00  0.00     0.006 A 
ATOM      5  C4  UNL d   1       3.455  -2.660   0.536  0.00  0.00    -0.005 A 
ATOM      6  C5  UNL d   1       4.653  -1.949   0.412  0.00  0.00    -0.074 A 
ATOM      7  C6  UNL d   1       5.974  -2.615   0.653  0.00  0.00     0.077 C 
ATOM      8  C7  UNL d   1       4.609  -0.598   0.041  0.00  0.00    -0.001 A 
ENDROOT
TORSDOF 0
ENDMDL
