MODEL 1
REMARK minimizedAffinity 0.677995086
REMARK minimizedRMSD -1
REMARK  0 active torsions:
REMARK  status: ('A' for Active; 'I' for Inactive)
ROOT
ATOM      1  C   UNL d   1      -1.609  -1.123  -2.884  0.00  0.00     0.077 C 
ATOM      2  C1  UNL d   1      -2.999  -0.987  -3.431  0.00  0.00    -0.074 A 
ATOM      3  C2  UNL d   1      -4.039  -1.794  -2.960  0.00  0.00    -0.005 A 
ATOM      4  C3  UNL d   1      -5.329  -1.650  -3.471  0.00  0.00     0.006 A 
ATOM      5  C4  UNL d   1      -5.591  -0.698  -4.458  0.00  0.00    -0.005 A 
ATOM      6  C5  UNL d   1      -4.564   0.119  -4.941  0.00  0.00    -0.074 A 
ATOM      7  C6  UNL d   1      -4.830   1.153  -5.994  0.00  0.00     0.077 C 
ATOM      8  C7  UNL d   1      -3.272  -0.028  -4.417  0.00  0.00    -0.001 A 
ENDROOT
TORSDOF 0
ENDMDL
