MODEL 1
REMARK minimizedAffinity -2.71791029
REMARK minimizedRMSD -1
REMARK  0 active torsions:
REMARK  status: ('A' for Active; 'I' for Inactive)
ROOT
ATOM      1  C   UNL d   1      -1.924   1.076  -5.944  0.00  0.00     0.077 C 
ATOM      2  C1  UNL d   1      -3.028   0.388  -5.198  0.00  0.00    -0.074 A 
ATOM      3  C2  UNL d   1      -4.324   0.333  -5.721  0.00  0.00    -0.005 A 
ATOM      4  C3  UNL d   1      -5.339  -0.318  -5.020  0.00  0.00     0.006 A 
ATOM      5  C4  UNL d   1      -5.068  -0.921  -3.791  0.00  0.00    -0.005 A 
ATOM      6  C5  UNL d   1      -3.778  -0.877  -3.252  0.00  0.00    -0.074 A 
ATOM      7  C6  UNL d   1      -3.469  -1.528  -1.937  0.00  0.00     0.077 C 
ATOM      8  C7  UNL d   1      -2.763  -0.226  -3.966  0.00  0.00    -0.001 A 
ENDROOT
TORSDOF 0
ENDMDL
