MODEL 1
REMARK minimizedAffinity 3.71390843
REMARK minimizedRMSD -1
REMARK  0 active torsions:
REMARK  status: ('A' for Active; 'I' for Inactive)
ROOT
ATOM      1  C   UNL d   1       5.504  -3.698   0.751  0.00  0.00     0.077 C 
ATOM      2  C1  UNL d   1       4.225  -2.918   0.693  0.00  0.00    -0.074 A 
ATOM      3  C2  UNL d   1       3.009  -3.502   1.064  0.00  0.00    -0.005 A 
ATOM      4  C3  UNL d   1       1.829  -2.761   1.015  0.00  0.00     0.006 A 
ATOM      5  C4  UNL d   1       1.851  -1.431   0.594  0.00  0.00    -0.005 A 
ATOM      6  C5  UNL d   1       3.057  -0.829   0.219  0.00  0.00    -0.074 A 
ATOM      7  C6  UNL d   1       3.100   0.602  -0.226  0.00  0.00     0.077 C 
ATOM      8  C7  UNL d   1       4.240  -1.578   0.279  0.00  0.00    -0.001 A 
ENDROOT
TORSDOF 0
ENDMDL
