MODEL 1
REMARK minimizedAffinity 1.55215275
REMARK minimizedRMSD -1
REMARK  0 active torsions:
REMARK  status: ('A' for Active; 'I' for Inactive)
ROOT
ATOM      1  C   UNL d   1      -4.128  -1.489  -2.065  0.00  0.00     0.077 C 
ATOM      2  C1  UNL d   1      -4.316  -0.703  -3.328  0.00  0.00    -0.074 A 
ATOM      3  C2  UNL d   1      -5.596  -0.376  -3.787  0.00  0.00    -0.005 A 
ATOM      4  C3  UNL d   1      -5.755   0.365  -4.959  0.00  0.00     0.006 A 
ATOM      5  C4  UNL d   1      -4.638   0.785  -5.681  0.00  0.00    -0.005 A 
ATOM      6  C5  UNL d   1      -3.350   0.469  -5.237  0.00  0.00    -0.074 A 
ATOM      7  C6  UNL d   1      -2.138   0.921  -5.996  0.00  0.00     0.077 C 
ATOM      8  C7  UNL d   1      -3.198  -0.270  -4.055  0.00  0.00    -0.001 A 
ENDROOT
TORSDOF 0
ENDMDL
