MODEL 1
REMARK minimizedAffinity -0.905188024
REMARK minimizedRMSD -1
REMARK  0 active torsions:
REMARK  status: ('A' for Active; 'I' for Inactive)
ROOT
ATOM      1  C   UNL d   1      -4.008  -0.739  -2.757  0.00  0.00     0.077 C 
ATOM      2  C1  UNL d   1      -3.749   0.319  -3.788  0.00  0.00    -0.074 A 
ATOM      3  C2  UNL d   1      -3.241  -0.014  -5.048  0.00  0.00    -0.005 A 
ATOM      4  C3  UNL d   1      -3.014   0.979  -6.000  0.00  0.00     0.006 A 
ATOM      5  C4  UNL d   1      -3.293   2.314  -5.703  0.00  0.00    -0.005 A 
ATOM      6  C5  UNL d   1      -3.802   2.666  -4.449  0.00  0.00    -0.074 A 
ATOM      7  C6  UNL d   1      -4.116   4.095  -4.116  0.00  0.00     0.077 C 
ATOM      8  C7  UNL d   1      -4.034   1.661  -3.500  0.00  0.00    -0.001 A 
ENDROOT
TORSDOF 0
ENDMDL
