MODEL 1
REMARK minimizedAffinity 6.05598831
REMARK minimizedRMSD -1
REMARK  0 active torsions:
REMARK  status: ('A' for Active; 'I' for Inactive)
ROOT
ATOM      1  C   UNL d   1      -5.995   5.771  -5.997  0.00  0.00     0.077 C 
ATOM      2  C1  UNL d   1      -4.810   4.946  -5.591  0.00  0.00    -0.074 A 
ATOM      3  C2  UNL d   1      -4.973   3.764  -4.862  0.00  0.00    -0.005 A 
ATOM      4  C3  UNL d   1      -3.863   3.002  -4.500  0.00  0.00     0.006 A 
ATOM      5  C4  UNL d   1      -2.580   3.413  -4.863  0.00  0.00    -0.005 A 
ATOM      6  C5  UNL d   1      -2.397   4.592  -5.593  0.00  0.00    -0.074 A 
ATOM      7  C6  UNL d   1      -1.026   5.043  -6.000  0.00  0.00     0.077 C 
ATOM      8  C7  UNL d   1      -3.519   5.349  -5.959  0.00  0.00    -0.001 A 
ENDROOT
TORSDOF 0
ENDMDL
