MODEL 1
REMARK minimizedAffinity 3.83609843
REMARK minimizedRMSD -1
REMARK  0 active torsions:
REMARK  status: ('A' for Active; 'I' for Inactive)
ROOT
ATOM      1  C   UNL d   1      -1.812   1.511  -6.000  0.00  0.00     0.077 C 
ATOM      2  C1  UNL d   1      -2.579   0.420  -5.313  0.00  0.00    -0.074 A 
ATOM      3  C2  UNL d   1      -2.012  -0.843  -5.115  0.00  0.00    -0.005 A 
ATOM      4  C3  UNL d   1      -2.735  -1.844  -4.466  0.00  0.00     0.006 A 
ATOM      5  C4  UNL d   1      -4.030  -1.593  -4.010  0.00  0.00    -0.005 A 
ATOM      6  C5  UNL d   1      -4.613  -0.337  -4.199  0.00  0.00    -0.074 A 
ATOM      7  C6  UNL d   1      -6.000  -0.047  -3.707  0.00  0.00     0.077 C 
ATOM      8  C7  UNL d   1      -3.878   0.667  -4.846  0.00  0.00    -0.001 A 
ENDROOT
TORSDOF 0
ENDMDL
