MODEL 1
REMARK minimizedAffinity -2.51779127
REMARK minimizedRMSD -1
REMARK  0 active torsions:
REMARK  status: ('A' for Active; 'I' for Inactive)
ROOT
ATOM      1  C   UNL d   1      -3.375  -1.503  -1.973  0.00  0.00     0.077 C 
ATOM      2  C1  UNL d   1      -3.495  -0.727  -3.251  0.00  0.00    -0.074 A 
ATOM      3  C2  UNL d   1      -2.492  -0.786  -4.224  0.00  0.00    -0.005 A 
ATOM      4  C3  UNL d   1      -2.621  -0.066  -5.412  0.00  0.00     0.006 A 
ATOM      5  C4  UNL d   1      -3.753   0.719  -5.638  0.00  0.00    -0.005 A 
ATOM      6  C5  UNL d   1      -4.766   0.789  -4.677  0.00  0.00    -0.074 A 
ATOM      7  C6  UNL d   1      -5.994   1.620  -4.909  0.00  0.00     0.077 C 
ATOM      8  C7  UNL d   1      -4.632   0.057  -3.489  0.00  0.00    -0.001 A 
ENDROOT
TORSDOF 0
ENDMDL
