MODEL 1
REMARK minimizedAffinity 3.81679893
REMARK minimizedRMSD -1
REMARK  0 active torsions:
REMARK  status: ('A' for Active; 'I' for Inactive)
ROOT
ATOM      1  C   UNL d   1      -4.315  -2.403  -5.125  0.00  0.00     0.172 C 
ATOM      2  N   UNL d   1      -4.763  -3.759  -5.338  0.00  0.00    -0.070 N 
ATOM      3  C1  UNL d   1      -4.115  -4.889  -4.917  0.00  0.00    -0.004 A 
ATOM      4  C2  UNL d   1      -4.862  -5.977  -5.315  0.00  0.00    -0.047 A 
ATOM      5  C3  UNL d   1      -5.998  -5.483  -5.999  0.00  0.00    -0.047 A 
ATOM      6  C4  UNL d   1      -5.911  -4.107  -5.999  0.00  0.00    -0.004 A 
ENDROOT
TORSDOF 0
ENDMDL
