MODEL 1
REMARK minimizedAffinity 4.85876369
REMARK minimizedRMSD -1
REMARK  0 active torsions:
REMARK  status: ('A' for Active; 'I' for Inactive)
ROOT
ATOM      1  C   UNL d   1       5.972  -0.823  -5.841  0.00  0.00     0.172 C 
ATOM      2  N   UNL d   1       5.127   0.251  -5.374  0.00  0.00    -0.070 N 
ATOM      3  C1  UNL d   1       4.348   0.222  -4.249  0.00  0.00    -0.004 A 
ATOM      4  C2  UNL d   1       3.699   1.434  -4.153  0.00  0.00    -0.047 A 
ATOM      5  C3  UNL d   1       4.103   2.219  -5.260  0.00  0.00    -0.047 A 
ATOM      6  C4  UNL d   1       4.987   1.462  -5.999  0.00  0.00    -0.004 A 
ENDROOT
TORSDOF 0
ENDMDL
