MODEL 1
REMARK minimizedAffinity 0.812929571
REMARK minimizedRMSD -1
REMARK  0 active torsions:
REMARK  status: ('A' for Active; 'I' for Inactive)
ROOT
ATOM      1  C   UNL d   1       5.998  -0.848  -5.999  0.00  0.00     0.172 C 
ATOM      2  N   UNL d   1       5.149  -0.691  -4.842  0.00  0.00    -0.070 N 
ATOM      3  C1  UNL d   1       5.234  -1.419  -3.685  0.00  0.00    -0.004 A 
ATOM      4  C2  UNL d   1       4.253  -0.967  -2.829  0.00  0.00    -0.047 A 
ATOM      5  C3  UNL d   1       3.554   0.068  -3.495  0.00  0.00    -0.047 A 
ATOM      6  C4  UNL d   1       4.130   0.218  -4.739  0.00  0.00    -0.004 A 
ENDROOT
TORSDOF 0
ENDMDL
