MODEL 1
REMARK minimizedAffinity -1.22122419
REMARK minimizedRMSD -1
REMARK  0 active torsions:
REMARK  status: ('A' for Active; 'I' for Inactive)
ROOT
ATOM      1  C   UNL d   1       4.289  -1.894  -2.978  0.00  0.00     0.172 C 
ATOM      2  N   UNL d   1       4.761  -1.300  -4.206  0.00  0.00    -0.070 N 
ATOM      3  C1  UNL d   1       5.897  -1.659  -4.882  0.00  0.00    -0.004 A 
ATOM      4  C2  UNL d   1       5.994  -0.860  -6.000  0.00  0.00    -0.047 A 
ATOM      5  C3  UNL d   1       4.878   0.011  -5.996  0.00  0.00    -0.047 A 
ATOM      6  C4  UNL d   1       4.132  -0.283  -4.875  0.00  0.00    -0.004 A 
ENDROOT
TORSDOF 0
ENDMDL
