MODEL 1
REMARK minimizedAffinity 2.54959536
REMARK minimizedRMSD -1
REMARK  0 active torsions:
REMARK  status: ('A' for Active; 'I' for Inactive)
ROOT
ATOM      1  C   UNL d   1      -5.871  -2.498  -5.231  0.00  0.00     0.172 C 
ATOM      2  N   UNL d   1      -5.371  -3.849  -5.331  0.00  0.00    -0.070 N 
ATOM      3  C1  UNL d   1      -4.207  -4.312  -4.778  0.00  0.00    -0.004 A 
ATOM      4  C2  UNL d   1      -4.090  -5.648  -5.098  0.00  0.00    -0.047 A 
ATOM      5  C3  UNL d   1      -5.222  -5.999  -5.871  0.00  0.00    -0.047 A 
ATOM      6  C4  UNL d   1      -5.999  -4.867  -6.000  0.00  0.00    -0.004 A 
ENDROOT
TORSDOF 0
ENDMDL
