MODEL 1
REMARK minimizedAffinity -1.83803236
REMARK minimizedRMSD -1
REMARK  0 active torsions:
REMARK  status: ('A' for Active; 'I' for Inactive)
ROOT
ATOM      1  C   UNL d   1       3.594  -1.130  -3.524  0.00  0.00     0.172 C 
ATOM      2  N   UNL d   1       4.377  -0.432  -4.516  0.00  0.00    -0.070 N 
ATOM      3  C1  UNL d   1       4.112   0.818  -5.008  0.00  0.00    -0.004 A 
ATOM      4  C2  UNL d   1       5.089   1.125  -5.930  0.00  0.00    -0.047 A 
ATOM      5  C3  UNL d   1       5.970   0.020  -5.997  0.00  0.00    -0.047 A 
ATOM      6  C4  UNL d   1       5.506  -0.930  -5.111  0.00  0.00    -0.004 A 
ENDROOT
TORSDOF 0
ENDMDL
