MODEL 1
REMARK minimizedAffinity 7.66719913
REMARK minimizedRMSD -1
REMARK  0 active torsions:
REMARK  status: ('A' for Active; 'I' for Inactive)
ROOT
ATOM      1  C   UNL d   1       2.793  -5.419   5.628  0.00  0.00     0.172 C 
ATOM      2  N   UNL d   1       4.097  -4.913   5.270  0.00  0.00    -0.070 N 
ATOM      3  C1  UNL d   1       4.814  -5.269   4.159  0.00  0.00    -0.004 A 
ATOM      4  C2  UNL d   1       6.000  -4.567   4.179  0.00  0.00    -0.047 A 
ATOM      5  C3  UNL d   1       5.996  -3.762   5.343  0.00  0.00    -0.047 A 
ATOM      6  C4  UNL d   1       4.806  -3.996   6.000  0.00  0.00    -0.004 A 
ENDROOT
TORSDOF 0
ENDMDL
