MODEL 1
REMARK minimizedAffinity -3.08471394
REMARK minimizedRMSD -1
REMARK  0 active torsions:
REMARK  status: ('A' for Active; 'I' for Inactive)
ROOT
ATOM      1  C2' OXE d   1      -0.752   1.173  -0.492  0.00  0.00     0.078 C 
ATOM      2  C1' OXE d   1       2.049   1.075  -0.336  0.00  0.00     0.078 C 
ATOM      3  C1  OXE d   1       1.283  -0.191  -0.043  0.00  0.00    -0.078 A 
ATOM      4  C2  OXE d   1      -0.089  -0.122  -0.075  0.00  0.00    -0.078 A 
ATOM      5  C3  OXE d   1      -0.842  -1.274   0.134  0.00  0.00     0.003 A 
ATOM      6  C4  OXE d   1      -0.221  -2.465   0.528  0.00  0.00    -0.002 A 
ATOM      7  C5  OXE d   1       1.173  -2.547   0.606  0.00  0.00    -0.002 A 
ATOM      8  C6  OXE d   1       1.940  -1.433   0.283  0.00  0.00     0.003 A 
ENDROOT
TORSDOF 0
ENDMDL
