MODEL 1
REMARK minimizedAffinity -2.63966894
REMARK minimizedRMSD -1
REMARK  0 active torsions:
REMARK  status: ('A' for Active; 'I' for Inactive)
ROOT
ATOM      1  C2' OXE d   1      -0.641   0.806  -0.872  0.00  0.00     0.078 C 
ATOM      2  C1' OXE d   1       2.153   0.878  -0.613  0.00  0.00     0.078 C 
ATOM      3  C1  OXE d   1       1.426  -0.323  -0.061  0.00  0.00    -0.078 A 
ATOM      4  C2  OXE d   1       0.055  -0.328  -0.150  0.00  0.00    -0.078 A 
ATOM      5  C3  OXE d   1      -0.661  -1.436   0.294  0.00  0.00     0.003 A 
ATOM      6  C4  OXE d   1      -0.010  -2.476   0.969  0.00  0.00    -0.002 A 
ATOM      7  C5  OXE d   1       1.382  -2.472   1.106  0.00  0.00    -0.002 A 
ATOM      8  C6  OXE d   1       2.118  -1.426   0.560  0.00  0.00     0.003 A 
ENDROOT
TORSDOF 0
ENDMDL
