MODEL 1
REMARK minimizedAffinity -4.44684649
REMARK minimizedRMSD -1
REMARK  0 active torsions:
REMARK  status: ('A' for Active; 'I' for Inactive)
ROOT
ATOM      1  C2' OXE d   1       1.723   0.768  -0.700  0.00  0.00     0.078 C 
ATOM      2  C1' OXE d   1      -1.020   0.559  -0.143  0.00  0.00     0.078 C 
ATOM      3  C1  OXE d   1      -0.142  -0.621   0.192  0.00  0.00    -0.078 A 
ATOM      4  C2  OXE d   1       1.191  -0.528  -0.128  0.00  0.00    -0.078 A 
ATOM      5  C3  OXE d   1       2.054  -1.566   0.209  0.00  0.00     0.003 A 
ATOM      6  C4  OXE d   1       1.552  -2.765   0.730  0.00  0.00    -0.002 A 
ATOM      7  C5  OXE d   1       0.191  -2.896   1.025  0.00  0.00    -0.002 A 
ATOM      8  C6  OXE d   1      -0.661  -1.820   0.802  0.00  0.00     0.003 A 
ENDROOT
TORSDOF 0
ENDMDL
