MODEL 1
REMARK minimizedAffinity -6.1772666
REMARK minimizedRMSD -1
REMARK  0 active torsions:
REMARK  status: ('A' for Active; 'I' for Inactive)
ROOT
ATOM      1  C2' OXE d   1      -1.307  -1.403   2.396  0.00  0.00     0.078 C 
ATOM      2  C1' OXE d   1       1.144  -2.465   1.532  0.00  0.00     0.078 C 
ATOM      3  C1  OXE d   1       0.648  -1.207   0.865  0.00  0.00    -0.078 A 
ATOM      4  C2  OXE d   1      -0.575  -0.720   1.261  0.00  0.00    -0.078 A 
ATOM      5  C3  OXE d   1      -1.053   0.468   0.716  0.00  0.00     0.003 A 
ATOM      6  C4  OXE d   1      -0.375   1.088  -0.340  0.00  0.00    -0.002 A 
ATOM      7  C5  OXE d   1       0.853   0.587  -0.786  0.00  0.00    -0.002 A 
ATOM      8  C6  OXE d   1       1.398  -0.533  -0.167  0.00  0.00     0.003 A 
ENDROOT
TORSDOF 0
ENDMDL
