MODEL 1
REMARK minimizedAffinity -1.21950197
REMARK minimizedRMSD -1
REMARK  0 active torsions:
REMARK  status: ('A' for Active; 'I' for Inactive)
ROOT
ATOM      1  C2' OXE d   1       2.062  -1.907   0.873  0.00  0.00     0.078 C 
ATOM      2  C1' OXE d   1       2.614   0.535  -0.397  0.00  0.00     0.078 C 
ATOM      3  C1  OXE d   1       1.196   0.278   0.046  0.00  0.00    -0.078 A 
ATOM      4  C2  OXE d   1       0.925  -0.939   0.624  0.00  0.00    -0.078 A 
ATOM      5  C3  OXE d   1      -0.356  -1.206   1.100  0.00  0.00     0.003 A 
ATOM      6  C4  OXE d   1      -1.404  -0.310   0.857  0.00  0.00    -0.002 A 
ATOM      7  C5  OXE d   1      -1.157   0.918   0.234  0.00  0.00    -0.002 A 
ATOM      8  C6  OXE d   1       0.142   1.244  -0.139  0.00  0.00     0.003 A 
ENDROOT
TORSDOF 0
ENDMDL
