MODEL 1
REMARK minimizedAffinity -6.04605865
REMARK minimizedRMSD -1
REMARK  0 active torsions:
REMARK  status: ('A' for Active; 'I' for Inactive)
ROOT
ATOM      1  C2' OXE d   1       1.161  -2.887   2.514  0.00  0.00     0.078 C 
ATOM      2  C1' OXE d   1      -1.284  -1.509   2.536  0.00  0.00     0.078 C 
ATOM      3  C1  OXE d   1      -0.235  -1.064   1.548  0.00  0.00    -0.078 A 
ATOM      4  C2  OXE d   1       0.976  -1.714   1.576  0.00  0.00    -0.078 A 
ATOM      5  C3  OXE d   1       1.959  -1.380   0.649  0.00  0.00     0.003 A 
ATOM      6  C4  OXE d   1       1.783  -0.287  -0.208  0.00  0.00    -0.002 A 
ATOM      7  C5  OXE d   1       0.573   0.414  -0.226  0.00  0.00    -0.002 A 
ATOM      8  C6  OXE d   1      -0.460   0.012   0.614  0.00  0.00     0.003 A 
ENDROOT
TORSDOF 0
ENDMDL
