MODEL 1
REMARK minimizedAffinity -4.95979738
REMARK minimizedRMSD -1
REMARK  0 active torsions:
REMARK  status: ('A' for Active; 'I' for Inactive)
ROOT
ATOM      1  C2' OXE d   1      -0.547   0.985  -0.652  0.00  0.00     0.078 C 
ATOM      2  C1' OXE d   1       2.127   0.557  -1.391  0.00  0.00     0.078 C 
ATOM      3  C1  OXE d   1       1.474  -0.462  -0.492  0.00  0.00    -0.078 A 
ATOM      4  C2  OXE d   1       0.180  -0.221  -0.098  0.00  0.00    -0.078 A 
ATOM      5  C3  OXE d   1      -0.487  -1.157   0.687  0.00  0.00     0.003 A 
ATOM      6  C4  OXE d   1       0.196  -2.264   1.205  0.00  0.00    -0.002 A 
ATOM      7  C5  OXE d   1       1.526  -2.508   0.848  0.00  0.00    -0.002 A 
ATOM      8  C6  OXE d   1       2.165  -1.641  -0.032  0.00  0.00     0.003 A 
ENDROOT
TORSDOF 0
ENDMDL
