MODEL 1
REMARK minimizedAffinity -5.92825794
REMARK minimizedRMSD -1
REMARK  0 active torsions:
REMARK  status: ('A' for Active; 'I' for Inactive)
ROOT
ATOM      1  C2' OXE d   1       2.050   0.689  -1.027  0.00  0.00     0.078 C 
ATOM      2  C1' OXE d   1      -0.607   1.077  -0.209  0.00  0.00     0.078 C 
ATOM      3  C1  OXE d   1       0.052  -0.234   0.139  0.00  0.00    -0.078 A 
ATOM      4  C2  OXE d   1       1.336  -0.434  -0.305  0.00  0.00    -0.078 A 
ATOM      5  C3  OXE d   1       2.010  -1.604   0.036  0.00  0.00     0.003 A 
ATOM      6  C4  OXE d   1       1.339  -2.641   0.695  0.00  0.00    -0.002 A 
ATOM      7  C5  OXE d   1       0.018  -2.473   1.122  0.00  0.00    -0.002 A 
ATOM      8  C6  OXE d   1      -0.625  -1.263   0.890  0.00  0.00     0.003 A 
ENDROOT
TORSDOF 0
ENDMDL
