MODEL 1
REMARK minimizedAffinity -4.68092012
REMARK minimizedRMSD -1
REMARK  0 active torsions:
REMARK  status: ('A' for Active; 'I' for Inactive)
ROOT
ATOM      1  C2' OXE d   1      -1.140  -2.193   2.003  0.00  0.00     0.078 C 
ATOM      2  C1' OXE d   1       1.342  -3.095   1.051  0.00  0.00     0.078 C 
ATOM      3  C1  OXE d   1       0.960  -1.663   0.772  0.00  0.00    -0.078 A 
ATOM      4  C2  OXE d   1      -0.276  -1.243   1.201  0.00  0.00    -0.078 A 
ATOM      5  C3  OXE d   1      -0.656   0.083   1.018  0.00  0.00     0.003 A 
ATOM      6  C4  OXE d   1       0.144   0.952   0.266  0.00  0.00    -0.002 A 
ATOM      7  C5  OXE d   1       1.390   0.534  -0.214  0.00  0.00    -0.002 A 
ATOM      8  C6  OXE d   1       1.830  -0.755   0.067  0.00  0.00     0.003 A 
ENDROOT
TORSDOF 0
ENDMDL
