MODEL 1
REMARK minimizedAffinity -4.26874924
REMARK minimizedRMSD -1
REMARK  0 active torsions:
REMARK  status: ('A' for Active; 'I' for Inactive)
ROOT
ATOM      1  C2' OXE d   1       1.758   0.320  -1.184  0.00  0.00     0.078 C 
ATOM      2  C1' OXE d   1      -0.745   0.747   0.013  0.00  0.00     0.078 C 
ATOM      3  C1  OXE d   1       0.113  -0.367   0.556  0.00  0.00    -0.078 A 
ATOM      4  C2  OXE d   1       1.317  -0.600  -0.065  0.00  0.00    -0.078 A 
ATOM      5  C3  OXE d   1       2.171  -1.580   0.431  0.00  0.00     0.003 A 
ATOM      6  C4  OXE d   1       1.751  -2.432   1.459  0.00  0.00    -0.002 A 
ATOM      7  C5  OXE d   1       0.512  -2.239   2.080  0.00  0.00    -0.002 A 
ATOM      8  C6  OXE d   1      -0.299  -1.186   1.670  0.00  0.00     0.003 A 
ENDROOT
TORSDOF 0
ENDMDL
