MODEL 1
REMARK minimizedAffinity -4.43289185
REMARK minimizedRMSD -1
REMARK  0 active torsions:
REMARK  status: ('A' for Active; 'I' for Inactive)
ROOT
ATOM      1  C2' OXE d   1      -0.145  -2.165   2.712  0.00  0.00     0.078 C 
ATOM      2  C1' OXE d   1       1.804  -1.927   0.706  0.00  0.00     0.078 C 
ATOM      3  C1  OXE d   1       0.748  -0.854   0.792  0.00  0.00    -0.078 A 
ATOM      4  C2  OXE d   1      -0.229  -1.002   1.747  0.00  0.00    -0.078 A 
ATOM      5  C3  OXE d   1      -1.195  -0.012   1.904  0.00  0.00     0.003 A 
ATOM      6  C4  OXE d   1      -1.271   1.054   1.001  0.00  0.00    -0.002 A 
ATOM      7  C5  OXE d   1      -0.309   1.203  -0.004  0.00  0.00    -0.002 A 
ATOM      8  C6  OXE d   1       0.729   0.283  -0.095  0.00  0.00     0.003 A 
ENDROOT
TORSDOF 0
ENDMDL
