MODEL 1
REMARK minimizedAffinity -1.50215769
REMARK minimizedRMSD -1
REMARK  0 active torsions:
REMARK  status: ('A' for Active; 'I' for Inactive)
ROOT
ATOM      1  C2' OXE d   1      -1.076   1.068   0.420  0.00  0.00     0.078 C 
ATOM      2  C1' OXE d   1      -1.131  -0.949   2.371  0.00  0.00     0.078 C 
ATOM      3  C1  OXE d   1       0.071  -0.881   1.464  0.00  0.00    -0.078 A 
ATOM      4  C2  OXE d   1       0.069   0.080   0.481  0.00  0.00    -0.078 A 
ATOM      5  C3  OXE d   1       1.178   0.221  -0.348  0.00  0.00     0.003 A 
ATOM      6  C4  OXE d   1       2.228  -0.703  -0.291  0.00  0.00    -0.002 A 
ATOM      7  C5  OXE d   1       2.232  -1.714   0.676  0.00  0.00    -0.002 A 
ATOM      8  C6  OXE d   1       1.184  -1.791   1.587  0.00  0.00     0.003 A 
ENDROOT
TORSDOF 0
ENDMDL
