MODEL 1
REMARK minimizedAffinity -2.73510575
REMARK minimizedRMSD -1
REMARK  0 active torsions:
REMARK  status: ('A' for Active; 'I' for Inactive)
ROOT
ATOM      1  C2' OXE d   1       1.548  -2.134   0.970  0.00  0.00     0.078 C 
ATOM      2  C1' OXE d   1       2.155  -0.034  -0.791  0.00  0.00     0.078 C 
ATOM      3  C1  OXE d   1       0.824   0.004  -0.083  0.00  0.00    -0.078 A 
ATOM      4  C2  OXE d   1       0.515  -1.052   0.741  0.00  0.00    -0.078 A 
ATOM      5  C3  OXE d   1      -0.677  -1.040   1.459  0.00  0.00     0.003 A 
ATOM      6  C4  OXE d   1      -1.631  -0.040   1.233  0.00  0.00    -0.002 A 
ATOM      7  C5  OXE d   1      -1.353   1.024   0.368  0.00  0.00    -0.002 A 
ATOM      8  C6  OXE d   1      -0.116   1.083  -0.264  0.00  0.00     0.003 A 
ENDROOT
TORSDOF 0
ENDMDL
