MODEL 1
REMARK minimizedAffinity -5.52974176
REMARK minimizedRMSD -1
REMARK  0 active torsions:
REMARK  status: ('A' for Active; 'I' for Inactive)
ROOT
ATOM      1  C2' OXE d   1       1.875   0.356  -1.099  0.00  0.00     0.078 C 
ATOM      2  C1' OXE d   1      -0.804   0.716  -0.342  0.00  0.00     0.078 C 
ATOM      3  C1  OXE d   1      -0.004  -0.338   0.381  0.00  0.00    -0.078 A 
ATOM      4  C2  OXE d   1       1.293  -0.540  -0.028  0.00  0.00    -0.078 A 
ATOM      5  C3  OXE d   1       2.091  -1.462   0.642  0.00  0.00     0.003 A 
ATOM      6  C4  OXE d   1       1.541  -2.294   1.625  0.00  0.00    -0.002 A 
ATOM      7  C5  OXE d   1       0.212  -2.133   2.029  0.00  0.00    -0.002 A 
ATOM      8  C6  OXE d   1      -0.560  -1.133   1.448  0.00  0.00     0.003 A 
ENDROOT
TORSDOF 0
ENDMDL
