MODEL 1
REMARK minimizedAffinity -4.05617762
REMARK minimizedRMSD -1
REMARK  0 active torsions:
REMARK  status: ('A' for Active; 'I' for Inactive)
ROOT
ATOM      1  C2' OXE d   1       2.162  -1.567  -0.001  0.00  0.00     0.078 C 
ATOM      2  C1' OXE d   1      -0.073   0.120  -0.205  0.00  0.00     0.078 C 
ATOM      3  C1  OXE d   1      -0.006  -0.820   0.972  0.00  0.00    -0.078 A 
ATOM      4  C2  OXE d   1       1.068  -1.674   1.040  0.00  0.00    -0.078 A 
ATOM      5  C3  OXE d   1       1.206  -2.523   2.134  0.00  0.00     0.003 A 
ATOM      6  C4  OXE d   1       0.185  -2.624   3.086  0.00  0.00    -0.002 A 
ATOM      7  C5  OXE d   1      -0.937  -1.791   3.015  0.00  0.00    -0.002 A 
ATOM      8  C6  OXE d   1      -1.027  -0.856   1.990  0.00  0.00     0.003 A 
ENDROOT
TORSDOF 0
ENDMDL
