MODEL 1
REMARK minimizedAffinity -5.20738554
REMARK minimizedRMSD -1
REMARK  0 active torsions:
REMARK  status: ('A' for Active; 'I' for Inactive)
ROOT
ATOM      1  C2' OXE d   1      -0.864   0.781   0.250  0.00  0.00     0.078 C 
ATOM      2  C1' OXE d   1       1.192  -0.454  -1.208  0.00  0.00     0.078 C 
ATOM      3  C1  OXE d   1       0.762  -1.100   0.085  0.00  0.00    -0.078 A 
ATOM      4  C2  OXE d   1      -0.213  -0.463   0.815  0.00  0.00    -0.078 A 
ATOM      5  C3  OXE d   1      -0.685  -1.045   1.988  0.00  0.00     0.003 A 
ATOM      6  C4  OXE d   1      -0.071  -2.190   2.509  0.00  0.00    -0.002 A 
ATOM      7  C5  OXE d   1       0.951  -2.832   1.801  0.00  0.00    -0.002 A 
ATOM      8  C6  OXE d   1       1.349  -2.325   0.569  0.00  0.00     0.003 A 
ENDROOT
TORSDOF 0
ENDMDL
