MODEL 1
REMARK minimizedAffinity -4.02116346
REMARK minimizedRMSD -1
REMARK  0 active torsions:
REMARK  status: ('A' for Active; 'I' for Inactive)
ROOT
ATOM      1  C2' OXE d   1       1.909   0.734  -0.770  0.00  0.00     0.078 C 
ATOM      2  C1' OXE d   1      -0.824   0.695  -0.132  0.00  0.00     0.078 C 
ATOM      3  C1  OXE d   1       0.001  -0.513   0.236  0.00  0.00    -0.078 A 
ATOM      4  C2  OXE d   1       1.328  -0.504  -0.122  0.00  0.00    -0.078 A 
ATOM      5  C3  OXE d   1       2.147  -1.570   0.242  0.00  0.00     0.003 A 
ATOM      6  C4  OXE d   1       1.599  -2.715   0.832  0.00  0.00    -0.002 A 
ATOM      7  C5  OXE d   1       0.242  -2.761   1.169  0.00  0.00    -0.002 A 
ATOM      8  C6  OXE d   1      -0.560  -1.653   0.917  0.00  0.00     0.003 A 
ENDROOT
TORSDOF 0
ENDMDL
