MODEL 1
REMARK minimizedAffinity -3.75972199
REMARK minimizedRMSD -1
REMARK  0 active torsions:
REMARK  status: ('A' for Active; 'I' for Inactive)
ROOT
ATOM      1  C2' OXE d   1      -1.285  -1.906   1.706  0.00  0.00     0.078 C 
ATOM      2  C1' OXE d   1       1.183  -3.050   1.016  0.00  0.00     0.078 C 
ATOM      3  C1  OXE d   1       0.946  -1.609   0.640  0.00  0.00    -0.078 A 
ATOM      4  C2  OXE d   1      -0.282  -1.071   0.940  0.00  0.00    -0.078 A 
ATOM      5  C3  OXE d   1      -0.533   0.270   0.664  0.00  0.00     0.003 A 
ATOM      6  C4  OXE d   1       0.396   1.032  -0.054  0.00  0.00    -0.002 A 
ATOM      7  C5  OXE d   1       1.638   0.492  -0.404  0.00  0.00    -0.002 A 
ATOM      8  C6  OXE d   1       1.945  -0.811  -0.028  0.00  0.00     0.003 A 
ENDROOT
TORSDOF 0
ENDMDL
