MODEL 1
REMARK minimizedAffinity -5.73812294
REMARK minimizedRMSD -1
REMARK  1 active torsions:
REMARK  status: ('A' for Active; 'I' for Inactive)
REMARK    1  A    between atoms: C1_2  and  C2_3 
ROOT
ATOM      1  C2  UNL d   1      -0.502   0.531   0.188  0.00  0.00    -0.077 A 
ATOM      2  C3  UNL d   1      -0.207   1.599  -0.671  0.00  0.00     0.002 A 
ATOM      3  C4  UNL d   1      -0.762   2.861  -0.446  0.00  0.00     0.002 A 
ATOM      4  C5  UNL d   1      -1.611   3.067   0.639  0.00  0.00    -0.004 A 
ATOM      5  C6  UNL d   1      -1.912   2.011   1.498  0.00  0.00     0.002 A 
ATOM      6  C7  UNL d   1      -1.360   0.749   1.274  0.00  0.00     0.002 A 
ENDROOT
BRANCH   1   7
ATOM      7  C1  UNL d   1       0.134  -0.818  -0.024  0.00  0.00     0.055 C 
ATOM      8  C   UNL d   1       1.150  -0.778  -1.156  0.00  0.00     0.019 C 
ENDBRANCH   1   7
TORSDOF 1
ENDMDL
