MODEL 1
REMARK minimizedAffinity -3.41603875
REMARK minimizedRMSD -1
REMARK  1 active torsions:
REMARK  status: ('A' for Active; 'I' for Inactive)
REMARK    1  A    between atoms: C1_2  and  C2_3 
ROOT
ATOM      1  C2  UNL d   1       0.353  -0.232   0.193  0.00  0.00    -0.077 A 
ATOM      2  C3  UNL d   1      -0.077  -1.079   1.223  0.00  0.00     0.002 A 
ATOM      3  C4  UNL d   1      -0.974  -0.618   2.189  0.00  0.00     0.002 A 
ATOM      4  C5  UNL d   1      -1.451   0.689   2.131  0.00  0.00    -0.004 A 
ATOM      5  C6  UNL d   1      -1.028   1.541   1.111  0.00  0.00     0.002 A 
ATOM      6  C7  UNL d   1      -0.131   1.082   0.146  0.00  0.00     0.002 A 
ENDROOT
BRANCH   1   7
ATOM      7  C1  UNL d   1       1.282  -0.742  -0.878  0.00  0.00     0.055 C 
ATOM      8  C   UNL d   1       0.700  -1.958  -1.583  0.00  0.00     0.019 C 
ENDBRANCH   1   7
TORSDOF 1
ENDMDL
