MODEL 1
REMARK minimizedAffinity -5.18686867
REMARK minimizedRMSD -1
REMARK  1 active torsions:
REMARK  status: ('A' for Active; 'I' for Inactive)
REMARK    1  A    between atoms: C1_2  and  C2_3 
ROOT
ATOM      1  C2  UNL d   1      -0.885   1.728   0.819  0.00  0.00    -0.077 A 
ATOM      2  C3  UNL d   1      -1.064   1.297   2.141  0.00  0.00     0.002 A 
ATOM      3  C4  UNL d   1      -0.589   0.048   2.547  0.00  0.00     0.002 A 
ATOM      4  C5  UNL d   1       0.072  -0.777   1.640  0.00  0.00    -0.004 A 
ATOM      5  C6  UNL d   1       0.254  -0.358   0.322  0.00  0.00     0.002 A 
ATOM      6  C7  UNL d   1      -0.221   0.889  -0.086  0.00  0.00     0.002 A 
ENDROOT
BRANCH   1   7
ATOM      7  C1  UNL d   1      -1.353   3.094   0.391  0.00  0.00     0.055 C 
ATOM      8  C   UNL d   1      -0.367   3.742  -0.570  0.00  0.00     0.019 C 
ENDBRANCH   1   7
TORSDOF 1
ENDMDL
