MODEL 1
REMARK minimizedAffinity -5.72813845
REMARK minimizedRMSD -1
REMARK  1 active torsions:
REMARK  status: ('A' for Active; 'I' for Inactive)
REMARK    1  A    between atoms: C1_2  and  C2_3 
ROOT
ATOM      1  C2  UNL d   1      -0.394   0.754   0.861  0.00  0.00    -0.077 A 
ATOM      2  C3  UNL d   1      -0.341   2.151   0.754  0.00  0.00     0.002 A 
ATOM      3  C4  UNL d   1      -1.496   2.917   0.924  0.00  0.00     0.002 A 
ATOM      4  C5  UNL d   1      -2.711   2.296   1.205  0.00  0.00    -0.004 A 
ATOM      5  C6  UNL d   1      -2.774   0.907   1.311  0.00  0.00     0.002 A 
ATOM      6  C7  UNL d   1      -1.621   0.140   1.140  0.00  0.00     0.002 A 
ENDROOT
BRANCH   1   7
ATOM      7  C1  UNL d   1       0.860  -0.070   0.727  0.00  0.00     0.055 C 
ATOM      8  C   UNL d   1       0.789  -0.993  -0.481  0.00  0.00     0.019 C 
ENDBRANCH   1   7
TORSDOF 1
ENDMDL
