MODEL 1
REMARK minimizedAffinity -4.76262474
REMARK minimizedRMSD -1
REMARK  1 active torsions:
REMARK  status: ('A' for Active; 'I' for Inactive)
REMARK    1  A    between atoms: C1_2  and  C2_3 
ROOT
ATOM      1  C2  UNL d   1       0.382   0.458   0.232  0.00  0.00    -0.077 A 
ATOM      2  C3  UNL d   1       0.206   1.844   0.118  0.00  0.00     0.002 A 
ATOM      3  C4  UNL d   1      -0.708   2.510   0.936  0.00  0.00     0.002 A 
ATOM      4  C5  UNL d   1      -1.450   1.800   1.877  0.00  0.00    -0.004 A 
ATOM      5  C6  UNL d   1      -1.284   0.421   1.998  0.00  0.00     0.002 A 
ATOM      6  C7  UNL d   1      -0.372  -0.247   1.180  0.00  0.00     0.002 A 
ENDROOT
BRANCH   1   7
ATOM      7  C1  UNL d   1       1.402  -0.255  -0.615  0.00  0.00     0.055 C 
ATOM      8  C   UNL d   1       1.048  -1.725  -0.789  0.00  0.00     0.019 C 
ENDBRANCH   1   7
TORSDOF 1
ENDMDL
