MODEL 1
REMARK minimizedAffinity -5.44518042
REMARK minimizedRMSD -1
REMARK  1 active torsions:
REMARK  status: ('A' for Active; 'I' for Inactive)
REMARK    1  A    between atoms: C1_2  and  C2_3 
ROOT
ATOM      1  C2  UNL d   1      -1.081   1.113   0.399  0.00  0.00    -0.077 A 
ATOM      2  C3  UNL d   1      -0.925   2.015  -0.663  0.00  0.00     0.002 A 
ATOM      3  C4  UNL d   1      -1.384   3.328  -0.547  0.00  0.00     0.002 A 
ATOM      4  C5  UNL d   1      -1.997   3.753   0.630  0.00  0.00    -0.004 A 
ATOM      5  C6  UNL d   1      -2.159   2.862   1.691  0.00  0.00     0.002 A 
ATOM      6  C7  UNL d   1      -1.702   1.549   1.576  0.00  0.00     0.002 A 
ENDROOT
BRANCH   1   7
ATOM      7  C1  UNL d   1      -0.543  -0.290   0.294  0.00  0.00     0.055 C 
ATOM      8  C   UNL d   1       0.305  -0.466  -0.957  0.00  0.00     0.019 C 
ENDBRANCH   1   7
TORSDOF 1
ENDMDL
