MODEL 1
REMARK minimizedAffinity -5.63342094
REMARK minimizedRMSD -1
REMARK  1 active torsions:
REMARK  status: ('A' for Active; 'I' for Inactive)
REMARK    1  A    between atoms: C1_2  and  C2_3 
ROOT
ATOM      1  C2  UNL d   1      -0.697   1.013   0.639  0.00  0.00    -0.077 A 
ATOM      2  C3  UNL d   1      -0.535   1.753  -0.541  0.00  0.00     0.002 A 
ATOM      3  C4  UNL d   1      -1.017   3.060  -0.626  0.00  0.00     0.002 A 
ATOM      4  C5  UNL d   1      -1.659   3.641   0.465  0.00  0.00    -0.004 A 
ATOM      5  C6  UNL d   1      -1.827   2.912   1.642  0.00  0.00     0.002 A 
ATOM      6  C7  UNL d   1      -1.347   1.605   1.729  0.00  0.00     0.002 A 
ENDROOT
BRANCH   1   7
ATOM      7  C1  UNL d   1      -0.135  -0.381   0.749  0.00  0.00     0.055 C 
ATOM      8  C   UNL d   1       0.781  -0.702  -0.423  0.00  0.00     0.019 C 
ENDBRANCH   1   7
TORSDOF 1
ENDMDL
