MODEL 1
REMARK minimizedAffinity -4.70211458
REMARK minimizedRMSD -1
REMARK  1 active torsions:
REMARK  status: ('A' for Active; 'I' for Inactive)
REMARK    1  A    between atoms: C1_2  and  C2_3 
ROOT
ATOM      1  C2  UNL d   1      -0.037   0.069   0.375  0.00  0.00    -0.077 A 
ATOM      2  C3  UNL d   1      -0.493   1.228  -0.268  0.00  0.00     0.002 A 
ATOM      3  C4  UNL d   1      -1.120   2.240   0.462  0.00  0.00     0.002 A 
ATOM      4  C5  UNL d   1      -1.293   2.104   1.838  0.00  0.00    -0.004 A 
ATOM      5  C6  UNL d   1      -0.845   0.954   2.486  0.00  0.00     0.002 A 
ATOM      6  C7  UNL d   1      -0.219  -0.059   1.758  0.00  0.00     0.002 A 
ENDROOT
BRANCH   1   7
ATOM      7  C1  UNL d   1       0.684  -1.002  -0.402  0.00  0.00     0.055 C 
ATOM      8  C   UNL d   1       1.855  -0.425  -1.183  0.00  0.00     0.019 C 
ENDBRANCH   1   7
TORSDOF 1
ENDMDL
