MODEL 1
REMARK minimizedAffinity -5.93166018
REMARK minimizedRMSD -1
REMARK  1 active torsions:
REMARK  status: ('A' for Active; 'I' for Inactive)
REMARK    1  A    between atoms: C1_2  and  C2_3 
ROOT
ATOM      1  C2  UNL d   1      -0.288   0.977  -0.136  0.00  0.00    -0.077 A 
ATOM      2  C3  UNL d   1      -0.320   2.240  -0.742  0.00  0.00     0.002 A 
ATOM      3  C4  UNL d   1      -1.165   3.238  -0.251  0.00  0.00     0.002 A 
ATOM      4  C5  UNL d   1      -1.981   2.983   0.849  0.00  0.00    -0.004 A 
ATOM      5  C6  UNL d   1      -1.958   1.729   1.458  0.00  0.00     0.002 A 
ATOM      6  C7  UNL d   1      -1.115   0.730   0.968  0.00  0.00     0.002 A 
ENDROOT
BRANCH   1   7
ATOM      7  C1  UNL d   1       0.659  -0.085  -0.632  0.00  0.00     0.055 C 
ATOM      8  C   UNL d   1       1.106  -1.001   0.498  0.00  0.00     0.019 C 
ENDBRANCH   1   7
TORSDOF 1
ENDMDL
