MODEL 1
REMARK minimizedAffinity -5.38480282
REMARK minimizedRMSD -1
REMARK  1 active torsions:
REMARK  status: ('A' for Active; 'I' for Inactive)
REMARK    1  A    between atoms: C1_2  and  C2_3 
ROOT
ATOM      1  C2  UNL d   1      -0.427   0.908   0.188  0.00  0.00    -0.077 A 
ATOM      2  C3  UNL d   1      -0.035   2.073  -0.486  0.00  0.00     0.002 A 
ATOM      3  C4  UNL d   1      -0.689   3.283  -0.243  0.00  0.00     0.002 A 
ATOM      4  C5  UNL d   1      -1.735   3.339   0.676  0.00  0.00    -0.004 A 
ATOM      5  C6  UNL d   1      -2.134   2.185   1.349  0.00  0.00     0.002 A 
ATOM      6  C7  UNL d   1      -1.482   0.975   1.107  0.00  0.00     0.002 A 
ENDROOT
BRANCH   1   7
ATOM      7  C1  UNL d   1       0.309  -0.388  -0.036  0.00  0.00     0.055 C 
ATOM      8  C   UNL d   1       1.370  -0.241  -1.116  0.00  0.00     0.019 C 
ENDBRANCH   1   7
TORSDOF 1
ENDMDL
