MODEL 1
REMARK minimizedAffinity -5.90042305
REMARK minimizedRMSD -1
REMARK  1 active torsions:
REMARK  status: ('A' for Active; 'I' for Inactive)
REMARK    1  A    between atoms: C1_2  and  C2_3 
ROOT
ATOM      1  C2  UNL d   1      -0.321   0.920   0.343  0.00  0.00    -0.077 A 
ATOM      2  C3  UNL d   1      -1.125   1.424   1.375  0.00  0.00     0.002 A 
ATOM      3  C4  UNL d   1      -1.276   2.802   1.543  0.00  0.00     0.002 A 
ATOM      4  C5  UNL d   1      -0.631   3.686   0.682  0.00  0.00    -0.004 A 
ATOM      5  C6  UNL d   1       0.173   3.195  -0.346  0.00  0.00     0.002 A 
ATOM      6  C7  UNL d   1       0.327   1.818  -0.515  0.00  0.00     0.002 A 
ENDROOT
BRANCH   1   7
ATOM      7  C1  UNL d   1      -0.195  -0.566   0.129  0.00  0.00     0.055 C 
ATOM      8  C   UNL d   1       0.915  -0.891  -0.860  0.00  0.00     0.019 C 
ENDBRANCH   1   7
TORSDOF 1
ENDMDL
