MODEL 1
REMARK minimizedAffinity -4.43965006
REMARK minimizedRMSD -1
REMARK  1 active torsions:
REMARK  status: ('A' for Active; 'I' for Inactive)
REMARK    1  A    between atoms: C1_2  and  C2_3 
ROOT
ATOM      1  C2  UNL d   1       0.175  -0.559  -0.263  0.00  0.00    -0.077 A 
ATOM      2  C3  UNL d   1      -0.150  -0.803   1.078  0.00  0.00     0.002 A 
ATOM      3  C4  UNL d   1      -0.971   0.083   1.779  0.00  0.00     0.002 A 
ATOM      4  C5  UNL d   1      -1.476   1.216   1.145  0.00  0.00    -0.004 A 
ATOM      5  C6  UNL d   1      -1.157   1.469  -0.189  0.00  0.00     0.002 A 
ATOM      6  C7  UNL d   1      -0.336   0.585  -0.890  0.00  0.00     0.002 A 
ENDROOT
BRANCH   1   7
ATOM      7  C1  UNL d   1       1.020  -1.539  -1.035  0.00  0.00     0.055 C 
ATOM      8  C   UNL d   1       0.372  -1.903  -2.363  0.00  0.00     0.019 C 
ENDBRANCH   1   7
TORSDOF 1
ENDMDL
