MODEL 1
REMARK minimizedAffinity -5.36956453
REMARK minimizedRMSD -1
REMARK  1 active torsions:
REMARK  status: ('A' for Active; 'I' for Inactive)
REMARK    1  A    between atoms: C1_2  and  C2_3 
ROOT
ATOM      1  C2  UNL d   1      -1.004   2.702  -0.095  0.00  0.00    -0.077 A 
ATOM      2  C3  UNL d   1      -1.637   2.724   1.155  0.00  0.00     0.002 A 
ATOM      3  C4  UNL d   1      -1.765   1.552   1.903  0.00  0.00     0.002 A 
ATOM      4  C5  UNL d   1      -1.258   0.351   1.411  0.00  0.00    -0.004 A 
ATOM      5  C6  UNL d   1      -0.628   0.319   0.168  0.00  0.00     0.002 A 
ATOM      6  C7  UNL d   1      -0.501   1.489  -0.582  0.00  0.00     0.002 A 
ENDROOT
BRANCH   1   7
ATOM      7  C1  UNL d   1      -0.821   3.974  -0.881  0.00  0.00     0.055 C 
ATOM      8  C   UNL d   1       0.278   3.828  -1.923  0.00  0.00     0.019 C 
ENDBRANCH   1   7
TORSDOF 1
ENDMDL
