MODEL 1
REMARK minimizedAffinity -5.15695
REMARK minimizedRMSD -1
REMARK  1 active torsions:
REMARK  status: ('A' for Active; 'I' for Inactive)
REMARK    1  A    between atoms: C1_2  and  C2_3 
ROOT
ATOM      1  C2  UNL d   1      -1.110   1.935   0.477  0.00  0.00    -0.077 A 
ATOM      2  C3  UNL d   1      -1.773   1.570   1.657  0.00  0.00     0.002 A 
ATOM      3  C4  UNL d   1      -1.680   0.265   2.145  0.00  0.00     0.002 A 
ATOM      4  C5  UNL d   1      -0.922  -0.684   1.461  0.00  0.00    -0.004 A 
ATOM      5  C6  UNL d   1      -0.261  -0.331   0.286  0.00  0.00     0.002 A 
ATOM      6  C7  UNL d   1      -0.353   0.973  -0.204  0.00  0.00     0.002 A 
ENDROOT
BRANCH   1   7
ATOM      7  C1  UNL d   1      -1.169   3.354  -0.024  0.00  0.00     0.055 C 
ATOM      8  C   UNL d   1      -0.134   3.601  -1.111  0.00  0.00     0.019 C 
ENDBRANCH   1   7
TORSDOF 1
ENDMDL
