MODEL 1
REMARK minimizedAffinity 3.16631079
REMARK minimizedRMSD -1
REMARK  0 active torsions:
REMARK  status: ('A' for Active; 'I' for Inactive)
ROOT
ATOM      1  N1  IND d   1      -2.483   2.582   2.972  0.00  0.00    -0.196 N 
ATOM      2  C2  IND d   1      -3.266   1.642   3.583  0.00  0.00     0.054 A 
ATOM      3  C3  IND d   1      -2.740   0.409   3.413  0.00  0.00    -0.031 A 
ATOM      4  C4  IND d   1      -0.549  -0.290   2.254  0.00  0.00     0.051 A 
ATOM      5  C5  IND d   1       0.486   0.211   1.515  0.00  0.00    -0.031 A 
ATOM      6  C6  IND d   1       0.588   1.555   1.221  0.00  0.00     0.015 A 
ATOM      7  C7  IND d   1      -0.340   2.454   1.666  0.00  0.00    -0.016 A 
ATOM      8  C8  IND d   1      -1.396   1.948   2.410  0.00  0.00    -0.047 A 
ATOM      9  C9  IND d   1      -1.528   0.579   2.676  0.00  0.00    -0.096 A 
ATOM     10  HN1 IND d   1      -2.643   3.426   2.943  0.00  0.00     0.298 HD
ENDROOT
TORSDOF 0
ENDMDL
