MODEL 1
REMARK minimizedAffinity 2.81411862
REMARK minimizedRMSD -1
REMARK  0 active torsions:
REMARK  status: ('A' for Active; 'I' for Inactive)
ROOT
ATOM      1  N1  IND d   1      -2.545   2.649   3.336  0.00  0.00    -0.196 N 
ATOM      2  C2  IND d   1      -3.591   1.904   3.805  0.00  0.00     0.054 A 
ATOM      3  C3  IND d   1      -3.473   0.619   3.399  0.00  0.00    -0.031 A 
ATOM      4  C4  IND d   1      -1.591  -0.501   2.046  0.00  0.00     0.051 A 
ATOM      5  C5  IND d   1      -0.440  -0.221   1.364  0.00  0.00    -0.031 A 
ATOM      6  C6  IND d   1       0.080   1.056   1.306  0.00  0.00     0.015 A 
ATOM      7  C7  IND d   1      -0.529   2.103   1.940  0.00  0.00    -0.016 A 
ATOM      8  C8  IND d   1      -1.701   1.823   2.627  0.00  0.00    -0.047 A 
ATOM      9  C9  IND d   1      -2.257   0.537   2.654  0.00  0.00    -0.096 A 
ATOM     10  HN1 IND d   1      -2.433   3.492   3.462  0.00  0.00     0.298 HD
ENDROOT
TORSDOF 0
ENDMDL
