MODEL 1
REMARK minimizedAffinity 9.4924202
REMARK minimizedRMSD -1
REMARK  0 active torsions:
REMARK  status: ('A' for Active; 'I' for Inactive)
ROOT
ATOM      1  N1  IND d   1      -0.479   0.708   0.227  0.00  0.00    -0.196 N 
ATOM      2  C2  IND d   1       0.380   1.758   0.393  0.00  0.00     0.054 A 
ATOM      3  C3  IND d   1       1.066   1.627   1.551  0.00  0.00    -0.031 A 
ATOM      4  C4  IND d   1       1.012  -0.283   3.276  0.00  0.00     0.051 A 
ATOM      5  C5  IND d   1       0.358  -1.445   3.577  0.00  0.00    -0.031 A 
ATOM      6  C6  IND d   1      -0.627  -1.960   2.759  0.00  0.00     0.015 A 
ATOM      7  C7  IND d   1      -0.988  -1.336   1.598  0.00  0.00    -0.016 A 
ATOM      8  C8  IND d   1      -0.330  -0.153   1.293  0.00  0.00    -0.047 A 
ATOM      9  C9  IND d   1       0.640   0.397   2.141  0.00  0.00    -0.096 A 
ATOM     10  HN1 IND d   1      -1.021   0.602  -0.432  0.00  0.00     0.298 HD
ENDROOT
TORSDOF 0
ENDMDL
