MODEL 1
REMARK minimizedAffinity 0.340840727
REMARK minimizedRMSD -1
REMARK  0 active torsions:
REMARK  status: ('A' for Active; 'I' for Inactive)
ROOT
ATOM      1  N1  IND d   1       0.345   2.124   1.740  0.00  0.00    -0.196 N 
ATOM      2  C2  IND d   1       0.994   1.006   1.293  0.00  0.00     0.054 A 
ATOM      3  C3  IND d   1       0.211  -0.085   1.449  0.00  0.00    -0.031 A 
ATOM      4  C4  IND d   1      -2.205  -0.255   2.319  0.00  0.00     0.051 A 
ATOM      5  C5  IND d   1      -3.204   0.493   2.878  0.00  0.00    -0.031 A 
ATOM      6  C6  IND d   1      -3.069   1.850   3.088  0.00  0.00     0.015 A 
ATOM      7  C7  IND d   1      -1.929   2.515   2.734  0.00  0.00    -0.016 A 
ATOM      8  C8  IND d   1      -0.910   1.758   2.173  0.00  0.00    -0.047 A 
ATOM      9  C9  IND d   1      -1.026   0.373   1.997  0.00  0.00    -0.096 A 
ATOM     10  HN1 IND d   1       0.667   2.921   1.748  0.00  0.00     0.298 HD
ENDROOT
TORSDOF 0
ENDMDL
