MODEL 1
REMARK minimizedAffinity 7.24980164
REMARK minimizedRMSD -1
REMARK  0 active torsions:
REMARK  status: ('A' for Active; 'I' for Inactive)
ROOT
ATOM      1  N1  IND d   1       1.641   3.208  -4.178  0.00  0.00    -0.196 N 
ATOM      2  C2  IND d   1       2.275   2.329  -3.344  0.00  0.00     0.054 A 
ATOM      3  C3  IND d   1       3.607   2.559  -3.345  0.00  0.00    -0.031 A 
ATOM      4  C4  IND d   1       4.952   4.387  -4.559  0.00  0.00     0.051 A 
ATOM      5  C5  IND d   1       4.817   5.401  -5.465  0.00  0.00    -0.031 A 
ATOM      6  C6  IND d   1       3.590   5.745  -5.997  0.00  0.00     0.015 A 
ATOM      7  C7  IND d   1       2.447   5.092  -5.632  0.00  0.00    -0.016 A 
ATOM      8  C8  IND d   1       2.582   4.057  -4.718  0.00  0.00    -0.047 A 
ATOM      9  C9  IND d   1       3.829   3.675  -4.207  0.00  0.00    -0.096 A 
ATOM     10  HN1 IND d   1       0.796   3.227  -4.339  0.00  0.00     0.298 HD
ENDROOT
TORSDOF 0
ENDMDL
