MODEL 1
REMARK minimizedAffinity 2.37603664
REMARK minimizedRMSD -1
REMARK  0 active torsions:
REMARK  status: ('A' for Active; 'I' for Inactive)
ROOT
ATOM      1  N1  IND d   1      -3.378   3.076   4.923  0.00  0.00    -0.196 N 
ATOM      2  C2  IND d   1      -4.528   2.426   5.275  0.00  0.00     0.054 A 
ATOM      3  C3  IND d   1      -4.697   1.323   4.511  0.00  0.00    -0.031 A 
ATOM      4  C4  IND d   1      -3.161   0.340   2.695  0.00  0.00     0.051 A 
ATOM      5  C5  IND d   1      -2.015   0.600   1.997  0.00  0.00    -0.031 A 
ATOM      6  C6  IND d   1      -1.248   1.720   2.246  0.00  0.00     0.015 A 
ATOM      7  C7  IND d   1      -1.594   2.619   3.214  0.00  0.00    -0.016 A 
ATOM      8  C8  IND d   1      -2.761   2.362   3.920  0.00  0.00    -0.047 A 
ATOM      9  C9  IND d   1      -3.566   1.250   3.643  0.00  0.00    -0.096 A 
ATOM     10  HN1 IND d   1      -3.089   3.808   5.270  0.00  0.00     0.298 HD
ENDROOT
TORSDOF 0
ENDMDL
