MODEL 1
REMARK minimizedAffinity -3.72252822
REMARK minimizedRMSD -1
REMARK  0 active torsions:
REMARK  status: ('A' for Active; 'I' for Inactive)
ROOT
ATOM      1  N1  IND d   1       0.893   2.246   1.210  0.00  0.00    -0.196 N 
ATOM      2  C2  IND d   1       1.776   1.291   0.789  0.00  0.00     0.054 A 
ATOM      3  C3  IND d   1       1.297   0.056   1.060  0.00  0.00    -0.031 A 
ATOM      4  C4  IND d   1      -0.956  -0.634   2.097  0.00  0.00     0.051 A 
ATOM      5  C5  IND d   1      -2.080  -0.114   2.675  0.00  0.00    -0.031 A 
ATOM      6  C6  IND d   1      -2.276   1.247   2.794  0.00  0.00     0.015 A 
ATOM      7  C7  IND d   1      -1.356   2.143   2.327  0.00  0.00    -0.016 A 
ATOM      8  C8  IND d   1      -0.210   1.618   1.746  0.00  0.00    -0.047 A 
ATOM      9  C9  IND d   1       0.014   0.238   1.661  0.00  0.00    -0.096 A 
ATOM     10  HN1 IND d   1       1.007   3.096   1.151  0.00  0.00     0.298 HD
ENDROOT
TORSDOF 0
ENDMDL
