MODEL 1
REMARK minimizedAffinity -0.966863871
REMARK minimizedRMSD -1
REMARK  0 active torsions:
REMARK  status: ('A' for Active; 'I' for Inactive)
ROOT
ATOM      1  N1  IND d   1      -2.199   2.549   2.598  0.00  0.00    -0.196 N 
ATOM      2  C2  IND d   1      -2.988   1.675   3.292  0.00  0.00     0.054 A 
ATOM      3  C3  IND d   1      -2.496   0.419   3.195  0.00  0.00    -0.031 A 
ATOM      4  C4  IND d   1      -0.355  -0.414   2.034  0.00  0.00     0.051 A 
ATOM      5  C5  IND d   1       0.672   0.009   1.237  0.00  0.00    -0.031 A 
ATOM      6  C6  IND d   1       0.798   1.326   0.848  0.00  0.00     0.015 A 
ATOM      7  C7  IND d   1      -0.095   2.277   1.252  0.00  0.00    -0.016 A 
ATOM      8  C8  IND d   1      -1.143   1.851   2.055  0.00  0.00    -0.047 A 
ATOM      9  C9  IND d   1      -1.300   0.507   2.419  0.00  0.00    -0.096 A 
ATOM     10  HN1 IND d   1      -2.339   3.394   2.515  0.00  0.00     0.298 HD
ENDROOT
TORSDOF 0
ENDMDL
