MODEL 1
REMARK minimizedAffinity 5.64732552
REMARK minimizedRMSD -1
REMARK  0 active torsions:
REMARK  status: ('A' for Active; 'I' for Inactive)
ROOT
ATOM      1  N1  IND d   1       2.118  -0.702   0.472  0.00  0.00    -0.196 N 
ATOM      2  C2  IND d   1       2.677   0.192  -0.398  0.00  0.00     0.054 A 
ATOM      3  C3  IND d   1       1.961   1.338  -0.419  0.00  0.00    -0.031 A 
ATOM      4  C4  IND d   1      -0.105   2.002   0.966  0.00  0.00     0.051 A 
ATOM      5  C5  IND d   1      -1.003   1.503   1.868  0.00  0.00    -0.031 A 
ATOM      6  C6  IND d   1      -0.903   0.219   2.362  0.00  0.00     0.015 A 
ATOM      7  C7  IND d   1       0.110  -0.614   1.980  0.00  0.00    -0.016 A 
ATOM      8  C8  IND d   1       1.020  -0.114   1.060  0.00  0.00    -0.047 A 
ATOM      9  C9  IND d   1       0.899   1.174   0.522  0.00  0.00    -0.096 A 
ATOM     10  HN1 IND d   1       2.404  -1.498   0.626  0.00  0.00     0.298 HD
ENDROOT
TORSDOF 0
ENDMDL
