MODEL 1
REMARK minimizedAffinity 2.04496193
REMARK minimizedRMSD -1
REMARK  0 active torsions:
REMARK  status: ('A' for Active; 'I' for Inactive)
ROOT
ATOM      1  N1  IND d   1      -1.354   2.937   1.378  0.00  0.00    -0.196 N 
ATOM      2  C2  IND d   1      -2.311   2.587   2.289  0.00  0.00     0.054 A 
ATOM      3  C3  IND d   1      -2.165   1.293   2.652  0.00  0.00    -0.031 A 
ATOM      4  C4  IND d   1      -0.364  -0.408   1.952  0.00  0.00     0.051 A 
ATOM      5  C5  IND d   1       0.702  -0.564   1.110  0.00  0.00    -0.031 A 
ATOM      6  C6  IND d   1       1.147   0.461   0.301  0.00  0.00     0.015 A 
ATOM      7  C7  IND d   1       0.548   1.689   0.311  0.00  0.00    -0.016 A 
ATOM      8  C8  IND d   1      -0.539   1.848   1.159  0.00  0.00    -0.047 A 
ATOM      9  C9  IND d   1      -1.022   0.799   1.952  0.00  0.00    -0.096 A 
ATOM     10  HN1 IND d   1      -1.275   3.707   1.004  0.00  0.00     0.298 HD
ENDROOT
TORSDOF 0
ENDMDL
