MODEL 1
REMARK minimizedAffinity 3.58957362
REMARK minimizedRMSD -1
REMARK  0 active torsions:
REMARK  status: ('A' for Active; 'I' for Inactive)
ROOT
ATOM      1  N1  IND d   1      -3.628   2.848   3.873  0.00  0.00    -0.196 N 
ATOM      2  C2  IND d   1      -4.485   1.874   4.304  0.00  0.00     0.054 A 
ATOM      3  C3  IND d   1      -4.168   0.686   3.744  0.00  0.00    -0.031 A 
ATOM      4  C4  IND d   1      -2.219   0.088   2.171  0.00  0.00     0.051 A 
ATOM      5  C5  IND d   1      -1.190   0.650   1.469  0.00  0.00    -0.031 A 
ATOM      6  C6  IND d   1      -0.914   2.000   1.536  0.00  0.00     0.015 A 
ATOM      7  C7  IND d   1      -1.652   2.840   2.320  0.00  0.00    -0.016 A 
ATOM      8  C8  IND d   1      -2.703   2.274   3.029  0.00  0.00    -0.047 A 
ATOM      9  C9  IND d   1      -3.014   0.912   2.932  0.00  0.00    -0.096 A 
ATOM     10  HN1 IND d   1      -3.660   3.678   4.093  0.00  0.00     0.298 HD
ENDROOT
TORSDOF 0
ENDMDL
