MODEL 1
REMARK minimizedAffinity 1.04870844
REMARK minimizedRMSD -1
REMARK  0 active torsions:
REMARK  status: ('A' for Active; 'I' for Inactive)
ROOT
ATOM      1  N1  IND d   1      -2.766   1.618   2.820  0.00  0.00    -0.196 N 
ATOM      2  C2  IND d   1      -2.398   2.934   2.807  0.00  0.00     0.054 A 
ATOM      3  C3  IND d   1      -1.195   3.081   2.209  0.00  0.00    -0.031 A 
ATOM      4  C4  IND d   1       0.301   1.311   1.088  0.00  0.00     0.051 A 
ATOM      5  C5  IND d   1       0.406  -0.035   0.880  0.00  0.00    -0.031 A 
ATOM      6  C6  IND d   1      -0.563  -0.917   1.314  0.00  0.00     0.015 A 
ATOM      7  C7  IND d   1      -1.682  -0.482   1.966  0.00  0.00    -0.016 A 
ATOM      8  C8  IND d   1      -1.788   0.884   2.185  0.00  0.00    -0.047 A 
ATOM      9  C9  IND d   1      -0.788   1.779   1.785  0.00  0.00    -0.096 A 
ATOM     10  HN1 IND d   1      -3.486   1.301   3.166  0.00  0.00     0.298 HD
ENDROOT
TORSDOF 0
ENDMDL
