MODEL 1
REMARK minimizedAffinity 0.250783563
REMARK minimizedRMSD -1
REMARK  0 active torsions:
REMARK  status: ('A' for Active; 'I' for Inactive)
ROOT
ATOM      1  N1  IND d   1      -3.063   0.958   3.121  0.00  0.00    -0.196 N 
ATOM      2  C2  IND d   1      -2.994   2.315   3.266  0.00  0.00     0.054 A 
ATOM      3  C3  IND d   1      -1.853   2.789   2.717  0.00  0.00    -0.031 A 
ATOM      4  C4  IND d   1      -0.007   1.531   1.438  0.00  0.00     0.051 A 
ATOM      5  C5  IND d   1       0.390   0.273   1.081  0.00  0.00    -0.031 A 
ATOM      6  C6  IND d   1      -0.361  -0.843   1.389  0.00  0.00     0.015 A 
ATOM      7  C7  IND d   1      -1.547  -0.742   2.059  0.00  0.00    -0.016 A 
ATOM      8  C8  IND d   1      -1.950   0.533   2.430  0.00  0.00    -0.047 A 
ATOM      9  C9  IND d   1      -1.171   1.666   2.157  0.00  0.00    -0.096 A 
ATOM     10  HN1 IND d   1      -3.696   0.453   3.412  0.00  0.00     0.298 HD
ENDROOT
TORSDOF 0
ENDMDL
