MODEL 1
REMARK minimizedAffinity 10.7435551
REMARK minimizedRMSD -1
REMARK  0 active torsions:
REMARK  status: ('A' for Active; 'I' for Inactive)
ROOT
ATOM      1  N1  IND d   1      -1.775   1.979   3.228  0.00  0.00    -0.196 N 
ATOM      2  C2  IND d   1      -1.797   3.250   2.726  0.00  0.00     0.054 A 
ATOM      3  C3  IND d   1      -0.935   3.361   1.690  0.00  0.00    -0.031 A 
ATOM      4  C4  IND d   1       0.538   1.561   0.587  0.00  0.00     0.051 A 
ATOM      5  C5  IND d   1       0.926   0.257   0.719  0.00  0.00    -0.031 A 
ATOM      6  C6  IND d   1       0.421  -0.557   1.712  0.00  0.00     0.015 A 
ATOM      7  C7  IND d   1      -0.503  -0.098   2.608  0.00  0.00    -0.016 A 
ATOM      8  C8  IND d   1      -0.894   1.227   2.481  0.00  0.00    -0.047 A 
ATOM      9  C9  IND d   1      -0.353   2.070   1.502  0.00  0.00    -0.096 A 
ATOM     10  HN1 IND d   1      -2.234   1.696   3.898  0.00  0.00     0.298 HD
ENDROOT
TORSDOF 0
ENDMDL
