MODEL 1
REMARK minimizedAffinity -0.101396181
REMARK minimizedRMSD -1
REMARK  0 active torsions:
REMARK  status: ('A' for Active; 'I' for Inactive)
ROOT
ATOM      1  N1  IND d   1      -2.436   2.636   2.888  0.00  0.00    -0.196 N 
ATOM      2  C2  IND d   1      -3.435   1.849   3.391  0.00  0.00     0.054 A 
ATOM      3  C3  IND d   1      -3.198   0.549   3.105  0.00  0.00    -0.031 A 
ATOM      4  C4  IND d   1      -1.183  -0.523   1.915  0.00  0.00     0.051 A 
ATOM      5  C5  IND d   1      -0.034  -0.207   1.246  0.00  0.00    -0.031 A 
ATOM      6  C6  IND d   1       0.383   1.099   1.089  0.00  0.00     0.015 A 
ATOM      7  C7  IND d   1      -0.331   2.142   1.608  0.00  0.00    -0.016 A 
ATOM      8  C8  IND d   1      -1.502   1.825   2.282  0.00  0.00    -0.047 A 
ATOM      9  C9  IND d   1      -1.952   0.504   2.407  0.00  0.00    -0.096 A 
ATOM     10  HN1 IND d   1      -2.398   3.493   2.942  0.00  0.00     0.298 HD
ENDROOT
TORSDOF 0
ENDMDL
