MODEL 1
REMARK minimizedAffinity -0.757424951
REMARK minimizedRMSD -1
REMARK  0 active torsions:
REMARK  status: ('A' for Active; 'I' for Inactive)
ROOT
ATOM      1  N1  IND d   1      -3.228   0.623   3.303  0.00  0.00    -0.196 N 
ATOM      2  C2  IND d   1      -3.579   1.910   3.602  0.00  0.00     0.054 A 
ATOM      3  C3  IND d   1      -2.693   2.777   3.062  0.00  0.00    -0.031 A 
ATOM      4  C4  IND d   1      -0.652   2.309   1.565  0.00  0.00     0.051 A 
ATOM      5  C5  IND d   1       0.092   1.286   1.046  0.00  0.00    -0.031 A 
ATOM      6  C6  IND d   1      -0.241  -0.037   1.255  0.00  0.00     0.015 A 
ATOM      7  C7  IND d   1      -1.342  -0.387   1.985  0.00  0.00    -0.016 A 
ATOM      8  C8  IND d   1      -2.095   0.648   2.519  0.00  0.00    -0.047 A 
ATOM      9  C9  IND d   1      -1.738   1.992   2.346  0.00  0.00    -0.096 A 
ATOM     10  HN1 IND d   1      -3.644  -0.084   3.561  0.00  0.00     0.298 HD
ENDROOT
TORSDOF 0
ENDMDL
