MODEL 1
REMARK minimizedAffinity 0.176496834
REMARK minimizedRMSD -1
REMARK  0 active torsions:
REMARK  status: ('A' for Active; 'I' for Inactive)
ROOT
ATOM      1  N1  IND d   1       1.504   1.649   0.627  0.00  0.00    -0.196 N 
ATOM      2  C2  IND d   1       1.954   0.388   0.351  0.00  0.00     0.054 A 
ATOM      3  C3  IND d   1       1.006  -0.527   0.655  0.00  0.00    -0.031 A 
ATOM      4  C4  IND d   1      -1.393  -0.171   1.521  0.00  0.00     0.051 A 
ATOM      5  C5  IND d   1      -2.247   0.803   1.958  0.00  0.00    -0.031 A 
ATOM      6  C6  IND d   1      -1.888   2.135   1.971  0.00  0.00     0.015 A 
ATOM      7  C7  IND d   1      -0.660   2.547   1.535  0.00  0.00    -0.016 A 
ATOM      8  C8  IND d   1       0.212   1.560   1.097  0.00  0.00    -0.047 A 
ATOM      9  C9  IND d   1      -0.131   0.202   1.122  0.00  0.00    -0.096 A 
ATOM     10  HN1 IND d   1       1.952   2.375   0.524  0.00  0.00     0.298 HD
ENDROOT
TORSDOF 0
ENDMDL
