MODEL 1
REMARK minimizedAffinity -4.61995745
REMARK minimizedRMSD -1
REMARK  0 active torsions:
REMARK  status: ('A' for Active; 'I' for Inactive)
ROOT
ATOM      1  N1  IND d   1      -2.940   0.961   3.079  0.00  0.00    -0.196 N 
ATOM      2  C2  IND d   1      -2.908   2.326   3.020  0.00  0.00     0.054 A 
ATOM      3  C3  IND d   1      -1.810   2.743   2.352  0.00  0.00    -0.031 A 
ATOM      4  C4  IND d   1       0.017   1.357   1.181  0.00  0.00     0.051 A 
ATOM      5  C5  IND d   1       0.438   0.070   0.993  0.00  0.00    -0.031 A 
ATOM      6  C6  IND d   1      -0.261  -1.007   1.498  0.00  0.00     0.015 A 
ATOM      7  C7  IND d   1      -1.418  -0.838   2.204  0.00  0.00    -0.016 A 
ATOM      8  C8  IND d   1      -1.845   0.468   2.403  0.00  0.00    -0.047 A 
ATOM      9  C9  IND d   1      -1.117   1.567   1.929  0.00  0.00    -0.096 A 
ATOM     10  HN1 IND d   1      -3.542   0.489   3.471  0.00  0.00     0.298 HD
ENDROOT
TORSDOF 0
ENDMDL
