MODEL 1
REMARK minimizedAffinity 8.26071453
REMARK minimizedRMSD -1
REMARK  0 active torsions:
REMARK  status: ('A' for Active; 'I' for Inactive)
ROOT
ATOM      1  C   UNL d   1       1.175  -1.580   5.360  0.00  0.00     0.020 A 
ATOM      2  C1  UNL d   1       2.089  -2.596   5.082  0.00  0.00     0.020 A 
ATOM      3  C2  UNL d   1       2.754  -2.620   3.854  0.00  0.00     0.034 A 
ATOM      4  C3  UNL d   1       2.506  -1.627   2.899  0.00  0.00     0.017 A 
ATOM      5  C4  UNL d   1       1.589  -0.608   3.180  0.00  0.00     0.017 A 
ATOM      6  C5  UNL d   1       0.926  -0.588   4.411  0.00  0.00     0.034 A 
ATOM      7 Cl   UNL d   1       1.230   0.652   2.052  0.00  0.00    -0.070 Cl
ATOM      8 Cl1  UNL d   1       3.364  -1.719   1.403  0.00  0.00    -0.070 Cl
ENDROOT
TORSDOF 0
ENDMDL
