MODEL 1
REMARK minimizedAffinity 6.5095787
REMARK minimizedRMSD -1
REMARK  0 active torsions:
REMARK  status: ('A' for Active; 'I' for Inactive)
ROOT
ATOM      1  C   UNL d   1      -5.968   5.952  -2.759  0.00  0.00     0.020 A 
ATOM      2  C1  UNL d   1      -5.889   4.858  -3.620  0.00  0.00     0.020 A 
ATOM      3  C2  UNL d   1      -5.839   3.563  -3.100  0.00  0.00     0.034 A 
ATOM      4  C3  UNL d   1      -5.868   3.358  -1.716  0.00  0.00     0.017 A 
ATOM      5  C4  UNL d   1      -5.947   4.457  -0.853  0.00  0.00     0.017 A 
ATOM      6  C5  UNL d   1      -5.998   5.752  -1.378  0.00  0.00     0.034 A 
ATOM      7 Cl   UNL d   1      -5.988   4.284   0.867  0.00  0.00    -0.070 Cl
ATOM      8 Cl1  UNL d   1      -5.802   1.730  -1.143  0.00  0.00    -0.070 Cl
ENDROOT
TORSDOF 0
ENDMDL
