MODEL 1
REMARK minimizedAffinity 19.1707344
REMARK minimizedRMSD -1
REMARK  0 active torsions:
REMARK  status: ('A' for Active; 'I' for Inactive)
ROOT
ATOM      1  C   UNL d   1      -2.926   1.615  -2.131  0.00  0.00     0.020 A 
ATOM      2  C1  UNL d   1      -2.705   1.248  -3.457  0.00  0.00     0.020 A 
ATOM      3  C2  UNL d   1      -2.572  -0.100  -3.796  0.00  0.00     0.034 A 
ATOM      4  C3  UNL d   1      -2.659  -1.086  -2.807  0.00  0.00     0.017 A 
ATOM      5  C4  UNL d   1      -2.881  -0.717  -1.475  0.00  0.00     0.017 A 
ATOM      6  C5  UNL d   1      -3.014   0.634  -1.142  0.00  0.00     0.034 A 
ATOM      7 Cl   UNL d   1      -3.000  -1.877  -0.199  0.00  0.00    -0.070 Cl
ATOM      8 Cl1  UNL d   1      -2.485  -2.734  -3.297  0.00  0.00    -0.070 Cl
ENDROOT
TORSDOF 0
ENDMDL
