MODEL 1
REMARK minimizedAffinity -2.76190853
REMARK minimizedRMSD -1
REMARK  0 active torsions:
REMARK  status: ('A' for Active; 'I' for Inactive)
ROOT
ATOM      1  C   UNL d   1      -2.594  -3.684  -0.018  0.00  0.00     0.020 A 
ATOM      2  C1  UNL d   1      -2.499  -4.446  -1.182  0.00  0.00     0.020 A 
ATOM      3  C2  UNL d   1      -2.644  -3.835  -2.430  0.00  0.00     0.034 A 
ATOM      4  C3  UNL d   1      -2.886  -2.459  -2.516  0.00  0.00     0.017 A 
ATOM      5  C4  UNL d   1      -2.981  -1.696  -1.347  0.00  0.00     0.017 A 
ATOM      6  C5  UNL d   1      -2.835  -2.312  -0.101  0.00  0.00     0.034 A 
ATOM      7 Cl   UNL d   1      -3.277   0.007  -1.374  0.00  0.00    -0.070 Cl
ATOM      8 Cl1  UNL d   1      -3.054  -1.771  -4.092  0.00  0.00    -0.070 Cl
ENDROOT
TORSDOF 0
ENDMDL
