MODEL 1
REMARK minimizedAffinity 6.30131245
REMARK minimizedRMSD -1
REMARK  0 active torsions:
REMARK  status: ('A' for Active; 'I' for Inactive)
ROOT
ATOM      1  C   UNL d   1       0.150   0.644   0.408  0.00  0.00     0.020 A 
ATOM      2  C1  UNL d   1       0.831  -0.367  -0.269  0.00  0.00     0.020 A 
ATOM      3  C2  UNL d   1       1.585  -1.300   0.445  0.00  0.00     0.034 A 
ATOM      4  C3  UNL d   1       1.661  -1.224   1.841  0.00  0.00     0.017 A 
ATOM      5  C4  UNL d   1       0.977  -0.209   2.520  0.00  0.00     0.017 A 
ATOM      6  C5  UNL d   1       0.223   0.723   1.800  0.00  0.00     0.034 A 
ATOM      7 Cl   UNL d   1       1.023  -0.050   4.240  0.00  0.00    -0.070 Cl
ATOM      8 Cl1  UNL d   1       2.613  -2.411   2.660  0.00  0.00    -0.070 Cl
ENDROOT
TORSDOF 0
ENDMDL
