MODEL 1
REMARK minimizedAffinity 4.02151918
REMARK minimizedRMSD -1
REMARK  0 active torsions:
REMARK  status: ('A' for Active; 'I' for Inactive)
ROOT
ATOM      1  C   UNL d   1       1.130  -0.426   1.881  0.00  0.00     0.020 A 
ATOM      2  C1  UNL d   1       1.558  -1.744   2.039  0.00  0.00     0.020 A 
ATOM      3  C2  UNL d   1       1.757  -2.264   3.319  0.00  0.00     0.034 A 
ATOM      4  C3  UNL d   1       1.529  -1.467   4.447  0.00  0.00     0.017 A 
ATOM      5  C4  UNL d   1       1.100  -0.145   4.287  0.00  0.00     0.017 A 
ATOM      6  C5  UNL d   1       0.902   0.372   3.003  0.00  0.00     0.034 A 
ATOM      7 Cl   UNL d   1       0.797   0.900   5.631  0.00  0.00    -0.070 Cl
ATOM      8 Cl1  UNL d   1       1.795  -2.176   6.000  0.00  0.00    -0.070 Cl
ENDROOT
TORSDOF 0
ENDMDL
