MODEL 1
REMARK minimizedAffinity 6.42471075
REMARK minimizedRMSD -1
REMARK  0 active torsions:
REMARK  status: ('A' for Active; 'I' for Inactive)
ROOT
ATOM      1  C   UNL d   1      -4.003   5.196  -4.484  0.00  0.00     0.020 A 
ATOM      2  C1  UNL d   1      -3.577   4.136  -5.283  0.00  0.00     0.020 A 
ATOM      3  C2  UNL d   1      -3.497   2.848  -4.750  0.00  0.00     0.034 A 
ATOM      4  C3  UNL d   1      -3.844   2.617  -3.413  0.00  0.00     0.017 A 
ATOM      5  C4  UNL d   1      -4.271   3.682  -2.612  0.00  0.00     0.017 A 
ATOM      6  C5  UNL d   1      -4.349   4.969  -3.152  0.00  0.00     0.034 A 
ATOM      7 Cl   UNL d   1      -4.716   3.475  -0.955  0.00  0.00    -0.070 Cl
ATOM      8 Cl1  UNL d   1      -3.722   0.998  -2.820  0.00  0.00    -0.070 Cl
ENDROOT
TORSDOF 0
ENDMDL
