MODEL 1
REMARK minimizedAffinity 3.34913468
REMARK minimizedRMSD -1
REMARK  0 active torsions:
REMARK  status: ('A' for Active; 'I' for Inactive)
ROOT
ATOM      1  C   UNL d   1       1.679  -0.097   2.052  0.00  0.00     0.020 A 
ATOM      2  C1  UNL d   1       1.796  -1.485   2.109  0.00  0.00     0.020 A 
ATOM      3  C2  UNL d   1       1.683  -2.145   3.334  0.00  0.00     0.034 A 
ATOM      4  C3  UNL d   1       1.453  -1.417   4.508  0.00  0.00     0.017 A 
ATOM      5  C4  UNL d   1       1.336  -0.024   4.449  0.00  0.00     0.017 A 
ATOM      6  C5  UNL d   1       1.450   0.632   3.219  0.00  0.00     0.034 A 
ATOM      7 Cl   UNL d   1       1.052   0.942   5.854  0.00  0.00    -0.070 Cl
ATOM      8 Cl1  UNL d   1       1.324  -2.299   5.988  0.00  0.00    -0.070 Cl
ENDROOT
TORSDOF 0
ENDMDL
