MODEL 1
REMARK minimizedAffinity 13.4586296
REMARK minimizedRMSD -1
REMARK  0 active torsions:
REMARK  status: ('A' for Active; 'I' for Inactive)
ROOT
ATOM      1  C   UNL d   1       1.536  -1.945   1.665  0.00  0.00     0.020 A 
ATOM      2  C1  UNL d   1       1.445  -0.597   1.319  0.00  0.00     0.020 A 
ATOM      3  C2  UNL d   1       1.311   0.372   2.315  0.00  0.00     0.034 A 
ATOM      4  C3  UNL d   1       1.267  -0.005   3.662  0.00  0.00     0.017 A 
ATOM      5  C4  UNL d   1       1.358  -1.358   4.009  0.00  0.00     0.017 A 
ATOM      6  C5  UNL d   1       1.492  -2.324   3.007  0.00  0.00     0.034 A 
ATOM      7 Cl   UNL d   1       1.311  -1.900   5.649  0.00  0.00    -0.070 Cl
ATOM      8 Cl1  UNL d   1       1.101   1.247   4.842  0.00  0.00    -0.070 Cl
ENDROOT
TORSDOF 0
ENDMDL
