MODEL 1
REMARK minimizedAffinity 10.4813261
REMARK minimizedRMSD -1
REMARK  0 active torsions:
REMARK  status: ('A' for Active; 'I' for Inactive)
ROOT
ATOM      1  C2' OXE d   1       3.260  -4.482  -0.947  0.00  0.00     0.078 C 
ATOM      2  C1' OXE d   1       1.046  -4.137  -2.639  0.00  0.00     0.078 C 
ATOM      3  C1  OXE d   1       1.737  -2.899  -2.124  0.00  0.00    -0.078 A 
ATOM      4  C2  OXE d   1       2.791  -3.077  -1.259  0.00  0.00    -0.078 A 
ATOM      5  C3  OXE d   1       3.498  -1.970  -0.798  0.00  0.00     0.003 A 
ATOM      6  C4  OXE d   1       3.051  -0.674  -1.083  0.00  0.00    -0.002 A 
ATOM      7  C5  OXE d   1       1.956  -0.471  -1.930  0.00  0.00    -0.002 A 
ATOM      8  C6  OXE d   1       1.316  -1.570  -2.491  0.00  0.00     0.003 A 
ENDROOT
TORSDOF 0
ENDMDL
