MODEL 1
REMARK minimizedAffinity 9.87979221
REMARK minimizedRMSD -1
REMARK  0 active torsions:
REMARK  status: ('A' for Active; 'I' for Inactive)
ROOT
ATOM      1  C2' OXE d   1       0.001  -5.084  -2.276  0.00  0.00     0.078 C 
ATOM      2  C1' OXE d   1      -2.791  -5.019  -2.563  0.00  0.00     0.078 C 
ATOM      3  C1  OXE d   1      -2.021  -3.763  -2.886  0.00  0.00    -0.078 A 
ATOM      4  C2  OXE d   1      -0.660  -3.790  -2.699  0.00  0.00    -0.078 A 
ATOM      5  C3  OXE d   1       0.104  -2.676  -3.034  0.00  0.00     0.003 A 
ATOM      6  C4  OXE d   1      -0.516  -1.480  -3.415  0.00  0.00    -0.002 A 
ATOM      7  C5  OXE d   1      -1.905  -1.419  -3.574  0.00  0.00    -0.002 A 
ATOM      8  C6  OXE d   1      -2.666  -2.562  -3.355  0.00  0.00     0.003 A 
ENDROOT
TORSDOF 0
ENDMDL
