MODEL 1
REMARK minimizedAffinity -0.294267714
REMARK minimizedRMSD -1
REMARK  0 active torsions:
REMARK  status: ('A' for Active; 'I' for Inactive)
ROOT
ATOM      1  C2' OXE d   1      -3.331  -5.821  -2.257  0.00  0.00     0.078 C 
ATOM      2  C1' OXE d   1      -1.119  -4.448  -3.308  0.00  0.00     0.078 C 
ATOM      3  C1  OXE d   1      -2.415  -4.389  -4.078  0.00  0.00    -0.078 A 
ATOM      4  C2  OXE d   1      -3.479  -5.102  -3.581  0.00  0.00    -0.078 A 
ATOM      5  C3  OXE d   1      -4.712  -5.037  -4.223  0.00  0.00     0.003 A 
ATOM      6  C4  OXE d   1      -4.838  -4.378  -5.452  0.00  0.00    -0.002 A 
ATOM      7  C5  OXE d   1      -3.755  -3.678  -5.996  0.00  0.00    -0.002 A 
ATOM      8  C6  OXE d   1      -2.551  -3.638  -5.302  0.00  0.00     0.003 A 
ENDROOT
TORSDOF 0
ENDMDL
