MODEL 1
REMARK minimizedAffinity 15.6360569
REMARK minimizedRMSD -1
REMARK  0 active torsions:
REMARK  status: ('A' for Active; 'I' for Inactive)
ROOT
ATOM      1  C2' OXE d   1      -1.192  -3.373  -3.354  0.00  0.00     0.078 C 
ATOM      2  C1' OXE d   1      -3.302  -5.005  -2.477  0.00  0.00     0.078 C 
ATOM      3  C1  OXE d   1      -3.516  -4.189  -3.728  0.00  0.00    -0.078 A 
ATOM      4  C2  OXE d   1      -2.495  -3.358  -4.123  0.00  0.00    -0.078 A 
ATOM      5  C3  OXE d   1      -2.620  -2.625  -5.300  0.00  0.00     0.003 A 
ATOM      6  C4  OXE d   1      -3.832  -2.608  -6.000  0.00  0.00    -0.002 A 
ATOM      7  C5  OXE d   1      -4.899  -3.417  -5.592  0.00  0.00    -0.002 A 
ATOM      8  C6  OXE d   1      -4.742  -4.243  -4.485  0.00  0.00     0.003 A 
ENDROOT
TORSDOF 0
ENDMDL
