MODEL 1
REMARK minimizedAffinity 16.4977551
REMARK minimizedRMSD -1
REMARK  0 active torsions:
REMARK  status: ('A' for Active; 'I' for Inactive)
ROOT
ATOM      1  C2' OXE d   1       3.254  -2.122  -0.205  0.00  0.00     0.078 C 
ATOM      2  C1' OXE d   1       1.669  -1.043  -2.255  0.00  0.00     0.078 C 
ATOM      3  C1  OXE d   1       2.563  -0.101  -1.488  0.00  0.00    -0.078 A 
ATOM      4  C2  OXE d   1       3.301  -0.630  -0.456  0.00  0.00    -0.078 A 
ATOM      5  C3  OXE d   1       4.183   0.184   0.248  0.00  0.00     0.003 A 
ATOM      6  C4  OXE d   1       4.213   1.564   0.017  0.00  0.00    -0.002 A 
ATOM      7  C5  OXE d   1       3.440   2.130  -1.003  0.00  0.00    -0.002 A 
ATOM      8  C6  OXE d   1       2.644   1.306  -1.791  0.00  0.00     0.003 A 
ENDROOT
TORSDOF 0
ENDMDL
