MODEL 1
REMARK minimizedAffinity 13.5526915
REMARK minimizedRMSD -1
REMARK  0 active torsions:
REMARK  status: ('A' for Active; 'I' for Inactive)
ROOT
ATOM      1  C2' OXE d   1       0.103  -4.682  -3.060  0.00  0.00     0.078 C 
ATOM      2  C1' OXE d   1      -2.340  -5.345  -1.847  0.00  0.00     0.078 C 
ATOM      3  C1  OXE d   1      -2.379  -4.471  -3.075  0.00  0.00    -0.078 A 
ATOM      4  C2  OXE d   1      -1.177  -4.113  -3.635  0.00  0.00    -0.078 A 
ATOM      5  C3  OXE d   1      -1.158  -3.353  -4.801  0.00  0.00     0.003 A 
ATOM      6  C4  OXE d   1      -2.345  -2.823  -5.321  0.00  0.00    -0.002 A 
ATOM      7  C5  OXE d   1      -3.578  -3.142  -4.742  0.00  0.00    -0.002 A 
ATOM      8  C6  OXE d   1      -3.616  -3.998  -3.647  0.00  0.00     0.003 A 
ENDROOT
TORSDOF 0
ENDMDL
