MODEL 1
REMARK minimizedAffinity 13.6085863
REMARK minimizedRMSD -1
REMARK  0 active torsions:
REMARK  status: ('A' for Active; 'I' for Inactive)
ROOT
ATOM      1  C2' OXE d   1       2.255  -1.691  -2.243  0.00  0.00     0.078 C 
ATOM      2  C1' OXE d   1       3.796  -3.035  -0.320  0.00  0.00     0.078 C 
ATOM      3  C1  OXE d   1       2.908  -3.863  -1.214  0.00  0.00    -0.078 A 
ATOM      4  C2  OXE d   1       2.122  -3.193  -2.121  0.00  0.00    -0.078 A 
ATOM      5  C3  OXE d   1       1.325  -3.913  -3.006  0.00  0.00     0.003 A 
ATOM      6  C4  OXE d   1       1.200  -5.302  -2.879  0.00  0.00    -0.002 A 
ATOM      7  C5  OXE d   1       1.961  -6.000  -1.936  0.00  0.00    -0.002 A 
ATOM      8  C6  OXE d   1       2.850  -5.302  -1.126  0.00  0.00     0.003 A 
ENDROOT
TORSDOF 0
ENDMDL
