MODEL 1
REMARK minimizedAffinity 9.83713436
REMARK minimizedRMSD -1
REMARK  0 active torsions:
REMARK  status: ('A' for Active; 'I' for Inactive)
ROOT
ATOM      1  C2' OXE d   1       0.252  -0.402   2.778  0.00  0.00     0.078 C 
ATOM      2  C1' OXE d   1      -0.773   2.207   2.623  0.00  0.00     0.078 C 
ATOM      3  C1  OXE d   1      -1.742   1.085   2.902  0.00  0.00    -0.078 A 
ATOM      4  C2  OXE d   1      -1.239  -0.193   2.929  0.00  0.00    -0.078 A 
ATOM      5  C3  OXE d   1      -2.080  -1.259   3.237  0.00  0.00     0.003 A 
ATOM      6  C4  OXE d   1      -3.460  -1.058   3.366  0.00  0.00    -0.002 A 
ATOM      7  C5  OXE d   1      -3.999   0.231   3.301  0.00  0.00    -0.002 A 
ATOM      8  C6  OXE d   1      -3.150   1.316   3.113  0.00  0.00     0.003 A 
ENDROOT
TORSDOF 0
ENDMDL
