MODEL 1
REMARK minimizedAffinity 20.9125271
REMARK minimizedRMSD -1
REMARK  0 active torsions:
REMARK  status: ('A' for Active; 'I' for Inactive)
ROOT
ATOM      1  C2' OXE d   1      -5.532  -1.919   2.309  0.00  0.00     0.078 C 
ATOM      2  C1' OXE d   1      -4.190  -1.705   4.765  0.00  0.00     0.078 C 
ATOM      3  C1  OXE d   1      -3.751  -0.798   3.642  0.00  0.00    -0.078 A 
ATOM      4  C2  OXE d   1      -4.382  -0.943   2.430  0.00  0.00    -0.078 A 
ATOM      5  C3  OXE d   1      -4.054  -0.095   1.377  0.00  0.00     0.003 A 
ATOM      6  C4  OXE d   1      -2.982   0.799   1.494  0.00  0.00    -0.002 A 
ATOM      7  C5  OXE d   1      -2.300   0.934   2.708  0.00  0.00    -0.002 A 
ATOM      8  C6  OXE d   1      -2.699   0.174   3.802  0.00  0.00     0.003 A 
ENDROOT
TORSDOF 0
ENDMDL
