MODEL 1
REMARK minimizedAffinity 12.9960489
REMARK minimizedRMSD -1
REMARK  0 active torsions:
REMARK  status: ('A' for Active; 'I' for Inactive)
ROOT
ATOM      1  C2' OXE d   1       0.002   2.665   2.273  0.00  0.00     0.078 C 
ATOM      2  C1' OXE d   1       0.523  -0.093   2.198  0.00  0.00     0.078 C 
ATOM      3  C1  OXE d   1       0.405   0.565   3.551  0.00  0.00    -0.078 A 
ATOM      4  C2  OXE d   1       0.196   1.922   3.577  0.00  0.00    -0.078 A 
ATOM      5  C3  OXE d   1       0.024   2.570   4.798  0.00  0.00     0.003 A 
ATOM      6  C4  OXE d   1       0.215   1.878   6.000  0.00  0.00    -0.002 A 
ATOM      7  C5  OXE d   1       0.468   0.502   5.995  0.00  0.00    -0.002 A 
ATOM      8  C6  OXE d   1       0.523  -0.176   4.782  0.00  0.00     0.003 A 
ENDROOT
TORSDOF 0
ENDMDL
