MODEL 1
REMARK minimizedAffinity -0.272602767
REMARK minimizedRMSD -1
REMARK  0 active torsions:
REMARK  status: ('A' for Active; 'I' for Inactive)
ROOT
ATOM      1  C2' OXE d   1      -0.265  -4.590  -3.538  0.00  0.00     0.078 C 
ATOM      2  C1' OXE d   1      -2.370  -5.665  -2.023  0.00  0.00     0.078 C 
ATOM      3  C1  OXE d   1      -2.713  -5.004  -3.335  0.00  0.00    -0.078 A 
ATOM      4  C2  OXE d   1      -1.682  -4.440  -4.047  0.00  0.00    -0.078 A 
ATOM      5  C3  OXE d   1      -1.936  -3.866  -5.290  0.00  0.00     0.003 A 
ATOM      6  C4  OXE d   1      -3.251  -3.722  -5.749  0.00  0.00    -0.002 A 
ATOM      7  C5  OXE d   1      -4.319  -4.255  -5.021  0.00  0.00    -0.002 A 
ATOM      8  C6  OXE d   1      -4.064  -4.935  -3.835  0.00  0.00     0.003 A 
ENDROOT
TORSDOF 0
ENDMDL
