MODEL 1
REMARK minimizedAffinity 11.516324
REMARK minimizedRMSD -1
REMARK  0 active torsions:
REMARK  status: ('A' for Active; 'I' for Inactive)
ROOT
ATOM      1  C2' OXE d   1      -3.044  -1.224   3.781  0.00  0.00     0.078 C 
ATOM      2  C1' OXE d   1      -3.666   1.412   3.040  0.00  0.00     0.078 C 
ATOM      3  C1  OXE d   1      -2.220   0.986   2.979  0.00  0.00    -0.078 A 
ATOM      4  C2  OXE d   1      -1.919  -0.291   3.388  0.00  0.00    -0.078 A 
ATOM      5  C3  OXE d   1      -0.608  -0.752   3.299  0.00  0.00     0.003 A 
ATOM      6  C4  OXE d   1       0.428   0.121   2.944  0.00  0.00    -0.002 A 
ATOM      7  C5  OXE d   1       0.147   1.437   2.562  0.00  0.00    -0.002 A 
ATOM      8  C6  OXE d   1      -1.173   1.872   2.533  0.00  0.00     0.003 A 
ENDROOT
TORSDOF 0
ENDMDL
