MODEL 1
REMARK minimizedAffinity 7.80741072
REMARK minimizedRMSD -1
REMARK  0 active torsions:
REMARK  status: ('A' for Active; 'I' for Inactive)
ROOT
ATOM      1  C2' OXE d   1      -2.563  -5.940  -2.051  0.00  0.00     0.078 C 
ATOM      2  C1' OXE d   1      -0.485  -4.155  -2.667  0.00  0.00     0.078 C 
ATOM      3  C1  OXE d   1      -1.841  -3.893  -3.273  0.00  0.00    -0.078 A 
ATOM      4  C2  OXE d   1      -2.840  -4.797  -3.004  0.00  0.00    -0.078 A 
ATOM      5  C3  OXE d   1      -4.123  -4.573  -3.493  0.00  0.00     0.003 A 
ATOM      6  C4  OXE d   1      -4.369  -3.519  -4.382  0.00  0.00    -0.002 A 
ATOM      7  C5  OXE d   1      -3.356  -2.609  -4.702  0.00  0.00    -0.002 A 
ATOM      8  C6  OXE d   1      -2.100  -2.757  -4.123  0.00  0.00     0.003 A 
ENDROOT
TORSDOF 0
ENDMDL
