MODEL 1
REMARK minimizedAffinity 5.19758177
REMARK minimizedRMSD -1
REMARK  0 active torsions:
REMARK  status: ('A' for Active; 'I' for Inactive)
ROOT
ATOM      1  C2' OXE d   1      -3.796  -0.090   1.812  0.00  0.00     0.078 C 
ATOM      2  C1' OXE d   1      -3.503   1.776   3.888  0.00  0.00     0.078 C 
ATOM      3  C1  OXE d   1      -2.257   1.319   3.172  0.00  0.00    -0.078 A 
ATOM      4  C2  OXE d   1      -2.404   0.371   2.189  0.00  0.00    -0.078 A 
ATOM      5  C3  OXE d   1      -1.294  -0.045   1.459  0.00  0.00     0.003 A 
ATOM      6  C4  OXE d   1      -0.009   0.379   1.821  0.00  0.00    -0.002 A 
ATOM      7  C5  OXE d   1       0.167   1.314   2.846  0.00  0.00    -0.002 A 
ATOM      8  C6  OXE d   1      -0.947   1.825   3.502  0.00  0.00     0.003 A 
ENDROOT
TORSDOF 0
ENDMDL
