MODEL 1
REMARK minimizedAffinity 11.5837679
REMARK minimizedRMSD -1
REMARK  0 active torsions:
REMARK  status: ('A' for Active; 'I' for Inactive)
ROOT
ATOM      1  C2' OXE d   1      -1.588   0.480  -3.410  0.00  0.00     0.078 C 
ATOM      2  C1' OXE d   1       0.878   1.547  -4.223  0.00  0.00     0.078 C 
ATOM      3  C1  OXE d   1      -0.377   2.230  -4.705  0.00  0.00    -0.078 A 
ATOM      4  C2  OXE d   1      -1.580   1.674  -4.341  0.00  0.00    -0.078 A 
ATOM      5  C3  OXE d   1      -2.768   2.295  -4.714  0.00  0.00     0.003 A 
ATOM      6  C4  OXE d   1      -2.752   3.393  -5.583  0.00  0.00    -0.002 A 
ATOM      7  C5  OXE d   1      -1.538   3.951  -5.998  0.00  0.00    -0.002 A 
ATOM      8  C6  OXE d   1      -0.345   3.409  -5.535  0.00  0.00     0.003 A 
ENDROOT
TORSDOF 0
ENDMDL
