MODEL 1
REMARK minimizedAffinity 6.17361689
REMARK minimizedRMSD -1
REMARK  0 active torsions:
REMARK  status: ('A' for Active; 'I' for Inactive)
ROOT
ATOM      1  C2' OXE d   1      -2.985  -2.458  -4.529  0.00  0.00     0.078 C 
ATOM      2  C1' OXE d   1      -2.412  -5.106  -3.794  0.00  0.00     0.078 C 
ATOM      3  C1  OXE d   1      -3.672  -4.851  -4.583  0.00  0.00    -0.078 A 
ATOM      4  C2  OXE d   1      -3.968  -3.547  -4.898  0.00  0.00    -0.078 A 
ATOM      5  C3  OXE d   1      -5.090  -3.263  -5.671  0.00  0.00     0.003 A 
ATOM      6  C4  OXE d   1      -6.000  -4.275  -6.000  0.00  0.00    -0.002 A 
ATOM      7  C5  OXE d   1      -5.737  -5.605  -5.655  0.00  0.00    -0.002 A 
ATOM      8  C6  OXE d   1      -4.559  -5.915  -4.985  0.00  0.00     0.003 A 
ENDROOT
TORSDOF 0
ENDMDL
