MODEL 1
REMARK minimizedAffinity 4.3996954
REMARK minimizedRMSD -1
REMARK  0 active torsions:
REMARK  status: ('A' for Active; 'I' for Inactive)
ROOT
ATOM      1  C2' OXE d   1      -0.153  -4.396  -3.356  0.00  0.00     0.078 C 
ATOM      2  C1' OXE d   1      -2.292  -5.703  -2.092  0.00  0.00     0.078 C 
ATOM      3  C1  OXE d   1      -2.606  -4.826  -3.279  0.00  0.00    -0.078 A 
ATOM      4  C2  OXE d   1      -1.559  -4.154  -3.862  0.00  0.00    -0.078 A 
ATOM      5  C3  OXE d   1      -1.785  -3.375  -4.993  0.00  0.00     0.003 A 
ATOM      6  C4  OXE d   1      -3.089  -3.148  -5.449  0.00  0.00    -0.002 A 
ATOM      7  C5  OXE d   1      -4.174  -3.791  -4.844  0.00  0.00    -0.002 A 
ATOM      8  C6  OXE d   1      -3.946  -4.665  -3.787  0.00  0.00     0.003 A 
ENDROOT
TORSDOF 0
ENDMDL
