MODEL 1
REMARK minimizedAffinity 1.62516952
REMARK minimizedRMSD -1
REMARK  0 active torsions:
REMARK  status: ('A' for Active; 'I' for Inactive)
ROOT
ATOM      1  C2' OXE d   1      -3.008  -2.736  -5.998  0.00  0.00     0.078 C 
ATOM      2  C1' OXE d   1      -4.944  -3.783  -4.255  0.00  0.00     0.078 C 
ATOM      3  C1  OXE d   1      -3.503  -4.152  -4.009  0.00  0.00    -0.078 A 
ATOM      4  C2  OXE d   1      -2.567  -3.674  -4.894  0.00  0.00    -0.078 A 
ATOM      5  C3  OXE d   1      -1.217  -3.939  -4.681  0.00  0.00     0.003 A 
ATOM      6  C4  OXE d   1      -0.819  -4.815  -3.664  0.00  0.00    -0.002 A 
ATOM      7  C5  OXE d   1      -1.761  -5.346  -2.775  0.00  0.00    -0.002 A 
ATOM      8  C6  OXE d   1      -3.099  -4.991  -2.907  0.00  0.00     0.003 A 
ENDROOT
TORSDOF 0
ENDMDL
