MODEL 1
REMARK minimizedAffinity 11.1300116
REMARK minimizedRMSD -1
REMARK  0 active torsions:
REMARK  status: ('A' for Active; 'I' for Inactive)
ROOT
ATOM      1  C2' OXE d   1       0.505   0.375   2.986  0.00  0.00     0.078 C 
ATOM      2  C1' OXE d   1      -0.521  -2.223   2.714  0.00  0.00     0.078 C 
ATOM      3  C1  OXE d   1      -1.491  -1.071   2.626  0.00  0.00    -0.078 A 
ATOM      4  C2  OXE d   1      -0.987   0.194   2.807  0.00  0.00    -0.078 A 
ATOM      5  C3  OXE d   1      -1.829   1.296   2.682  0.00  0.00     0.003 A 
ATOM      6  C4  OXE d   1      -3.209   1.119   2.526  0.00  0.00    -0.002 A 
ATOM      7  C5  OXE d   1      -3.749  -0.163   2.379  0.00  0.00    -0.002 A 
ATOM      8  C6  OXE d   1      -2.899  -1.264   2.384  0.00  0.00     0.003 A 
ENDROOT
TORSDOF 0
ENDMDL
