MODEL 1
REMARK minimizedAffinity -0.245719537
REMARK minimizedRMSD -1
REMARK  0 active torsions:
REMARK  status: ('A' for Active; 'I' for Inactive)
ROOT
ATOM      1  C2' OXE d   1       1.020  -4.872  -3.262  0.00  0.00     0.078 C 
ATOM      2  C1' OXE d   1       3.388  -5.998  -2.259  0.00  0.00     0.078 C 
ATOM      3  C1  OXE d   1       3.011  -4.616  -1.787  0.00  0.00    -0.078 A 
ATOM      4  C2  OXE d   1       1.876  -4.054  -2.319  0.00  0.00    -0.078 A 
ATOM      5  C3  OXE d   1       1.453  -2.803  -1.876  0.00  0.00     0.003 A 
ATOM      6  C4  OXE d   1       2.255  -2.049  -1.012  0.00  0.00    -0.002 A 
ATOM      7  C5  OXE d   1       3.436  -2.587  -0.489  0.00  0.00    -0.002 A 
ATOM      8  C6  OXE d   1       3.806  -3.882  -0.832  0.00  0.00     0.003 A 
ENDROOT
TORSDOF 0
ENDMDL
