MODEL 1
REMARK minimizedAffinity -3.85173321
REMARK minimizedRMSD -1
REMARK  0 active torsions:
REMARK  status: ('A' for Active; 'I' for Inactive)
ROOT
ATOM      1  C   UNL d   1       2.803  -1.002   0.882  0.00  0.00     0.020 A 
ATOM      2  C1  UNL d   1       1.689  -1.828   0.735  0.00  0.00     0.020 A 
ATOM      3  C2  UNL d   1       0.457  -1.281   0.368  0.00  0.00     0.034 A 
ATOM      4  C3  UNL d   1       0.337   0.096   0.148  0.00  0.00     0.017 A 
ATOM      5  C4  UNL d   1       1.455   0.924   0.296  0.00  0.00     0.017 A 
ATOM      6  C5  UNL d   1       2.686   0.371   0.663  0.00  0.00     0.034 A 
ATOM      7 Cl   UNL d   1       1.384   2.632   0.041  0.00  0.00    -0.070 Cl
ATOM      8 Cl1  UNL d   1      -1.217   0.704  -0.303  0.00  0.00    -0.070 Cl
ENDROOT
TORSDOF 0
ENDMDL
