MODEL 1
REMARK minimizedAffinity -2.6517911
REMARK minimizedRMSD -1
REMARK  0 active torsions:
REMARK  status: ('A' for Active; 'I' for Inactive)
ROOT
ATOM      1  C   UNL d   1      -0.949  -1.290   0.827  0.00  0.00     0.020 A 
ATOM      2  C1  UNL d   1      -1.726  -0.284   0.254  0.00  0.00     0.020 A 
ATOM      3  C2  UNL d   1      -1.144   0.938  -0.089  0.00  0.00     0.034 A 
ATOM      4  C3  UNL d   1       0.219   1.158   0.142  0.00  0.00     0.017 A 
ATOM      5  C4  UNL d   1       0.998   0.148   0.717  0.00  0.00     0.017 A 
ATOM      6  C5  UNL d   1       0.410  -1.074   1.058  0.00  0.00     0.034 A 
ATOM      7 Cl   UNL d   1       2.686   0.345   1.031  0.00  0.00    -0.070 Cl
ATOM      8 Cl1  UNL d   1       0.873   2.693  -0.307  0.00  0.00    -0.070 Cl
ENDROOT
TORSDOF 0
ENDMDL
