MODEL 1
REMARK minimizedAffinity -5.01804829
REMARK minimizedRMSD -1
REMARK  0 active torsions:
REMARK  status: ('A' for Active; 'I' for Inactive)
ROOT
ATOM      1  C   UNL d   1       2.334   0.682  -0.229  0.00  0.00     0.020 A 
ATOM      2  C1  UNL d   1       3.415   0.372   0.595  0.00  0.00     0.020 A 
ATOM      3  C2  UNL d   1       3.243  -0.494   1.677  0.00  0.00     0.034 A 
ATOM      4  C3  UNL d   1       1.987  -1.052   1.938  0.00  0.00     0.017 A 
ATOM      5  C4  UNL d   1       0.902  -0.740   1.111  0.00  0.00     0.017 A 
ATOM      6  C5  UNL d   1       1.080   0.127   0.028  0.00  0.00     0.034 A 
ATOM      7 Cl   UNL d   1      -0.679  -1.391   1.369  0.00  0.00    -0.070 Cl
ATOM      8 Cl1  UNL d   1       1.846  -2.115   3.293  0.00  0.00    -0.070 Cl
ENDROOT
TORSDOF 0
ENDMDL
