MODEL 1
REMARK minimizedAffinity -0.369606674
REMARK minimizedRMSD -1
REMARK  0 active torsions:
REMARK  status: ('A' for Active; 'I' for Inactive)
ROOT
ATOM      1  C   UNL d   1      -1.035   0.356   0.387  0.00  0.00     0.020 A 
ATOM      2  C1  UNL d   1      -0.085   1.363   0.220  0.00  0.00     0.020 A 
ATOM      3  C2  UNL d   1       1.272   1.076   0.378  0.00  0.00     0.034 A 
ATOM      4  C3  UNL d   1       1.684  -0.222   0.703  0.00  0.00     0.017 A 
ATOM      5  C4  UNL d   1       0.730  -1.232   0.870  0.00  0.00     0.017 A 
ATOM      6  C5  UNL d   1      -0.628  -0.939   0.711  0.00  0.00     0.034 A 
ATOM      7 Cl   UNL d   1       1.161  -2.857   1.271  0.00  0.00    -0.070 Cl
ATOM      8 Cl1  UNL d   1       3.379  -0.506   0.882  0.00  0.00    -0.070 Cl
ENDROOT
TORSDOF 0
ENDMDL
