MODEL 1
REMARK minimizedAffinity -3.75417542
REMARK minimizedRMSD -1
REMARK  0 active torsions:
REMARK  status: ('A' for Active; 'I' for Inactive)
ROOT
ATOM      1  C   UNL d   1      -0.011   1.436  -0.083  0.00  0.00     0.020 A 
ATOM      2  C1  UNL d   1      -1.021   0.483   0.039  0.00  0.00     0.020 A 
ATOM      3  C2  UNL d   1      -0.719  -0.801   0.498  0.00  0.00     0.034 A 
ATOM      4  C3  UNL d   1       0.597  -1.135   0.838  0.00  0.00     0.017 A 
ATOM      5  C4  UNL d   1       1.610  -0.178   0.716  0.00  0.00     0.017 A 
ATOM      6  C5  UNL d   1       1.302   1.106   0.255  0.00  0.00     0.034 A 
ATOM      7 Cl   UNL d   1       3.258  -0.516   1.116  0.00  0.00    -0.070 Cl
ATOM      8 Cl1  UNL d   1       0.898  -2.741   1.400  0.00  0.00    -0.070 Cl
ENDROOT
TORSDOF 0
ENDMDL
