MODEL 1
REMARK minimizedAffinity -0.469848752
REMARK minimizedRMSD -1
REMARK  0 active torsions:
REMARK  status: ('A' for Active; 'I' for Inactive)
ROOT
ATOM      1  C   UNL d   1       1.811   1.382   0.232  0.00  0.00     0.020 A 
ATOM      2  C1  UNL d   1       2.115   0.477   1.248  0.00  0.00     0.020 A 
ATOM      3  C2  UNL d   1       1.211  -0.537   1.574  0.00  0.00     0.034 A 
ATOM      4  C3  UNL d   1      -0.001  -0.648   0.883  0.00  0.00     0.017 A 
ATOM      5  C4  UNL d   1      -0.305   0.261  -0.137  0.00  0.00     0.017 A 
ATOM      6  C5  UNL d   1       0.603   1.274  -0.459  0.00  0.00     0.034 A 
ATOM      7 Cl   UNL d   1      -1.781   0.188  -1.035  0.00  0.00    -0.070 Cl
ATOM      8 Cl1  UNL d   1      -1.071  -1.926   1.338  0.00  0.00    -0.070 Cl
ENDROOT
TORSDOF 0
ENDMDL
