MODEL 1
REMARK minimizedAffinity -2.8525629
REMARK minimizedRMSD -1
REMARK  0 active torsions:
REMARK  status: ('A' for Active; 'I' for Inactive)
ROOT
ATOM      1  C   UNL d   1       2.595   0.909   0.574  0.00  0.00     0.020 A 
ATOM      2  C1  UNL d   1       1.462   1.451  -0.032  0.00  0.00     0.020 A 
ATOM      3  C2  UNL d   1       0.245   0.769   0.028  0.00  0.00     0.034 A 
ATOM      4  C3  UNL d   1       0.157  -0.458   0.695  0.00  0.00     0.017 A 
ATOM      5  C4  UNL d   1       1.295  -1.001   1.303  0.00  0.00     0.017 A 
ATOM      6  C5  UNL d   1       2.511  -0.314   1.240  0.00  0.00     0.034 A 
ATOM      7 Cl   UNL d   1       1.266  -2.511   2.144  0.00  0.00    -0.070 Cl
ATOM      8 Cl1  UNL d   1      -1.380  -1.246   0.729  0.00  0.00    -0.070 Cl
ENDROOT
TORSDOF 0
ENDMDL
