MODEL 1
REMARK minimizedAffinity -4.60887957
REMARK minimizedRMSD -1
REMARK  0 active torsions:
REMARK  status: ('A' for Active; 'I' for Inactive)
ROOT
ATOM      1  C   UNL d   1       2.754   0.659   0.177  0.00  0.00     0.020 A 
ATOM      2  C1  UNL d   1       1.787   1.547  -0.295  0.00  0.00     0.020 A 
ATOM      3  C2  UNL d   1       0.433   1.224  -0.190  0.00  0.00     0.034 A 
ATOM      4  C3  UNL d   1       0.040   0.010   0.386  0.00  0.00     0.017 A 
ATOM      5  C4  UNL d   1       1.011  -0.880   0.859  0.00  0.00     0.017 A 
ATOM      6  C5  UNL d   1       2.366  -0.552   0.752  0.00  0.00     0.034 A 
ATOM      7 Cl   UNL d   1       0.604  -2.396   1.582  0.00  0.00    -0.070 Cl
ATOM      8 Cl1  UNL d   1      -1.652  -0.323   0.483  0.00  0.00    -0.070 Cl
ENDROOT
TORSDOF 0
ENDMDL
