MODEL 1
REMARK minimizedAffinity -5.76586342
REMARK minimizedRMSD -1
REMARK  0 active torsions:
REMARK  status: ('A' for Active; 'I' for Inactive)
ROOT
ATOM      1  C   UNL d   1       2.678  -0.597   0.518  0.00  0.00     0.020 A 
ATOM      2  C1  UNL d   1       3.041   0.381   1.443  0.00  0.00     0.020 A 
ATOM      3  C2  UNL d   1       2.146   1.403   1.766  0.00  0.00     0.034 A 
ATOM      4  C3  UNL d   1       0.884   1.450   1.163  0.00  0.00     0.017 A 
ATOM      5  C4  UNL d   1       0.520   0.468   0.235  0.00  0.00     0.017 A 
ATOM      6  C5  UNL d   1       1.420  -0.554  -0.085  0.00  0.00     0.034 A 
ATOM      7 Cl   UNL d   1      -1.020   0.459  -0.550  0.00  0.00    -0.070 Cl
ATOM      8 Cl1  UNL d   1      -0.172   2.743   1.610  0.00  0.00    -0.070 Cl
ENDROOT
TORSDOF 0
ENDMDL
