MODEL 1
REMARK minimizedAffinity -2.27603722
REMARK minimizedRMSD -1
REMARK  0 active torsions:
REMARK  status: ('A' for Active; 'I' for Inactive)
ROOT
ATOM      1  C   UNL d   1       3.237  -0.197   0.369  0.00  0.00     0.020 A 
ATOM      2  C1  UNL d   1       2.842   1.003  -0.221  0.00  0.00     0.020 A 
ATOM      3  C2  UNL d   1       1.486   1.328  -0.302  0.00  0.00     0.034 A 
ATOM      4  C3  UNL d   1       0.521   0.452   0.208  0.00  0.00     0.017 A 
ATOM      5  C4  UNL d   1       0.919  -0.752   0.801  0.00  0.00     0.017 A 
ATOM      6  C5  UNL d   1       2.278  -1.072   0.879  0.00  0.00     0.034 A 
ATOM      7 Cl   UNL d   1      -0.214  -1.883   1.452  0.00  0.00    -0.070 Cl
ATOM      8 Cl1  UNL d   1      -1.137   0.918   0.074  0.00  0.00    -0.070 Cl
ENDROOT
TORSDOF 0
ENDMDL
