MODEL 1
REMARK minimizedAffinity 7.52928495
REMARK minimizedRMSD -1
REMARK  0 active torsions:
REMARK  status: ('A' for Active; 'I' for Inactive)
ROOT
ATOM      1  C   UNL d   1      -5.531   4.944  -0.474  0.00  0.00     0.020 A 
ATOM      2  C1  UNL d   1      -6.000   4.428   0.733  0.00  0.00     0.020 A 
ATOM      3  C2  UNL d   1      -5.999   3.049   0.950  0.00  0.00     0.034 A 
ATOM      4  C3  UNL d   1      -5.528   2.181  -0.042  0.00  0.00     0.017 A 
ATOM      5  C4  UNL d   1      -5.057   2.700  -1.253  0.00  0.00     0.017 A 
ATOM      6  C5  UNL d   1      -5.060   4.082  -1.465  0.00  0.00     0.034 A 
ATOM      7 Cl   UNL d   1      -4.460   1.692  -2.524  0.00  0.00    -0.070 Cl
ATOM      8 Cl1  UNL d   1      -5.556   0.486   0.294  0.00  0.00    -0.070 Cl
ENDROOT
TORSDOF 0
ENDMDL
