MODEL 1
REMARK minimizedAffinity 0.959644198
REMARK minimizedRMSD -1
REMARK  0 active torsions:
REMARK  status: ('A' for Active; 'I' for Inactive)
ROOT
ATOM      1  C   UNL d   1       1.947  -5.996   2.346  0.00  0.00     0.078 C 
ATOM      2  C1  UNL d   1       3.328  -5.981   2.928  0.00  0.00    -0.077 A 
ATOM      3  C2  UNL d   1       4.459  -5.967   2.102  0.00  0.00    -0.001 A 
ATOM      4  C3  UNL d   1       5.739  -5.964   2.658  0.00  0.00     0.003 A 
ATOM      5  C4  UNL d   1       5.901  -5.975   4.042  0.00  0.00    -0.005 A 
ATOM      6  C5  UNL d   1       4.782  -5.991   4.872  0.00  0.00     0.003 A 
ATOM      7  C6  UNL d   1       3.501  -5.995   4.318  0.00  0.00    -0.001 A 
ENDROOT
TORSDOF 0
ENDMDL
