MODEL 1
REMARK minimizedAffinity 4.39655113
REMARK minimizedRMSD -1
REMARK  0 active torsions:
REMARK  status: ('A' for Active; 'I' for Inactive)
ROOT
ATOM      1  C   UNL d   1      -1.022  -4.124  -5.980  0.00  0.00     0.078 C 
ATOM      2  C1  UNL d   1      -2.506  -3.902  -5.994  0.00  0.00    -0.077 A 
ATOM      3  C2  UNL d   1      -3.042  -2.609  -5.995  0.00  0.00    -0.001 A 
ATOM      4  C3  UNL d   1      -4.424  -2.418  -5.998  0.00  0.00     0.003 A 
ATOM      5  C4  UNL d   1      -5.282  -3.516  -5.999  0.00  0.00    -0.005 A 
ATOM      6  C5  UNL d   1      -4.758  -4.807  -5.995  0.00  0.00     0.003 A 
ATOM      7  C6  UNL d   1      -3.376  -5.000  -5.992  0.00  0.00    -0.001 A 
ENDROOT
TORSDOF 0
ENDMDL
