MODEL 1
REMARK minimizedAffinity 1.3649044
REMARK minimizedRMSD -1
REMARK  0 active torsions:
REMARK  status: ('A' for Active; 'I' for Inactive)
ROOT
ATOM      1  C   UNL d   1      -3.331  -1.607  -5.983  0.00  0.00     0.078 C 
ATOM      2  C1  UNL d   1      -3.151  -3.096  -5.996  0.00  0.00    -0.077 A 
ATOM      3  C2  UNL d   1      -4.256  -3.956  -5.996  0.00  0.00    -0.001 A 
ATOM      4  C3  UNL d   1      -4.073  -5.340  -5.999  0.00  0.00     0.003 A 
ATOM      5  C4  UNL d   1      -2.787  -5.876  -6.000  0.00  0.00    -0.005 A 
ATOM      6  C5  UNL d   1      -1.681  -5.028  -5.997  0.00  0.00     0.003 A 
ATOM      7  C6  UNL d   1      -1.862  -3.644  -5.995  0.00  0.00    -0.001 A 
ENDROOT
TORSDOF 0
ENDMDL
