MODEL 1
REMARK minimizedAffinity 2.98508859
REMARK minimizedRMSD -1
REMARK  0 active torsions:
REMARK  status: ('A' for Active; 'I' for Inactive)
ROOT
ATOM      1  C   UNL d   1      -3.375  -2.393  -0.090  0.00  0.00     0.078 C 
ATOM      2  C1  UNL d   1      -3.273  -1.121   0.698  0.00  0.00    -0.077 A 
ATOM      3  C2  UNL d   1      -2.037  -0.662   1.170  0.00  0.00    -0.001 A 
ATOM      4  C3  UNL d   1      -1.959   0.518   1.911  0.00  0.00     0.003 A 
ATOM      5  C4  UNL d   1      -3.113   1.249   2.188  0.00  0.00    -0.005 A 
ATOM      6  C5  UNL d   1      -4.347   0.799   1.724  0.00  0.00     0.003 A 
ATOM      7  C6  UNL d   1      -4.428  -0.381   0.983  0.00  0.00    -0.001 A 
ENDROOT
TORSDOF 0
ENDMDL
