MODEL 1
REMARK minimizedAffinity -3.73564434
REMARK minimizedRMSD -1
REMARK  0 active torsions:
REMARK  status: ('A' for Active; 'I' for Inactive)
ROOT
ATOM      1  C   UNL d   1       1.219   0.036   3.326  0.00  0.00     0.078 C 
ATOM      2  C1  UNL d   1      -0.117   0.194   2.662  0.00  0.00    -0.077 A 
ATOM      3  C2  UNL d   1      -0.783   1.426   2.668  0.00  0.00    -0.001 A 
ATOM      4  C3  UNL d   1      -2.030   1.556   2.055  0.00  0.00     0.003 A 
ATOM      5  C4  UNL d   1      -2.622   0.459   1.432  0.00  0.00    -0.005 A 
ATOM      6  C5  UNL d   1      -1.967  -0.771   1.423  0.00  0.00     0.003 A 
ATOM      7  C6  UNL d   1      -0.720  -0.903   2.036  0.00  0.00    -0.001 A 
ENDROOT
TORSDOF 0
ENDMDL
