MODEL 1
REMARK minimizedAffinity 8.14117432
REMARK minimizedRMSD -1
REMARK  0 active torsions:
REMARK  status: ('A' for Active; 'I' for Inactive)
ROOT
ATOM      1  C   UNL d   1      -3.767  -2.610   0.100  0.00  0.00     0.078 C 
ATOM      2  C1  UNL d   1      -3.452  -1.193   0.475  0.00  0.00    -0.077 A 
ATOM      3  C2  UNL d   1      -4.250  -0.133   0.025  0.00  0.00    -0.001 A 
ATOM      4  C3  UNL d   1      -3.939   1.182   0.374  0.00  0.00     0.003 A 
ATOM      5  C4  UNL d   1      -2.829   1.450   1.174  0.00  0.00    -0.005 A 
ATOM      6  C5  UNL d   1      -2.029   0.402   1.624  0.00  0.00     0.003 A 
ATOM      7  C6  UNL d   1      -2.338  -0.914   1.276  0.00  0.00    -0.001 A 
ENDROOT
TORSDOF 0
ENDMDL
