MODEL 1
REMARK minimizedAffinity 3.54829979
REMARK minimizedRMSD -1
REMARK  0 active torsions:
REMARK  status: ('A' for Active; 'I' for Inactive)
ROOT
ATOM      1  C   UNL d   1      -0.664   0.312   2.324  0.00  0.00     0.078 C 
ATOM      2  C1  UNL d   1      -2.152   0.451   2.194  0.00  0.00    -0.077 A 
ATOM      3  C2  UNL d   1      -2.970   0.532   3.327  0.00  0.00    -0.001 A 
ATOM      4  C3  UNL d   1      -4.354   0.652   3.192  0.00  0.00     0.003 A 
ATOM      5  C4  UNL d   1      -4.932   0.691   1.924  0.00  0.00    -0.005 A 
ATOM      6  C5  UNL d   1      -4.126   0.610   0.791  0.00  0.00     0.003 A 
ATOM      7  C6  UNL d   1      -2.742   0.490   0.925  0.00  0.00    -0.001 A 
ENDROOT
TORSDOF 0
ENDMDL
