MODEL 1
REMARK minimizedAffinity 0.824636817
REMARK minimizedRMSD -1
REMARK  0 active torsions:
REMARK  status: ('A' for Active; 'I' for Inactive)
ROOT
ATOM      1  C   UNL d   1      -0.026   0.424   2.754  0.00  0.00     0.078 C 
ATOM      2  C1  UNL d   1      -1.497   0.377   2.464  0.00  0.00    -0.077 A 
ATOM      3  C2  UNL d   1      -1.982   0.567   1.164  0.00  0.00    -0.001 A 
ATOM      4  C3  UNL d   1      -3.354   0.530   0.911  0.00  0.00     0.003 A 
ATOM      5  C4  UNL d   1      -4.252   0.305   1.952  0.00  0.00    -0.005 A 
ATOM      6  C5  UNL d   1      -3.779   0.118   3.249  0.00  0.00     0.003 A 
ATOM      7  C6  UNL d   1      -2.407   0.154   3.505  0.00  0.00    -0.001 A 
ENDROOT
TORSDOF 0
ENDMDL
