MODEL 1
REMARK minimizedAffinity 1.22945809
REMARK minimizedRMSD -1
REMARK  0 active torsions:
REMARK  status: ('A' for Active; 'I' for Inactive)
ROOT
ATOM      1  C   UNL d   1       1.176  -6.000   1.855  0.00  0.00     0.078 C 
ATOM      2  C1  UNL d   1      -0.158  -5.502   1.385  0.00  0.00    -0.077 A 
ATOM      3  C2  UNL d   1      -1.347  -6.000   1.932  0.00  0.00    -0.001 A 
ATOM      4  C3  UNL d   1      -2.582  -5.535   1.478  0.00  0.00     0.003 A 
ATOM      5  C4  UNL d   1      -2.640  -4.571   0.473  0.00  0.00    -0.005 A 
ATOM      6  C5  UNL d   1      -1.463  -4.071  -0.079  0.00  0.00     0.003 A 
ATOM      7  C6  UNL d   1      -0.227  -4.535   0.374  0.00  0.00    -0.001 A 
ENDROOT
TORSDOF 0
ENDMDL
