MODEL 1
REMARK minimizedAffinity 1.51988649
REMARK minimizedRMSD -1
REMARK  0 active torsions:
REMARK  status: ('A' for Active; 'I' for Inactive)
ROOT
ATOM      1  C   UNL d   1       1.046  -5.684   1.527  0.00  0.00     0.078 C 
ATOM      2  C1  UNL d   1      -0.302  -5.143   1.154  0.00  0.00    -0.077 A 
ATOM      3  C2  UNL d   1      -1.396  -5.997   0.969  0.00  0.00    -0.001 A 
ATOM      4  C3  UNL d   1      -2.643  -5.481   0.613  0.00  0.00     0.003 A 
ATOM      5  C4  UNL d   1      -2.807  -4.108   0.438  0.00  0.00    -0.005 A 
ATOM      6  C5  UNL d   1      -1.724  -3.250   0.618  0.00  0.00     0.003 A 
ATOM      7  C6  UNL d   1      -0.476  -3.765   0.974  0.00  0.00    -0.001 A 
ENDROOT
TORSDOF 0
ENDMDL
