MODEL 1
REMARK minimizedAffinity 2.20438337
REMARK minimizedRMSD -1
REMARK  0 active torsions:
REMARK  status: ('A' for Active; 'I' for Inactive)
ROOT
ATOM      1  C   UNL d   1       1.616  -5.992   1.888  0.00  0.00     0.078 C 
ATOM      2  C1  UNL d   1       3.082  -5.999   2.204  0.00  0.00    -0.077 A 
ATOM      3  C2  UNL d   1       3.535  -5.997   3.529  0.00  0.00    -0.001 A 
ATOM      4  C3  UNL d   1       4.903  -5.994   3.808  0.00  0.00     0.003 A 
ATOM      5  C4  UNL d   1       5.829  -5.992   2.767  0.00  0.00    -0.005 A 
ATOM      6  C5  UNL d   1       5.388  -5.991   1.445  0.00  0.00     0.003 A 
ATOM      7  C6  UNL d   1       4.021  -5.994   1.164  0.00  0.00    -0.001 A 
ENDROOT
TORSDOF 0
ENDMDL
