MODEL 1
REMARK minimizedAffinity -1.13467562
REMARK minimizedRMSD -1
REMARK  0 active torsions:
REMARK  status: ('A' for Active; 'I' for Inactive)
ROOT
ATOM      1  C   UNL d   1       1.164   0.544   3.186  0.00  0.00     0.078 C 
ATOM      2  C1  UNL d   1       2.133   0.393   2.051  0.00  0.00    -0.077 A 
ATOM      3  C2  UNL d   1       1.737   0.625   0.728  0.00  0.00    -0.001 A 
ATOM      4  C3  UNL d   1       2.648   0.470  -0.318  0.00  0.00     0.003 A 
ATOM      5  C4  UNL d   1       3.959   0.083  -0.053  0.00  0.00    -0.005 A 
ATOM      6  C5  UNL d   1       4.362  -0.153   1.260  0.00  0.00     0.003 A 
ATOM      7  C6  UNL d   1       3.453   0.001   2.308  0.00  0.00    -0.001 A 
ENDROOT
TORSDOF 0
ENDMDL
