MODEL 1
REMARK minimizedAffinity 1.63854778
REMARK minimizedRMSD -1
REMARK  0 active torsions:
REMARK  status: ('A' for Active; 'I' for Inactive)
ROOT
ATOM      1  C   UNL d   1      -2.867   0.403   0.910  0.00  0.00     0.078 C 
ATOM      2  C1  UNL d   1      -1.859   0.963   1.868  0.00  0.00    -0.077 A 
ATOM      3  C2  UNL d   1      -0.765   0.198   2.293  0.00  0.00    -0.001 A 
ATOM      4  C3  UNL d   1       0.160   0.729   3.193  0.00  0.00     0.003 A 
ATOM      5  C4  UNL d   1       0.001   2.026   3.677  0.00  0.00    -0.005 A 
ATOM      6  C5  UNL d   1      -1.085   2.793   3.262  0.00  0.00     0.003 A 
ATOM      7  C6  UNL d   1      -2.012   2.264   2.362  0.00  0.00    -0.001 A 
ENDROOT
TORSDOF 0
ENDMDL
