MODEL 1
REMARK minimizedAffinity 3.5725615
REMARK minimizedRMSD -1
REMARK  0 active torsions:
REMARK  status: ('A' for Active; 'I' for Inactive)
ROOT
ATOM      1  C   UNL d   1       4.224  -6.000   1.537  0.00  0.00     0.078 C 
ATOM      2  C1  UNL d   1       2.805  -5.605   1.820  0.00  0.00    -0.077 A 
ATOM      3  C2  UNL d   1       2.075  -4.832   0.909  0.00  0.00    -0.001 A 
ATOM      4  C3  UNL d   1       0.759  -4.464   1.190  0.00  0.00     0.003 A 
ATOM      5  C4  UNL d   1       0.161  -4.863   2.384  0.00  0.00    -0.005 A 
ATOM      6  C5  UNL d   1       0.880  -5.631   3.298  0.00  0.00     0.003 A 
ATOM      7  C6  UNL d   1       2.196  -6.000   3.018  0.00  0.00    -0.001 A 
ENDROOT
TORSDOF 0
ENDMDL
