MODEL 1
REMARK minimizedAffinity 4.65379858
REMARK minimizedRMSD -1
REMARK  0 active torsions:
REMARK  status: ('A' for Active; 'I' for Inactive)
ROOT
ATOM      1  C   UNL d   1      -0.120   0.758   2.089  0.00  0.00     0.078 C 
ATOM      2  C1  UNL d   1      -1.567   0.604   1.728  0.00  0.00    -0.077 A 
ATOM      3  C2  UNL d   1      -1.972  -0.306   0.744  0.00  0.00    -0.001 A 
ATOM      4  C3  UNL d   1      -3.322  -0.432   0.411  0.00  0.00     0.003 A 
ATOM      5  C4  UNL d   1      -4.277   0.351   1.057  0.00  0.00    -0.005 A 
ATOM      6  C5  UNL d   1      -3.883   1.260   2.036  0.00  0.00     0.003 A 
ATOM      7  C6  UNL d   1      -2.534   1.387   2.370  0.00  0.00    -0.001 A 
ENDROOT
TORSDOF 0
ENDMDL
