MODEL 1
REMARK minimizedAffinity 1.02908099
REMARK minimizedRMSD -1
REMARK  0 active torsions:
REMARK  status: ('A' for Active; 'I' for Inactive)
ROOT
ATOM      1  C   UNL d   1      -4.711   0.544   4.410  0.00  0.00     0.078 C 
ATOM      2  C1  UNL d   1      -3.603   0.535   3.401  0.00  0.00    -0.077 A 
ATOM      3  C2  UNL d   1      -2.265   0.657   3.797  0.00  0.00    -0.001 A 
ATOM      4  C3  UNL d   1      -1.244   0.657   2.846  0.00  0.00     0.003 A 
ATOM      5  C4  UNL d   1      -1.550   0.535   1.491  0.00  0.00    -0.005 A 
ATOM      6  C5  UNL d   1      -2.878   0.415   1.087  0.00  0.00     0.003 A 
ATOM      7  C6  UNL d   1      -3.900   0.415   2.037  0.00  0.00    -0.001 A 
ENDROOT
TORSDOF 0
ENDMDL
