MODEL 1
REMARK minimizedAffinity 0.115383923
REMARK minimizedRMSD -1
REMARK  0 active torsions:
REMARK  status: ('A' for Active; 'I' for Inactive)
ROOT
ATOM      1  C   UNL d   1       4.423  -5.925   5.550  0.00  0.00     0.078 C 
ATOM      2  C1  UNL d   1       4.579  -5.940   4.059  0.00  0.00    -0.077 A 
ATOM      3  C2  UNL d   1       5.846  -5.890   3.465  0.00  0.00    -0.001 A 
ATOM      4  C3  UNL d   1       5.976  -5.895   2.076  0.00  0.00     0.003 A 
ATOM      5  C4  UNL d   1       4.842  -5.948   1.268  0.00  0.00    -0.005 A 
ATOM      6  C5  UNL d   1       3.576  -5.995   1.849  0.00  0.00     0.003 A 
ATOM      7  C6  UNL d   1       3.445  -5.991   3.238  0.00  0.00    -0.001 A 
ENDROOT
TORSDOF 0
ENDMDL
