MODEL 1
REMARK minimizedAffinity -1.60385978
REMARK minimizedRMSD -1
REMARK  1 active torsions:
REMARK  status: ('A' for Active; 'I' for Inactive)
REMARK    1  A    between atoms: N_2  and  C1_3 
ROOT
ATOM      1  C1  UNL d   1       2.942  -1.032  -0.004  0.00  0.00     0.143 A 
ATOM      2  C2  UNL d   1       2.706  -0.051   0.965  0.00  0.00    -0.057 A 
ATOM      3  C3  UNL d   1       3.190   1.254   0.810  0.00  0.00     0.033 A 
ATOM      4  C4  UNL d   1       3.946   1.593  -0.307  0.00  0.00    -0.042 A 
ATOM      5  C5  UNL d   1       4.214   0.628  -1.271  0.00  0.00     0.033 A 
ATOM      6  C6  UNL d   1       3.722  -0.672  -1.114  0.00  0.00    -0.057 A 
ENDROOT
BRANCH   1   7
ATOM      7  N   UNL d   1       2.571  -2.372   0.139  0.00  0.00    -0.732 N 
ATOM      8  C   UNL d   1       1.317  -2.851  -0.400  0.00  0.00     0.284 C 
ATOM      9  H3  UNL d   1       3.353  -3.008   0.001  0.00  0.00     0.395 HD
ENDBRANCH   1   7
TORSDOF 1
ENDMDL
