MODEL 1
REMARK minimizedAffinity -4.92374945
REMARK minimizedRMSD -1
REMARK  1 active torsions:
REMARK  status: ('A' for Active; 'I' for Inactive)
REMARK    1  A    between atoms: N_2  and  C1_3 
ROOT
ATOM      1  C1  UNL d   1       4.341   3.106   5.280  0.00  0.00     0.143 A 
ATOM      2  C2  UNL d   1       3.378   3.457   4.328  0.00  0.00    -0.057 A 
ATOM      3  C3  UNL d   1       2.234   2.674   4.130  0.00  0.00     0.033 A 
ATOM      4  C4  UNL d   1       2.047   1.507   4.863  0.00  0.00    -0.042 A 
ATOM      5  C5  UNL d   1       3.004   1.126   5.797  0.00  0.00     0.033 A 
ATOM      6  C6  UNL d   1       4.141   1.915   5.995  0.00  0.00    -0.057 A 
ENDROOT
BRANCH   1   7
ATOM      7  N   UNL d   1       5.547   3.789   5.454  0.00  0.00    -0.732 N 
ATOM      8  C   UNL d   1       5.563   5.130   6.000  0.00  0.00     0.284 C 
ATOM      9  H3  UNL d   1       6.287   3.187   5.809  0.00  0.00     0.395 HD
ENDBRANCH   1   7
TORSDOF 1
ENDMDL
