MODEL 1
REMARK minimizedAffinity -3.81006074
REMARK minimizedRMSD -1
REMARK  1 active torsions:
REMARK  status: ('A' for Active; 'I' for Inactive)
REMARK    1  A    between atoms: N_2  and  C1_3 
ROOT
ATOM      1  C1  UNL d   1       4.735   3.672   5.120  0.00  0.00     0.143 A 
ATOM      2  C2  UNL d   1       4.747   2.583   5.998  0.00  0.00    -0.057 A 
ATOM      3  C3  UNL d   1       3.748   1.603   5.953  0.00  0.00     0.033 A 
ATOM      4  C4  UNL d   1       2.699   1.711   5.046  0.00  0.00    -0.042 A 
ATOM      5  C5  UNL d   1       2.653   2.799   4.180  0.00  0.00     0.033 A 
ATOM      6  C6  UNL d   1       3.657   3.770   4.225  0.00  0.00    -0.057 A 
ENDROOT
BRANCH   1   7
ATOM      7  N   UNL d   1       5.645   4.730   5.180  0.00  0.00    -0.732 N 
ATOM      8  C   UNL d   1       5.263   5.999   5.762  0.00  0.00     0.284 C 
ATOM      9  H3  UNL d   1       6.582   4.423   5.431  0.00  0.00     0.395 HD
ENDBRANCH   1   7
TORSDOF 1
ENDMDL
