MODEL 1
REMARK minimizedAffinity 1.78935289
REMARK minimizedRMSD -1
REMARK  1 active torsions:
REMARK  status: ('A' for Active; 'I' for Inactive)
REMARK    1  A    between atoms: N_2  and  C1_3 
ROOT
ATOM      1  C1  UNL d   1       3.908   3.562   4.172  0.00  0.00     0.143 A 
ATOM      2  C2  UNL d   1       4.654   3.622   5.354  0.00  0.00    -0.057 A 
ATOM      3  C3  UNL d   1       5.192   4.830   5.812  0.00  0.00     0.033 A 
ATOM      4  C4  UNL d   1       5.018   5.999   5.079  0.00  0.00    -0.042 A 
ATOM      5  C5  UNL d   1       4.302   5.959   3.888  0.00  0.00     0.033 A 
ATOM      6  C6  UNL d   1       3.761   4.750   3.439  0.00  0.00    -0.057 A 
ENDROOT
BRANCH   1   7
ATOM      7  N   UNL d   1       3.431   2.374   3.613  0.00  0.00    -0.732 N 
ATOM      8  C   UNL d   1       2.492   1.544   4.337  0.00  0.00     0.284 C 
ATOM      9  H3  UNL d   1       3.224   2.468   2.621  0.00  0.00     0.395 HD
ENDBRANCH   1   7
TORSDOF 1
ENDMDL
