MODEL 1
REMARK minimizedAffinity -4.12455368
REMARK minimizedRMSD -1
REMARK  1 active torsions:
REMARK  status: ('A' for Active; 'I' for Inactive)
REMARK    1  A    between atoms: N_2  and  C1_3 
ROOT
ATOM      1  C1  UNL d   1       3.786   4.955   4.792  0.00  0.00     0.143 A 
ATOM      2  C2  UNL d   1       5.040   5.157   5.380  0.00  0.00    -0.057 A 
ATOM      3  C3  UNL d   1       5.781   4.086   5.894  0.00  0.00     0.033 A 
ATOM      4  C4  UNL d   1       5.267   2.794   5.855  0.00  0.00    -0.042 A 
ATOM      5  C5  UNL d   1       4.013   2.574   5.297  0.00  0.00     0.033 A 
ATOM      6  C6  UNL d   1       3.280   3.646   4.780  0.00  0.00    -0.057 A 
ENDROOT
BRANCH   1   7
ATOM      7  N   UNL d   1       2.958   5.991   4.353  0.00  0.00    -0.732 N 
ATOM      8  C   UNL d   1       1.707   5.701   3.686  0.00  0.00     0.284 C 
ATOM      9  H3  UNL d   1       2.906   6.756   5.021  0.00  0.00     0.395 HD
ENDBRANCH   1   7
TORSDOF 1
ENDMDL
