MODEL 1
REMARK minimizedAffinity -0.181229755
REMARK minimizedRMSD -1
REMARK  0 active torsions:
REMARK  status: ('A' for Active; 'I' for Inactive)
ROOT
ATOM      1  C   UNL d   1       3.702   0.522   0.779  0.00  0.00     0.077 C 
ATOM      2  C1  UNL d   1       2.766   0.211   1.909  0.00  0.00    -0.074 A 
ATOM      3  C2  UNL d   1       2.362   1.208   2.803  0.00  0.00    -0.005 A 
ATOM      4  C3  UNL d   1       1.483   0.906   3.843  0.00  0.00     0.006 A 
ATOM      5  C4  UNL d   1       1.001  -0.394   4.000  0.00  0.00    -0.005 A 
ATOM      6  C5  UNL d   1       1.393  -1.404   3.116  0.00  0.00    -0.074 A 
ATOM      7  C6  UNL d   1       0.876  -2.804   3.265  0.00  0.00     0.077 C 
ATOM      8  C7  UNL d   1       2.271  -1.091   2.069  0.00  0.00    -0.001 A 
ENDROOT
TORSDOF 0
ENDMDL
