MODEL 1
REMARK minimizedAffinity -0.920645773
REMARK minimizedRMSD -1
REMARK  0 active torsions:
REMARK  status: ('A' for Active; 'I' for Inactive)
ROOT
ATOM      1  C   UNL d   1       5.966  -5.974  -5.604  0.00  0.00     0.077 C 
ATOM      2  C1  UNL d   1       4.889  -5.976  -4.560  0.00  0.00    -0.074 A 
ATOM      3  C2  UNL d   1       3.538  -5.987  -4.921  0.00  0.00    -0.005 A 
ATOM      4  C3  UNL d   1       2.547  -5.998  -3.939  0.00  0.00     0.006 A 
ATOM      5  C4  UNL d   1       2.897  -5.999  -2.588  0.00  0.00    -0.005 A 
ATOM      6  C5  UNL d   1       4.243  -5.989  -2.208  0.00  0.00    -0.074 A 
ATOM      7  C6  UNL d   1       4.637  -5.999  -0.761  0.00  0.00     0.077 C 
ATOM      8  C7  UNL d   1       5.233  -5.985  -3.201  0.00  0.00    -0.001 A 
ENDROOT
TORSDOF 0
ENDMDL
