MODEL 1
REMARK minimizedAffinity 4.29141903
REMARK minimizedRMSD -1
REMARK  0 active torsions:
REMARK  status: ('A' for Active; 'I' for Inactive)
ROOT
ATOM      1  C   UNL d   1       0.759  -2.534   2.189  0.00  0.00     0.077 C 
ATOM      2  C1  UNL d   1       1.553  -3.744   1.795  0.00  0.00    -0.074 A 
ATOM      3  C2  UNL d   1       1.614  -4.866   2.628  0.00  0.00    -0.005 A 
ATOM      4  C3  UNL d   1       2.349  -5.988   2.244  0.00  0.00     0.006 A 
ATOM      5  C4  UNL d   1       3.029  -5.999   1.025  0.00  0.00    -0.005 A 
ATOM      6  C5  UNL d   1       2.978  -4.887   0.179  0.00  0.00    -0.074 A 
ATOM      7  C6  UNL d   1       3.695  -4.886  -1.139  0.00  0.00     0.077 C 
ATOM      8  C7  UNL d   1       2.232  -3.766   0.569  0.00  0.00    -0.001 A 
ENDROOT
TORSDOF 0
ENDMDL
