MODEL 1
REMARK minimizedAffinity 2.66096711
REMARK minimizedRMSD -1
REMARK  0 active torsions:
REMARK  status: ('A' for Active; 'I' for Inactive)
ROOT
ATOM      1  C   UNL d   1       2.381  -0.543   2.172  0.00  0.00     0.077 C 
ATOM      2  C1  UNL d   1       2.296  -1.832   2.933  0.00  0.00    -0.074 A 
ATOM      3  C2  UNL d   1       1.243  -2.727   2.716  0.00  0.00    -0.005 A 
ATOM      4  C3  UNL d   1       1.183  -3.927   3.425  0.00  0.00     0.006 A 
ATOM      5  C4  UNL d   1       2.172  -4.243   4.356  0.00  0.00    -0.005 A 
ATOM      6  C5  UNL d   1       3.233  -3.362   4.586  0.00  0.00    -0.074 A 
ATOM      7  C6  UNL d   1       4.310  -3.691   5.576  0.00  0.00     0.077 C 
ATOM      8  C7  UNL d   1       3.291  -2.161   3.865  0.00  0.00    -0.001 A 
ENDROOT
TORSDOF 0
ENDMDL
