MODEL 1
REMARK minimizedAffinity -1.70740438
REMARK minimizedRMSD -1
REMARK  0 active torsions:
REMARK  status: ('A' for Active; 'I' for Inactive)
ROOT
ATOM      1  C   UNL d   1       2.858  -6.000  -0.818  0.00  0.00     0.077 C 
ATOM      2  C1  UNL d   1       3.214  -5.990  -2.275  0.00  0.00    -0.074 A 
ATOM      3  C2  UNL d   1       4.550  -5.992  -2.688  0.00  0.00    -0.005 A 
ATOM      4  C3  UNL d   1       4.866  -5.993  -4.046  0.00  0.00     0.006 A 
ATOM      5  C4  UNL d   1       3.851  -5.991  -5.004  0.00  0.00    -0.005 A 
ATOM      6  C5  UNL d   1       2.510  -5.990  -4.610  0.00  0.00    -0.074 A 
ATOM      7  C6  UNL d   1       1.407  -5.999  -5.626  0.00  0.00     0.077 C 
ATOM      8  C7  UNL d   1       2.200  -5.997  -3.243  0.00  0.00    -0.001 A 
ENDROOT
TORSDOF 0
ENDMDL
