MODEL 1
REMARK minimizedAffinity 1.91167903
REMARK minimizedRMSD -1
REMARK  0 active torsions:
REMARK  status: ('A' for Active; 'I' for Inactive)
ROOT
ATOM      1  C   UNL d   1       2.587  -5.997  -5.994  0.00  0.00     0.077 C 
ATOM      2  C1  UNL d   1       3.477  -6.000  -4.787  0.00  0.00    -0.074 A 
ATOM      3  C2  UNL d   1       4.870  -5.986  -4.920  0.00  0.00    -0.005 A 
ATOM      4  C3  UNL d   1       5.685  -5.979  -3.788  0.00  0.00     0.006 A 
ATOM      5  C4  UNL d   1       5.117  -5.986  -2.514  0.00  0.00    -0.005 A 
ATOM      6  C5  UNL d   1       3.727  -5.999  -2.361  0.00  0.00    -0.074 A 
ATOM      7  C6  UNL d   1       3.100  -5.996  -0.998  0.00  0.00     0.077 C 
ATOM      8  C7  UNL d   1       2.914  -5.999  -3.503  0.00  0.00    -0.001 A 
ENDROOT
TORSDOF 0
ENDMDL
