MODEL 1
REMARK minimizedAffinity 0.969660521
REMARK minimizedRMSD -1
REMARK  0 active torsions:
REMARK  status: ('A' for Active; 'I' for Inactive)
ROOT
ATOM      1  C   UNL d   1       1.909  -4.898   2.024  0.00  0.00     0.077 C 
ATOM      2  C1  UNL d   1       1.979  -3.620   2.807  0.00  0.00    -0.074 A 
ATOM      3  C2  UNL d   1       1.956  -3.632   4.205  0.00  0.00    -0.005 A 
ATOM      4  C3  UNL d   1       2.032  -2.437   4.920  0.00  0.00     0.006 A 
ATOM      5  C4  UNL d   1       2.131  -1.219   4.245  0.00  0.00    -0.005 A 
ATOM      6  C5  UNL d   1       2.156  -1.188   2.847  0.00  0.00    -0.074 A 
ATOM      7  C6  UNL d   1       2.272   0.111   2.105  0.00  0.00     0.077 C 
ATOM      8  C7  UNL d   1       2.087  -2.394   2.136  0.00  0.00    -0.001 A 
ENDROOT
TORSDOF 0
ENDMDL
