MODEL 1
REMARK minimizedAffinity 6.12194633
REMARK minimizedRMSD -1
REMARK  0 active torsions:
REMARK  status: ('A' for Active; 'I' for Inactive)
ROOT
ATOM      1  C   UNL d   1       1.880  -1.924   2.573  0.00  0.00     0.077 C 
ATOM      2  C1  UNL d   1       2.133  -3.346   2.169  0.00  0.00    -0.074 A 
ATOM      3  C2  UNL d   1       1.700  -4.408   2.970  0.00  0.00    -0.005 A 
ATOM      4  C3  UNL d   1       1.934  -5.726   2.577  0.00  0.00     0.006 A 
ATOM      5  C4  UNL d   1       2.602  -5.995   1.382  0.00  0.00    -0.005 A 
ATOM      6  C5  UNL d   1       3.042  -4.946   0.568  0.00  0.00    -0.074 A 
ATOM      7  C6  UNL d   1       3.753  -5.217  -0.724  0.00  0.00     0.077 C 
ATOM      8  C7  UNL d   1       2.796  -3.625   0.966  0.00  0.00    -0.001 A 
ENDROOT
TORSDOF 0
ENDMDL
