MODEL 1
REMARK minimizedAffinity 1.66320992
REMARK minimizedRMSD -1
REMARK  0 active torsions:
REMARK  status: ('A' for Active; 'I' for Inactive)
ROOT
ATOM      1  C   UNL d   1       2.355  -5.988  -0.911  0.00  0.00     0.077 C 
ATOM      2  C1  UNL d   1       2.890  -5.984  -2.312  0.00  0.00    -0.074 A 
ATOM      3  C2  UNL d   1       4.267  -5.990  -2.557  0.00  0.00    -0.005 A 
ATOM      4  C3  UNL d   1       4.749  -5.996  -3.865  0.00  0.00     0.006 A 
ATOM      5  C4  UNL d   1       3.861  -5.996  -4.941  0.00  0.00    -0.005 A 
ATOM      6  C5  UNL d   1       2.480  -5.990  -4.717  0.00  0.00    -0.074 A 
ATOM      7  C6  UNL d   1       1.512  -6.000  -5.862  0.00  0.00     0.077 C 
ATOM      8  C7  UNL d   1       2.004  -5.991  -3.399  0.00  0.00    -0.001 A 
ENDROOT
TORSDOF 0
ENDMDL
