MODEL 1
REMARK minimizedAffinity 3.16714263
REMARK minimizedRMSD -1
REMARK  0 active torsions:
REMARK  status: ('A' for Active; 'I' for Inactive)
ROOT
ATOM      1  C   UNL d   1       3.301  -5.960  -1.697  0.00  0.00     0.077 C 
ATOM      2  C1  UNL d   1       3.271  -5.959  -3.196  0.00  0.00    -0.074 A 
ATOM      3  C2  UNL d   1       4.456  -5.965  -3.939  0.00  0.00    -0.005 A 
ATOM      4  C3  UNL d   1       4.412  -5.974  -5.333  0.00  0.00     0.006 A 
ATOM      5  C4  UNL d   1       3.185  -5.976  -5.997  0.00  0.00    -0.005 A 
ATOM      6  C5  UNL d   1       1.989  -5.970  -5.271  0.00  0.00    -0.074 A 
ATOM      7  C6  UNL d   1       0.662  -5.983  -5.970  0.00  0.00     0.077 C 
ATOM      8  C7  UNL d   1       2.042  -5.969  -3.871  0.00  0.00    -0.001 A 
ENDROOT
TORSDOF 0
ENDMDL
