MODEL 1
REMARK minimizedAffinity 3.97557402
REMARK minimizedRMSD -1
REMARK  0 active torsions:
REMARK  status: ('A' for Active; 'I' for Inactive)
ROOT
ATOM      1  C   UNL d   1       3.325  -5.980  -0.731  0.00  0.00     0.077 C 
ATOM      2  C1  UNL d   1       3.557  -5.980  -2.213  0.00  0.00    -0.074 A 
ATOM      3  C2  UNL d   1       4.853  -5.990  -2.738  0.00  0.00    -0.005 A 
ATOM      4  C3  UNL d   1       5.052  -6.000  -4.119  0.00  0.00     0.006 A 
ATOM      5  C4  UNL d   1       3.960  -6.000  -4.987  0.00  0.00    -0.005 A 
ATOM      6  C5  UNL d   1       2.656  -5.990  -4.480  0.00  0.00    -0.074 A 
ATOM      7  C6  UNL d   1       1.471  -6.000  -5.399  0.00  0.00     0.077 C 
ATOM      8  C7  UNL d   1       2.464  -5.988  -3.092  0.00  0.00    -0.001 A 
ENDROOT
TORSDOF 0
ENDMDL
