MODEL 1
REMARK minimizedAffinity 3.30529737
REMARK minimizedRMSD -1
REMARK  1 active torsions:
REMARK  status: ('A' for Active; 'I' for Inactive)
REMARK    1  A    between atoms: C1_2  and  C2_3 
ROOT
ATOM      1  C2  UNL d   1      -2.679   1.692   2.901  0.00  0.00    -0.073 A 
ATOM      2  C3  UNL d   1      -3.265   1.482   1.647  0.00  0.00    -0.002 A 
ATOM      3  C4  UNL d   1      -2.512   0.955   0.597  0.00  0.00     0.004 A 
ATOM      4  C5  UNL d   1      -1.170   0.627   0.791  0.00  0.00    -0.004 A 
ATOM      5  C6  UNL d   1      -0.570   0.819   2.040  0.00  0.00    -0.075 A 
ATOM      6  C7  UNL d   1       0.873   0.474   2.264  0.00  0.00     0.076 C 
ATOM      7  C8  UNL d   1      -1.332   1.351   3.089  0.00  0.00     0.001 A 
ENDROOT
BRANCH   1   8
ATOM      8  C1  UNL d   1      -3.490   2.255   4.040  0.00  0.00     0.053 C 
ATOM      9  C   UNL d   1      -4.185   1.163   4.839  0.00  0.00     0.018 C 
ENDBRANCH   1   8
TORSDOF 1
ENDMDL
