MODEL 1
REMARK minimizedAffinity 0.121381663
REMARK minimizedRMSD -1
REMARK  1 active torsions:
REMARK  status: ('A' for Active; 'I' for Inactive)
REMARK    1  A    between atoms: C1_2  and  C2_3 
ROOT
ATOM      1  C2  UNL d   1      -2.224   1.904   4.008  0.00  0.00    -0.073 A 
ATOM      2  C3  UNL d   1      -0.996   2.502   4.312  0.00  0.00    -0.002 A 
ATOM      3  C4  UNL d   1       0.090   2.361   3.446  0.00  0.00     0.004 A 
ATOM      4  C5  UNL d   1      -0.044   1.629   2.266  0.00  0.00    -0.004 A 
ATOM      5  C6  UNL d   1      -1.267   1.034   1.939  0.00  0.00    -0.075 A 
ATOM      6  C7  UNL d   1      -1.426   0.242   0.675  0.00  0.00     0.076 C 
ATOM      7  C8  UNL d   1      -2.351   1.177   2.816  0.00  0.00     0.001 A 
ENDROOT
BRANCH   1   8
ATOM      8  C1  UNL d   1      -3.401   2.058   4.937  0.00  0.00     0.053 C 
ATOM      9  C   UNL d   1      -3.693   0.778   5.703  0.00  0.00     0.018 C 
ENDBRANCH   1   8
TORSDOF 1
ENDMDL
