MODEL 1
REMARK minimizedAffinity 17.2897625
REMARK minimizedRMSD -1
REMARK  1 active torsions:
REMARK  status: ('A' for Active; 'I' for Inactive)
REMARK    1  A    between atoms: C1_2  and  C2_3 
ROOT
ATOM      1  C2  UNL d   1       2.875   0.640   1.931  0.00  0.00    -0.073 A 
ATOM      2  C3  UNL d   1       3.008   0.698   0.540  0.00  0.00    -0.002 A 
ATOM      3  C4  UNL d   1       2.380   1.711  -0.187  0.00  0.00     0.004 A 
ATOM      4  C5  UNL d   1       1.620   2.678   0.470  0.00  0.00    -0.004 A 
ATOM      5  C6  UNL d   1       1.484   2.644   1.861  0.00  0.00    -0.075 A 
ATOM      6  C7  UNL d   1       0.668   3.675   2.583  0.00  0.00     0.076 C 
ATOM      7  C8  UNL d   1       2.116   1.622   2.584  0.00  0.00     0.001 A 
ENDROOT
BRANCH   1   8
ATOM      8  C1  UNL d   1       3.557  -0.447   2.721  0.00  0.00     0.053 C 
ATOM      9  C   UNL d   1       5.043  -0.179   2.895  0.00  0.00     0.018 C 
ENDBRANCH   1   8
TORSDOF 1
ENDMDL
