MODEL 1
REMARK minimizedAffinity 0.0118029714
REMARK minimizedRMSD -1
REMARK  1 active torsions:
REMARK  status: ('A' for Active; 'I' for Inactive)
REMARK    1  A    between atoms: C1_2  and  C2_3 
ROOT
ATOM      1  C2  UNL d   1      -3.206  -2.533   4.772  0.00  0.00    -0.073 A 
ATOM      2  C3  UNL d   1      -3.743  -3.821   4.877  0.00  0.00    -0.002 A 
ATOM      3  C4  UNL d   1      -4.167  -4.504   3.737  0.00  0.00     0.004 A 
ATOM      4  C5  UNL d   1      -4.051  -3.911   2.480  0.00  0.00    -0.004 A 
ATOM      5  C6  UNL d   1      -3.505  -2.629   2.352  0.00  0.00    -0.075 A 
ATOM      6  C7  UNL d   1      -3.376  -1.976   1.007  0.00  0.00     0.076 C 
ATOM      7  C8  UNL d   1      -3.085  -1.949   3.503  0.00  0.00     0.001 A 
ENDROOT
BRANCH   1   8
ATOM      8  C1  UNL d   1      -2.741  -1.794   6.000  0.00  0.00     0.053 C 
ATOM      9  C   UNL d   1      -3.199  -0.344   6.000  0.00  0.00     0.018 C 
ENDBRANCH   1   8
TORSDOF 1
ENDMDL
