MODEL 1
REMARK minimizedAffinity 14.2529278
REMARK minimizedRMSD -1
REMARK  1 active torsions:
REMARK  status: ('A' for Active; 'I' for Inactive)
REMARK    1  A    between atoms: C1_2  and  C2_3 
ROOT
ATOM      1  C2  UNL d   1       3.492  -0.616   2.843  0.00  0.00    -0.073 A 
ATOM      2  C3  UNL d   1       2.580  -1.678   2.850  0.00  0.00    -0.002 A 
ATOM      3  C4  UNL d   1       1.475  -1.663   1.998  0.00  0.00     0.004 A 
ATOM      4  C5  UNL d   1       1.274  -0.593   1.127  0.00  0.00    -0.004 A 
ATOM      5  C6  UNL d   1       2.181   0.472   1.096  0.00  0.00    -0.075 A 
ATOM      6  C7  UNL d   1       1.978   1.632   0.167  0.00  0.00     0.076 C 
ATOM      7  C8  UNL d   1       3.287   0.451   1.957  0.00  0.00     0.001 A 
ENDROOT
BRANCH   1   8
ATOM      8  C1  UNL d   1       4.691  -0.630   3.756  0.00  0.00     0.053 C 
ATOM      9  C   UNL d   1       5.904   0.024   3.114  0.00  0.00     0.018 C 
ENDBRANCH   1   8
TORSDOF 1
ENDMDL
