MODEL 1
REMARK minimizedAffinity 6.41284037
REMARK minimizedRMSD -1
REMARK  1 active torsions:
REMARK  status: ('A' for Active; 'I' for Inactive)
REMARK    1  A    between atoms: C1_2  and  C2_3 
ROOT
ATOM      1  C2  UNL d   1      -4.224   3.258   5.931  0.00  0.00    -0.073 A 
ATOM      2  C3  UNL d   1      -5.008   4.417   5.962  0.00  0.00    -0.002 A 
ATOM      3  C4  UNL d   1      -4.405   5.675   5.997  0.00  0.00     0.004 A 
ATOM      4  C5  UNL d   1      -3.015   5.787   5.994  0.00  0.00    -0.004 A 
ATOM      5  C6  UNL d   1      -2.215   4.641   5.952  0.00  0.00    -0.075 A 
ATOM      6  C7  UNL d   1      -0.718   4.745   5.950  0.00  0.00     0.076 C 
ATOM      7  C8  UNL d   1      -2.828   3.381   5.919  0.00  0.00     0.001 A 
ENDROOT
BRANCH   1   8
ATOM      8  C1  UNL d   1      -4.871   1.897   5.887  0.00  0.00     0.053 C 
ATOM      9  C   UNL d   1      -3.843   0.780   5.810  0.00  0.00     0.018 C 
ENDBRANCH   1   8
TORSDOF 1
ENDMDL
