MODEL 1
REMARK minimizedAffinity -0.237224504
REMARK minimizedRMSD -1
REMARK  1 active torsions:
REMARK  status: ('A' for Active; 'I' for Inactive)
REMARK    1  A    between atoms: C1_2  and  C2_3 
ROOT
ATOM      1  C2  UNL d   1       4.476  -0.257   2.258  0.00  0.00    -0.073 A 
ATOM      2  C3  UNL d   1       3.786   0.683   1.483  0.00  0.00    -0.002 A 
ATOM      3  C4  UNL d   1       2.461   0.453   1.112  0.00  0.00     0.004 A 
ATOM      4  C5  UNL d   1       1.810  -0.712   1.516  0.00  0.00    -0.004 A 
ATOM      5  C6  UNL d   1       2.478  -1.657   2.301  0.00  0.00    -0.075 A 
ATOM      6  C7  UNL d   1       1.793  -2.917   2.742  0.00  0.00     0.076 C 
ATOM      7  C8  UNL d   1       3.810  -1.421   2.668  0.00  0.00     0.001 A 
ENDROOT
BRANCH   1   8
ATOM      8  C1  UNL d   1       5.905  -0.011   2.667  0.00  0.00     0.053 C 
ATOM      9  C   UNL d   1       5.999   0.758   3.976  0.00  0.00     0.018 C 
ENDBRANCH   1   8
TORSDOF 1
ENDMDL
