MODEL 1
REMARK minimizedAffinity -1.20822549
REMARK minimizedRMSD -1
REMARK  1 active torsions:
REMARK  status: ('A' for Active; 'I' for Inactive)
REMARK    1  A    between atoms: N_2  and  C1_3 
ROOT
ATOM      1  C1  UNL d   1      -5.323  -3.614  -3.947  0.00  0.00     0.143 A 
ATOM      2  C2  UNL d   1      -4.070  -4.180  -3.689  0.00  0.00    -0.057 A 
ATOM      3  C3  UNL d   1      -3.488  -5.092  -4.578  0.00  0.00     0.033 A 
ATOM      4  C4  UNL d   1      -4.165  -5.478  -5.730  0.00  0.00    -0.042 A 
ATOM      5  C5  UNL d   1      -5.423  -4.947  -5.994  0.00  0.00     0.033 A 
ATOM      6  C6  UNL d   1      -5.996  -4.032  -5.106  0.00  0.00    -0.057 A 
ENDROOT
BRANCH   1   7
ATOM      7  N   UNL d   1      -5.997  -2.778  -3.054  0.00  0.00    -0.732 N 
ATOM      8  C   UNL d   1      -6.000  -1.344  -3.246  0.00  0.00     0.284 C 
ATOM      9  H3  UNL d   1      -6.895  -3.160  -2.766  0.00  0.00     0.395 HD
ENDBRANCH   1   7
TORSDOF 1
ENDMDL
