MODEL 1
REMARK minimizedAffinity -2.7984786
REMARK minimizedRMSD -1
REMARK  1 active torsions:
REMARK  status: ('A' for Active; 'I' for Inactive)
REMARK    1  A    between atoms: N_2  and  C1_3 
ROOT
ATOM      1  C1  UNL d   1      -4.459  -4.217  -5.168  0.00  0.00     0.143 A 
ATOM      2  C2  UNL d   1      -3.446  -3.836  -4.282  0.00  0.00    -0.057 A 
ATOM      3  C3  UNL d   1      -2.213  -4.499  -4.259  0.00  0.00     0.033 A 
ATOM      4  C4  UNL d   1      -1.982  -5.579  -5.105  0.00  0.00    -0.042 A 
ATOM      5  C5  UNL d   1      -2.983  -5.991  -5.977  0.00  0.00     0.033 A 
ATOM      6  C6  UNL d   1      -4.210  -5.320  -6.000  0.00  0.00    -0.057 A 
ENDROOT
BRANCH   1   7
ATOM      7  N   UNL d   1      -5.740  -3.661  -5.171  0.00  0.00    -0.732 N 
ATOM      8  C   UNL d   1      -6.000  -2.405  -4.500  0.00  0.00     0.284 C 
ATOM      9  H3  UNL d   1      -6.202  -3.754  -6.072  0.00  0.00     0.395 HD
ENDBRANCH   1   7
TORSDOF 1
ENDMDL
