MODEL 1
REMARK minimizedAffinity -3.94008398
REMARK minimizedRMSD -1
REMARK  1 active torsions:
REMARK  status: ('A' for Active; 'I' for Inactive)
REMARK    1  A    between atoms: N_2  and  C1_3 
ROOT
ATOM      1  C1  UNL d   1      -4.080  -3.439  -4.731  0.00  0.00     0.143 A 
ATOM      2  C2  UNL d   1      -3.753  -2.551  -5.762  0.00  0.00    -0.057 A 
ATOM      3  C3  UNL d   1      -4.516  -1.402  -6.000  0.00  0.00     0.033 A 
ATOM      4  C4  UNL d   1      -5.641  -1.134  -5.227  0.00  0.00    -0.042 A 
ATOM      5  C5  UNL d   1      -5.999  -2.015  -4.213  0.00  0.00     0.033 A 
ATOM      6  C6  UNL d   1      -5.230  -3.158  -3.975  0.00  0.00    -0.057 A 
ENDROOT
BRANCH   1   7
ATOM      7  N   UNL d   1      -3.419  -4.649  -4.507  0.00  0.00    -0.732 N 
ATOM      8  C   UNL d   1      -3.002  -5.477  -5.618  0.00  0.00     0.284 C 
ATOM      9  H3  UNL d   1      -2.735  -4.585  -3.756  0.00  0.00     0.395 HD
ENDBRANCH   1   7
TORSDOF 1
ENDMDL
