MODEL 1
REMARK minimizedAffinity -2.20053053
REMARK minimizedRMSD -1
REMARK  1 active torsions:
REMARK  status: ('A' for Active; 'I' for Inactive)
REMARK    1  A    between atoms: N_2  and  C1_3 
ROOT
ATOM      1  C1  UNL d   1      -4.042  -4.461  -5.076  0.00  0.00     0.143 A 
ATOM      2  C2  UNL d   1      -3.700  -5.451  -4.149  0.00  0.00    -0.057 A 
ATOM      3  C3  UNL d   1      -2.412  -5.999  -4.113  0.00  0.00     0.033 A 
ATOM      4  C4  UNL d   1      -1.448  -5.586  -5.027  0.00  0.00    -0.042 A 
ATOM      5  C5  UNL d   1      -1.773  -4.621  -5.974  0.00  0.00     0.033 A 
ATOM      6  C6  UNL d   1      -3.059  -4.073  -6.000  0.00  0.00    -0.057 A 
ENDROOT
BRANCH   1   7
ATOM      7  N   UNL d   1      -5.332  -3.948  -5.226  0.00  0.00    -0.732 N 
ATOM      8  C   UNL d   1      -5.627  -2.578  -4.867  0.00  0.00     0.284 C 
ATOM      9  H3  UNL d   1      -5.775  -4.256  -6.089  0.00  0.00     0.395 HD
ENDBRANCH   1   7
TORSDOF 1
ENDMDL
