MODEL 1
REMARK minimizedAffinity 2.11227155
REMARK minimizedRMSD -1
REMARK  1 active torsions:
REMARK  status: ('A' for Active; 'I' for Inactive)
REMARK    1  A    between atoms: N_2  and  C1_3 
ROOT
ATOM      1  C1  UNL d   1      -1.151  -0.712   0.630  0.00  0.00     0.143 A 
ATOM      2  C2  UNL d   1      -2.201  -0.097  -0.059  0.00  0.00    -0.057 A 
ATOM      3  C3  UNL d   1      -3.350  -0.811  -0.420  0.00  0.00     0.033 A 
ATOM      4  C4  UNL d   1      -3.456  -2.166  -0.122  0.00  0.00    -0.042 A 
ATOM      5  C5  UNL d   1      -2.414  -2.804   0.540  0.00  0.00     0.033 A 
ATOM      6  C6  UNL d   1      -1.272  -2.084   0.904  0.00  0.00    -0.057 A 
ENDROOT
BRANCH   1   7
ATOM      7  N   UNL d   1       0.059  -0.080   0.929  0.00  0.00    -0.732 N 
ATOM      8  C   UNL d   1       1.292  -0.519   0.311  0.00  0.00     0.284 C 
ATOM      9  H3  UNL d   1      -0.037   0.930   0.995  0.00  0.00     0.395 HD
ENDBRANCH   1   7
TORSDOF 1
ENDMDL
