MODEL 1
REMARK minimizedAffinity -3.43601632
REMARK minimizedRMSD -1
REMARK  1 active torsions:
REMARK  status: ('A' for Active; 'I' for Inactive)
REMARK    1  A    between atoms: N_2  and  C1_3 
ROOT
ATOM      1  C1  UNL d   1      -3.150  -4.878  -5.556  0.00  0.00     0.143 A 
ATOM      2  C2  UNL d   1      -3.799  -3.777  -4.985  0.00  0.00    -0.057 A 
ATOM      3  C3  UNL d   1      -5.189  -3.759  -4.819  0.00  0.00     0.033 A 
ATOM      4  C4  UNL d   1      -5.961  -4.833  -5.250  0.00  0.00    -0.042 A 
ATOM      5  C5  UNL d   1      -5.340  -5.927  -5.843  0.00  0.00     0.033 A 
ATOM      6  C6  UNL d   1      -3.951  -5.942  -6.000  0.00  0.00    -0.057 A 
ENDROOT
BRANCH   1   7
ATOM      7  N   UNL d   1      -1.783  -4.915  -5.838  0.00  0.00    -0.732 N 
ATOM      8  C   UNL d   1      -0.942  -5.951  -5.277  0.00  0.00     0.284 C 
ATOM      9  H3  UNL d   1      -1.581  -4.697  -6.811  0.00  0.00     0.395 HD
ENDBRANCH   1   7
TORSDOF 1
ENDMDL
