MODEL 1
REMARK minimizedAffinity -1.3527962
REMARK minimizedRMSD -1
REMARK  1 active torsions:
REMARK  status: ('A' for Active; 'I' for Inactive)
REMARK    1  A    between atoms: N_2  and  C1_3 
ROOT
ATOM      1  C1  UNL d   1      -3.420  -5.317  -5.480  0.00  0.00     0.143 A 
ATOM      2  C2  UNL d   1      -3.630  -4.027  -4.982  0.00  0.00    -0.057 A 
ATOM      3  C3  UNL d   1      -4.909  -3.457  -4.957  0.00  0.00     0.033 A 
ATOM      4  C4  UNL d   1      -5.999  -4.158  -5.460  0.00  0.00    -0.042 A 
ATOM      5  C5  UNL d   1      -5.810  -5.433  -5.984  0.00  0.00     0.033 A 
ATOM      6  C6  UNL d   1      -4.532  -5.999  -5.999  0.00  0.00    -0.057 A 
ENDROOT
BRANCH   1   7
ATOM      7  N   UNL d   1      -2.159  -5.900  -5.622  0.00  0.00    -0.732 N 
ATOM      8  C   UNL d   1      -1.232  -5.931  -4.511  0.00  0.00     0.284 C 
ATOM      9  H3  UNL d   1      -2.188  -6.762  -6.163  0.00  0.00     0.395 HD
ENDBRANCH   1   7
TORSDOF 1
ENDMDL
