MODEL 1
REMARK minimizedAffinity 2.57709551
REMARK minimizedRMSD -1
REMARK  1 active torsions:
REMARK  status: ('A' for Active; 'I' for Inactive)
REMARK    1  A    between atoms: N_2  and  C1_3 
ROOT
ATOM      1  C1  UNL d   1      -2.615  -5.072  -4.916  0.00  0.00     0.143 A 
ATOM      2  C2  UNL d   1      -3.205  -4.954  -3.653  0.00  0.00    -0.057 A 
ATOM      3  C3  UNL d   1      -4.129  -3.939  -3.375  0.00  0.00     0.033 A 
ATOM      4  C4  UNL d   1      -4.458  -3.004  -4.351  0.00  0.00    -0.042 A 
ATOM      5  C5  UNL d   1      -3.865  -3.086  -5.605  0.00  0.00     0.033 A 
ATOM      6  C6  UNL d   1      -2.948  -4.106  -5.879  0.00  0.00    -0.057 A 
ENDROOT
BRANCH   1   7
ATOM      7  N   UNL d   1      -1.616  -5.998  -5.224  0.00  0.00    -0.732 N 
ATOM      8  C   UNL d   1      -0.363  -6.000  -4.500  0.00  0.00     0.284 C 
ATOM      9  H3  UNL d   1      -1.990  -6.926  -5.409  0.00  0.00     0.395 HD
ENDBRANCH   1   7
TORSDOF 1
ENDMDL
