MODEL 1
REMARK minimizedAffinity -2.90367842
REMARK minimizedRMSD -1
REMARK  1 active torsions:
REMARK  status: ('A' for Active; 'I' for Inactive)
REMARK    1  A    between atoms: N_2  and  C1_3 
ROOT
ATOM      1  C1  UNL d   1      -5.040  -4.071  -4.500  0.00  0.00     0.143 A 
ATOM      2  C2  UNL d   1      -5.143  -4.879  -5.637  0.00  0.00    -0.057 A 
ATOM      3  C3  UNL d   1      -4.115  -5.759  -5.998  0.00  0.00     0.033 A 
ATOM      4  C4  UNL d   1      -2.950  -5.824  -5.242  0.00  0.00    -0.042 A 
ATOM      5  C5  UNL d   1      -2.815  -5.011  -4.122  0.00  0.00     0.033 A 
ATOM      6  C6  UNL d   1      -3.848  -4.140  -3.763  0.00  0.00    -0.057 A 
ENDROOT
BRANCH   1   7
ATOM      7  N   UNL d   1      -5.985  -3.105  -4.144  0.00  0.00    -0.732 N 
ATOM      8  C   UNL d   1      -5.992  -1.808  -4.787  0.00  0.00     0.284 C 
ATOM      9  H3  UNL d   1      -6.911  -3.502  -4.000  0.00  0.00     0.395 HD
ENDBRANCH   1   7
TORSDOF 1
ENDMDL
