MODEL 1
REMARK minimizedAffinity 6.58412695
REMARK minimizedRMSD -1
REMARK  1 active torsions:
REMARK  status: ('A' for Active; 'I' for Inactive)
REMARK    1  A    between atoms: N_2  and  C1_3 
ROOT
ATOM      1  C1  UNL d   1      -3.799  -3.661  -3.596  0.00  0.00     0.143 A 
ATOM      2  C2  UNL d   1      -3.293  -3.402  -4.874  0.00  0.00    -0.057 A 
ATOM      3  C3  UNL d   1      -4.125  -3.409  -6.000  0.00  0.00     0.033 A 
ATOM      4  C4  UNL d   1      -5.478  -3.705  -5.870  0.00  0.00    -0.042 A 
ATOM      5  C5  UNL d   1      -5.998  -3.991  -4.613  0.00  0.00     0.033 A 
ATOM      6  C6  UNL d   1      -5.163  -3.975  -3.491  0.00  0.00    -0.057 A 
ENDROOT
BRANCH   1   7
ATOM      7  N   UNL d   1      -3.005  -3.765  -2.451  0.00  0.00    -0.732 N 
ATOM      8  C   UNL d   1      -2.893  -2.656  -1.528  0.00  0.00     0.284 C 
ATOM      9  H3  UNL d   1      -3.090  -4.674  -2.001  0.00  0.00     0.395 HD
ENDBRANCH   1   7
TORSDOF 1
ENDMDL
