MODEL 1
REMARK minimizedAffinity 4.22735786
REMARK minimizedRMSD -1
REMARK  1 active torsions:
REMARK  status: ('A' for Active; 'I' for Inactive)
REMARK    1  A    between atoms: N_2  and  C1_3 
ROOT
ATOM      1  C1  UNL d   1      -2.439  -4.932  -2.994  0.00  0.00     0.143 A 
ATOM      2  C2  UNL d   1      -3.259  -5.116  -4.112  0.00  0.00    -0.057 A 
ATOM      3  C3  UNL d   1      -2.743  -5.603  -5.319  0.00  0.00     0.033 A 
ATOM      4  C4  UNL d   1      -1.386  -5.888  -5.438  0.00  0.00    -0.042 A 
ATOM      5  C5  UNL d   1      -0.548  -5.690  -4.346  0.00  0.00     0.033 A 
ATOM      6  C6  UNL d   1      -1.071  -5.210  -3.142  0.00  0.00    -0.057 A 
ENDROOT
BRANCH   1   7
ATOM      7  N   UNL d   1      -2.874  -4.359  -1.796  0.00  0.00    -0.732 N 
ATOM      8  C   UNL d   1      -2.110  -3.305  -1.164  0.00  0.00     0.284 C 
ATOM      9  H3  UNL d   1      -3.880  -4.211  -1.779  0.00  0.00     0.395 HD
ENDBRANCH   1   7
TORSDOF 1
ENDMDL
