MODEL 1
REMARK minimizedAffinity -2.3879714
REMARK minimizedRMSD -1
REMARK  1 active torsions:
REMARK  status: ('A' for Active; 'I' for Inactive)
REMARK    1  A    between atoms: N_2  and  C1_3 
ROOT
ATOM      1  C1  UNL d   1      -3.192  -5.351  -5.722  0.00  0.00     0.143 A 
ATOM      2  C2  UNL d   1      -4.401  -5.999  -5.999  0.00  0.00    -0.057 A 
ATOM      3  C3  UNL d   1      -5.624  -5.322  -5.916  0.00  0.00     0.033 A 
ATOM      4  C4  UNL d   1      -5.661  -3.988  -5.524  0.00  0.00    -0.042 A 
ATOM      5  C5  UNL d   1      -4.474  -3.331  -5.220  0.00  0.00     0.033 A 
ATOM      6  C6  UNL d   1      -3.256  -4.011  -5.311  0.00  0.00    -0.057 A 
ENDROOT
BRANCH   1   7
ATOM      7  N   UNL d   1      -1.953  -5.996  -5.691  0.00  0.00    -0.732 N 
ATOM      8  C   UNL d   1      -1.093  -5.885  -4.533  0.00  0.00     0.284 C 
ATOM      9  H3  UNL d   1      -1.992  -6.930  -6.093  0.00  0.00     0.395 HD
ENDBRANCH   1   7
TORSDOF 1
ENDMDL
