MODEL 1
REMARK minimizedAffinity -3.08133173
REMARK minimizedRMSD -1
REMARK  1 active torsions:
REMARK  status: ('A' for Active; 'I' for Inactive)
REMARK    1  A    between atoms: N_2  and  C1_3 
ROOT
ATOM      1  C1  UNL d   1      -4.234  -4.457  -4.859  0.00  0.00     0.143 A 
ATOM      2  C2  UNL d   1      -3.373  -4.487  -3.756  0.00  0.00    -0.057 A 
ATOM      3  C3  UNL d   1      -2.190  -5.234  -3.780  0.00  0.00     0.033 A 
ATOM      4  C4  UNL d   1      -1.859  -5.990  -4.900  0.00  0.00    -0.042 A 
ATOM      5  C5  UNL d   1      -2.712  -5.995  -5.997  0.00  0.00     0.033 A 
ATOM      6  C6  UNL d   1      -3.890  -5.242  -5.970  0.00  0.00    -0.057 A 
ENDROOT
BRANCH   1   7
ATOM      7  N   UNL d   1      -5.474  -3.813  -4.860  0.00  0.00    -0.732 N 
ATOM      8  C   UNL d   1      -5.766  -2.778  -5.828  0.00  0.00     0.284 C 
ATOM      9  H3  UNL d   1      -6.245  -4.455  -4.692  0.00  0.00     0.395 HD
ENDBRANCH   1   7
TORSDOF 1
ENDMDL
