MODEL 1
REMARK minimizedAffinity -2.83346295
REMARK minimizedRMSD -1
REMARK  1 active torsions:
REMARK  status: ('A' for Active; 'I' for Inactive)
REMARK    1  A    between atoms: N_2  and  C1_3 
ROOT
ATOM      1  C1  UNL d   1      -3.401  -5.412  -5.160  0.00  0.00     0.143 A 
ATOM      2  C2  UNL d   1      -4.417  -5.973  -5.942  0.00  0.00    -0.057 A 
ATOM      3  C3  UNL d   1      -5.691  -5.397  -5.999  0.00  0.00     0.033 A 
ATOM      4  C4  UNL d   1      -5.982  -4.261  -5.251  0.00  0.00    -0.042 A 
ATOM      5  C5  UNL d   1      -4.996  -3.701  -4.447  0.00  0.00     0.033 A 
ATOM      6  C6  UNL d   1      -3.723  -4.277  -4.399  0.00  0.00    -0.057 A 
ENDROOT
BRANCH   1   7
ATOM      7  N   UNL d   1      -2.143  -5.994  -4.984  0.00  0.00    -0.732 N 
ATOM      8  C   UNL d   1      -1.120  -5.858  -5.998  0.00  0.00     0.284 C 
ATOM      9  H3  UNL d   1      -1.800  -5.896  -4.031  0.00  0.00     0.395 HD
ENDBRANCH   1   7
TORSDOF 1
ENDMDL
