MODEL 1
REMARK minimizedAffinity -4.52624178
REMARK minimizedRMSD -1
REMARK  0 active torsions:
REMARK  status: ('A' for Active; 'I' for Inactive)
ROOT
ATOM      1  C   UNL d   1      -0.425  -3.288   0.719  0.00  0.00    -0.002 A 
ATOM      2  C1  UNL d   1       0.916  -3.145   0.393  0.00  0.00     0.010 A 
ATOM      3  C2  UNL d   1       1.436  -1.893   0.057  0.00  0.00     0.041 A 
ATOM      4  C3  UNL d   1       0.578  -0.777   0.057  0.00  0.00    -0.075 A 
ATOM      5  S   UNL d   1       0.993   0.854  -0.321  0.00  0.00     0.015 SA
ATOM      6  C4  UNL d   1      -0.600   1.399  -0.057  0.00  0.00     0.022 A 
ATOM      7  C5  UNL d   1      -1.442   0.376   0.310  0.00  0.00     0.026 A 
ATOM      8  C6  UNL d   1      -0.777  -0.895   0.382  0.00  0.00    -0.082 A 
ATOM      9  C7  UNL d   1      -1.274  -2.178   0.717  0.00  0.00     0.045 A 
ENDROOT
TORSDOF 0
ENDMDL
