MODEL 1
REMARK minimizedAffinity -2.34869456
REMARK minimizedRMSD -1
REMARK  0 active torsions:
REMARK  status: ('A' for Active; 'I' for Inactive)
ROOT
ATOM      1  C   UNL d   1      -0.187   1.102  -1.778  0.00  0.00    -0.002 A 
ATOM      2  C1  UNL d   1       0.367  -0.023  -2.373  0.00  0.00     0.010 A 
ATOM      3  C2  UNL d   1       0.366  -1.251  -1.709  0.00  0.00     0.041 A 
ATOM      4  C3  UNL d   1      -0.207  -1.331  -0.425  0.00  0.00    -0.075 A 
ATOM      5  S   UNL d   1      -0.323  -2.729   0.577  0.00  0.00     0.015 SA
ATOM      6  C4  UNL d   1      -1.110  -1.867   1.818  0.00  0.00     0.022 A 
ATOM      7  C5  UNL d   1      -1.289  -0.543   1.493  0.00  0.00     0.026 A 
ATOM      8  C6  UNL d   1      -0.772  -0.212   0.195  0.00  0.00    -0.082 A 
ATOM      9  C7  UNL d   1      -0.755   1.019  -0.504  0.00  0.00     0.045 A 
ENDROOT
TORSDOF 0
ENDMDL
