MODEL 1
REMARK minimizedAffinity -4.52901268
REMARK minimizedRMSD -1
REMARK  0 active torsions:
REMARK  status: ('A' for Active; 'I' for Inactive)
ROOT
ATOM      1  C   UNL d   1       0.409  -3.621  -0.438  0.00  0.00    -0.002 A 
ATOM      2  C1  UNL d   1       0.861  -3.195  -1.679  0.00  0.00     0.010 A 
ATOM      3  C2  UNL d   1       0.642  -1.883  -2.103  0.00  0.00     0.041 A 
ATOM      4  C3  UNL d   1      -0.046  -0.997  -1.251  0.00  0.00    -0.075 A 
ATOM      5  S   UNL d   1      -0.428   0.655  -1.559  0.00  0.00     0.015 SA
ATOM      6  C4  UNL d   1      -1.201   0.835  -0.051  0.00  0.00     0.022 A 
ATOM      7  C5  UNL d   1      -1.177  -0.327   0.683  0.00  0.00     0.026 A 
ATOM      8  C6  UNL d   1      -0.511  -1.403   0.004  0.00  0.00    -0.082 A 
ATOM      9  C7  UNL d   1      -0.273  -2.739   0.405  0.00  0.00     0.045 A 
ENDROOT
TORSDOF 0
ENDMDL
