MODEL 1
REMARK minimizedAffinity -2.63764453
REMARK minimizedRMSD -1
REMARK  0 active torsions:
REMARK  status: ('A' for Active; 'I' for Inactive)
ROOT
ATOM      1  C   UNL d   1      -0.397  -1.942   1.231  0.00  0.00    -0.002 A 
ATOM      2  C1  UNL d   1      -0.795  -0.690   1.679  0.00  0.00     0.010 A 
ATOM      3  C2  UNL d   1      -0.823   0.400   0.808  0.00  0.00     0.041 A 
ATOM      4  C3  UNL d   1      -0.442   0.210  -0.535  0.00  0.00    -0.075 A 
ATOM      5  S   UNL d   1      -0.399   1.400  -1.782  0.00  0.00     0.015 SA
ATOM      6  C4  UNL d   1       0.148   0.275  -2.939  0.00  0.00     0.022 A 
ATOM      7  C5  UNL d   1       0.300  -0.983  -2.404  0.00  0.00     0.026 A 
ATOM      8  C6  UNL d   1      -0.038  -1.041  -1.010  0.00  0.00    -0.082 A 
ATOM      9  C7  UNL d   1      -0.020  -2.127  -0.102  0.00  0.00     0.045 A 
ENDROOT
TORSDOF 0
ENDMDL
