MODEL 1
REMARK minimizedAffinity 1.4838829
REMARK minimizedRMSD -1
REMARK  0 active torsions:
REMARK  status: ('A' for Active; 'I' for Inactive)
ROOT
ATOM      1  C   UNL d   1      -1.826  -2.529   0.678  0.00  0.00    -0.002 A 
ATOM      2  C1  UNL d   1      -0.771  -3.069  -0.044  0.00  0.00     0.010 A 
ATOM      3  C2  UNL d   1       0.254  -2.250  -0.523  0.00  0.00     0.041 A 
ATOM      4  C3  UNL d   1       0.201  -0.867  -0.259  0.00  0.00    -0.075 A 
ATOM      5  S   UNL d   1       1.345   0.328  -0.744  0.00  0.00     0.015 SA
ATOM      6  C4  UNL d   1       0.461   1.583  -0.003  0.00  0.00     0.022 A 
ATOM      7  C5  UNL d   1      -0.682   1.119   0.605  0.00  0.00     0.026 A 
ATOM      8  C6  UNL d   1      -0.850  -0.301   0.468  0.00  0.00    -0.082 A 
ATOM      9  C7  UNL d   1      -1.875  -1.157   0.938  0.00  0.00     0.045 A 
ENDROOT
TORSDOF 0
ENDMDL
