MODEL 1
REMARK minimizedAffinity -3.77305174
REMARK minimizedRMSD -1
REMARK  0 active torsions:
REMARK  status: ('A' for Active; 'I' for Inactive)
ROOT
ATOM      1  C   UNL d   1      -0.915  -2.095   1.167  0.00  0.00    -0.002 A 
ATOM      2  C1  UNL d   1       0.005  -2.517   0.218  0.00  0.00     0.010 A 
ATOM      3  C2  UNL d   1       0.851  -1.599  -0.408  0.00  0.00     0.041 A 
ATOM      4  C3  UNL d   1       0.757  -0.237  -0.059  0.00  0.00    -0.075 A 
ATOM      5  S   UNL d   1       1.691   1.065  -0.693  0.00  0.00     0.015 SA
ATOM      6  C4  UNL d   1       0.892   2.212   0.282  0.00  0.00     0.022 A 
ATOM      7  C5  UNL d   1      -0.067   1.632   1.079  0.00  0.00     0.026 A 
ATOM      8  C6  UNL d   1      -0.160   0.211   0.896  0.00  0.00    -0.082 A 
ATOM      9  C7  UNL d   1      -1.004  -0.744   1.512  0.00  0.00     0.045 A 
ENDROOT
TORSDOF 0
ENDMDL
