MODEL 1
REMARK minimizedAffinity -3.67876434
REMARK minimizedRMSD -1
REMARK  0 active torsions:
REMARK  status: ('A' for Active; 'I' for Inactive)
ROOT
ATOM      1  C   UNL d   1       0.143  -3.217   0.496  0.00  0.00    -0.002 A 
ATOM      2  C1  UNL d   1       0.522  -2.658  -0.716  0.00  0.00     0.010 A 
ATOM      3  C2  UNL d   1       0.441  -1.278  -0.917  0.00  0.00     0.041 A 
ATOM      4  C3  UNL d   1      -0.030  -0.463   0.131  0.00  0.00    -0.075 A 
ATOM      5  S   UNL d   1      -0.214   1.251   0.112  0.00  0.00     0.015 SA
ATOM      6  C4  UNL d   1      -0.799   1.281   1.712  0.00  0.00     0.022 A 
ATOM      7  C5  UNL d   1      -0.859   0.023   2.263  0.00  0.00     0.026 A 
ATOM      8  C6  UNL d   1      -0.416  -1.003   1.361  0.00  0.00    -0.082 A 
ATOM      9  C7  UNL d   1      -0.323  -2.405   1.533  0.00  0.00     0.045 A 
ENDROOT
TORSDOF 0
ENDMDL
