MODEL 1
REMARK minimizedAffinity -1.25824201
REMARK minimizedRMSD -1
REMARK  0 active torsions:
REMARK  status: ('A' for Active; 'I' for Inactive)
ROOT
ATOM      1  C   UNL d   1      -0.621  -1.770   0.003  0.00  0.00    -0.002 A 
ATOM      2  C1  UNL d   1      -1.427  -1.136   0.937  0.00  0.00     0.010 A 
ATOM      3  C2  UNL d   1      -1.169   0.182   1.320  0.00  0.00     0.041 A 
ATOM      4  C3  UNL d   1      -0.078   0.859   0.741  0.00  0.00    -0.075 A 
ATOM      5  S   UNL d   1       0.428   2.476   1.056  0.00  0.00     0.015 SA
ATOM      6  C4  UNL d   1       1.726   2.364  -0.043  0.00  0.00     0.022 A 
ATOM      7  C5  UNL d   1       1.787   1.129  -0.645  0.00  0.00     0.026 A 
ATOM      8  C6  UNL d   1       0.748   0.242  -0.203  0.00  0.00    -0.082 A 
ATOM      9  C7  UNL d   1       0.460  -1.095  -0.570  0.00  0.00     0.045 A 
ENDROOT
TORSDOF 0
ENDMDL
