MODEL 1
REMARK minimizedAffinity -3.10449815
REMARK minimizedRMSD -1
REMARK  0 active torsions:
REMARK  status: ('A' for Active; 'I' for Inactive)
ROOT
ATOM      1  C   UNL d   1      -1.182  -2.632   1.037  0.00  0.00    -0.002 A 
ATOM      2  C1  UNL d   1      -0.055  -3.050   0.343  0.00  0.00     0.010 A 
ATOM      3  C2  UNL d   1       0.803  -2.119  -0.244  0.00  0.00     0.041 A 
ATOM      4  C3  UNL d   1       0.509  -0.747  -0.120  0.00  0.00    -0.075 A 
ATOM      5  S   UNL d   1       1.418   0.573  -0.756  0.00  0.00     0.015 SA
ATOM      6  C4  UNL d   1       0.333   1.723  -0.121  0.00  0.00     0.022 A 
ATOM      7  C5  UNL d   1      -0.704   1.132   0.562  0.00  0.00     0.026 A 
ATOM      8  C6  UNL d   1      -0.619  -0.301   0.574  0.00  0.00    -0.082 A 
ATOM      9  C7  UNL d   1      -1.471  -1.270   1.158  0.00  0.00     0.045 A 
ENDROOT
TORSDOF 0
ENDMDL
