MODEL 1
REMARK minimizedAffinity -1.56105709
REMARK minimizedRMSD -1
REMARK  0 active torsions:
REMARK  status: ('A' for Active; 'I' for Inactive)
ROOT
ATOM      1  C   UNL d   1      -0.097  -3.346   0.475  0.00  0.00    -0.002 A 
ATOM      2  C1  UNL d   1       1.062  -3.174  -0.268  0.00  0.00     0.010 A 
ATOM      3  C2  UNL d   1       1.408  -1.914  -0.762  0.00  0.00     0.041 A 
ATOM      4  C3  UNL d   1       0.562  -0.820  -0.492  0.00  0.00    -0.075 A 
ATOM      5  S   UNL d   1       0.784   0.814  -0.993  0.00  0.00     0.015 SA
ATOM      6  C4  UNL d   1      -0.654   1.321  -0.232  0.00  0.00     0.022 A 
ATOM      7  C5  UNL d   1      -1.300   0.282   0.394  0.00  0.00     0.026 A 
ATOM      8  C6  UNL d   1      -0.610  -0.969   0.255  0.00  0.00    -0.082 A 
ATOM      9  C7  UNL d   1      -0.933  -2.259   0.741  0.00  0.00     0.045 A 
ENDROOT
TORSDOF 0
ENDMDL
