MODEL 1
REMARK minimizedAffinity -1.66164684
REMARK minimizedRMSD -1
REMARK  0 active torsions:
REMARK  status: ('A' for Active; 'I' for Inactive)
ROOT
ATOM      1  C   UNL d   1      -0.525  -3.236  -0.138  0.00  0.00    -0.002 A 
ATOM      2  C1  UNL d   1      -0.407  -3.149  -1.518  0.00  0.00     0.010 A 
ATOM      3  C2  UNL d   1      -0.334  -1.905  -2.147  0.00  0.00     0.041 A 
ATOM      4  C3  UNL d   1      -0.379  -0.738  -1.358  0.00  0.00    -0.075 A 
ATOM      5  S   UNL d   1      -0.304   0.893  -1.910  0.00  0.00     0.015 SA
ATOM      6  C4  UNL d   1      -0.425   1.513  -0.327  0.00  0.00     0.022 A 
ATOM      7  C5  UNL d   1      -0.521   0.514   0.612  0.00  0.00     0.026 A 
ATOM      8  C6  UNL d   1      -0.496  -0.800   0.033  0.00  0.00    -0.082 A 
ATOM      9  C7  UNL d   1      -0.569  -2.077   0.641  0.00  0.00     0.045 A 
ENDROOT
TORSDOF 0
ENDMDL
