MODEL 1
REMARK minimizedAffinity -0.323548675
REMARK minimizedRMSD -1
REMARK  0 active torsions:
REMARK  status: ('A' for Active; 'I' for Inactive)
ROOT
ATOM      1  C   UNL d   1       2.630   0.293  -0.126  0.00  0.00     0.077 C 
ATOM      2  C1  UNL d   1       1.185   0.573   0.161  0.00  0.00    -0.074 A 
ATOM      3  C2  UNL d   1       0.186  -0.315  -0.248  0.00  0.00    -0.005 A 
ATOM      4  C3  UNL d   1      -1.153  -0.046   0.035  0.00  0.00     0.006 A 
ATOM      5  C4  UNL d   1      -1.506   1.113   0.728  0.00  0.00    -0.005 A 
ATOM      6  C5  UNL d   1      -0.520   2.013   1.145  0.00  0.00    -0.074 A 
ATOM      7  C6  UNL d   1      -0.881   3.258   1.900  0.00  0.00     0.077 C 
ATOM      8  C7  UNL d   1       0.824   1.731   0.864  0.00  0.00    -0.001 A 
ENDROOT
TORSDOF 0
ENDMDL
