MODEL 1
REMARK minimizedAffinity -1.34545922
REMARK minimizedRMSD -1
REMARK  0 active torsions:
REMARK  status: ('A' for Active; 'I' for Inactive)
ROOT
ATOM      1  C   UNL d   1      -2.777   1.513   1.485  0.00  0.00     0.077 C 
ATOM      2  C1  UNL d   1      -1.473   1.749   0.782  0.00  0.00    -0.074 A 
ATOM      3  C2  UNL d   1      -1.163   3.002   0.243  0.00  0.00    -0.005 A 
ATOM      4  C3  UNL d   1       0.057   3.208  -0.400  0.00  0.00     0.006 A 
ATOM      5  C4  UNL d   1       0.979   2.167  -0.509  0.00  0.00    -0.005 A 
ATOM      6  C5  UNL d   1       0.688   0.908   0.026  0.00  0.00    -0.074 A 
ATOM      7  C6  UNL d   1       1.672  -0.220  -0.074  0.00  0.00     0.077 C 
ATOM      8  C7  UNL d   1      -0.538   0.710   0.676  0.00  0.00    -0.001 A 
ENDROOT
TORSDOF 0
ENDMDL
