MODEL 1
REMARK minimizedAffinity -2.63006735
REMARK minimizedRMSD -1
REMARK  0 active torsions:
REMARK  status: ('A' for Active; 'I' for Inactive)
ROOT
ATOM      1  C   UNL d   1      -0.710   2.197   0.847  0.00  0.00     0.077 C 
ATOM      2  C1  UNL d   1       0.056   1.039   0.278  0.00  0.00    -0.074 A 
ATOM      3  C2  UNL d   1       1.439   1.116   0.088  0.00  0.00    -0.005 A 
ATOM      4  C3  UNL d   1       2.139   0.027  -0.433  0.00  0.00     0.006 A 
ATOM      5  C4  UNL d   1       1.464  -1.147  -0.768  0.00  0.00    -0.005 A 
ATOM      6  C5  UNL d   1       0.081  -1.243  -0.584  0.00  0.00    -0.074 A 
ATOM      7  C6  UNL d   1      -0.659  -2.501  -0.929  0.00  0.00     0.077 C 
ATOM      8  C7  UNL d   1      -0.614  -0.147  -0.053  0.00  0.00    -0.001 A 
ENDROOT
TORSDOF 0
ENDMDL
