MODEL 1
REMARK minimizedAffinity -3.86483502
REMARK minimizedRMSD -1
REMARK  0 active torsions:
REMARK  status: ('A' for Active; 'I' for Inactive)
ROOT
ATOM      1  C   UNL d   1      -0.073  -1.878  -0.190  0.00  0.00     0.077 C 
ATOM      2  C1  UNL d   1      -0.136  -0.387  -0.034  0.00  0.00    -0.074 A 
ATOM      3  C2  UNL d   1       0.699   0.449  -0.782  0.00  0.00    -0.005 A 
ATOM      4  C3  UNL d   1       0.623   1.834  -0.634  0.00  0.00     0.006 A 
ATOM      5  C4  UNL d   1      -0.287   2.395   0.263  0.00  0.00    -0.005 A 
ATOM      6  C5  UNL d   1      -1.130   1.575   1.019  0.00  0.00    -0.074 A 
ATOM      7  C6  UNL d   1      -2.121   2.163   1.979  0.00  0.00     0.077 C 
ATOM      8  C7  UNL d   1      -1.053   0.185   0.859  0.00  0.00    -0.001 A 
ENDROOT
TORSDOF 0
ENDMDL
