MODEL 1
REMARK minimizedAffinity 0.156644374
REMARK minimizedRMSD -1
REMARK  0 active torsions:
REMARK  status: ('A' for Active; 'I' for Inactive)
ROOT
ATOM      1  C   UNL d   1       5.999   3.005  -4.867  0.00  0.00     0.077 C 
ATOM      2  C1  UNL d   1       4.522   3.242  -4.968  0.00  0.00    -0.074 A 
ATOM      3  C2  UNL d   1       3.747   2.562  -5.913  0.00  0.00    -0.005 A 
ATOM      4  C3  UNL d   1       2.373   2.785  -5.989  0.00  0.00     0.006 A 
ATOM      5  C4  UNL d   1       1.759   3.691  -5.122  0.00  0.00    -0.005 A 
ATOM      6  C5  UNL d   1       2.517   4.380  -4.170  0.00  0.00    -0.074 A 
ATOM      7  C6  UNL d   1       1.872   5.349  -3.224  0.00  0.00     0.077 C 
ATOM      8  C7  UNL d   1       3.897   4.144  -4.095  0.00  0.00    -0.001 A 
ENDROOT
TORSDOF 0
ENDMDL
