MODEL 1
REMARK minimizedAffinity 8.06817055
REMARK minimizedRMSD -1
REMARK  0 active torsions:
REMARK  status: ('A' for Active; 'I' for Inactive)
ROOT
ATOM      1  C   UNL d   1       2.240   0.839  -5.864  0.00  0.00     0.077 C 
ATOM      2  C1  UNL d   1       3.114   1.830  -5.155  0.00  0.00    -0.074 A 
ATOM      3  C2  UNL d   1       2.963   2.071  -3.785  0.00  0.00    -0.005 A 
ATOM      4  C3  UNL d   1       3.789   2.988  -3.137  0.00  0.00     0.006 A 
ATOM      5  C4  UNL d   1       4.774   3.673  -3.851  0.00  0.00    -0.005 A 
ATOM      6  C5  UNL d   1       4.940   3.445  -5.220  0.00  0.00    -0.074 A 
ATOM      7  C6  UNL d   1       6.000   4.165  -6.000  0.00  0.00     0.077 C 
ATOM      8  C7  UNL d   1       4.110   2.516  -5.863  0.00  0.00    -0.001 A 
ENDROOT
TORSDOF 0
ENDMDL
