MODEL 1
REMARK minimizedAffinity -3.15354943
REMARK minimizedRMSD -1
REMARK  0 active torsions:
REMARK  status: ('A' for Active; 'I' for Inactive)
ROOT
ATOM      1  C   UNL d   1       0.380  -2.277  -0.747  0.00  0.00     0.077 C 
ATOM      2  C1  UNL d   1       0.148  -0.841  -0.381  0.00  0.00    -0.074 A 
ATOM      3  C2  UNL d   1       1.090   0.143  -0.698  0.00  0.00    -0.005 A 
ATOM      4  C3  UNL d   1       0.856   1.476  -0.359  0.00  0.00     0.006 A 
ATOM      5  C4  UNL d   1      -0.321   1.838   0.298  0.00  0.00    -0.005 A 
ATOM      6  C5  UNL d   1      -1.275   0.868   0.622  0.00  0.00    -0.074 A 
ATOM      7  C6  UNL d   1      -2.549   1.241   1.320  0.00  0.00     0.077 C 
ATOM      8  C7  UNL d   1      -1.035  -0.468   0.273  0.00  0.00    -0.001 A 
ENDROOT
TORSDOF 0
ENDMDL
