MODEL 1
REMARK minimizedAffinity -3.28125215
REMARK minimizedRMSD -1
REMARK  0 active torsions:
REMARK  status: ('A' for Active; 'I' for Inactive)
ROOT
ATOM      1  C   UNL d   1      -3.816  -4.846  -1.127  0.00  0.00     0.077 C 
ATOM      2  C1  UNL d   1      -2.512  -4.191  -1.472  0.00  0.00    -0.074 A 
ATOM      3  C2  UNL d   1      -1.963  -4.313  -2.753  0.00  0.00    -0.005 A 
ATOM      4  C3  UNL d   1      -0.754  -3.691  -3.063  0.00  0.00     0.006 A 
ATOM      5  C4  UNL d   1      -0.082  -2.941  -2.096  0.00  0.00    -0.005 A 
ATOM      6  C5  UNL d   1      -0.616  -2.807  -0.811  0.00  0.00    -0.074 A 
ATOM      7  C6  UNL d   1       0.089  -1.997   0.237  0.00  0.00     0.077 C 
ATOM      8  C7  UNL d   1      -1.835  -3.430  -0.509  0.00  0.00    -0.001 A 
ENDROOT
TORSDOF 0
ENDMDL
