MODEL 1
REMARK minimizedAffinity -3.67310119
REMARK minimizedRMSD -1
REMARK  0 active torsions:
REMARK  status: ('A' for Active; 'I' for Inactive)
ROOT
ATOM      1  C   UNL d   1      -0.986   1.390   0.336  0.00  0.00     0.077 C 
ATOM      2  C1  UNL d   1      -0.156   0.148   0.208  0.00  0.00    -0.074 A 
ATOM      3  C2  UNL d   1       1.185   0.135   0.605  0.00  0.00    -0.005 A 
ATOM      4  C3  UNL d   1       1.942  -1.031   0.489  0.00  0.00     0.006 A 
ATOM      5  C4  UNL d   1       1.367  -2.194  -0.025  0.00  0.00    -0.005 A 
ATOM      6  C5  UNL d   1       0.027  -2.200  -0.426  0.00  0.00    -0.074 A 
ATOM      7  C6  UNL d   1      -0.609  -3.445  -0.971  0.00  0.00     0.077 C 
ATOM      8  C7  UNL d   1      -0.729  -1.027  -0.300  0.00  0.00    -0.001 A 
ENDROOT
TORSDOF 0
ENDMDL
