MODEL 1
REMARK minimizedAffinity -3.20933557
REMARK minimizedRMSD -1
REMARK  0 active torsions:
REMARK  status: ('A' for Active; 'I' for Inactive)
ROOT
ATOM      1  C   UNL d   1       0.123   2.195  -0.568  0.00  0.00     0.077 C 
ATOM      2  C1  UNL d   1       0.581   0.783  -0.352  0.00  0.00    -0.074 A 
ATOM      3  C2  UNL d   1       1.895   0.505   0.038  0.00  0.00    -0.005 A 
ATOM      4  C3  UNL d   1       2.303  -0.813   0.244  0.00  0.00     0.006 A 
ATOM      5  C4  UNL d   1       1.404  -1.864   0.063  0.00  0.00    -0.005 A 
ATOM      6  C5  UNL d   1       0.086  -1.605  -0.326  0.00  0.00    -0.074 A 
ATOM      7  C6  UNL d   1      -0.897  -2.723  -0.516  0.00  0.00     0.077 C 
ATOM      8  C7  UNL d   1      -0.319  -0.278  -0.525  0.00  0.00    -0.001 A 
ENDROOT
TORSDOF 0
ENDMDL
