MODEL 1
REMARK minimizedAffinity -2.81188655
REMARK minimizedRMSD -1
REMARK  0 active torsions:
REMARK  status: ('A' for Active; 'I' for Inactive)
ROOT
ATOM      1  C   UNL d   1      -2.914   1.504   0.883  0.00  0.00     0.077 C 
ATOM      2  C1  UNL d   1      -1.671   0.723   0.576  0.00  0.00    -0.074 A 
ATOM      3  C2  UNL d   1      -0.404   1.266   0.814  0.00  0.00    -0.005 A 
ATOM      4  C3  UNL d   1       0.743   0.524   0.532  0.00  0.00     0.006 A 
ATOM      5  C4  UNL d   1       0.635  -0.766   0.012  0.00  0.00    -0.005 A 
ATOM      6  C5  UNL d   1      -0.623  -1.326  -0.231  0.00  0.00    -0.074 A 
ATOM      7  C6  UNL d   1      -0.757  -2.715  -0.781  0.00  0.00     0.077 C 
ATOM      8  C7  UNL d   1      -1.771  -0.577   0.061  0.00  0.00    -0.001 A 
ENDROOT
TORSDOF 0
ENDMDL
