MODEL 1
REMARK minimizedAffinity -4.66735601
REMARK minimizedRMSD -1
REMARK  0 active torsions:
REMARK  status: ('A' for Active; 'I' for Inactive)
ROOT
ATOM      1  C   UNL d   1      -0.435  -1.518  -0.576  0.00  0.00     0.077 C 
ATOM      2  C1  UNL d   1      -0.240  -0.074  -0.223  0.00  0.00    -0.074 A 
ATOM      3  C2  UNL d   1      -1.332   0.794  -0.114  0.00  0.00    -0.005 A 
ATOM      4  C3  UNL d   1      -1.135   2.133   0.224  0.00  0.00     0.006 A 
ATOM      5  C4  UNL d   1       0.153   2.617   0.455  0.00  0.00    -0.005 A 
ATOM      6  C5  UNL d   1       1.256   1.765   0.351  0.00  0.00    -0.074 A 
ATOM      7  C6  UNL d   1       2.646   2.267   0.606  0.00  0.00     0.077 C 
ATOM      8  C7  UNL d   1       1.050   0.419   0.018  0.00  0.00    -0.001 A 
ENDROOT
TORSDOF 0
ENDMDL
