MODEL 1
REMARK minimizedAffinity -3.62549949
REMARK minimizedRMSD -1
REMARK  0 active torsions:
REMARK  status: ('A' for Active; 'I' for Inactive)
ROOT
ATOM      1  C   UNL d   1       2.766   1.674  -0.411  0.00  0.00     0.077 C 
ATOM      2  C1  UNL d   1       1.432   1.058  -0.110  0.00  0.00    -0.074 A 
ATOM      3  C2  UNL d   1       0.382   1.830   0.397  0.00  0.00    -0.005 A 
ATOM      4  C3  UNL d   1      -0.856   1.245   0.663  0.00  0.00     0.006 A 
ATOM      5  C4  UNL d   1      -1.056  -0.116   0.426  0.00  0.00    -0.005 A 
ATOM      6  C5  UNL d   1      -0.018  -0.903  -0.081  0.00  0.00    -0.074 A 
ATOM      7  C6  UNL d   1      -0.219  -2.365  -0.351  0.00  0.00     0.077 C 
ATOM      8  C7  UNL d   1       1.221  -0.307  -0.353  0.00  0.00    -0.001 A 
ENDROOT
TORSDOF 0
ENDMDL
