MODEL 1
REMARK minimizedAffinity -3.88336849
REMARK minimizedRMSD -1
REMARK  0 active torsions:
REMARK  status: ('A' for Active; 'I' for Inactive)
ROOT
ATOM      1  C   UNL d   1      -0.133  -1.332  -0.315  0.00  0.00     0.077 C 
ATOM      2  C1  UNL d   1      -0.039   0.162  -0.227  0.00  0.00    -0.074 A 
ATOM      3  C2  UNL d   1       0.669   0.895  -1.185  0.00  0.00    -0.005 A 
ATOM      4  C3  UNL d   1       0.740   2.285  -1.095  0.00  0.00     0.006 A 
ATOM      5  C4  UNL d   1       0.105   2.955  -0.049  0.00  0.00    -0.005 A 
ATOM      6  C5  UNL d   1      -0.608   2.239   0.917  0.00  0.00    -0.074 A 
ATOM      7  C6  UNL d   1      -1.305   2.944   2.043  0.00  0.00     0.077 C 
ATOM      8  C7  UNL d   1      -0.681   0.843   0.817  0.00  0.00    -0.001 A 
ENDROOT
TORSDOF 0
ENDMDL
