MODEL 1
REMARK minimizedAffinity -2.8073678
REMARK minimizedRMSD -1
REMARK  0 active torsions:
REMARK  status: ('A' for Active; 'I' for Inactive)
ROOT
ATOM      1  C   UNL d   1       3.472  -0.676   1.444  0.00  0.00     0.077 C 
ATOM      2  C1  UNL d   1       2.039  -1.087   1.283  0.00  0.00    -0.074 A 
ATOM      3  C2  UNL d   1       1.567  -2.280   1.839  0.00  0.00    -0.005 A 
ATOM      4  C3  UNL d   1       0.229  -2.645   1.689  0.00  0.00     0.006 A 
ATOM      5  C4  UNL d   1      -0.650  -1.820   0.985  0.00  0.00    -0.005 A 
ATOM      6  C5  UNL d   1      -0.196  -0.622   0.424  0.00  0.00    -0.074 A 
ATOM      7  C6  UNL d   1      -1.129   0.280  -0.328  0.00  0.00     0.077 C 
ATOM      8  C7  UNL d   1       1.148  -0.260   0.584  0.00  0.00    -0.001 A 
ENDROOT
TORSDOF 0
ENDMDL
