MODEL 1
REMARK minimizedAffinity -6.29594469
REMARK minimizedRMSD -1
REMARK  0 active torsions:
REMARK  status: ('A' for Active; 'I' for Inactive)
ROOT
ATOM      1  C   UNL d   1      -1.159  -1.490   1.415  0.00  0.00     0.077 C 
ATOM      2  C1  UNL d   1       0.103  -0.740   1.108  0.00  0.00    -0.074 A 
ATOM      3  C2  UNL d   1       0.060   0.561   0.596  0.00  0.00    -0.005 A 
ATOM      4  C3  UNL d   1       1.243   1.249   0.324  0.00  0.00     0.006 A 
ATOM      5  C4  UNL d   1       2.478   0.644   0.561  0.00  0.00    -0.005 A 
ATOM      6  C5  UNL d   1       2.541  -0.655   1.074  0.00  0.00    -0.074 A 
ATOM      7  C6  UNL d   1       3.860  -1.316   1.344  0.00  0.00     0.077 C 
ATOM      8  C7  UNL d   1       1.348  -1.338   1.351  0.00  0.00    -0.001 A 
ENDROOT
TORSDOF 0
ENDMDL
