MODEL 1
REMARK minimizedAffinity -0.466560066
REMARK minimizedRMSD -1
REMARK  0 active torsions:
REMARK  status: ('A' for Active; 'I' for Inactive)
ROOT
ATOM      1  C   UNL d   1       0.402   2.727   0.804  0.00  0.00     0.077 C 
ATOM      2  C1  UNL d   1       0.823   1.291   0.708  0.00  0.00    -0.074 A 
ATOM      3  C2  UNL d   1      -0.034   0.325   0.169  0.00  0.00    -0.005 A 
ATOM      4  C3  UNL d   1       0.375  -1.005   0.077  0.00  0.00     0.006 A 
ATOM      5  C4  UNL d   1       1.642  -1.383   0.522  0.00  0.00    -0.005 A 
ATOM      6  C5  UNL d   1       2.512  -0.432   1.063  0.00  0.00    -0.074 A 
ATOM      7  C6  UNL d   1       3.881  -0.820   1.538  0.00  0.00     0.077 C 
ATOM      8  C7  UNL d   1       2.097   0.904   1.146  0.00  0.00    -0.001 A 
ENDROOT
TORSDOF 0
ENDMDL
