MODEL 1
REMARK minimizedAffinity -4.24836636
REMARK minimizedRMSD -1
REMARK  0 active torsions:
REMARK  status: ('A' for Active; 'I' for Inactive)
ROOT
ATOM      1  C   UNL d   1       3.236  -0.940   1.069  0.00  0.00     0.077 C 
ATOM      2  C1  UNL d   1       2.152   0.046   0.750  0.00  0.00    -0.074 A 
ATOM      3  C2  UNL d   1       2.441   1.404   0.585  0.00  0.00    -0.005 A 
ATOM      4  C3  UNL d   1       1.424   2.308   0.279  0.00  0.00     0.006 A 
ATOM      5  C4  UNL d   1       0.109   1.863   0.134  0.00  0.00    -0.005 A 
ATOM      6  C5  UNL d   1      -0.199   0.509   0.295  0.00  0.00    -0.074 A 
ATOM      7  C6  UNL d   1      -1.605   0.013   0.133  0.00  0.00     0.077 C 
ATOM      8  C7  UNL d   1       0.830  -0.394   0.595  0.00  0.00    -0.001 A 
ENDROOT
TORSDOF 0
ENDMDL
