MODEL 1
REMARK minimizedAffinity -4.34088707
REMARK minimizedRMSD -1
REMARK  0 active torsions:
REMARK  status: ('A' for Active; 'I' for Inactive)
ROOT
ATOM      1  C   UNL d   1       3.270  -0.689   0.561  0.00  0.00     0.077 C 
ATOM      2  C1  UNL d   1       1.800  -0.389   0.539  0.00  0.00    -0.074 A 
ATOM      3  C2  UNL d   1       0.855  -1.418   0.596  0.00  0.00    -0.005 A 
ATOM      4  C3  UNL d   1      -0.508  -1.122   0.584  0.00  0.00     0.006 A 
ATOM      5  C4  UNL d   1      -0.939   0.203   0.515  0.00  0.00    -0.005 A 
ATOM      6  C5  UNL d   1      -0.008   1.245   0.458  0.00  0.00    -0.074 A 
ATOM      7  C6  UNL d   1      -0.455   2.676   0.392  0.00  0.00     0.077 C 
ATOM      8  C7  UNL d   1       1.360   0.941   0.477  0.00  0.00    -0.001 A 
ENDROOT
TORSDOF 0
ENDMDL
