MODEL 1
REMARK minimizedAffinity -3.6533637
REMARK minimizedRMSD -1
REMARK  0 active torsions:
REMARK  status: ('A' for Active; 'I' for Inactive)
ROOT
ATOM      1  C   UNL d   1      -0.935  -1.958   1.802  0.00  0.00     0.077 C 
ATOM      2  C1  UNL d   1      -0.099  -0.862   1.212  0.00  0.00    -0.074 A 
ATOM      3  C2  UNL d   1      -0.665   0.372   0.875  0.00  0.00    -0.005 A 
ATOM      4  C3  UNL d   1       0.128   1.386   0.337  0.00  0.00     0.006 A 
ATOM      5  C4  UNL d   1       1.492   1.176   0.130  0.00  0.00    -0.005 A 
ATOM      6  C5  UNL d   1       2.076  -0.050   0.463  0.00  0.00    -0.074 A 
ATOM      7  C6  UNL d   1       3.542  -0.288   0.257  0.00  0.00     0.077 C 
ATOM      8  C7  UNL d   1       1.274  -1.062   1.010  0.00  0.00    -0.001 A 
ENDROOT
TORSDOF 0
ENDMDL
