MODEL 1
REMARK minimizedAffinity -3.11466193
REMARK minimizedRMSD -1
REMARK  0 active torsions:
REMARK  status: ('A' for Active; 'I' for Inactive)
ROOT
ATOM      1  C   UNL d   1      -2.863  -0.111  -2.368  0.00  0.00     0.077 C 
ATOM      2  C1  UNL d   1      -1.795   0.022  -1.323  0.00  0.00    -0.074 A 
ATOM      3  C2  UNL d   1      -1.018   1.181  -1.233  0.00  0.00    -0.005 A 
ATOM      4  C3  UNL d   1      -0.036   1.294  -0.249  0.00  0.00     0.006 A 
ATOM      5  C4  UNL d   1       0.180   0.251   0.652  0.00  0.00    -0.005 A 
ATOM      6  C5  UNL d   1      -0.588  -0.916   0.577  0.00  0.00    -0.074 A 
ATOM      7  C6  UNL d   1      -0.376  -2.042   1.545  0.00  0.00     0.077 C 
ATOM      8  C7  UNL d   1      -1.578  -1.019  -0.409  0.00  0.00    -0.001 A 
ENDROOT
TORSDOF 0
ENDMDL
