MODEL 1
REMARK minimizedAffinity -4.48812294
REMARK minimizedRMSD -1
REMARK  0 active torsions:
REMARK  status: ('A' for Active; 'I' for Inactive)
ROOT
ATOM      1  C   UNL d   1       3.108   0.420   1.510  0.00  0.00     0.077 C 
ATOM      2  C1  UNL d   1       1.913  -0.263   0.916  0.00  0.00    -0.074 A 
ATOM      3  C2  UNL d   1       2.043  -1.482   0.242  0.00  0.00    -0.005 A 
ATOM      4  C3  UNL d   1       0.920  -2.110  -0.298  0.00  0.00     0.006 A 
ATOM      5  C4  UNL d   1      -0.341  -1.527  -0.170  0.00  0.00    -0.005 A 
ATOM      6  C5  UNL d   1      -0.490  -0.309   0.501  0.00  0.00    -0.074 A 
ATOM      7  C6  UNL d   1      -1.840   0.326   0.655  0.00  0.00     0.077 C 
ATOM      8  C7  UNL d   1       0.641   0.313   1.047  0.00  0.00    -0.001 A 
ENDROOT
TORSDOF 0
ENDMDL
