MODEL 1
REMARK minimizedAffinity -3.67684937
REMARK minimizedRMSD -1
REMARK  3 active torsions:
REMARK  status: ('A' for Active; 'I' for Inactive)
REMARK    1  A    between atoms: C3'_2  and  C2'_3 
REMARK    2  A    between atoms: C2'_3  and  C1'_4 
REMARK    3  A    between atoms: C1'_4  and  C1_5 
ROOT
ATOM      1  C1  N4B d   1       1.271   1.426   0.740  0.00  0.00    -0.075 A 
ATOM      2  C2  N4B d   1       2.252   1.230   1.737  0.00  0.00     0.002 A 
ATOM      3  C3  N4B d   1       3.207   2.192   1.959  0.00  0.00     0.002 A 
ATOM      4  C4  N4B d   1       3.212   3.344   1.188  0.00  0.00    -0.004 A 
ATOM      5  C5  N4B d   1       2.246   3.537   0.244  0.00  0.00     0.002 A 
ATOM      6  C6  N4B d   1       1.278   2.581   0.013  0.00  0.00     0.002 A 
ENDROOT
BRANCH   1   7
ATOM      7  C1' N4B d   1       0.259   0.366   0.402  0.00  0.00     0.057 C 
BRANCH   7   8
ATOM      8  C2' N4B d   1       0.028   0.357  -1.106  0.00  0.00     0.009 C 
BRANCH   8   9
ATOM      9  C3' N4B d   1      -1.313   0.966  -1.479  0.00  0.00     0.004 C 
ATOM     10  C4' N4B d   1      -2.419  -0.046  -1.523  0.00  0.00     0.003 C 
ENDBRANCH   8   9
ENDBRANCH   7   8
ENDBRANCH   1   7
TORSDOF 3
ENDMDL
