MODEL 1
REMARK minimizedAffinity -4.92354393
REMARK minimizedRMSD -1
REMARK  3 active torsions:
REMARK  status: ('A' for Active; 'I' for Inactive)
REMARK    1  A    between atoms: C3'_2  and  C2'_3 
REMARK    2  A    between atoms: C2'_3  and  C1'_4 
REMARK    3  A    between atoms: C1'_4  and  C1_5 
ROOT
ATOM      1  C1  N4B d   1      -0.866  -0.522  -0.152  0.00  0.00    -0.075 A 
ATOM      2  C2  N4B d   1      -2.123  -0.632  -0.786  0.00  0.00     0.002 A 
ATOM      3  C3  N4B d   1      -2.990  -1.634  -0.422  0.00  0.00     0.002 A 
ATOM      4  C4  N4B d   1      -2.615  -2.544   0.555  0.00  0.00    -0.004 A 
ATOM      5  C5  N4B d   1      -1.410  -2.415   1.180  0.00  0.00     0.002 A 
ATOM      6  C6  N4B d   1      -0.530  -1.411   0.828  0.00  0.00     0.002 A 
ENDROOT
BRANCH   1   7
ATOM      7  C1' N4B d   1       0.150   0.503  -0.575  0.00  0.00     0.057 C 
BRANCH   7   8
ATOM      8  C2' N4B d   1       1.492   0.176   0.073  0.00  0.00     0.009 C 
BRANCH   8   9
ATOM      9  C3' N4B d   1       2.033   1.344   0.880  0.00  0.00     0.004 C 
ATOM     10  C4' N4B d   1       3.283   1.927   0.291  0.00  0.00     0.003 C 
ENDBRANCH   8   9
ENDBRANCH   7   8
ENDBRANCH   1   7
TORSDOF 3
ENDMDL
