MODEL 1
REMARK minimizedAffinity -2.14811921
REMARK minimizedRMSD -1
REMARK  3 active torsions:
REMARK  status: ('A' for Active; 'I' for Inactive)
REMARK    1  A    between atoms: C3'_2  and  C2'_3 
REMARK    2  A    between atoms: C2'_3  and  C1'_4 
REMARK    3  A    between atoms: C1'_4  and  C1_5 
ROOT
ATOM      1  C1  N4B d   1      -0.850  -0.801  -0.424  0.00  0.00    -0.075 A 
ATOM      2  C2  N4B d   1      -0.659  -1.868   0.480  0.00  0.00     0.002 A 
ATOM      3  C3  N4B d   1      -1.550  -2.913   0.508  0.00  0.00     0.002 A 
ATOM      4  C4  N4B d   1      -2.646  -2.902  -0.342  0.00  0.00    -0.004 A 
ATOM      5  C5  N4B d   1      -2.809  -1.880  -1.231  0.00  0.00     0.002 A 
ATOM      6  C6  N4B d   1      -1.920  -0.826  -1.272  0.00  0.00     0.002 A 
ENDROOT
BRANCH   1   7
ATOM      7  C1' N4B d   1       0.049   0.405  -0.432  0.00  0.00     0.057 C 
BRANCH   7   8
ATOM      8  C2' N4B d   1       1.370   0.048   0.243  0.00  0.00     0.009 C 
BRANCH   8   9
ATOM      9  C3' N4B d   1       2.417   1.133   0.054  0.00  0.00     0.004 C 
ATOM     10  C4' N4B d   1       2.550   2.026   1.251  0.00  0.00     0.003 C 
ENDBRANCH   8   9
ENDBRANCH   7   8
ENDBRANCH   1   7
TORSDOF 3
ENDMDL
