MODEL 1
REMARK minimizedAffinity -4.10422707
REMARK minimizedRMSD -1
REMARK  3 active torsions:
REMARK  status: ('A' for Active; 'I' for Inactive)
REMARK    1  A    between atoms: C3'_2  and  C2'_3 
REMARK    2  A    between atoms: C2'_3  and  C1'_4 
REMARK    3  A    between atoms: C1'_4  and  C1_5 
ROOT
ATOM      1  C1  N4B d   1      -0.094  -0.380   0.043  0.00  0.00    -0.075 A 
ATOM      2  C2  N4B d   1      -0.476   0.262  -1.156  0.00  0.00     0.002 A 
ATOM      3  C3  N4B d   1      -1.595  -0.157  -1.833  0.00  0.00     0.002 A 
ATOM      4  C4  N4B d   1      -2.333  -1.223  -1.343  0.00  0.00    -0.004 A 
ATOM      5  C5  N4B d   1      -1.972  -1.821  -0.171  0.00  0.00     0.002 A 
ATOM      6  C6  N4B d   1      -0.853  -1.408   0.522  0.00  0.00     0.002 A 
ENDROOT
BRANCH   1   7
ATOM      7  C1' N4B d   1       1.169  -0.013   0.772  0.00  0.00     0.057 C 
BRANCH   7   8
ATOM      8  C2' N4B d   1       1.660   1.343   0.274  0.00  0.00     0.009 C 
BRANCH   8   9
ATOM      9  C3' N4B d   1       2.293   2.162   1.386  0.00  0.00     0.004 C 
ATOM     10  C4' N4B d   1       2.553   3.583   0.985  0.00  0.00     0.003 C 
ENDBRANCH   8   9
ENDBRANCH   7   8
ENDBRANCH   1   7
TORSDOF 3
ENDMDL
