MODEL 1
REMARK minimizedAffinity -0.160694987
REMARK minimizedRMSD -1
REMARK  3 active torsions:
REMARK  status: ('A' for Active; 'I' for Inactive)
REMARK    1  A    between atoms: C3'_2  and  C2'_3 
REMARK    2  A    between atoms: C2'_3  and  C1'_4 
REMARK    3  A    between atoms: C1'_4  and  C1_5 
ROOT
ATOM      1  C1  N4B d   1      -0.217  -0.398  -0.514  0.00  0.00    -0.075 A 
ATOM      2  C2  N4B d   1      -1.270  -1.224  -0.065  0.00  0.00     0.002 A 
ATOM      3  C3  N4B d   1      -1.107  -1.992   1.062  0.00  0.00     0.002 A 
ATOM      4  C4  N4B d   1       0.101  -1.964   1.742  0.00  0.00    -0.004 A 
ATOM      5  C5  N4B d   1       1.104  -1.144   1.316  0.00  0.00     0.002 A 
ATOM      6  C6  N4B d   1       0.953  -0.364   0.187  0.00  0.00     0.002 A 
ENDROOT
BRANCH   1   7
ATOM      7  C1' N4B d   1      -0.319   0.394  -1.789  0.00  0.00     0.057 C 
BRANCH   7   8
ATOM      8  C2' N4B d   1      -0.472  -0.567  -2.965  0.00  0.00     0.009 C 
BRANCH   8   9
ATOM      9  C3' N4B d   1      -1.871  -1.154  -3.039  0.00  0.00     0.004 C 
ATOM     10  C4' N4B d   1      -1.955  -2.341  -3.952  0.00  0.00     0.003 C 
ENDBRANCH   8   9
ENDBRANCH   7   8
ENDBRANCH   1   7
TORSDOF 3
ENDMDL
