MODEL 1
REMARK minimizedAffinity -0.0914839804
REMARK minimizedRMSD -1
REMARK  3 active torsions:
REMARK  status: ('A' for Active; 'I' for Inactive)
REMARK    1  A    between atoms: C3'_2  and  C2'_3 
REMARK    2  A    between atoms: C2'_3  and  C1'_4 
REMARK    3  A    between atoms: C1'_4  and  C1_5 
ROOT
ATOM      1  C1  N4B d   1       1.188   0.882   0.754  0.00  0.00    -0.075 A 
ATOM      2  C2  N4B d   1       1.297   1.160   2.134  0.00  0.00     0.002 A 
ATOM      3  C3  N4B d   1       1.917   2.311   2.556  0.00  0.00     0.002 A 
ATOM      4  C4  N4B d   1       2.450   3.185   1.621  0.00  0.00    -0.004 A 
ATOM      5  C5  N4B d   1       2.318   2.921   0.289  0.00  0.00     0.002 A 
ATOM      6  C6  N4B d   1       1.694   1.771  -0.150  0.00  0.00     0.002 A 
ENDROOT
BRANCH   1   7
ATOM      7  C1' N4B d   1       0.596  -0.404   0.248  0.00  0.00     0.057 C 
BRANCH   7   8
ATOM      8  C2' N4B d   1       0.161  -0.219  -1.203  0.00  0.00     0.009 C 
BRANCH   8   9
ATOM      9  C3' N4B d   1      -1.276   0.261  -1.309  0.00  0.00     0.004 C 
ATOM     10  C4' N4B d   1      -2.270  -0.857  -1.203  0.00  0.00     0.003 C 
ENDBRANCH   8   9
ENDBRANCH   7   8
ENDBRANCH   1   7
TORSDOF 3
ENDMDL
