MODEL 1
REMARK minimizedAffinity -3.56762552
REMARK minimizedRMSD -1
REMARK  3 active torsions:
REMARK  status: ('A' for Active; 'I' for Inactive)
REMARK    1  A    between atoms: C3'_2  and  C2'_3 
REMARK    2  A    between atoms: C2'_3  and  C1'_4 
REMARK    3  A    between atoms: C1'_4  and  C1_5 
ROOT
ATOM      1  C1  N4B d   1       1.335   1.203   0.479  0.00  0.00    -0.075 A 
ATOM      2  C2  N4B d   1       0.237   2.001   0.869  0.00  0.00     0.002 A 
ATOM      3  C3  N4B d   1       0.448   3.172   1.555  0.00  0.00     0.002 A 
ATOM      4  C4  N4B d   1       1.742   3.553   1.878  0.00  0.00    -0.004 A 
ATOM      5  C5  N4B d   1       2.798   2.790   1.476  0.00  0.00     0.002 A 
ATOM      6  C6  N4B d   1       2.601   1.613   0.782  0.00  0.00     0.002 A 
ENDROOT
BRANCH   1   7
ATOM      7  C1' N4B d   1       1.149  -0.128  -0.197  0.00  0.00     0.057 C 
BRANCH   7   8
ATOM      8  C2' N4B d   1       0.067   0.001  -1.266  0.00  0.00     0.009 C 
BRANCH   8   9
ATOM      9  C3' N4B d   1      -1.207  -0.729  -0.875  0.00  0.00     0.004 C 
ATOM     10  C4' N4B d   1      -2.444  -0.042  -1.369  0.00  0.00     0.003 C 
ENDBRANCH   8   9
ENDBRANCH   7   8
ENDBRANCH   1   7
TORSDOF 3
ENDMDL
