MODEL 1
REMARK minimizedAffinity 7.28946781
REMARK minimizedRMSD -1
REMARK  3 active torsions:
REMARK  status: ('A' for Active; 'I' for Inactive)
REMARK    1  A    between atoms: C3'_2  and  C2'_3 
REMARK    2  A    between atoms: C2'_3  and  C1'_4 
REMARK    3  A    between atoms: C1'_4  and  C1_5 
ROOT
ATOM      1  C1  N4B d   1      -2.047  -1.866   0.361  0.00  0.00    -0.075 A 
ATOM      2  C2  N4B d   1      -0.693  -1.555   0.105  0.00  0.00     0.002 A 
ATOM      3  C3  N4B d   1      -0.374  -0.573  -0.801  0.00  0.00     0.002 A 
ATOM      4  C4  N4B d   1      -1.387   0.095  -1.473  0.00  0.00    -0.004 A 
ATOM      5  C5  N4B d   1      -2.692  -0.194  -1.201  0.00  0.00     0.002 A 
ATOM      6  C6  N4B d   1      -3.027  -1.175  -0.290  0.00  0.00     0.002 A 
ENDROOT
BRANCH   1   7
ATOM      7  C1' N4B d   1      -2.443  -2.990   1.279  0.00  0.00     0.057 C 
BRANCH   7   8
ATOM      8  C2' N4B d   1      -1.191  -3.746   1.715  0.00  0.00     0.009 C 
BRANCH   8   9
ATOM      9  C3' N4B d   1      -1.152  -5.154   1.147  0.00  0.00     0.004 C 
ATOM     10  C4' N4B d   1      -1.393  -5.190  -0.333  0.00  0.00     0.003 C 
ENDBRANCH   8   9
ENDBRANCH   7   8
ENDBRANCH   1   7
TORSDOF 3
ENDMDL
