MODEL 1
REMARK minimizedAffinity -3.84863567
REMARK minimizedRMSD -1
REMARK  3 active torsions:
REMARK  status: ('A' for Active; 'I' for Inactive)
REMARK    1  A    between atoms: C3'_2  and  C2'_3 
REMARK    2  A    between atoms: C2'_3  and  C1'_4 
REMARK    3  A    between atoms: C1'_4  and  C1_5 
ROOT
ATOM      1  C1  N4B d   1       0.808   0.821   0.437  0.00  0.00    -0.075 A 
ATOM      2  C2  N4B d   1       1.979   0.943  -0.343  0.00  0.00     0.002 A 
ATOM      3  C3  N4B d   1       2.968   1.817   0.037  0.00  0.00     0.002 A 
ATOM      4  C4  N4B d   1       2.802   2.588   1.177  0.00  0.00    -0.004 A 
ATOM      5  C5  N4B d   1       1.679   2.445   1.939  0.00  0.00     0.002 A 
ATOM      6  C6  N4B d   1       0.678   1.568   1.571  0.00  0.00     0.002 A 
ENDROOT
BRANCH   1   7
ATOM      7  C1' N4B d   1      -0.338  -0.058   0.015  0.00  0.00     0.057 C 
BRANCH   7   8
ATOM      8  C2' N4B d   1      -0.844   0.400  -1.350  0.00  0.00     0.009 C 
BRANCH   8   9
ATOM      9  C3' N4B d   1      -2.267  -0.062  -1.613  0.00  0.00     0.004 C 
ATOM     10  C4' N4B d   1      -2.368  -1.545  -1.817  0.00  0.00     0.003 C 
ENDBRANCH   8   9
ENDBRANCH   7   8
ENDBRANCH   1   7
TORSDOF 3
ENDMDL
