MODEL 1
REMARK minimizedAffinity -4.53462601
REMARK minimizedRMSD -1
REMARK  3 active torsions:
REMARK  status: ('A' for Active; 'I' for Inactive)
REMARK    1  A    between atoms: C3'_2  and  C2'_3 
REMARK    2  A    between atoms: C2'_3  and  C1'_4 
REMARK    3  A    between atoms: C1'_4  and  C1_5 
ROOT
ATOM      1  C1  N4B d   1      -0.852  -0.869  -0.152  0.00  0.00    -0.075 A 
ATOM      2  C2  N4B d   1      -2.012  -1.253  -0.860  0.00  0.00     0.002 A 
ATOM      3  C3  N4B d   1      -2.652  -2.426  -0.545  0.00  0.00     0.002 A 
ATOM      4  C4  N4B d   1      -2.142  -3.238   0.457  0.00  0.00    -0.004 A 
ATOM      5  C5  N4B d   1      -1.036  -2.848   1.154  0.00  0.00     0.002 A 
ATOM      6  C6  N4B d   1      -0.385  -1.669   0.851  0.00  0.00     0.002 A 
ENDROOT
BRANCH   1   7
ATOM      7  C1' N4B d   1      -0.069   0.362  -0.518  0.00  0.00     0.057 C 
BRANCH   7   8
ATOM      8  C2' N4B d   1       0.360   1.081   0.758  0.00  0.00     0.009 C 
BRANCH   8   9
ATOM      9  C3' N4B d   1       1.822   1.488   0.717  0.00  0.00     0.004 C 
ATOM     10  C4' N4B d   1       2.206   2.390   1.853  0.00  0.00     0.003 C 
ENDBRANCH   8   9
ENDBRANCH   7   8
ENDBRANCH   1   7
TORSDOF 3
ENDMDL
