MODEL 1
REMARK minimizedAffinity -4.88007832
REMARK minimizedRMSD -1
REMARK  1 active torsions:
REMARK  status: ('A' for Active; 'I' for Inactive)
REMARK    1  A    between atoms: C3_4  and  O_7 
ROOT
ATOM      1  C   UNL d   1       0.934   0.402  -0.135  0.00  0.00    -0.033 A 
ATOM      2  C1  UNL d   1       0.721   1.606   0.541  0.00  0.00     0.039 A 
ATOM      3  C2  UNL d   1       1.098   2.815  -0.048  0.00  0.00    -0.080 A 
ATOM      4  C3  UNL d   1       1.684   2.807  -1.310  0.00  0.00     0.150 A 
ATOM      5  C4  UNL d   1       1.895   1.612  -1.991  0.00  0.00    -0.007 A 
ATOM      6  C5  UNL d   1       1.519   0.406  -1.401  0.00  0.00     0.039 A 
ENDROOT
BRANCH   4   7
ATOM      7  O   UNL d   1       2.073   3.961  -1.923  0.00  0.00    -0.526 OA
ATOM      8  H5  UNL d   1       1.892   4.704  -1.323  0.00  0.00     0.418 HD
ENDBRANCH   4   7
TORSDOF 1
ENDMDL
