MODEL 1
REMARK minimizedAffinity -1.63061702
REMARK minimizedRMSD -1
REMARK  1 active torsions:
REMARK  status: ('A' for Active; 'I' for Inactive)
REMARK    1  A    between atoms: C3_4  and  O_7 
ROOT
ATOM      1  C   UNL d   1       1.256   0.052  -1.513  0.00  0.00    -0.033 A 
ATOM      2  C1  UNL d   1       0.894   0.627  -0.294  0.00  0.00     0.039 A 
ATOM      3  C2  UNL d   1       0.825   2.015  -0.168  0.00  0.00    -0.080 A 
ATOM      4  C3  UNL d   1       1.120   2.817  -1.267  0.00  0.00     0.150 A 
ATOM      5  C4  UNL d   1       1.478   2.250  -2.486  0.00  0.00    -0.007 A 
ATOM      6  C5  UNL d   1       1.547   0.863  -2.610  0.00  0.00     0.039 A 
ENDROOT
BRANCH   4   7
ATOM      7  O   UNL d   1       1.071   4.177  -1.191  0.00  0.00    -0.526 OA
ATOM      8  H5  UNL d   1       0.838   4.426  -0.281  0.00  0.00     0.418 HD
ENDBRANCH   4   7
TORSDOF 1
ENDMDL
