MODEL 1
REMARK minimizedAffinity -3.78205466
REMARK minimizedRMSD -1
REMARK  1 active torsions:
REMARK  status: ('A' for Active; 'I' for Inactive)
REMARK    1  A    between atoms: C3_4  and  O_7 
ROOT
ATOM      1  C   UNL d   1       0.959   0.324  -0.375  0.00  0.00    -0.033 A 
ATOM      2  C1  UNL d   1       1.174   1.320   0.579  0.00  0.00     0.039 A 
ATOM      3  C2  UNL d   1       1.587   2.593   0.180  0.00  0.00    -0.080 A 
ATOM      4  C3  UNL d   1       1.779   2.857  -1.173  0.00  0.00     0.150 A 
ATOM      5  C4  UNL d   1       1.562   1.870  -2.129  0.00  0.00    -0.007 A 
ATOM      6  C5  UNL d   1       1.151   0.599  -1.729  0.00  0.00     0.039 A 
ENDROOT
BRANCH   4   7
ATOM      7  O   UNL d   1       2.186   4.082  -1.609  0.00  0.00    -0.526 OA
ATOM      8  H5  UNL d   1       2.323   4.654  -0.836  0.00  0.00     0.418 HD
ENDBRANCH   4   7
TORSDOF 1
ENDMDL
