MODEL 1
REMARK minimizedAffinity -3.81372023
REMARK minimizedRMSD -1
REMARK  1 active torsions:
REMARK  status: ('A' for Active; 'I' for Inactive)
REMARK    1  A    between atoms: C3_4  and  O_7 
ROOT
ATOM      1  C   UNL d   1       0.580  -0.103  -1.196  0.00  0.00    -0.033 A 
ATOM      2  C1  UNL d   1       0.993   0.681  -0.116  0.00  0.00     0.039 A 
ATOM      3  C2  UNL d   1       1.622   1.907  -0.342  0.00  0.00    -0.080 A 
ATOM      4  C3  UNL d   1       1.831   2.338  -1.649  0.00  0.00     0.150 A 
ATOM      5  C4  UNL d   1       1.419   1.564  -2.729  0.00  0.00    -0.007 A 
ATOM      6  C5  UNL d   1       0.792   0.340  -2.502  0.00  0.00     0.039 A 
ENDROOT
BRANCH   4   7
ATOM      7  O   UNL d   1       2.445   3.525  -1.918  0.00  0.00    -0.526 OA
ATOM      8  H5  UNL d   1       2.700   3.937  -1.076  0.00  0.00     0.418 HD
ENDBRANCH   4   7
TORSDOF 1
ENDMDL
