MODEL 1
REMARK minimizedAffinity -3.61652732
REMARK minimizedRMSD -1
REMARK  1 active torsions:
REMARK  status: ('A' for Active; 'I' for Inactive)
REMARK    1  A    between atoms: C3_4  and  O_7 
ROOT
ATOM      1  C   UNL d   1       1.599   4.061  -0.578  0.00  0.00    -0.033 A 
ATOM      2  C1  UNL d   1       1.411   3.412   0.644  0.00  0.00     0.039 A 
ATOM      3  C2  UNL d   1       1.175   2.036   0.677  0.00  0.00    -0.080 A 
ATOM      4  C3  UNL d   1       1.131   1.322  -0.517  0.00  0.00     0.150 A 
ATOM      5  C4  UNL d   1       1.321   1.961  -1.738  0.00  0.00    -0.007 A 
ATOM      6  C5  UNL d   1       1.556   3.335  -1.768  0.00  0.00     0.039 A 
ENDROOT
BRANCH   4   7
ATOM      7  O   UNL d   1       0.899  -0.022  -0.536  0.00  0.00    -0.526 OA
ATOM      8  H5  UNL d   1       0.758  -0.322   0.378  0.00  0.00     0.418 HD
ENDBRANCH   4   7
TORSDOF 1
ENDMDL
