MODEL 1
REMARK minimizedAffinity 4.99963951
REMARK minimizedRMSD -1
REMARK  1 active torsions:
REMARK  status: ('A' for Active; 'I' for Inactive)
REMARK    1  A    between atoms: C3_4  and  O_7 
ROOT
ATOM      1  C   UNL d   1      -2.404   3.474   2.126  0.00  0.00    -0.033 A 
ATOM      2  C1  UNL d   1      -2.524   2.807   3.346  0.00  0.00     0.039 A 
ATOM      3  C2  UNL d   1      -3.676   2.072   3.632  0.00  0.00    -0.080 A 
ATOM      4  C3  UNL d   1      -4.699   2.013   2.691  0.00  0.00     0.150 A 
ATOM      5  C4  UNL d   1      -4.585   2.672   1.471  0.00  0.00    -0.007 A 
ATOM      6  C5  UNL d   1      -3.434   3.405   1.187  0.00  0.00     0.039 A 
ENDROOT
BRANCH   4   7
ATOM      7  O   UNL d   1      -5.845   1.313   2.927  0.00  0.00    -0.526 OA
ATOM      8  H5  UNL d   1      -5.796   0.934   3.820  0.00  0.00     0.418 HD
ENDBRANCH   4   7
TORSDOF 1
ENDMDL
