MODEL 1
REMARK minimizedAffinity -1.36260676
REMARK minimizedRMSD -1
REMARK  1 active torsions:
REMARK  status: ('A' for Active; 'I' for Inactive)
REMARK    1  A    between atoms: C3_4  and  O_7 
ROOT
ATOM      1  C   UNL d   1      -0.037  -4.105  -0.229  0.00  0.00    -0.033 A 
ATOM      2  C1  UNL d   1      -0.598  -3.741  -1.455  0.00  0.00     0.039 A 
ATOM      3  C2  UNL d   1      -0.143  -2.602  -2.123  0.00  0.00    -0.080 A 
ATOM      4  C3  UNL d   1       0.872  -1.838  -1.554  0.00  0.00     0.150 A 
ATOM      5  C4  UNL d   1       1.438  -2.196  -0.335  0.00  0.00    -0.007 A 
ATOM      6  C5  UNL d   1       0.982  -3.334   0.330  0.00  0.00     0.039 A 
ENDROOT
BRANCH   4   7
ATOM      7  O   UNL d   1       1.346  -0.715  -2.166  0.00  0.00    -0.526 OA
ATOM      8  H5  UNL d   1       0.842  -0.575  -2.985  0.00  0.00     0.418 HD
ENDBRANCH   4   7
TORSDOF 1
ENDMDL
