MODEL 1
REMARK minimizedAffinity -2.67520595
REMARK minimizedRMSD -1
REMARK  1 active torsions:
REMARK  status: ('A' for Active; 'I' for Inactive)
REMARK    1  A    between atoms: C3_4  and  O_7 
ROOT
ATOM      1  C   UNL d   1       1.496   4.501  -0.262  0.00  0.00    -0.033 A 
ATOM      2  C1  UNL d   1       1.324   3.536   0.733  0.00  0.00     0.039 A 
ATOM      3  C2  UNL d   1       1.170   2.193   0.386  0.00  0.00    -0.080 A 
ATOM      4  C3  UNL d   1       1.191   1.827  -0.957  0.00  0.00     0.150 A 
ATOM      5  C4  UNL d   1       1.366   2.783  -1.953  0.00  0.00    -0.007 A 
ATOM      6  C5  UNL d   1       1.518   4.124  -1.605  0.00  0.00     0.039 A 
ENDROOT
BRANCH   4   7
ATOM      7  O   UNL d   1       1.040   0.529  -1.345  0.00  0.00    -0.526 OA
ATOM      8  H5  UNL d   1       0.900  -0.015  -0.552  0.00  0.00     0.418 HD
ENDBRANCH   4   7
TORSDOF 1
ENDMDL
