MODEL 1
REMARK minimizedAffinity -5.25631714
REMARK minimizedRMSD -1
REMARK  1 active torsions:
REMARK  status: ('A' for Active; 'I' for Inactive)
REMARK    1  A    between atoms: C3_4  and  O_7 
ROOT
ATOM      1  C   UNL d   1       0.831   1.581   1.438  0.00  0.00    -0.033 A 
ATOM      2  C1  UNL d   1       0.717   0.680   0.378  0.00  0.00     0.039 A 
ATOM      3  C2  UNL d   1       0.979   1.099  -0.928  0.00  0.00    -0.080 A 
ATOM      4  C3  UNL d   1       1.354   2.419  -1.160  0.00  0.00     0.150 A 
ATOM      5  C4  UNL d   1       1.474   3.321  -0.108  0.00  0.00    -0.007 A 
ATOM      6  C5  UNL d   1       1.211   2.902   1.195  0.00  0.00     0.039 A 
ENDROOT
BRANCH   4   7
ATOM      7  O   UNL d   1       1.615   2.875  -2.418  0.00  0.00    -0.526 OA
ATOM      8  H5  UNL d   1       1.464   2.149  -3.046  0.00  0.00     0.418 HD
ENDBRANCH   4   7
TORSDOF 1
ENDMDL
