MODEL 1
REMARK minimizedAffinity 2.39994335
REMARK minimizedRMSD -1
REMARK  1 active torsions:
REMARK  status: ('A' for Active; 'I' for Inactive)
REMARK    1  A    between atoms: C3_4  and  O_7 
ROOT
ATOM      1  C   UNL d   1       1.069  -0.541   0.387  0.00  0.00    -0.033 A 
ATOM      2  C1  UNL d   1       1.585   0.614   0.978  0.00  0.00     0.039 A 
ATOM      3  C2  UNL d   1       1.889   1.727   0.192  0.00  0.00    -0.080 A 
ATOM      4  C3  UNL d   1       1.672   1.673  -1.182  0.00  0.00     0.150 A 
ATOM      5  C4  UNL d   1       1.154   0.527  -1.778  0.00  0.00    -0.007 A 
ATOM      6  C5  UNL d   1       0.853  -0.584  -0.991  0.00  0.00     0.039 A 
ENDROOT
BRANCH   4   7
ATOM      7  O   UNL d   1       1.957   2.732  -1.991  0.00  0.00    -0.526 OA
ATOM      8  H5  UNL d   1       2.334   3.443  -1.446  0.00  0.00     0.418 HD
ENDBRANCH   4   7
TORSDOF 1
ENDMDL
