MODEL 1
REMARK minimizedAffinity -3.35964131
REMARK minimizedRMSD -1
REMARK  1 active torsions:
REMARK  status: ('A' for Active; 'I' for Inactive)
REMARK    1  A    between atoms: C3_4  and  O_7 
ROOT
ATOM      1  C   UNL d   1       1.093   2.105   0.233  0.00  0.00    -0.033 A 
ATOM      2  C1  UNL d   1       0.989   2.531  -1.092  0.00  0.00     0.039 A 
ATOM      3  C2  UNL d   1       1.024   1.599  -2.132  0.00  0.00    -0.080 A 
ATOM      4  C3  UNL d   1       1.163   0.247  -1.832  0.00  0.00     0.150 A 
ATOM      5  C4  UNL d   1       1.263  -0.185  -0.514  0.00  0.00    -0.007 A 
ATOM      6  C5  UNL d   1       1.229   0.747   0.523  0.00  0.00     0.039 A 
ENDROOT
BRANCH   4   7
ATOM      7  O   UNL d   1       1.207  -0.699  -2.813  0.00  0.00    -0.526 OA
ATOM      8  H5  UNL d   1       1.155  -0.252  -3.674  0.00  0.00     0.418 HD
ENDBRANCH   4   7
TORSDOF 1
ENDMDL
