MODEL 1
REMARK minimizedAffinity -3.58478189
REMARK minimizedRMSD -1
REMARK  1 active torsions:
REMARK  status: ('A' for Active; 'I' for Inactive)
REMARK    1  A    between atoms: C3_4  and  O_7 
ROOT
ATOM      1  C   UNL d   1       1.135   0.015  -0.639  0.00  0.00    -0.033 A 
ATOM      2  C1  UNL d   1       0.752   0.759   0.479  0.00  0.00     0.039 A 
ATOM      3  C2  UNL d   1       0.835   2.153   0.454  0.00  0.00    -0.080 A 
ATOM      4  C3  UNL d   1       1.302   2.789  -0.693  0.00  0.00     0.150 A 
ATOM      5  C4  UNL d   1       1.682   2.055  -1.811  0.00  0.00    -0.007 A 
ATOM      6  C5  UNL d   1       1.599   0.663  -1.785  0.00  0.00     0.039 A 
ENDROOT
BRANCH   4   7
ATOM      7  O   UNL d   1       1.405   4.147  -0.763  0.00  0.00    -0.526 OA
ATOM      8  H5  UNL d   1       1.135   4.520   0.093  0.00  0.00     0.418 HD
ENDBRANCH   4   7
TORSDOF 1
ENDMDL
