MODEL 1
REMARK minimizedAffinity -1.30828333
REMARK minimizedRMSD -1
REMARK  1 active torsions:
REMARK  status: ('A' for Active; 'I' for Inactive)
REMARK    1  A    between atoms: C3_4  and  O_7 
ROOT
ATOM      1  C   UNL d   1      -4.510   2.245   4.346  0.00  0.00    -0.033 A 
ATOM      2  C1  UNL d   1      -3.413   1.420   4.093  0.00  0.00     0.039 A 
ATOM      3  C2  UNL d   1      -3.607   0.128   3.601  0.00  0.00    -0.080 A 
ATOM      4  C3  UNL d   1      -4.902  -0.325   3.364  0.00  0.00     0.150 A 
ATOM      5  C4  UNL d   1      -6.000   0.493   3.610  0.00  0.00    -0.007 A 
ATOM      6  C5  UNL d   1      -5.804   1.782   4.103  0.00  0.00     0.039 A 
ENDROOT
BRANCH   4   7
ATOM      7  O   UNL d   1      -5.142  -1.580   2.889  0.00  0.00    -0.526 OA
ATOM      8  H5  UNL d   1      -4.292  -2.041   2.793  0.00  0.00     0.418 HD
ENDBRANCH   4   7
TORSDOF 1
ENDMDL
