MODEL 1
REMARK minimizedAffinity -3.5216558
REMARK minimizedRMSD -1
REMARK  1 active torsions:
REMARK  status: ('A' for Active; 'I' for Inactive)
REMARK    1  A    between atoms: C3_4  and  O_7 
ROOT
ATOM      1  C   UNL d   1       1.142   0.067   0.254  0.00  0.00    -0.033 A 
ATOM      2  C1  UNL d   1       0.661   1.366   0.433  0.00  0.00     0.039 A 
ATOM      3  C2  UNL d   1       0.755   2.296  -0.604  0.00  0.00    -0.080 A 
ATOM      4  C3  UNL d   1       1.331   1.915  -1.814  0.00  0.00     0.150 A 
ATOM      5  C4  UNL d   1       1.808   0.622  -2.000  0.00  0.00    -0.007 A 
ATOM      6  C5  UNL d   1       1.714  -0.305  -0.962  0.00  0.00     0.039 A 
ENDROOT
BRANCH   4   7
ATOM      7  O   UNL d   1       1.449   2.789  -2.853  0.00  0.00    -0.526 OA
ATOM      8  H5  UNL d   1       1.103   3.652  -2.570  0.00  0.00     0.418 HD
ENDBRANCH   4   7
TORSDOF 1
ENDMDL
