MODEL 1
REMARK minimizedAffinity -3.4962678
REMARK minimizedRMSD -1
REMARK  1 active torsions:
REMARK  status: ('A' for Active; 'I' for Inactive)
REMARK    1  A    between atoms: C3_4  and  O_7 
ROOT
ATOM      1  C   UNL d   1       1.560  -0.001  -1.848  0.00  0.00    -0.033 A 
ATOM      2  C1  UNL d   1       1.423  -0.535  -0.565  0.00  0.00     0.039 A 
ATOM      3  C2  UNL d   1       1.144   0.303   0.516  0.00  0.00    -0.080 A 
ATOM      4  C3  UNL d   1       1.002   1.671   0.301  0.00  0.00     0.150 A 
ATOM      5  C4  UNL d   1       1.134   2.210  -0.975  0.00  0.00    -0.007 A 
ATOM      6  C5  UNL d   1       1.414   1.371  -2.053  0.00  0.00     0.039 A 
ENDROOT
BRANCH   4   7
ATOM      7  O   UNL d   1       0.734   2.529   1.325  0.00  0.00    -0.526 OA
ATOM      8  H5  UNL d   1       0.699   2.020   2.152  0.00  0.00     0.418 HD
ENDBRANCH   4   7
TORSDOF 1
ENDMDL
