MODEL 1
REMARK minimizedAffinity -3.55852938
REMARK minimizedRMSD -1
REMARK  1 active torsions:
REMARK  status: ('A' for Active; 'I' for Inactive)
REMARK    1  A    between atoms: C3_4  and  O_7 
ROOT
ATOM      1  C   UNL d   1       0.815   0.961  -0.726  0.00  0.00    -0.033 A 
ATOM      2  C1  UNL d   1       0.415   1.609  -1.896  0.00  0.00     0.039 A 
ATOM      3  C2  UNL d   1       0.696   2.964  -2.078  0.00  0.00    -0.080 A 
ATOM      4  C3  UNL d   1       1.377   3.660  -1.083  0.00  0.00     0.150 A 
ATOM      5  C4  UNL d   1       1.782   3.020   0.084  0.00  0.00    -0.007 A 
ATOM      6  C5  UNL d   1       1.500   1.667   0.264  0.00  0.00     0.039 A 
ENDROOT
BRANCH   4   7
ATOM      7  O   UNL d   1       1.669   4.985  -1.212  0.00  0.00    -0.526 OA
ATOM      8  H5  UNL d   1       1.304   5.300  -2.056  0.00  0.00     0.418 HD
ENDBRANCH   4   7
TORSDOF 1
ENDMDL
