MODEL 1
REMARK minimizedAffinity 5.61386156
REMARK minimizedRMSD -1
REMARK  0 active torsions:
REMARK  status: ('A' for Active; 'I' for Inactive)
ROOT
ATOM      1  C   UNL d   1       5.999  -4.204  -2.058  0.00  0.00     0.077 C 
ATOM      2  C1  UNL d   1       5.516  -4.552  -3.435  0.00  0.00    -0.074 A 
ATOM      3  C2  UNL d   1       6.000  -5.683  -4.101  0.00  0.00    -0.005 A 
ATOM      4  C3  UNL d   1       5.535  -6.000  -5.377  0.00  0.00     0.006 A 
ATOM      5  C4  UNL d   1       4.583  -5.191  -5.999  0.00  0.00    -0.005 A 
ATOM      6  C5  UNL d   1       4.087  -4.057  -5.348  0.00  0.00    -0.074 A 
ATOM      7  C6  UNL d   1       3.057  -3.182  -5.999  0.00  0.00     0.077 C 
ATOM      8  C7  UNL d   1       4.554  -3.749  -4.063  0.00  0.00    -0.001 A 
ENDROOT
TORSDOF 0
ENDMDL
