MODEL 1
REMARK minimizedAffinity 2.36512446
REMARK minimizedRMSD -1
REMARK  0 active torsions:
REMARK  status: ('A' for Active; 'I' for Inactive)
ROOT
ATOM      1  C   UNL d   1       5.979  -3.410  -2.107  0.00  0.00     0.077 C 
ATOM      2  C1  UNL d   1       5.340  -3.452  -3.463  0.00  0.00    -0.074 A 
ATOM      3  C2  UNL d   1       5.312  -2.318  -4.280  0.00  0.00    -0.005 A 
ATOM      4  C3  UNL d   1       4.722  -2.375  -5.543  0.00  0.00     0.006 A 
ATOM      5  C4  UNL d   1       4.155  -3.565  -6.000  0.00  0.00    -0.005 A 
ATOM      6  C5  UNL d   1       4.174  -4.710  -5.197  0.00  0.00    -0.074 A 
ATOM      7  C6  UNL d   1       3.578  -6.000  -5.677  0.00  0.00     0.077 C 
ATOM      8  C7  UNL d   1       4.775  -4.647  -3.932  0.00  0.00    -0.001 A 
ENDROOT
TORSDOF 0
ENDMDL
