MODEL 1
REMARK minimizedAffinity 7.55593252
REMARK minimizedRMSD -1
REMARK  0 active torsions:
REMARK  status: ('A' for Active; 'I' for Inactive)
ROOT
ATOM      1  C   UNL d   1       4.993  -5.984  -2.113  0.00  0.00     0.077 C 
ATOM      2  C1  UNL d   1       4.871  -5.345  -3.464  0.00  0.00    -0.074 A 
ATOM      3  C2  UNL d   1       5.996  -4.842  -4.125  0.00  0.00    -0.005 A 
ATOM      4  C3  UNL d   1       5.869  -4.258  -5.386  0.00  0.00     0.006 A 
ATOM      5  C4  UNL d   1       4.618  -4.171  -5.997  0.00  0.00    -0.005 A 
ATOM      6  C5  UNL d   1       3.481  -4.670  -5.352  0.00  0.00    -0.074 A 
ATOM      7  C6  UNL d   1       2.130  -4.594  -5.999  0.00  0.00     0.077 C 
ATOM      8  C7  UNL d   1       3.618  -5.261  -4.088  0.00  0.00    -0.001 A 
ENDROOT
TORSDOF 0
ENDMDL
