MODEL 1
REMARK minimizedAffinity -1.19926238
REMARK minimizedRMSD -1
REMARK  0 active torsions:
REMARK  status: ('A' for Active; 'I' for Inactive)
ROOT
ATOM      1  C   UNL d   1       4.267  -1.976  -2.285  0.00  0.00     0.077 C 
ATOM      2  C1  UNL d   1       4.623  -2.632  -3.586  0.00  0.00    -0.074 A 
ATOM      3  C2  UNL d   1       4.481  -1.949  -4.798  0.00  0.00    -0.005 A 
ATOM      4  C3  UNL d   1       4.826  -2.569  -5.999  0.00  0.00     0.006 A 
ATOM      5  C4  UNL d   1       5.316  -3.876  -6.000  0.00  0.00    -0.005 A 
ATOM      6  C5  UNL d   1       5.466  -4.574  -4.798  0.00  0.00    -0.074 A 
ATOM      7  C6  UNL d   1       6.000  -5.975  -4.780  0.00  0.00     0.077 C 
ATOM      8  C7  UNL d   1       5.124  -3.942  -3.594  0.00  0.00    -0.001 A 
ENDROOT
TORSDOF 0
ENDMDL
