MODEL 1
REMARK minimizedAffinity 6.86445189
REMARK minimizedRMSD -1
REMARK  0 active torsions:
REMARK  status: ('A' for Active; 'I' for Inactive)
ROOT
ATOM      1  C   UNL d   1       5.992  -3.896  -1.422  0.00  0.00     0.077 C 
ATOM      2  C1  UNL d   1       5.748  -4.198  -2.871  0.00  0.00    -0.074 A 
ATOM      3  C2  UNL d   1       5.983  -5.476  -3.387  0.00  0.00    -0.005 A 
ATOM      4  C3  UNL d   1       5.743  -5.745  -4.735  0.00  0.00     0.006 A 
ATOM      5  C4  UNL d   1       5.267  -4.740  -5.578  0.00  0.00    -0.005 A 
ATOM      6  C5  UNL d   1       5.025  -3.457  -5.079  0.00  0.00    -0.074 A 
ATOM      7  C6  UNL d   1       4.504  -2.368  -5.969  0.00  0.00     0.077 C 
ATOM      8  C7  UNL d   1       5.262  -3.196  -3.722  0.00  0.00    -0.001 A 
ENDROOT
TORSDOF 0
ENDMDL
