MODEL 1
REMARK minimizedAffinity 8.82487202
REMARK minimizedRMSD -1
REMARK  0 active torsions:
REMARK  status: ('A' for Active; 'I' for Inactive)
ROOT
ATOM      1  C   UNL d   1       3.662  -5.680  -2.411  0.00  0.00     0.077 C 
ATOM      2  C1  UNL d   1       4.368  -5.215  -3.650  0.00  0.00    -0.074 A 
ATOM      3  C2  UNL d   1       5.358  -6.000  -4.250  0.00  0.00    -0.005 A 
ATOM      4  C3  UNL d   1       5.999  -5.559  -5.408  0.00  0.00     0.006 A 
ATOM      5  C4  UNL d   1       5.657  -4.331  -5.976  0.00  0.00    -0.005 A 
ATOM      6  C5  UNL d   1       4.669  -3.534  -5.391  0.00  0.00    -0.074 A 
ATOM      7  C6  UNL d   1       4.282  -2.216  -5.995  0.00  0.00     0.077 C 
ATOM      8  C7  UNL d   1       4.024  -3.987  -4.232  0.00  0.00    -0.001 A 
ENDROOT
TORSDOF 0
ENDMDL
