MODEL 1
REMARK minimizedAffinity 0.716798723
REMARK minimizedRMSD -1
REMARK  0 active torsions:
REMARK  status: ('A' for Active; 'I' for Inactive)
ROOT
ATOM      1  C   UNL d   1       5.985  -5.824  -2.845  0.00  0.00     0.077 C 
ATOM      2  C1  UNL d   1       5.183  -5.207  -3.953  0.00  0.00    -0.074 A 
ATOM      3  C2  UNL d   1       4.611  -6.000  -4.953  0.00  0.00    -0.005 A 
ATOM      4  C3  UNL d   1       3.860  -5.413  -5.972  0.00  0.00     0.006 A 
ATOM      5  C4  UNL d   1       3.674  -4.030  -6.000  0.00  0.00    -0.005 A 
ATOM      6  C5  UNL d   1       4.237  -3.222  -5.007  0.00  0.00    -0.074 A 
ATOM      7  C6  UNL d   1       4.038  -1.736  -5.017  0.00  0.00     0.077 C 
ATOM      8  C7  UNL d   1       4.985  -3.820  -3.984  0.00  0.00    -0.001 A 
ENDROOT
TORSDOF 0
ENDMDL
