MODEL 1
REMARK minimizedAffinity 12.2192163
REMARK minimizedRMSD -1
REMARK  0 active torsions:
REMARK  status: ('A' for Active; 'I' for Inactive)
ROOT
ATOM      1  C   UNL d   1       1.694  -1.628   1.903  0.00  0.00     0.077 C 
ATOM      2  C1  UNL d   1       3.194  -1.606   1.891  0.00  0.00    -0.074 A 
ATOM      3  C2  UNL d   1       3.923  -1.661   3.083  0.00  0.00    -0.005 A 
ATOM      4  C3  UNL d   1       5.318  -1.649   3.055  0.00  0.00     0.006 A 
ATOM      5  C4  UNL d   1       5.996  -1.583   1.837  0.00  0.00    -0.005 A 
ATOM      6  C5  UNL d   1       5.283  -1.528   0.635  0.00  0.00    -0.074 A 
ATOM      7  C6  UNL d   1       5.996  -1.467  -0.683  0.00  0.00     0.077 C 
ATOM      8  C7  UNL d   1       3.882  -1.548   0.671  0.00  0.00    -0.001 A 
ENDROOT
TORSDOF 0
ENDMDL
