MODEL 1
REMARK minimizedAffinity 7.60707903
REMARK minimizedRMSD -1
REMARK  0 active torsions:
REMARK  status: ('A' for Active; 'I' for Inactive)
ROOT
ATOM      1  C   UNL d   1       5.999  -5.905  -3.755  0.00  0.00     0.077 C 
ATOM      2  C1  UNL d   1       4.934  -5.189  -4.532  0.00  0.00    -0.074 A 
ATOM      3  C2  UNL d   1       3.972  -5.900  -5.257  0.00  0.00    -0.005 A 
ATOM      4  C3  UNL d   1       2.982  -5.220  -5.967  0.00  0.00     0.006 A 
ATOM      5  C4  UNL d   1       2.945  -3.825  -5.960  0.00  0.00    -0.005 A 
ATOM      6  C5  UNL d   1       3.898  -3.098  -5.240  0.00  0.00    -0.074 A 
ATOM      7  C6  UNL d   1       3.866  -1.598  -5.214  0.00  0.00     0.077 C 
ATOM      8  C7  UNL d   1       4.885  -3.788  -4.524  0.00  0.00    -0.001 A 
ENDROOT
TORSDOF 0
ENDMDL
