MODEL 1
REMARK minimizedAffinity 7.37956905
REMARK minimizedRMSD -1
REMARK  0 active torsions:
REMARK  status: ('A' for Active; 'I' for Inactive)
ROOT
ATOM      1  C   UNL d   1       1.744  -1.471   1.010  0.00  0.00     0.077 C 
ATOM      2  C1  UNL d   1       1.171  -0.462   0.059  0.00  0.00    -0.074 A 
ATOM      3  C2  UNL d   1      -0.173  -0.083   0.137  0.00  0.00    -0.005 A 
ATOM      4  C3  UNL d   1      -0.689   0.863  -0.748  0.00  0.00     0.006 A 
ATOM      5  C4  UNL d   1       0.132   1.439  -1.718  0.00  0.00    -0.005 A 
ATOM      6  C5  UNL d   1       1.478   1.073  -1.811  0.00  0.00    -0.074 A 
ATOM      7  C6  UNL d   1       2.377   1.690  -2.841  0.00  0.00     0.077 C 
ATOM      8  C7  UNL d   1       1.991   0.127  -0.913  0.00  0.00    -0.001 A 
ENDROOT
TORSDOF 0
ENDMDL
