MODEL 1
REMARK minimizedAffinity 6.68435001
REMARK minimizedRMSD -1
REMARK  0 active torsions:
REMARK  status: ('A' for Active; 'I' for Inactive)
ROOT
ATOM      1  C   UNL d   1       5.978  -5.893  -4.230  0.00  0.00     0.077 C 
ATOM      2  C1  UNL d   1       5.181  -4.776  -4.836  0.00  0.00    -0.074 A 
ATOM      3  C2  UNL d   1       5.779  -3.549  -5.140  0.00  0.00    -0.005 A 
ATOM      4  C3  UNL d   1       5.027  -2.523  -5.712  0.00  0.00     0.006 A 
ATOM      5  C4  UNL d   1       3.672  -2.713  -5.987  0.00  0.00    -0.005 A 
ATOM      6  C5  UNL d   1       3.058  -3.934  -5.692  0.00  0.00    -0.074 A 
ATOM      7  C6  UNL d   1       1.605  -4.159  -5.990  0.00  0.00     0.077 C 
ATOM      8  C7  UNL d   1       3.821  -4.963  -5.123  0.00  0.00    -0.001 A 
ENDROOT
TORSDOF 0
ENDMDL
