MODEL 1
REMARK minimizedAffinity 2.4199543
REMARK minimizedRMSD -1
REMARK  0 active torsions:
REMARK  status: ('A' for Active; 'I' for Inactive)
ROOT
ATOM      1  C   UNL d   1       1.509  -5.160  -6.000  0.00  0.00     0.077 C 
ATOM      2  C1  UNL d   1       2.813  -4.514  -5.635  0.00  0.00    -0.074 A 
ATOM      3  C2  UNL d   1       3.088  -3.192  -6.000  0.00  0.00    -0.005 A 
ATOM      4  C3  UNL d   1       4.300  -2.602  -5.645  0.00  0.00     0.006 A 
ATOM      5  C4  UNL d   1       5.249  -3.326  -4.922  0.00  0.00    -0.005 A 
ATOM      6  C5  UNL d   1       4.992  -4.649  -4.547  0.00  0.00    -0.074 A 
ATOM      7  C6  UNL d   1       5.997  -5.438  -3.762  0.00  0.00     0.077 C 
ATOM      8  C7  UNL d   1       3.768  -5.233  -4.902  0.00  0.00    -0.001 A 
ENDROOT
TORSDOF 0
ENDMDL
