MODEL 1
REMARK minimizedAffinity 9.16093063
REMARK minimizedRMSD -1
REMARK  0 active torsions:
REMARK  status: ('A' for Active; 'I' for Inactive)
ROOT
ATOM      1  C   UNL d   1      -0.102   5.373   2.750  0.00  0.00     0.077 C 
ATOM      2  C1  UNL d   1       0.788   4.711   1.740  0.00  0.00    -0.074 A 
ATOM      3  C2  UNL d   1       2.122   5.103   1.591  0.00  0.00    -0.005 A 
ATOM      4  C3  UNL d   1       2.940   4.471   0.655  0.00  0.00     0.006 A 
ATOM      5  C4  UNL d   1       2.433   3.443  -0.141  0.00  0.00    -0.005 A 
ATOM      6  C5  UNL d   1       1.102   3.037  -0.005  0.00  0.00    -0.074 A 
ATOM      7  C6  UNL d   1       0.545   1.926  -0.845  0.00  0.00     0.077 C 
ATOM      8  C7  UNL d   1       0.288   3.672   0.943  0.00  0.00    -0.001 A 
ENDROOT
TORSDOF 0
ENDMDL
