MODEL 1
REMARK minimizedAffinity 5.25609875
REMARK minimizedRMSD -1
REMARK  0 active torsions:
REMARK  status: ('A' for Active; 'I' for Inactive)
ROOT
ATOM      1  C   UNL d   1       3.177  -2.477  -5.288  0.00  0.00     0.077 C 
ATOM      2  C1  UNL d   1       4.158  -3.581  -5.026  0.00  0.00    -0.074 A 
ATOM      3  C2  UNL d   1       5.087  -3.963  -6.000  0.00  0.00    -0.005 A 
ATOM      4  C3  UNL d   1       5.999  -4.985  -5.739  0.00  0.00     0.006 A 
ATOM      5  C4  UNL d   1       5.993  -5.634  -4.504  0.00  0.00    -0.005 A 
ATOM      6  C5  UNL d   1       5.072  -5.265  -3.518  0.00  0.00    -0.074 A 
ATOM      7  C6  UNL d   1       5.058  -5.946  -2.181  0.00  0.00     0.077 C 
ATOM      8  C7  UNL d   1       4.163  -4.233  -3.785  0.00  0.00    -0.001 A 
ENDROOT
TORSDOF 0
ENDMDL
