MODEL 1
REMARK minimizedAffinity 3.10887313
REMARK minimizedRMSD -1
REMARK  0 active torsions:
REMARK  status: ('A' for Active; 'I' for Inactive)
ROOT
ATOM      1  C   UNL d   1       3.763  -5.712  -2.360  0.00  0.00     0.077 C 
ATOM      2  C1  UNL d   1       4.388  -5.197  -3.623  0.00  0.00    -0.074 A 
ATOM      3  C2  UNL d   1       5.436  -5.888  -4.240  0.00  0.00    -0.005 A 
ATOM      4  C3  UNL d   1       6.000  -5.402  -5.420  0.00  0.00     0.006 A 
ATOM      5  C4  UNL d   1       5.522  -4.223  -5.993  0.00  0.00    -0.005 A 
ATOM      6  C5  UNL d   1       4.475  -3.519  -5.391  0.00  0.00    -0.074 A 
ATOM      7  C6  UNL d   1       3.943  -2.255  -6.000  0.00  0.00     0.077 C 
ATOM      8  C7  UNL d   1       3.908  -4.017  -4.210  0.00  0.00    -0.001 A 
ENDROOT
TORSDOF 0
ENDMDL
