MODEL 1
REMARK minimizedAffinity 4.03699255
REMARK minimizedRMSD -1
REMARK  0 active torsions:
REMARK  status: ('A' for Active; 'I' for Inactive)
ROOT
ATOM      1  C   UNL d   1      -4.543  -6.000  -1.194  0.00  0.00     0.077 C 
ATOM      2  C1  UNL d   1      -3.736  -4.736  -1.165  0.00  0.00    -0.074 A 
ATOM      3  C2  UNL d   1      -4.242  -3.574  -0.574  0.00  0.00    -0.005 A 
ATOM      4  C3  UNL d   1      -3.476  -2.408  -0.547  0.00  0.00     0.006 A 
ATOM      5  C4  UNL d   1      -2.200  -2.393  -1.110  0.00  0.00    -0.005 A 
ATOM      6  C5  UNL d   1      -1.677  -3.545  -1.705  0.00  0.00    -0.074 A 
ATOM      7  C6  UNL d   1      -0.303  -3.549  -2.305  0.00  0.00     0.077 C 
ATOM      8  C7  UNL d   1      -2.450  -4.715  -1.722  0.00  0.00    -0.001 A 
ENDROOT
TORSDOF 0
ENDMDL
