MODEL 1
REMARK minimizedAffinity 3.45573545
REMARK minimizedRMSD -1
REMARK  0 active torsions:
REMARK  status: ('A' for Active; 'I' for Inactive)
ROOT
ATOM      1  C   UNL d   1      -0.637   1.546  -1.190  0.00  0.00     0.077 C 
ATOM      2  C1  UNL d   1      -0.175   0.495  -0.225  0.00  0.00    -0.074 A 
ATOM      3  C2  UNL d   1       0.969  -0.266  -0.484  0.00  0.00    -0.005 A 
ATOM      4  C3  UNL d   1       1.393  -1.233   0.428  0.00  0.00     0.006 A 
ATOM      5  C4  UNL d   1       0.678  -1.447   1.607  0.00  0.00    -0.005 A 
ATOM      6  C5  UNL d   1      -0.468  -0.695   1.884  0.00  0.00    -0.074 A 
ATOM      7  C6  UNL d   1      -1.242  -0.906   3.151  0.00  0.00     0.077 C 
ATOM      8  C7  UNL d   1      -0.883   0.279   0.966  0.00  0.00    -0.001 A 
ENDROOT
TORSDOF 0
ENDMDL
