MODEL 1
REMARK minimizedAffinity 4.36781931
REMARK minimizedRMSD -1
REMARK  0 active torsions:
REMARK  status: ('A' for Active; 'I' for Inactive)
ROOT
ATOM      1  C   UNL d   1      -0.692   0.592  -1.078  0.00  0.00     0.077 C 
ATOM      2  C1  UNL d   1      -0.489   0.185   0.352  0.00  0.00    -0.074 A 
ATOM      3  C2  UNL d   1       0.794  -0.048   0.857  0.00  0.00    -0.005 A 
ATOM      4  C3  UNL d   1       0.969  -0.416   2.191  0.00  0.00     0.006 A 
ATOM      5  C4  UNL d   1      -0.136  -0.555   3.031  0.00  0.00    -0.005 A 
ATOM      6  C5  UNL d   1      -1.427  -0.326   2.544  0.00  0.00    -0.074 A 
ATOM      7  C6  UNL d   1      -2.624  -0.462   3.437  0.00  0.00     0.077 C 
ATOM      8  C7  UNL d   1      -1.593   0.051   1.205  0.00  0.00    -0.001 A 
ENDROOT
TORSDOF 0
ENDMDL
