MODEL 1
REMARK minimizedAffinity 3.44182944
REMARK minimizedRMSD -1
REMARK  0 active torsions:
REMARK  status: ('A' for Active; 'I' for Inactive)
ROOT
ATOM      1  C   UNL d   1       5.869  -3.754  -2.379  0.00  0.00     0.077 C 
ATOM      2  C1  UNL d   1       5.336  -4.360  -3.643  0.00  0.00    -0.074 A 
ATOM      3  C2  UNL d   1       5.982  -5.441  -4.251  0.00  0.00    -0.005 A 
ATOM      4  C3  UNL d   1       5.468  -6.000  -5.421  0.00  0.00     0.006 A 
ATOM      5  C4  UNL d   1       4.306  -5.484  -5.995  0.00  0.00    -0.005 A 
ATOM      6  C5  UNL d   1       3.646  -4.403  -5.401  0.00  0.00    -0.074 A 
ATOM      7  C6  UNL d   1       2.390  -3.843  -6.000  0.00  0.00     0.077 C 
ATOM      8  C7  UNL d   1       4.164  -3.852  -4.222  0.00  0.00    -0.001 A 
ENDROOT
TORSDOF 0
ENDMDL
