MODEL 1
REMARK minimizedAffinity -2.91105819
REMARK minimizedRMSD -1
REMARK  0 active torsions:
REMARK  status: ('A' for Active; 'I' for Inactive)
ROOT
ATOM      1  C1  BNZ d   1      -0.821  -0.393   0.808  0.00  0.00     0.000 A 
ATOM      2  C2  BNZ d   1       0.401  -0.547   1.407  0.00  0.00     0.000 A 
ATOM      3  C3  BNZ d   1       1.539  -0.655   0.658  0.00  0.00     0.000 A 
ATOM      4  C4  BNZ d   1       1.450  -0.649  -0.687  0.00  0.00     0.000 A 
ATOM      5  C5  BNZ d   1       0.225  -0.503  -1.307  0.00  0.00     0.000 A 
ATOM      6  C6  BNZ d   1      -0.914  -0.356  -0.549  0.00  0.00     0.000 A 
ENDROOT
TORSDOF 0
ENDMDL
