MODEL 1
REMARK minimizedAffinity 4.32773161
REMARK minimizedRMSD -1
REMARK  0 active torsions:
REMARK  status: ('A' for Active; 'I' for Inactive)
ROOT
ATOM      1  C1  BNZ d   1       0.256  -1.605   2.328  0.00  0.00     0.000 A 
ATOM      2  C2  BNZ d   1       1.625  -1.558   2.352  0.00  0.00     0.000 A 
ATOM      3  C3  BNZ d   1       2.280  -0.552   3.006  0.00  0.00     0.000 A 
ATOM      4  C4  BNZ d   1       1.567   0.426   3.602  0.00  0.00     0.000 A 
ATOM      5  C5  BNZ d   1       0.186   0.397   3.579  0.00  0.00     0.000 A 
ATOM      6  C6  BNZ d   1      -0.469  -0.638   2.952  0.00  0.00     0.000 A 
ENDROOT
TORSDOF 0
ENDMDL
