MODEL 1
REMARK minimizedAffinity -4.33299541
REMARK minimizedRMSD -1
REMARK  0 active torsions:
REMARK  status: ('A' for Active; 'I' for Inactive)
ROOT
ATOM      1  C1  BNZ d   1       0.556   0.313   0.817  0.00  0.00     0.000 A 
ATOM      2  C2  BNZ d   1       1.889   0.301   1.132  0.00  0.00     0.000 A 
ATOM      3  C3  BNZ d   1       2.385  -0.592   2.040  0.00  0.00     0.000 A 
ATOM      4  C4  BNZ d   1       1.543  -1.444   2.660  0.00  0.00     0.000 A 
ATOM      5  C5  BNZ d   1       0.195  -1.437   2.360  0.00  0.00     0.000 A 
ATOM      6  C6  BNZ d   1      -0.294  -0.563   1.417  0.00  0.00     0.000 A 
ENDROOT
TORSDOF 0
ENDMDL
