MODEL 1
REMARK minimizedAffinity -0.982018352
REMARK minimizedRMSD -1
REMARK  0 active torsions:
REMARK  status: ('A' for Active; 'I' for Inactive)
ROOT
ATOM      1  C1  BNZ d   1      -0.470   0.192   1.015  0.00  0.00     0.000 A 
ATOM      2  C2  BNZ d   1      -0.986  -0.297   2.186  0.00  0.00     0.000 A 
ATOM      3  C3  BNZ d   1      -0.492  -1.442   2.744  0.00  0.00     0.000 A 
ATOM      4  C4  BNZ d   1       0.490  -2.118   2.113  0.00  0.00     0.000 A 
ATOM      5  C5  BNZ d   1       1.015  -1.643   0.927  0.00  0.00     0.000 A 
ATOM      6  C6  BNZ d   1       0.541  -0.469   0.388  0.00  0.00     0.000 A 
ENDROOT
TORSDOF 0
ENDMDL
