MODEL 1
REMARK minimizedAffinity 1.00208592
REMARK minimizedRMSD -1
REMARK  0 active torsions:
REMARK  status: ('A' for Active; 'I' for Inactive)
ROOT
ATOM      1  C1  BNZ d   1       3.248   5.997   4.757  0.00  0.00     0.000 A 
ATOM      2  C2  BNZ d   1       2.536   5.992   3.588  0.00  0.00     0.000 A 
ATOM      3  C3  BNZ d   1       1.169   6.000   3.601  0.00  0.00     0.000 A 
ATOM      4  C4  BNZ d   1       0.517   5.972   4.781  0.00  0.00     0.000 A 
ATOM      5  C5  BNZ d   1       1.221   5.968   5.969  0.00  0.00     0.000 A 
ATOM      6  C6  BNZ d   1       2.596   6.000   5.952  0.00  0.00     0.000 A 
ENDROOT
TORSDOF 0
ENDMDL
