MODEL 1
REMARK minimizedAffinity -4.33295107
REMARK minimizedRMSD -1
REMARK  0 active torsions:
REMARK  status: ('A' for Active; 'I' for Inactive)
ROOT
ATOM      1  C1  BNZ d   1       0.115  -1.775   2.375  0.00  0.00     0.000 A 
ATOM      2  C2  BNZ d   1      -1.078  -1.105   2.442  0.00  0.00     0.000 A 
ATOM      3  C3  BNZ d   1      -1.630  -0.544   1.325  0.00  0.00     0.000 A 
ATOM      4  C4  BNZ d   1      -0.970  -0.618   0.151  0.00  0.00     0.000 A 
ATOM      5  C5  BNZ d   1       0.238  -1.283   0.068  0.00  0.00     0.000 A 
ATOM      6  C6  BNZ d   1       0.771  -1.880   1.187  0.00  0.00     0.000 A 
ENDROOT
TORSDOF 0
ENDMDL
