MODEL 1
REMARK minimizedAffinity -2.93178511
REMARK minimizedRMSD -1
REMARK  0 active torsions:
REMARK  status: ('A' for Active; 'I' for Inactive)
ROOT
ATOM      1  C1  BNZ d   1       0.096  -0.869   0.443  0.00  0.00     0.000 A 
ATOM      2  C2  BNZ d   1       1.204  -1.650   0.245  0.00  0.00     0.000 A 
ATOM      3  C3  BNZ d   1       1.689  -2.443   1.246  0.00  0.00     0.000 A 
ATOM      4  C4  BNZ d   1       1.092  -2.424   2.455  0.00  0.00     0.000 A 
ATOM      5  C5  BNZ d   1      -0.020  -1.635   2.674  0.00  0.00     0.000 A 
ATOM      6  C6  BNZ d   1      -0.529  -0.868   1.651  0.00  0.00     0.000 A 
ENDROOT
TORSDOF 0
ENDMDL
