MODEL 1
REMARK minimizedAffinity -3.21926618
REMARK minimizedRMSD -1
REMARK  0 active torsions:
REMARK  status: ('A' for Active; 'I' for Inactive)
ROOT
ATOM      1  C1  BNZ d   1      -0.626  -0.952   0.643  0.00  0.00     0.000 A 
ATOM      2  C2  BNZ d   1       0.263  -0.599  -0.337  0.00  0.00     0.000 A 
ATOM      3  C3  BNZ d   1       0.657   0.701  -0.489  0.00  0.00     0.000 A 
ATOM      4  C4  BNZ d   1       0.131   1.651   0.311  0.00  0.00     0.000 A 
ATOM      5  C5  BNZ d   1      -0.773   1.312   1.297  0.00  0.00     0.000 A 
ATOM      6  C6  BNZ d   1      -1.138  -0.003   1.473  0.00  0.00     0.000 A 
ENDROOT
TORSDOF 0
ENDMDL
