MODEL 1
REMARK minimizedAffinity -4.32477188
REMARK minimizedRMSD -1
REMARK  0 active torsions:
REMARK  status: ('A' for Active; 'I' for Inactive)
ROOT
ATOM      1  C1  BNZ d   1       0.007   2.504  -0.093  0.00  0.00     0.000 A 
ATOM      2  C2  BNZ d   1       1.223   3.080   0.163  0.00  0.00     0.000 A 
ATOM      3  C3  BNZ d   1       2.341   2.312   0.330  0.00  0.00     0.000 A 
ATOM      4  C4  BNZ d   1       2.235   0.968   0.281  0.00  0.00     0.000 A 
ATOM      5  C5  BNZ d   1       1.015   0.371   0.034  0.00  0.00     0.000 A 
ATOM      6  C6  BNZ d   1      -0.101   1.149  -0.172  0.00  0.00     0.000 A 
ENDROOT
TORSDOF 0
ENDMDL
