MODEL 1
REMARK minimizedAffinity -3.96458101
REMARK minimizedRMSD -1
REMARK  0 active torsions:
REMARK  status: ('A' for Active; 'I' for Inactive)
ROOT
ATOM      1  C1  BNZ d   1      -0.844   2.274   0.775  0.00  0.00     0.000 A 
ATOM      2  C2  BNZ d   1      -1.327   1.000   0.910  0.00  0.00     0.000 A 
ATOM      3  C3  BNZ d   1      -0.709  -0.051   0.292  0.00  0.00     0.000 A 
ATOM      4  C4  BNZ d   1       0.365   0.178  -0.490  0.00  0.00     0.000 A 
ATOM      5  C5  BNZ d   1       0.858   1.458  -0.643  0.00  0.00     0.000 A 
ATOM      6  C6  BNZ d   1       0.257   2.509   0.011  0.00  0.00     0.000 A 
ENDROOT
TORSDOF 0
ENDMDL
