MODEL 1
REMARK minimizedAffinity -5.27503824
REMARK minimizedRMSD -1
REMARK  0 active torsions:
REMARK  status: ('A' for Active; 'I' for Inactive)
ROOT
ATOM      1  C1  BNZ d   1       1.418   1.909  -0.221  0.00  0.00     0.000 A 
ATOM      2  C2  BNZ d   1       1.035   0.596  -0.264  0.00  0.00     0.000 A 
ATOM      3  C3  BNZ d   1      -0.246   0.230   0.046  0.00  0.00     0.000 A 
ATOM      4  C4  BNZ d   1      -1.128   1.172   0.437  0.00  0.00     0.000 A 
ATOM      5  C5  BNZ d   1      -0.753   2.500   0.494  0.00  0.00     0.000 A 
ATOM      6  C6  BNZ d   1       0.525   2.869   0.144  0.00  0.00     0.000 A 
ENDROOT
TORSDOF 0
ENDMDL
