MODEL 1
REMARK minimizedAffinity -4.20272446
REMARK minimizedRMSD -1
REMARK  0 active torsions:
REMARK  status: ('A' for Active; 'I' for Inactive)
ROOT
ATOM      1  C1  BNZ d   1      -0.816   2.445   0.998  0.00  0.00     0.000 A 
ATOM      2  C2  BNZ d   1      -0.886   1.077   1.018  0.00  0.00     0.000 A 
ATOM      3  C3  BNZ d   1      -0.104   0.324   0.188  0.00  0.00     0.000 A 
ATOM      4  C4  BNZ d   1       0.716   0.939  -0.688  0.00  0.00     0.000 A 
ATOM      5  C5  BNZ d   1       0.791   2.317  -0.728  0.00  0.00     0.000 A 
ATOM      6  C6  BNZ d   1       0.031   3.071   0.137  0.00  0.00     0.000 A 
ENDROOT
TORSDOF 0
ENDMDL
