MODEL 1
REMARK minimizedAffinity -3.91192651
REMARK minimizedRMSD -1
REMARK  0 active torsions:
REMARK  status: ('A' for Active; 'I' for Inactive)
ROOT
ATOM      1  C1  BNZ d   1      -0.895   1.053   0.327  0.00  0.00     0.000 A 
ATOM      2  C2  BNZ d   1      -0.100  -0.060   0.252  0.00  0.00     0.000 A 
ATOM      3  C3  BNZ d   1       1.261   0.048   0.305  0.00  0.00     0.000 A 
ATOM      4  C4  BNZ d   1       1.827   1.269   0.392  0.00  0.00     0.000 A 
ATOM      5  C5  BNZ d   1       1.040   2.401   0.460  0.00  0.00     0.000 A 
ATOM      6  C6  BNZ d   1      -0.331   2.286   0.446  0.00  0.00     0.000 A 
ENDROOT
TORSDOF 0
ENDMDL
