MODEL 1
REMARK minimizedAffinity -2.40708756
REMARK minimizedRMSD -1
REMARK  0 active torsions:
REMARK  status: ('A' for Active; 'I' for Inactive)
ROOT
ATOM      1  C1  BNZ d   1       2.489   1.900   0.521  0.00  0.00     0.000 A 
ATOM      2  C2  BNZ d   1       1.785   0.810   0.081  0.00  0.00     0.000 A 
ATOM      3  C3  BNZ d   1       0.426   0.861  -0.050  0.00  0.00     0.000 A 
ATOM      4  C4  BNZ d   1      -0.232   1.987   0.297  0.00  0.00     0.000 A 
ATOM      5  C5  BNZ d   1       0.462   3.091   0.751  0.00  0.00     0.000 A 
ATOM      6  C6  BNZ d   1       1.835   3.048   0.844  0.00  0.00     0.000 A 
ENDROOT
TORSDOF 0
ENDMDL
