MODEL 1
REMARK minimizedAffinity -4.76723003
REMARK minimizedRMSD -1
REMARK  0 active torsions:
REMARK  status: ('A' for Active; 'I' for Inactive)
ROOT
ATOM      1  C1  BNZ d   1       0.173   1.028  -1.034  0.00  0.00     0.000 A 
ATOM      2  C2  BNZ d   1       0.494   2.349  -0.863  0.00  0.00     0.000 A 
ATOM      3  C3  BNZ d   1       0.043   3.043   0.225  0.00  0.00     0.000 A 
ATOM      4  C4  BNZ d   1      -0.759   2.428   1.118  0.00  0.00     0.000 A 
ATOM      5  C5  BNZ d   1      -1.099   1.100   0.954  0.00  0.00     0.000 A 
ATOM      6  C6  BNZ d   1      -0.612   0.394  -0.122  0.00  0.00     0.000 A 
ENDROOT
TORSDOF 0
ENDMDL
