MODEL 1
REMARK minimizedAffinity -1.00097156
REMARK minimizedRMSD -1
REMARK  0 active torsions:
REMARK  status: ('A' for Active; 'I' for Inactive)
ROOT
ATOM      1  C1  BNZ d   1      -1.035   1.122   0.667  0.00  0.00     0.000 A 
ATOM      2  C2  BNZ d   1      -0.202   0.049   0.493  0.00  0.00     0.000 A 
ATOM      3  C3  BNZ d   1       1.155   0.196   0.574  0.00  0.00     0.000 A 
ATOM      4  C4  BNZ d   1       1.677   1.421   0.788  0.00  0.00     0.000 A 
ATOM      5  C5  BNZ d   1       0.850   2.514   0.956  0.00  0.00     0.000 A 
ATOM      6  C6  BNZ d   1      -0.516   2.355   0.913  0.00  0.00     0.000 A 
ENDROOT
TORSDOF 0
ENDMDL
