MODEL 1
REMARK minimizedAffinity -2.4761529
REMARK minimizedRMSD -1
REMARK  0 active torsions:
REMARK  status: ('A' for Active; 'I' for Inactive)
ROOT
ATOM      1  C1  BNZ d   1      -0.541   2.327   0.067  0.00  0.00     0.000 A 
ATOM      2  C2  BNZ d   1      -1.113   1.117  -0.222  0.00  0.00     0.000 A 
ATOM      3  C3  BNZ d   1      -0.362  -0.025  -0.241  0.00  0.00     0.000 A 
ATOM      4  C4  BNZ d   1       0.964   0.050  -0.011  0.00  0.00     0.000 A 
ATOM      5  C5  BNZ d   1       1.557   1.264   0.272  0.00  0.00     0.000 A 
ATOM      6  C6  BNZ d   1       0.792   2.406   0.329  0.00  0.00     0.000 A 
ENDROOT
TORSDOF 0
ENDMDL
