MODEL 1
REMARK minimizedAffinity -4.06390715
REMARK minimizedRMSD -1
REMARK  0 active torsions:
REMARK  status: ('A' for Active; 'I' for Inactive)
ROOT
ATOM      1  C1  BNZ d   1      -0.144  -0.450   0.167  0.00  0.00     0.000 A 
ATOM      2  C2  BNZ d   1      -0.726   0.630  -0.441  0.00  0.00     0.000 A 
ATOM      3  C3  BNZ d   1       0.011   1.740  -0.749  0.00  0.00     0.000 A 
ATOM      4  C4  BNZ d   1       1.316   1.784  -0.413  0.00  0.00     0.000 A 
ATOM      5  C5  BNZ d   1       1.914   0.707   0.208  0.00  0.00     0.000 A 
ATOM      6  C6  BNZ d   1       1.180  -0.424   0.482  0.00  0.00     0.000 A 
ENDROOT
TORSDOF 0
ENDMDL
