MODEL 1
REMARK minimizedAffinity -0.0448435917
REMARK minimizedRMSD -1
REMARK  0 active torsions:
REMARK  status: ('A' for Active; 'I' for Inactive)
ROOT
ATOM      1  C1  BNZ d   1       1.529   1.538  -1.263  0.00  0.00     0.000 A 
ATOM      2  C2  BNZ d   1       0.367   0.832  -1.098  0.00  0.00     0.000 A 
ATOM      3  C3  BNZ d   1       0.347  -0.322  -0.367  0.00  0.00     0.000 A 
ATOM      4  C4  BNZ d   1       1.495  -0.791   0.164  0.00  0.00     0.000 A 
ATOM      5  C5  BNZ d   1       2.676  -0.096  -0.002  0.00  0.00     0.000 A 
ATOM      6  C6  BNZ d   1       2.685   1.086  -0.705  0.00  0.00     0.000 A 
ENDROOT
TORSDOF 0
ENDMDL
