MODEL 1
REMARK minimizedAffinity -4.75147057
REMARK minimizedRMSD -1
REMARK  0 active torsions:
REMARK  status: ('A' for Active; 'I' for Inactive)
ROOT
ATOM      1  C1  BNZ d   1       0.562   0.944  -0.917  0.00  0.00     0.000 A 
ATOM      2  C2  BNZ d   1       0.777   2.289  -0.779  0.00  0.00     0.000 A 
ATOM      3  C3  BNZ d   1       0.040   3.028   0.104  0.00  0.00     0.000 A 
ATOM      4  C4  BNZ d   1      -0.936   2.430   0.817  0.00  0.00     0.000 A 
ATOM      5  C5  BNZ d   1      -1.171   1.076   0.682  0.00  0.00     0.000 A 
ATOM      6  C6  BNZ d   1      -0.401   0.328  -0.179  0.00  0.00     0.000 A 
ENDROOT
TORSDOF 0
ENDMDL
