MODEL 1
REMARK minimizedAffinity -2.2882266
REMARK minimizedRMSD -1
REMARK  0 active torsions:
REMARK  status: ('A' for Active; 'I' for Inactive)
ROOT
ATOM      1  C1  BNZ d   1       0.758   2.207   0.805  0.00  0.00     0.000 A 
ATOM      2  C2  BNZ d   1      -0.413   1.497   0.767  0.00  0.00     0.000 A 
ATOM      3  C3  BNZ d   1      -0.402   0.131   0.728  0.00  0.00     0.000 A 
ATOM      4  C4  BNZ d   1       0.777  -0.522   0.686  0.00  0.00     0.000 A 
ATOM      5  C5  BNZ d   1       1.966   0.180   0.715  0.00  0.00     0.000 A 
ATOM      6  C6  BNZ d   1       1.951   1.553   0.794  0.00  0.00     0.000 A 
ENDROOT
TORSDOF 0
ENDMDL
