MODEL 1
REMARK minimizedAffinity 2.03136516
REMARK minimizedRMSD -1
REMARK  0 active torsions:
REMARK  status: ('A' for Active; 'I' for Inactive)
ROOT
ATOM      1  C2' OXE d   1       0.213  -2.542   2.442  0.00  0.00     0.078 C 
ATOM      2  C1' OXE d   1      -0.008  -5.335   2.270  0.00  0.00     0.078 C 
ATOM      3  C1  OXE d   1       1.231  -4.690   1.699  0.00  0.00    -0.078 A 
ATOM      4  C2  OXE d   1       1.309  -3.319   1.746  0.00  0.00    -0.078 A 
ATOM      5  C3  OXE d   1       2.454  -2.677   1.284  0.00  0.00     0.003 A 
ATOM      6  C4  OXE d   1       3.459  -3.403   0.632  0.00  0.00    -0.002 A 
ATOM      7  C5  OXE d   1       3.381  -4.797   0.538  0.00  0.00    -0.002 A 
ATOM      8  C6  OXE d   1       2.296  -5.458   1.103  0.00  0.00     0.003 A 
ENDROOT
TORSDOF 0
ENDMDL
