MODEL 1
REMARK minimizedAffinity 7.04888582
REMARK minimizedRMSD -1
REMARK  0 active torsions:
REMARK  status: ('A' for Active; 'I' for Inactive)
ROOT
ATOM      1  C2' OXE d   1       5.037  -5.426   0.749  0.00  0.00     0.078 C 
ATOM      2  C1' OXE d   1       5.537  -2.846   1.738  0.00  0.00     0.078 C 
ATOM      3  C1  OXE d   1       4.100  -3.291   1.627  0.00  0.00    -0.078 A 
ATOM      4  C2  OXE d   1       3.863  -4.537   1.099  0.00  0.00    -0.078 A 
ATOM      5  C3  OXE d   1       2.558  -5.017   1.026  0.00  0.00     0.003 A 
ATOM      6  C4  OXE d   1       1.478  -4.185   1.342  0.00  0.00    -0.002 A 
ATOM      7  C5  OXE d   1       1.696  -2.898   1.844  0.00  0.00    -0.002 A 
ATOM      8  C6  OXE d   1       2.999  -2.452   2.033  0.00  0.00     0.003 A 
ENDROOT
TORSDOF 0
ENDMDL
