MODEL 1
REMARK minimizedAffinity 8.05992222
REMARK minimizedRMSD -1
REMARK  0 active torsions:
REMARK  status: ('A' for Active; 'I' for Inactive)
ROOT
ATOM      1  C2' OXE d   1       3.236  -1.875   0.375  0.00  0.00     0.078 C 
ATOM      2  C1' OXE d   1       0.942  -1.634  -1.225  0.00  0.00     0.078 C 
ATOM      3  C1  OXE d   1       0.748  -1.833   0.258  0.00  0.00    -0.078 A 
ATOM      4  C2  OXE d   1       1.875  -1.996   1.026  0.00  0.00    -0.078 A 
ATOM      5  C3  OXE d   1       1.755  -2.128   2.407  0.00  0.00     0.003 A 
ATOM      6  C4  OXE d   1       0.492  -2.250   3.000  0.00  0.00    -0.002 A 
ATOM      7  C5  OXE d   1      -0.669  -2.126   2.230  0.00  0.00    -0.002 A 
ATOM      8  C6  OXE d   1      -0.559  -1.875   0.866  0.00  0.00     0.003 A 
ENDROOT
TORSDOF 0
ENDMDL
