MODEL 1
REMARK minimizedAffinity 3.23580647
REMARK minimizedRMSD -1
REMARK  0 active torsions:
REMARK  status: ('A' for Active; 'I' for Inactive)
ROOT
ATOM      1  C2' OXE d   1      -0.108  -1.344  -0.869  0.00  0.00     0.078 C 
ATOM      2  C1' OXE d   1       2.194  -2.142   0.525  0.00  0.00     0.078 C 
ATOM      3  C1  OXE d   1       0.971  -1.782   1.333  0.00  0.00    -0.078 A 
ATOM      4  C2  OXE d   1      -0.136  -1.348   0.644  0.00  0.00    -0.078 A 
ATOM      5  C3  OXE d   1      -1.307  -1.055   1.336  0.00  0.00     0.003 A 
ATOM      6  C4  OXE d   1      -1.321  -1.052   2.736  0.00  0.00    -0.002 A 
ATOM      7  C5  OXE d   1      -0.192  -1.452   3.459  0.00  0.00    -0.002 A 
ATOM      8  C6  OXE d   1       0.946  -1.860   2.772  0.00  0.00     0.003 A 
ENDROOT
TORSDOF 0
ENDMDL
