MODEL 1
REMARK minimizedAffinity 6.47040796
REMARK minimizedRMSD -1
REMARK  0 active torsions:
REMARK  status: ('A' for Active; 'I' for Inactive)
ROOT
ATOM      1  C2' OXE d   1       5.954   0.826  -1.793  0.00  0.00     0.078 C 
ATOM      2  C1' OXE d   1       6.000   2.631  -3.942  0.00  0.00     0.078 C 
ATOM      3  C1  OXE d   1       5.962   1.157  -4.262  0.00  0.00    -0.078 A 
ATOM      4  C2  OXE d   1       5.987   0.280  -3.204  0.00  0.00    -0.078 A 
ATOM      5  C3  OXE d   1       5.900  -1.089  -3.442  0.00  0.00     0.003 A 
ATOM      6  C4  OXE d   1       5.941  -1.585  -4.750  0.00  0.00    -0.002 A 
ATOM      7  C5  OXE d   1       5.956  -0.710  -5.841  0.00  0.00    -0.002 A 
ATOM      8  C6  OXE d   1       5.924   0.661  -5.616  0.00  0.00     0.003 A 
ENDROOT
TORSDOF 0
ENDMDL
