MODEL 1
REMARK minimizedAffinity 8.17092323
REMARK minimizedRMSD -1
REMARK  0 active torsions:
REMARK  status: ('A' for Active; 'I' for Inactive)
ROOT
ATOM      1  C2' OXE d   1      -3.718   2.045  -2.687  0.00  0.00     0.078 C 
ATOM      2  C1' OXE d   1      -1.826   3.441  -4.221  0.00  0.00     0.078 C 
ATOM      3  C1  OXE d   1      -3.283   3.774  -4.426  0.00  0.00    -0.078 A 
ATOM      4  C2  OXE d   1      -4.204   3.054  -3.705  0.00  0.00    -0.078 A 
ATOM      5  C3  OXE d   1      -5.558   3.359  -3.816  0.00  0.00     0.003 A 
ATOM      6  C4  OXE d   1      -6.000   4.286  -4.767  0.00  0.00    -0.002 A 
ATOM      7  C5  OXE d   1      -5.080   5.003  -5.540  0.00  0.00    -0.002 A 
ATOM      8  C6  OXE d   1      -3.719   4.790  -5.352  0.00  0.00     0.003 A 
ENDROOT
TORSDOF 0
ENDMDL
