MODEL 1
REMARK minimizedAffinity -0.227076218
REMARK minimizedRMSD -1
REMARK  0 active torsions:
REMARK  status: ('A' for Active; 'I' for Inactive)
ROOT
ATOM      1  C2' OXE d   1       1.556   2.006  -2.726  0.00  0.00     0.078 C 
ATOM      2  C1' OXE d   1       2.440   1.995  -0.061  0.00  0.00     0.078 C 
ATOM      3  C1  OXE d   1       1.745   0.759  -0.577  0.00  0.00    -0.078 A 
ATOM      4  C2  OXE d   1       1.274   0.791  -1.868  0.00  0.00    -0.078 A 
ATOM      5  C3  OXE d   1       0.675  -0.342  -2.411  0.00  0.00     0.003 A 
ATOM      6  C4  OXE d   1       0.409  -1.458  -1.607  0.00  0.00    -0.002 A 
ATOM      7  C5  OXE d   1       0.845  -1.495  -0.279  0.00  0.00    -0.002 A 
ATOM      8  C6  OXE d   1       1.551  -0.414   0.238  0.00  0.00     0.003 A 
ENDROOT
TORSDOF 0
ENDMDL
