MODEL 1
REMARK minimizedAffinity 10.005599
REMARK minimizedRMSD -1
REMARK  1 active torsions:
REMARK  status: ('A' for Active; 'I' for Inactive)
REMARK    1  A    between atoms: C1_2  and  C2_3 
ROOT
ATOM      1  C2  UNL d   1       1.326   2.995   0.897  0.00  0.00    -0.073 A 
ATOM      2  C3  UNL d   1       0.630   2.564   2.033  0.00  0.00    -0.002 A 
ATOM      3  C4  UNL d   1       0.510   1.202   2.310  0.00  0.00     0.004 A 
ATOM      4  C5  UNL d   1       1.089   0.258   1.462  0.00  0.00    -0.004 A 
ATOM      5  C6  UNL d   1       1.798   0.670   0.329  0.00  0.00    -0.075 A 
ATOM      6  C7  UNL d   1       2.425  -0.333  -0.595  0.00  0.00     0.076 C 
ATOM      7  C8  UNL d   1       1.913   2.039   0.055  0.00  0.00     0.001 A 
ENDROOT
BRANCH   1   8
ATOM      8  C1  UNL d   1       1.465   4.465   0.597  0.00  0.00     0.053 C 
ATOM      9  C   UNL d   1       2.756   5.042   1.155  0.00  0.00     0.018 C 
ENDBRANCH   1   8
TORSDOF 1
ENDMDL
