MODEL 1
REMARK minimizedAffinity 5.63750172
REMARK minimizedRMSD -1
REMARK  1 active torsions:
REMARK  status: ('A' for Active; 'I' for Inactive)
REMARK    1  A    between atoms: C1_2  and  C2_3 
ROOT
ATOM      1  C2  UNL d   1       1.205   2.127   1.423  0.00  0.00    -0.073 A 
ATOM      2  C3  UNL d   1       2.413   2.833   1.396  0.00  0.00    -0.002 A 
ATOM      3  C4  UNL d   1       3.484   2.368   0.633  0.00  0.00     0.004 A 
ATOM      4  C5  UNL d   1       3.358   1.198  -0.115  0.00  0.00    -0.004 A 
ATOM      5  C6  UNL d   1       2.155   0.484  -0.111  0.00  0.00    -0.075 A 
ATOM      6  C7  UNL d   1       2.003  -0.778  -0.908  0.00  0.00     0.076 C 
ATOM      7  C8  UNL d   1       1.084   0.957   0.660  0.00  0.00     0.001 A 
ENDROOT
BRANCH   1   8
ATOM      8  C1  UNL d   1       0.042   2.629   2.240  0.00  0.00     0.053 C 
ATOM      9  C   UNL d   1      -0.934   1.516   2.586  0.00  0.00     0.018 C 
ENDBRANCH   1   8
TORSDOF 1
ENDMDL
