MODEL 1
REMARK minimizedAffinity 9.3696394
REMARK minimizedRMSD -1
REMARK  1 active torsions:
REMARK  status: ('A' for Active; 'I' for Inactive)
REMARK    1  A    between atoms: C1_2  and  C2_3 
ROOT
ATOM      1  C2  UNL d   1       4.693   3.698  -3.718  0.00  0.00    -0.073 A 
ATOM      2  C3  UNL d   1       5.866   4.264  -4.230  0.00  0.00    -0.002 A 
ATOM      3  C4  UNL d   1       5.804   5.377  -5.069  0.00  0.00     0.004 A 
ATOM      4  C5  UNL d   1       4.571   5.939  -5.400  0.00  0.00    -0.004 A 
ATOM      5  C6  UNL d   1       3.388   5.395  -4.890  0.00  0.00    -0.075 A 
ATOM      6  C7  UNL d   1       2.054   5.987  -5.238  0.00  0.00     0.076 C 
ATOM      7  C8  UNL d   1       3.458   4.276  -4.049  0.00  0.00     0.001 A 
ENDROOT
BRANCH   1   8
ATOM      8  C1  UNL d   1       4.755   2.500  -2.807  0.00  0.00     0.053 C 
ATOM      9  C   UNL d   1       5.753   1.463  -3.296  0.00  0.00     0.018 C 
ENDBRANCH   1   8
TORSDOF 1
ENDMDL
