MODEL 1
REMARK minimizedAffinity 5.73220015
REMARK minimizedRMSD -1
REMARK  1 active torsions:
REMARK  status: ('A' for Active; 'I' for Inactive)
REMARK    1  A    between atoms: C1_2  and  C2_3 
ROOT
ATOM      1  C2  UNL d   1       0.890  -0.357  -0.413  0.00  0.00    -0.073 A 
ATOM      2  C3  UNL d   1       0.448  -1.030   0.731  0.00  0.00    -0.002 A 
ATOM      3  C4  UNL d   1       0.566  -0.435   1.988  0.00  0.00     0.004 A 
ATOM      4  C5  UNL d   1       1.119   0.839   2.113  0.00  0.00    -0.004 A 
ATOM      5  C6  UNL d   1       1.556   1.532   0.979  0.00  0.00    -0.075 A 
ATOM      6  C7  UNL d   1       2.155   2.903   1.096  0.00  0.00     0.076 C 
ATOM      7  C8  UNL d   1       1.437   0.927  -0.279  0.00  0.00     0.001 A 
ENDROOT
BRANCH   1   8
ATOM      8  C1  UNL d   1       0.760  -0.993  -1.773  0.00  0.00     0.053 C 
ATOM      9  C   UNL d   1      -0.125  -0.176  -2.702  0.00  0.00     0.018 C 
ENDBRANCH   1   8
TORSDOF 1
ENDMDL
