MODEL 1
REMARK minimizedAffinity 1.52971721
REMARK minimizedRMSD -1
REMARK  1 active torsions:
REMARK  status: ('A' for Active; 'I' for Inactive)
REMARK    1  A    between atoms: C1_2  and  C2_3 
ROOT
ATOM      1  C2  UNL d   1       0.970   0.965   1.858  0.00  0.00    -0.073 A 
ATOM      2  C3  UNL d   1       1.560   2.218   1.656  0.00  0.00    -0.002 A 
ATOM      3  C4  UNL d   1       2.552   2.383   0.689  0.00  0.00     0.004 A 
ATOM      4  C5  UNL d   1       2.959   1.301  -0.090  0.00  0.00    -0.004 A 
ATOM      5  C6  UNL d   1       2.374   0.043   0.088  0.00  0.00    -0.075 A 
ATOM      6  C7  UNL d   1       2.803  -1.132  -0.741  0.00  0.00     0.076 C 
ATOM      7  C8  UNL d   1       1.380  -0.115   1.063  0.00  0.00     0.001 A 
ENDROOT
BRANCH   1   8
ATOM      8  C1  UNL d   1      -0.106   0.784   2.897  0.00  0.00     0.053 C 
ATOM      9  C   UNL d   1      -1.311   1.672   2.630  0.00  0.00     0.018 C 
ENDBRANCH   1   8
TORSDOF 1
ENDMDL
