MODEL 1
REMARK minimizedAffinity 8.7030592
REMARK minimizedRMSD -1
REMARK  1 active torsions:
REMARK  status: ('A' for Active; 'I' for Inactive)
REMARK    1  A    between atoms: C1_2  and  C2_3 
ROOT
ATOM      1  C2  UNL d   1      -1.287   2.137   2.623  0.00  0.00    -0.073 A 
ATOM      2  C3  UNL d   1      -0.757   3.081   1.736  0.00  0.00    -0.002 A 
ATOM      3  C4  UNL d   1       0.624   3.202   1.577  0.00  0.00     0.004 A 
ATOM      4  C5  UNL d   1       1.488   2.377   2.298  0.00  0.00    -0.004 A 
ATOM      5  C6  UNL d   1       0.977   1.420   3.181  0.00  0.00    -0.075 A 
ATOM      6  C7  UNL d   1       1.893   0.527   3.965  0.00  0.00     0.076 C 
ATOM      7  C8  UNL d   1      -0.411   1.307   3.336  0.00  0.00     0.001 A 
ENDROOT
BRANCH   1   8
ATOM      8  C1  UNL d   1      -2.778   1.999   2.792  0.00  0.00     0.053 C 
ATOM      9  C   UNL d   1      -3.203   0.546   2.933  0.00  0.00     0.018 C 
ENDBRANCH   1   8
TORSDOF 1
ENDMDL
