MODEL 1
REMARK minimizedAffinity 17.7986813
REMARK minimizedRMSD -1
REMARK  1 active torsions:
REMARK  status: ('A' for Active; 'I' for Inactive)
REMARK    1  A    between atoms: C1_2  and  C2_3 
ROOT
ATOM      1  C2  UNL d   1      -2.346  -5.627  -4.677  0.00  0.00    -0.073 A 
ATOM      2  C3  UNL d   1      -1.726  -5.588  -3.423  0.00  0.00    -0.002 A 
ATOM      3  C4  UNL d   1      -2.486  -5.405  -2.267  0.00  0.00     0.004 A 
ATOM      4  C5  UNL d   1      -3.871  -5.267  -2.352  0.00  0.00    -0.004 A 
ATOM      5  C6  UNL d   1      -4.510  -5.316  -3.595  0.00  0.00    -0.075 A 
ATOM      6  C7  UNL d   1      -5.999  -5.167  -3.704  0.00  0.00     0.076 C 
ATOM      7  C8  UNL d   1      -3.740  -5.497  -4.752  0.00  0.00     0.001 A 
ENDROOT
BRANCH   1   8
ATOM      8  C1  UNL d   1      -1.530  -5.831  -5.928  0.00  0.00     0.053 C 
ATOM      9  C   UNL d   1      -0.349  -4.876  -6.000  0.00  0.00     0.018 C 
ENDBRANCH   1   8
TORSDOF 1
ENDMDL
