MODEL 1
REMARK minimizedAffinity 9.10583496
REMARK minimizedRMSD -1
REMARK  1 active torsions:
REMARK  status: ('A' for Active; 'I' for Inactive)
REMARK    1  A    between atoms: C1_2  and  C2_3 
ROOT
ATOM      1  C2  UNL d   1       0.941   1.957   2.104  0.00  0.00    -0.073 A 
ATOM      2  C3  UNL d   1       1.007   3.314   1.769  0.00  0.00    -0.002 A 
ATOM      3  C4  UNL d   1       2.010   3.782   0.918  0.00  0.00     0.004 A 
ATOM      4  C5  UNL d   1       2.950   2.898   0.389  0.00  0.00    -0.004 A 
ATOM      5  C6  UNL d   1       2.894   1.536   0.703  0.00  0.00    -0.075 A 
ATOM      6  C7  UNL d   1       3.899   0.573   0.144  0.00  0.00     0.076 C 
ATOM      7  C8  UNL d   1       1.886   1.075   1.560  0.00  0.00     0.001 A 
ENDROOT
BRANCH   1   8
ATOM      8  C1  UNL d   1      -0.144   1.446   3.017  0.00  0.00     0.053 C 
ATOM      9  C   UNL d   1      -1.368   2.347   3.007  0.00  0.00     0.018 C 
ENDBRANCH   1   8
TORSDOF 1
ENDMDL
