MODEL 1
REMARK minimizedAffinity 6.20402527
REMARK minimizedRMSD -1
REMARK  1 active torsions:
REMARK  status: ('A' for Active; 'I' for Inactive)
REMARK    1  A    between atoms: C1_2  and  C2_3 
ROOT
ATOM      1  C2  UNL d   1       1.693   0.649  -0.471  0.00  0.00    -0.073 A 
ATOM      2  C3  UNL d   1       1.518  -0.623  -1.029  0.00  0.00    -0.002 A 
ATOM      3  C4  UNL d   1       0.908  -0.767  -2.276  0.00  0.00     0.004 A 
ATOM      4  C5  UNL d   1       0.476   0.356  -2.980  0.00  0.00    -0.004 A 
ATOM      5  C6  UNL d   1       0.653   1.636  -2.445  0.00  0.00    -0.075 A 
ATOM      6  C7  UNL d   1       0.191   2.854  -3.189  0.00  0.00     0.076 C 
ATOM      7  C8  UNL d   1       1.263   1.773  -1.191  0.00  0.00     0.001 A 
ENDROOT
BRANCH   1   8
ATOM      8  C1  UNL d   1       2.357   0.810   0.872  0.00  0.00     0.053 C 
ATOM      9  C   UNL d   1       1.616   1.799   1.758  0.00  0.00     0.018 C 
ENDBRANCH   1   8
TORSDOF 1
ENDMDL
