MODEL 1
REMARK minimizedAffinity -4.40128803
REMARK minimizedRMSD -1
REMARK  0 active torsions:
REMARK  status: ('A' for Active; 'I' for Inactive)
ROOT
ATOM      1  O1  BZF d   1       0.753   0.049   0.357  0.00  0.00    -0.204 OA
ATOM      2  C2  BZF d   1       0.986  -1.180  -0.228  0.00  0.00     0.174 A 
ATOM      3  C3  BZF d   1       0.089  -1.423  -1.205  0.00  0.00    -0.012 A 
ATOM      4  C3A BZF d   1      -0.702  -0.234  -1.294  0.00  0.00    -0.107 A 
ATOM      5  C4  BZF d   1      -1.746   0.142  -2.089  0.00  0.00     0.055 A 
ATOM      6  C5  BZF d   1      -2.343   1.344  -1.872  0.00  0.00    -0.016 A 
ATOM      7  C6  BZF d   1      -1.925   2.190  -0.866  0.00  0.00     0.022 A 
ATOM      8  C7  BZF d   1      -0.891   1.863  -0.054  0.00  0.00     0.029 A 
ATOM      9  C7A BZF d   1      -0.264   0.664  -0.293  0.00  0.00     0.058 A 
ENDROOT
TORSDOF 0
ENDMDL
