MODEL 1
REMARK minimizedAffinity -3.86323643
REMARK minimizedRMSD -1
REMARK  0 active torsions:
REMARK  status: ('A' for Active; 'I' for Inactive)
ROOT
ATOM      1  O1  BZF d   1      -1.392   0.107  -0.131  0.00  0.00    -0.204 OA
ATOM      2  C2  BZF d   1      -1.570   1.399  -0.586  0.00  0.00     0.174 A 
ATOM      3  C3  BZF d   1      -0.387   2.040  -0.679  0.00  0.00    -0.012 A 
ATOM      4  C3A BZF d   1       0.600   1.060  -0.344  0.00  0.00    -0.107 A 
ATOM      5  C4  BZF d   1       1.963   1.087  -0.272  0.00  0.00     0.055 A 
ATOM      6  C5  BZF d   1       2.624  -0.021   0.158  0.00  0.00    -0.016 A 
ATOM      7  C6  BZF d   1       1.954  -1.168   0.528  0.00  0.00     0.022 A 
ATOM      8  C7  BZF d   1       0.602  -1.244   0.469  0.00  0.00     0.029 A 
ATOM      9  C7A BZF d   1      -0.067  -0.138   0.004  0.00  0.00     0.058 A 
ENDROOT
TORSDOF 0
ENDMDL
