MODEL 1
REMARK minimizedAffinity 1.1763829
REMARK minimizedRMSD -1
REMARK  0 active torsions:
REMARK  status: ('A' for Active; 'I' for Inactive)
ROOT
ATOM      1  O1  BZF d   1      -1.079  -2.164   1.733  0.00  0.00    -0.204 OA
ATOM      2  C2  BZF d   1      -1.828  -1.023   1.947  0.00  0.00     0.174 A 
ATOM      3  C3  BZF d   1      -1.217   0.056   1.418  0.00  0.00    -0.012 A 
ATOM      4  C3A BZF d   1      -0.056  -0.455   0.757  0.00  0.00    -0.107 A 
ATOM      5  C4  BZF d   1       0.945   0.127   0.032  0.00  0.00     0.055 A 
ATOM      6  C5  BZF d   1       1.971  -0.644  -0.415  0.00  0.00    -0.016 A 
ATOM      7  C6  BZF d   1       2.031  -1.996  -0.152  0.00  0.00     0.022 A 
ATOM      8  C7  BZF d   1       1.060  -2.620   0.558  0.00  0.00     0.029 A 
ATOM      9  C7A BZF d   1       0.005  -1.850   0.984  0.00  0.00     0.058 A 
ENDROOT
TORSDOF 0
ENDMDL
