MODEL 1
REMARK minimizedAffinity -2.79041862
REMARK minimizedRMSD -1
REMARK  0 active torsions:
REMARK  status: ('A' for Active; 'I' for Inactive)
ROOT
ATOM      1  O1  BZF d   1      -1.655  -0.602  -0.462  0.00  0.00    -0.204 OA
ATOM      2  C2  BZF d   1      -1.766   0.655  -1.025  0.00  0.00     0.174 A 
ATOM      3  C3  BZF d   1      -0.582   1.300  -0.992  0.00  0.00    -0.012 A 
ATOM      4  C3A BZF d   1       0.347   0.355  -0.452  0.00  0.00    -0.107 A 
ATOM      5  C4  BZF d   1       1.686   0.401  -0.187  0.00  0.00     0.055 A 
ATOM      6  C5  BZF d   1       2.278  -0.668   0.408  0.00  0.00    -0.016 A 
ATOM      7  C6  BZF d   1       1.562  -1.794   0.757  0.00  0.00     0.022 A 
ATOM      8  C7  BZF d   1       0.233  -1.887   0.510  0.00  0.00     0.029 A 
ATOM      9  C7A BZF d   1      -0.362  -0.823  -0.121  0.00  0.00     0.058 A 
ENDROOT
TORSDOF 0
ENDMDL
