MODEL 1
REMARK minimizedAffinity -3.15047812
REMARK minimizedRMSD -1
REMARK  0 active torsions:
REMARK  status: ('A' for Active; 'I' for Inactive)
ROOT
ATOM      1  O1  BZF d   1       2.338  -1.757   0.751  0.00  0.00    -0.204 OA
ATOM      2  C2  BZF d   1       1.655  -2.818   1.314  0.00  0.00     0.174 A 
ATOM      3  C3  BZF d   1       0.323  -2.638   1.208  0.00  0.00    -0.012 A 
ATOM      4  C3A BZF d   1       0.163  -1.432   0.456  0.00  0.00    -0.107 A 
ATOM      5  C4  BZF d   1      -0.927  -0.739   0.012  0.00  0.00     0.055 A 
ATOM      6  C5  BZF d   1      -0.740   0.443  -0.632  0.00  0.00    -0.016 A 
ATOM      7  C6  BZF d   1       0.519   0.963  -0.845  0.00  0.00     0.022 A 
ATOM      8  C7  BZF d   1       1.631   0.310  -0.427  0.00  0.00     0.029 A 
ATOM      9  C7A BZF d   1       1.448  -0.900   0.195  0.00  0.00     0.058 A 
ENDROOT
TORSDOF 0
ENDMDL
