MODEL 1
REMARK minimizedAffinity -3.99579382
REMARK minimizedRMSD -1
REMARK  0 active torsions:
REMARK  status: ('A' for Active; 'I' for Inactive)
ROOT
ATOM      1  O1  BZF d   1       0.899  -1.741   1.164  0.00  0.00    -0.204 OA
ATOM      2  C2  BZF d   1       1.922  -1.582   0.249  0.00  0.00     0.174 A 
ATOM      3  C3  BZF d   1       1.695  -0.513  -0.542  0.00  0.00    -0.012 A 
ATOM      4  C3A BZF d   1       0.498   0.083  -0.033  0.00  0.00    -0.107 A 
ATOM      5  C4  BZF d   1      -0.227   1.185  -0.388  0.00  0.00     0.055 A 
ATOM      6  C5  BZF d   1      -1.388   1.451   0.266  0.00  0.00    -0.016 A 
ATOM      7  C6  BZF d   1      -1.856   0.636   1.275  0.00  0.00     0.022 A 
ATOM      8  C7  BZF d   1      -1.169  -0.465   1.667  0.00  0.00     0.029 A 
ATOM      9  C7A BZF d   1       0.021  -0.719   1.030  0.00  0.00     0.058 A 
ENDROOT
TORSDOF 0
ENDMDL
