MODEL 1
REMARK minimizedAffinity -3.74611259
REMARK minimizedRMSD -1
REMARK  0 active torsions:
REMARK  status: ('A' for Active; 'I' for Inactive)
ROOT
ATOM      1  O1  BZF d   1      -2.980   1.334  -4.732  0.00  0.00    -0.204 OA
ATOM      2  C2  BZF d   1      -4.038   0.940  -3.936  0.00  0.00     0.174 A 
ATOM      3  C3  BZF d   1      -3.779   1.192  -2.636  0.00  0.00    -0.012 A 
ATOM      4  C3A BZF d   1      -2.516   1.865  -2.628  0.00  0.00    -0.107 A 
ATOM      5  C4  BZF d   1      -1.735   2.384  -1.635  0.00  0.00     0.055 A 
ATOM      6  C5  BZF d   1      -0.524   2.911  -1.955  0.00  0.00    -0.016 A 
ATOM      7  C6  BZF d   1      -0.060   2.929  -3.254  0.00  0.00     0.022 A 
ATOM      8  C7  BZF d   1      -0.801   2.431  -4.273  0.00  0.00     0.029 A 
ATOM      9  C7A BZF d   1      -2.039   1.928  -3.958  0.00  0.00     0.058 A 
ENDROOT
TORSDOF 0
ENDMDL
