MODEL 1
REMARK minimizedAffinity -3.37288904
REMARK minimizedRMSD -1
REMARK  0 active torsions:
REMARK  status: ('A' for Active; 'I' for Inactive)
ROOT
ATOM      1  O1  BZF d   1      -0.581  -0.339  -1.681  0.00  0.00    -0.204 OA
ATOM      2  C2  BZF d   1      -0.879   0.916  -1.185  0.00  0.00     0.174 A 
ATOM      3  C3  BZF d   1      -0.186   1.160  -0.054  0.00  0.00    -0.012 A 
ATOM      4  C3A BZF d   1       0.662   0.021   0.121  0.00  0.00    -0.107 A 
ATOM      5  C4  BZF d   1       1.597  -0.318   1.057  0.00  0.00     0.055 A 
ATOM      6  C5  BZF d   1       2.195  -1.536   0.982  0.00  0.00    -0.016 A 
ATOM      7  C6  BZF d   1       1.880  -2.440  -0.012  0.00  0.00     0.022 A 
ATOM      8  C7  BZF d   1       0.963  -2.146  -0.966  0.00  0.00     0.029 A 
ATOM      9  C7A BZF d   1       0.381  -0.903  -0.911  0.00  0.00     0.058 A 
ENDROOT
TORSDOF 0
ENDMDL
