MODEL 1
REMARK minimizedAffinity -2.05068827
REMARK minimizedRMSD -1
REMARK  0 active torsions:
REMARK  status: ('A' for Active; 'I' for Inactive)
ROOT
ATOM      1  O1  BZF d   1      -0.844  -0.003  -2.082  0.00  0.00    -0.204 OA
ATOM      2  C2  BZF d   1      -1.503   0.976  -1.364  0.00  0.00     0.174 A 
ATOM      3  C3  BZF d   1      -1.126   0.956  -0.069  0.00  0.00    -0.012 A 
ATOM      4  C3A BZF d   1      -0.103  -0.041   0.009  0.00  0.00    -0.107 A 
ATOM      5  C4  BZF d   1       0.673  -0.512   1.030  0.00  0.00     0.055 A 
ATOM      6  C5  BZF d   1       1.526  -1.542   0.790  0.00  0.00    -0.016 A 
ATOM      7  C6  BZF d   1       1.626  -2.127  -0.455  0.00  0.00     0.022 A 
ATOM      8  C7  BZF d   1       0.880  -1.691  -1.500  0.00  0.00     0.029 A 
ATOM      9  C7A BZF d   1       0.041  -0.629  -1.268  0.00  0.00     0.058 A 
ENDROOT
TORSDOF 0
ENDMDL
