MODEL 1
REMARK minimizedAffinity -3.25751615
REMARK minimizedRMSD -1
REMARK  0 active torsions:
REMARK  status: ('A' for Active; 'I' for Inactive)
ROOT
ATOM      1  O1  BZF d   1      -1.403   0.613  -3.748  0.00  0.00    -0.204 OA
ATOM      2  C2  BZF d   1      -2.244   1.701  -3.620  0.00  0.00     0.174 A 
ATOM      3  C3  BZF d   1      -2.226   2.174  -2.357  0.00  0.00    -0.012 A 
ATOM      4  C3A BZF d   1      -1.247   1.386  -1.674  0.00  0.00    -0.107 A 
ATOM      5  C4  BZF d   1      -0.765   1.388  -0.396  0.00  0.00     0.055 A 
ATOM      6  C5  BZF d   1       0.136   0.439  -0.029  0.00  0.00    -0.016 A 
ATOM      7  C6  BZF d   1       0.573  -0.527  -0.910  0.00  0.00     0.022 A 
ATOM      8  C7  BZF d   1       0.127  -0.567  -2.190  0.00  0.00     0.029 A 
ATOM      9  C7A BZF d   1      -0.759   0.410  -2.573  0.00  0.00     0.058 A 
ENDROOT
TORSDOF 0
ENDMDL
