MODEL 1
REMARK minimizedAffinity -3.33164334
REMARK minimizedRMSD -1
REMARK  0 active torsions:
REMARK  status: ('A' for Active; 'I' for Inactive)
ROOT
ATOM      1  O1  BZF d   1      -0.565   0.354   0.553  0.00  0.00    -0.204 OA
ATOM      2  C2  BZF d   1       0.104   0.682  -0.610  0.00  0.00     0.174 A 
ATOM      3  C3  BZF d   1       1.101  -0.194  -0.852  0.00  0.00    -0.012 A 
ATOM      4  C3A BZF d   1       0.993  -1.180   0.179  0.00  0.00    -0.107 A 
ATOM      5  C4  BZF d   1       1.694  -2.316   0.468  0.00  0.00     0.055 A 
ATOM      6  C5  BZF d   1       1.381  -3.018   1.589  0.00  0.00    -0.016 A 
ATOM      7  C6  BZF d   1       0.378  -2.611   2.444  0.00  0.00     0.022 A 
ATOM      8  C7  BZF d   1      -0.348  -1.493   2.197  0.00  0.00     0.029 A 
ATOM      9  C7A BZF d   1      -0.056  -0.800   1.048  0.00  0.00     0.058 A 
ENDROOT
TORSDOF 0
ENDMDL
