MODEL 1
REMARK minimizedAffinity -4.47343636
REMARK minimizedRMSD -1
REMARK  0 active torsions:
REMARK  status: ('A' for Active; 'I' for Inactive)
ROOT
ATOM      1  O1  BZF d   1      -1.162  -0.248   0.692  0.00  0.00    -0.204 OA
ATOM      2  C2  BZF d   1      -1.369   1.008   0.156  0.00  0.00     0.174 A 
ATOM      3  C3  BZF d   1      -0.212   1.527  -0.305  0.00  0.00    -0.012 A 
ATOM      4  C3A BZF d   1       0.762   0.495  -0.123  0.00  0.00    -0.107 A 
ATOM      5  C4  BZF d   1       2.096   0.404  -0.403  0.00  0.00     0.055 A 
ATOM      6  C5  BZF d   1       2.773  -0.715  -0.033  0.00  0.00    -0.016 A 
ATOM      7  C6  BZF d   1       2.150  -1.758   0.621  0.00  0.00     0.022 A 
ATOM      8  C7  BZF d   1       0.828  -1.715   0.915  0.00  0.00     0.029 A 
ATOM      9  C7A BZF d   1       0.134  -0.600   0.514  0.00  0.00     0.058 A 
ENDROOT
TORSDOF 0
ENDMDL
