MODEL 1
REMARK minimizedAffinity -3.99819756
REMARK minimizedRMSD -1
REMARK  0 active torsions:
REMARK  status: ('A' for Active; 'I' for Inactive)
ROOT
ATOM      1  O1  BZF d   1      -1.223  -0.075   0.294  0.00  0.00    -0.204 OA
ATOM      2  C2  BZF d   1      -0.771   1.002  -0.445  0.00  0.00     0.174 A 
ATOM      3  C3  BZF d   1       0.540   0.869  -0.731  0.00  0.00    -0.012 A 
ATOM      4  C3A BZF d   1       0.911  -0.412  -0.213  0.00  0.00    -0.107 A 
ATOM      5  C4  BZF d   1       2.080  -1.118  -0.202  0.00  0.00     0.055 A 
ATOM      6  C5  BZF d   1       2.126  -2.309   0.450  0.00  0.00    -0.016 A 
ATOM      7  C6  BZF d   1       1.025  -2.821   1.106  0.00  0.00     0.022 A 
ATOM      8  C7  BZF d   1      -0.157  -2.160   1.118  0.00  0.00     0.029 A 
ATOM      9  C7A BZF d   1      -0.216  -0.972   0.432  0.00  0.00     0.058 A 
ENDROOT
TORSDOF 0
ENDMDL
