MODEL 1
REMARK minimizedAffinity -1.94632828
REMARK minimizedRMSD -1
REMARK  0 active torsions:
REMARK  status: ('A' for Active; 'I' for Inactive)
ROOT
ATOM      1  O1  BZF d   1      -1.286  -0.178   1.367  0.00  0.00    -0.204 OA
ATOM      2  C2  BZF d   1      -1.622   0.991   0.711  0.00  0.00     0.174 A 
ATOM      3  C3  BZF d   1      -0.635   1.370  -0.126  0.00  0.00    -0.012 A 
ATOM      4  C3A BZF d   1       0.342   0.327  -0.053  0.00  0.00    -0.107 A 
ATOM      5  C4  BZF d   1       1.544   0.122  -0.668  0.00  0.00     0.055 A 
ATOM      6  C5  BZF d   1       2.287  -0.962  -0.322  0.00  0.00    -0.016 A 
ATOM      7  C6  BZF d   1       1.861  -1.857   0.637  0.00  0.00     0.022 A 
ATOM      8  C7  BZF d   1       0.674  -1.698   1.271  0.00  0.00     0.029 A 
ATOM      9  C7A BZF d   1      -0.094  -0.622   0.900  0.00  0.00     0.058 A 
ENDROOT
TORSDOF 0
ENDMDL
