MODEL 1
REMARK minimizedAffinity 2.26553512
REMARK minimizedRMSD -1
REMARK  0 active torsions:
REMARK  status: ('A' for Active; 'I' for Inactive)
ROOT
ATOM      1  O1  BZF d   1      -0.131  -2.118   1.668  0.00  0.00    -0.204 OA
ATOM      2  C2  BZF d   1       1.110  -2.719   1.590  0.00  0.00     0.174 A 
ATOM      3  C3  BZF d   1       1.933  -2.015   0.787  0.00  0.00    -0.012 A 
ATOM      4  C3A BZF d   1       1.187  -0.855   0.407  0.00  0.00    -0.107 A 
ATOM      5  C4  BZF d   1       1.471   0.231  -0.371  0.00  0.00     0.055 A 
ATOM      6  C5  BZF d   1       0.498   1.151  -0.600  0.00  0.00    -0.016 A 
ATOM      7  C6  BZF d   1      -0.769   1.015  -0.073  0.00  0.00     0.022 A 
ATOM      8  C7  BZF d   1      -1.097  -0.042   0.709  0.00  0.00     0.029 A 
ATOM      9  C7A BZF d   1      -0.106  -0.957   0.970  0.00  0.00     0.058 A 
ENDROOT
TORSDOF 0
ENDMDL
