MODEL 1
REMARK minimizedAffinity 0.0774083957
REMARK minimizedRMSD -1
REMARK  0 active torsions:
REMARK  status: ('A' for Active; 'I' for Inactive)
ROOT
ATOM      1  O1  BZF d   1       1.057  -1.748   1.487  0.00  0.00    -0.204 OA
ATOM      2  C2  BZF d   1       2.426  -1.927   1.545  0.00  0.00     0.174 A 
ATOM      3  C3  BZF d   1       3.064  -0.968   0.844  0.00  0.00    -0.012 A 
ATOM      4  C3A BZF d   1       2.034  -0.084   0.392  0.00  0.00    -0.107 A 
ATOM      5  C4  BZF d   1       2.040   1.068  -0.342  0.00  0.00     0.055 A 
ATOM      6  C5  BZF d   1       0.856   1.647  -0.673  0.00  0.00    -0.016 A 
ATOM      7  C6  BZF d   1      -0.351   1.099  -0.292  0.00  0.00     0.022 A 
ATOM      8  C7  BZF d   1      -0.408  -0.040   0.440  0.00  0.00     0.029 A 
ATOM      9  C7A BZF d   1       0.788  -0.609   0.805  0.00  0.00     0.058 A 
ENDROOT
TORSDOF 0
ENDMDL
