MODEL 1
REMARK minimizedAffinity -4.89525414
REMARK minimizedRMSD -1
REMARK  0 active torsions:
REMARK  status: ('A' for Active; 'I' for Inactive)
ROOT
ATOM      1  O1  BZF d   1      -1.252   2.518  -2.399  0.00  0.00    -0.204 OA
ATOM      2  C2  BZF d   1      -2.284   2.286  -3.288  0.00  0.00     0.174 A 
ATOM      3  C3  BZF d   1      -2.631   0.983  -3.288  0.00  0.00    -0.012 A 
ATOM      4  C3A BZF d   1      -1.825   0.379  -2.272  0.00  0.00    -0.107 A 
ATOM      5  C4  BZF d   1      -1.724  -0.894  -1.787  0.00  0.00     0.055 A 
ATOM      6  C5  BZF d   1      -0.786  -1.169  -0.843  0.00  0.00    -0.016 A 
ATOM      7  C6  BZF d   1       0.070  -0.197  -0.366  0.00  0.00     0.022 A 
ATOM      8  C7  BZF d   1       0.004   1.080  -0.813  0.00  0.00     0.029 A 
ATOM      9  C7A BZF d   1      -0.965   1.368  -1.743  0.00  0.00     0.058 A 
ENDROOT
TORSDOF 0
ENDMDL
