MODEL 1
REMARK minimizedAffinity 14.5619459
REMARK minimizedRMSD -1
REMARK  0 active torsions:
REMARK  status: ('A' for Active; 'I' for Inactive)
ROOT
ATOM      1  C1  DEN d   1      -4.936  -1.316   2.278  0.00  0.00     0.130 A 
ATOM      2  C2  DEN d   1      -3.930  -1.627   1.266  0.00  0.00    -0.031 A 
ATOM      3  C3  DEN d   1      -3.503  -0.359   0.642  0.00  0.00     0.027 A 
ATOM      4  C4  DEN d   1      -4.293   2.044   1.144  0.00  0.00     0.027 A 
ATOM      5  C5  DEN d   1      -5.142   2.809   1.913  0.00  0.00    -0.003 A 
ATOM      6  C6  DEN d   1      -6.000   2.254   2.826  0.00  0.00     0.001 A 
ATOM      7  C7  DEN d   1      -5.995   0.899   3.025  0.00  0.00     0.017 A 
ATOM      8  C8  DEN d   1      -5.147   0.121   2.249  0.00  0.00    -0.094 A 
ATOM      9  C9  DEN d   1      -4.279   0.701   1.340  0.00  0.00    -0.072 A 
ENDROOT
TORSDOF 0
ENDMDL
