MODEL 1
REMARK minimizedAffinity 15.3038473
REMARK minimizedRMSD -1
REMARK  0 active torsions:
REMARK  status: ('A' for Active; 'I' for Inactive)
ROOT
ATOM      1  C1  DEN d   1       2.939   1.258   1.096  0.00  0.00     0.130 A 
ATOM      2  C2  DEN d   1       1.764   1.667   0.331  0.00  0.00    -0.031 A 
ATOM      3  C3  DEN d   1       0.699   0.671   0.563  0.00  0.00     0.027 A 
ATOM      4  C4  DEN d   1       0.753  -1.451   2.029  0.00  0.00     0.027 A 
ATOM      5  C5  DEN d   1       1.535  -2.221   2.861  0.00  0.00    -0.003 A 
ATOM      6  C6  DEN d   1       2.840  -1.906   3.134  0.00  0.00     0.001 A 
ATOM      7  C7  DEN d   1       3.389  -0.768   2.605  0.00  0.00     0.017 A 
ATOM      8  C8  DEN d   1       2.609   0.009   1.759  0.00  0.00    -0.094 A 
ATOM      9  C9  DEN d   1       1.288  -0.319   1.505  0.00  0.00    -0.072 A 
ENDROOT
TORSDOF 0
ENDMDL
