MODEL 1
REMARK minimizedAffinity 3.63722587
REMARK minimizedRMSD -1
REMARK  0 active torsions:
REMARK  status: ('A' for Active; 'I' for Inactive)
ROOT
ATOM      1  C1  DEN d   1       5.222   0.831   1.499  0.00  0.00     0.130 A 
ATOM      2  C2  DEN d   1       5.557   0.041   2.681  0.00  0.00    -0.031 A 
ATOM      3  C3  DEN d   1       4.314  -0.575   3.186  0.00  0.00     0.027 A 
ATOM      4  C4  DEN d   1       1.915  -0.387   2.257  0.00  0.00     0.027 A 
ATOM      5  C5  DEN d   1       1.133   0.182   1.276  0.00  0.00    -0.003 A 
ATOM      6  C6  DEN d   1       1.649   1.027   0.329  0.00  0.00     0.001 A 
ATOM      7  C7  DEN d   1       2.993   1.292   0.315  0.00  0.00     0.017 A 
ATOM      8  C8  DEN d   1       3.787   0.728   1.305  0.00  0.00    -0.094 A 
ATOM      9  C9  DEN d   1       3.249  -0.133   2.246  0.00  0.00    -0.072 A 
ENDROOT
TORSDOF 0
ENDMDL
