MODEL 1
REMARK minimizedAffinity 5.8242712
REMARK minimizedRMSD -1
REMARK  0 active torsions:
REMARK  status: ('A' for Active; 'I' for Inactive)
ROOT
ATOM      1  C1  DEN d   1       4.275  -0.774   3.193  0.00  0.00     0.130 A 
ATOM      2  C2  DEN d   1       5.485  -0.107   2.721  0.00  0.00    -0.031 A 
ATOM      3  C3  DEN d   1       5.127   0.715   1.548  0.00  0.00     0.027 A 
ATOM      4  C4  DEN d   1       2.825   1.023   0.425  0.00  0.00     0.027 A 
ATOM      5  C5  DEN d   1       1.500   0.651   0.462  0.00  0.00    -0.003 A 
ATOM      6  C6  DEN d   1       1.017  -0.241   1.382  0.00  0.00     0.001 A 
ATOM      7  C7  DEN d   1       1.857  -0.756   2.334  0.00  0.00     0.017 A 
ATOM      8  C8  DEN d   1       3.197  -0.392   2.298  0.00  0.00    -0.094 A 
ATOM      9  C9  DEN d   1       3.663   0.520   1.367  0.00  0.00    -0.072 A 
ENDROOT
TORSDOF 0
ENDMDL
