MODEL 1
REMARK minimizedAffinity 3.59319091
REMARK minimizedRMSD -1
REMARK  0 active torsions:
REMARK  status: ('A' for Active; 'I' for Inactive)
ROOT
ATOM      1  C1  DEN d   1       5.296  -0.384   3.001  0.00  0.00     0.130 A 
ATOM      2  C2  DEN d   1       6.000   0.671   2.277  0.00  0.00    -0.031 A 
ATOM      3  C3  DEN d   1       5.142   1.105   1.156  0.00  0.00     0.027 A 
ATOM      4  C4  DEN d   1       2.804   0.254   0.477  0.00  0.00     0.027 A 
ATOM      5  C5  DEN d   1       1.804  -0.642   0.783  0.00  0.00    -0.003 A 
ATOM      6  C6  DEN d   1       1.910  -1.530   1.820  0.00  0.00     0.001 A 
ATOM      7  C7  DEN d   1       3.024  -1.512   2.618  0.00  0.00     0.017 A 
ATOM      8  C8  DEN d   1       4.040  -0.617   2.311  0.00  0.00    -0.094 A 
ATOM      9  C9  DEN d   1       3.908   0.282   1.266  0.00  0.00    -0.072 A 
ENDROOT
TORSDOF 0
ENDMDL
