MODEL 1
REMARK minimizedAffinity 5.13510942
REMARK minimizedRMSD -1
REMARK  0 active torsions:
REMARK  status: ('A' for Active; 'I' for Inactive)
ROOT
ATOM      1  C1  DEN d   1       3.003   1.648   0.295  0.00  0.00     0.130 A 
ATOM      2  C2  DEN d   1       4.380   2.075   0.063  0.00  0.00    -0.031 A 
ATOM      3  C3  DEN d   1       5.266   1.225   0.884  0.00  0.00     0.027 A 
ATOM      4  C4  DEN d   1       4.642  -0.705   2.477  0.00  0.00     0.027 A 
ATOM      5  C5  DEN d   1       3.598  -1.427   3.010  0.00  0.00    -0.003 A 
ATOM      6  C6  DEN d   1       2.291  -1.156   2.704  0.00  0.00     0.001 A 
ATOM      7  C7  DEN d   1       1.996  -0.164   1.806  0.00  0.00     0.017 A 
ATOM      8  C8  DEN d   1       3.043   0.574   1.270  0.00  0.00    -0.094 A 
ATOM      9  C9  DEN d   1       4.359   0.275   1.583  0.00  0.00    -0.072 A 
ENDROOT
TORSDOF 0
ENDMDL
