MODEL 1
REMARK minimizedAffinity -1.19477713
REMARK minimizedRMSD -1
REMARK  0 active torsions:
REMARK  status: ('A' for Active; 'I' for Inactive)
ROOT
ATOM      1  C1  DEN d   1       5.081  -0.540   2.891  0.00  0.00     0.130 A 
ATOM      2  C2  DEN d   1       5.997   0.407   2.262  0.00  0.00    -0.031 A 
ATOM      3  C3  DEN d   1       5.273   1.085   1.168  0.00  0.00     0.027 A 
ATOM      4  C4  DEN d   1       2.834   0.765   0.394  0.00  0.00     0.027 A 
ATOM      5  C5  DEN d   1       1.669   0.064   0.615  0.00  0.00    -0.003 A 
ATOM      6  C6  DEN d   1       1.570  -0.904   1.580  0.00  0.00     0.001 A 
ATOM      7  C7  DEN d   1       2.643  -1.165   2.390  0.00  0.00     0.017 A 
ATOM      8  C8  DEN d   1       3.824  -0.468   2.169  0.00  0.00    -0.094 A 
ATOM      9  C9  DEN d   1       3.899   0.515   1.196  0.00  0.00    -0.072 A 
ENDROOT
TORSDOF 0
ENDMDL
