MODEL 1
REMARK minimizedAffinity 7.33979416
REMARK minimizedRMSD -1
REMARK  0 active torsions:
REMARK  status: ('A' for Active; 'I' for Inactive)
ROOT
ATOM      1  C1  DEN d   1      -4.888  -3.520   2.609  0.00  0.00     0.130 A 
ATOM      2  C2  DEN d   1      -5.209  -4.847   3.126  0.00  0.00    -0.031 A 
ATOM      3  C3  DEN d   1      -4.815  -4.890   4.549  0.00  0.00     0.027 A 
ATOM      4  C4  DEN d   1      -3.747  -3.039   5.993  0.00  0.00     0.027 A 
ATOM      5  C5  DEN d   1      -3.277  -1.744   5.991  0.00  0.00    -0.003 A 
ATOM      6  C6  DEN d   1      -3.279  -0.968   4.862  0.00  0.00     0.001 A 
ATOM      7  C7  DEN d   1      -3.803  -1.466   3.698  0.00  0.00     0.017 A 
ATOM      8  C8  DEN d   1      -4.273  -2.773   3.690  0.00  0.00    -0.094 A 
ATOM      9  C9  DEN d   1      -4.273  -3.537   4.845  0.00  0.00    -0.072 A 
ENDROOT
TORSDOF 0
ENDMDL
