MODEL 1
REMARK minimizedAffinity 4.80896091
REMARK minimizedRMSD -1
REMARK  0 active torsions:
REMARK  status: ('A' for Active; 'I' for Inactive)
ROOT
ATOM      1  C1  DEN d   1      -5.922   5.049   4.604  0.00  0.00     0.130 A 
ATOM      2  C2  DEN d   1      -5.999   4.600   5.991  0.00  0.00    -0.031 A 
ATOM      3  C3  DEN d   1      -5.915   3.126   6.000  0.00  0.00     0.027 A 
ATOM      4  C4  DEN d   1      -5.670   1.503   4.010  0.00  0.00     0.027 A 
ATOM      5  C5  DEN d   1      -5.575   1.415   2.639  0.00  0.00    -0.003 A 
ATOM      6  C6  DEN d   1      -5.623   2.520   1.831  0.00  0.00     0.001 A 
ATOM      7  C7  DEN d   1      -5.724   3.766   2.390  0.00  0.00     0.017 A 
ATOM      8  C8  DEN d   1      -5.828   3.863   3.772  0.00  0.00    -0.094 A 
ATOM      9  C9  DEN d   1      -5.766   2.735   4.572  0.00  0.00    -0.072 A 
ENDROOT
TORSDOF 0
ENDMDL
