MODEL 1
REMARK minimizedAffinity 9.06010818
REMARK minimizedRMSD -1
REMARK  0 active torsions:
REMARK  status: ('A' for Active; 'I' for Inactive)
ROOT
ATOM      1  C1  DEN d   1      -5.999   1.649   2.767  0.00  0.00     0.130 A 
ATOM      2  C2  DEN d   1      -5.692   3.063   2.572  0.00  0.00    -0.031 A 
ATOM      3  C3  DEN d   1      -4.532   3.158   1.663  0.00  0.00     0.027 A 
ATOM      4  C4  DEN d   1      -3.191   1.262   0.541  0.00  0.00     0.027 A 
ATOM      5  C5  DEN d   1      -3.070  -0.105   0.414  0.00  0.00    -0.003 A 
ATOM      6  C6  DEN d   1      -3.887  -0.975   1.084  0.00  0.00     0.001 A 
ATOM      7  C7  DEN d   1      -4.893  -0.489   1.877  0.00  0.00     0.017 A 
ATOM      8  C8  DEN d   1      -5.017   0.887   2.015  0.00  0.00    -0.094 A 
ATOM      9  C9  DEN d   1      -4.189   1.751   1.320  0.00  0.00    -0.072 A 
ENDROOT
TORSDOF 0
ENDMDL
