MODEL 1
REMARK minimizedAffinity 12.3927288
REMARK minimizedRMSD -1
REMARK  0 active torsions:
REMARK  status: ('A' for Active; 'I' for Inactive)
ROOT
ATOM      1  C1  DEN d   1       5.567   0.817   1.876  0.00  0.00     0.130 A 
ATOM      2  C2  DEN d   1       6.000   0.003   3.009  0.00  0.00    -0.031 A 
ATOM      3  C3  DEN d   1       4.834  -0.762   3.494  0.00  0.00     0.027 A 
ATOM      4  C4  DEN d   1       2.414  -0.770   2.600  0.00  0.00     0.027 A 
ATOM      5  C5  DEN d   1       1.563  -0.233   1.660  0.00  0.00    -0.003 A 
ATOM      6  C6  DEN d   1       1.975   0.709   0.755  0.00  0.00     0.001 A 
ATOM      7  C7  DEN d   1       3.285   1.110   0.742  0.00  0.00     0.017 A 
ATOM      8  C8  DEN d   1       4.147   0.578   1.692  0.00  0.00    -0.094 A 
ATOM      9  C9  DEN d   1       3.714  -0.382   2.590  0.00  0.00    -0.072 A 
ENDROOT
TORSDOF 0
ENDMDL
