MODEL 1
REMARK minimizedAffinity 13.8466444
REMARK minimizedRMSD -1
REMARK  0 active torsions:
REMARK  status: ('A' for Active; 'I' for Inactive)
ROOT
ATOM      1  C1  DEN d   1      -0.312  -0.675  -2.919  0.00  0.00     0.130 A 
ATOM      2  C2  DEN d   1      -1.447  -1.390  -2.342  0.00  0.00    -0.031 A 
ATOM      3  C3  DEN d   1      -2.653  -0.558  -2.528  0.00  0.00     0.027 A 
ATOM      4  C4  DEN d   1      -2.872   1.754  -3.651  0.00  0.00     0.027 A 
ATOM      5  C5  DEN d   1      -2.181   2.767  -4.279  0.00  0.00    -0.003 A 
ATOM      6  C6  DEN d   1      -0.825   2.719  -4.466  0.00  0.00     0.001 A 
ATOM      7  C7  DEN d   1      -0.122   1.615  -4.060  0.00  0.00     0.017 A 
ATOM      8  C8  DEN d   1      -0.811   0.593  -3.419  0.00  0.00    -0.094 A 
ATOM      9  C9  DEN d   1      -2.183   0.655  -3.251  0.00  0.00    -0.072 A 
ENDROOT
TORSDOF 0
ENDMDL
