MODEL 1
REMARK minimizedAffinity 23.8508205
REMARK minimizedRMSD -1
REMARK  0 active torsions:
REMARK  status: ('A' for Active; 'I' for Inactive)
ROOT
ATOM      1  C1  DEN d   1      -0.015  -0.242  -2.554  0.00  0.00     0.130 A 
ATOM      2  C2  DEN d   1       1.426  -0.008  -2.587  0.00  0.00    -0.031 A 
ATOM      3  C3  DEN d   1       1.663   1.290  -3.250  0.00  0.00     0.027 A 
ATOM      4  C4  DEN d   1      -0.053   2.955  -4.217  0.00  0.00     0.027 A 
ATOM      5  C5  DEN d   1      -1.394   3.187  -4.433  0.00  0.00    -0.003 A 
ATOM      6  C6  DEN d   1      -2.358   2.284  -4.071  0.00  0.00     0.001 A 
ATOM      7  C7  DEN d   1      -1.999   1.127  -3.433  0.00  0.00     0.017 A 
ATOM      8  C8  DEN d   1      -0.649   0.882  -3.218  0.00  0.00    -0.094 A 
ATOM      9  C9  DEN d   1       0.310   1.813  -3.581  0.00  0.00    -0.072 A 
ENDROOT
TORSDOF 0
ENDMDL
