MODEL 1
REMARK minimizedAffinity 13.4185247
REMARK minimizedRMSD -1
REMARK  0 active torsions:
REMARK  status: ('A' for Active; 'I' for Inactive)
ROOT
ATOM      1  C1  DEN d   1      -1.929   2.546  -4.142  0.00  0.00     0.130 A 
ATOM      2  C2  DEN d   1      -0.831   3.322  -4.711  0.00  0.00    -0.031 A 
ATOM      3  C3  DEN d   1       0.401   2.513  -4.609  0.00  0.00     0.027 A 
ATOM      4  C4  DEN d   1       0.710   0.146  -3.632  0.00  0.00     0.027 A 
ATOM      5  C5  DEN d   1       0.069  -0.909  -3.021  0.00  0.00    -0.003 A 
ATOM      6  C6  DEN d   1      -1.265  -0.873  -2.713  0.00  0.00     0.001 A 
ATOM      7  C7  DEN d   1      -2.011   0.223  -3.055  0.00  0.00     0.017 A 
ATOM      8  C8  DEN d   1      -1.370   1.294  -3.665  0.00  0.00    -0.094 A 
ATOM      9  C9  DEN d   1      -0.023   1.233  -3.979  0.00  0.00    -0.072 A 
ENDROOT
TORSDOF 0
ENDMDL
