MODEL 1
REMARK minimizedAffinity 9.29226494
REMARK minimizedRMSD -1
REMARK  0 active torsions:
REMARK  status: ('A' for Active; 'I' for Inactive)
ROOT
ATOM      1  C1  DEN d   1      -1.863  -5.040   2.795  0.00  0.00     0.130 A 
ATOM      2  C2  DEN d   1      -0.826  -5.997   2.419  0.00  0.00    -0.031 A 
ATOM      3  C3  DEN d   1      -0.277  -5.583   1.112  0.00  0.00     0.027 A 
ATOM      4  C4  DEN d   1      -0.925  -3.562  -0.355  0.00  0.00     0.027 A 
ATOM      5  C5  DEN d   1      -1.761  -2.473  -0.458  0.00  0.00    -0.003 A 
ATOM      6  C6  DEN d   1      -2.706  -2.185   0.491  0.00  0.00     0.001 A 
ATOM      7  C7  DEN d   1      -2.806  -2.970   1.609  0.00  0.00     0.017 A 
ATOM      8  C8  DEN d   1      -1.971  -4.075   1.717  0.00  0.00    -0.094 A 
ATOM      9  C9  DEN d   1      -1.015  -4.342   0.752  0.00  0.00    -0.072 A 
ENDROOT
TORSDOF 0
ENDMDL
