MODEL 1
REMARK minimizedAffinity 25.2411613
REMARK minimizedRMSD -1
REMARK  0 active torsions:
REMARK  status: ('A' for Active; 'I' for Inactive)
ROOT
ATOM      1  C1  DEN d   1      -5.829   4.746  -5.947  0.00  0.00     0.130 A 
ATOM      2  C2  DEN d   1      -5.868   5.988  -5.180  0.00  0.00    -0.031 A 
ATOM      3  C3  DEN d   1      -4.707   5.998  -4.268  0.00  0.00     0.027 A 
ATOM      4  C4  DEN d   1      -2.860   4.222  -3.973  0.00  0.00     0.027 A 
ATOM      5  C5  DEN d   1      -2.408   2.991  -4.396  0.00  0.00    -0.003 A 
ATOM      6  C6  DEN d   1      -3.078   2.250  -5.333  0.00  0.00     0.001 A 
ATOM      7  C7  DEN d   1      -4.213   2.753  -5.911  0.00  0.00     0.017 A 
ATOM      8  C8  DEN d   1      -4.679   3.990  -5.485  0.00  0.00    -0.094 A 
ATOM      9  C9  DEN d   1      -3.980   4.730  -4.546  0.00  0.00    -0.072 A 
ENDROOT
TORSDOF 0
ENDMDL
