MODEL 1
REMARK minimizedAffinity 11.6058016
REMARK minimizedRMSD -1
REMARK  0 active torsions:
REMARK  status: ('A' for Active; 'I' for Inactive)
ROOT
ATOM      1  C1  DEN d   1      -1.495  -2.034  -0.013  0.00  0.00     0.130 A 
ATOM      2  C2  DEN d   1      -1.712  -1.660  -1.408  0.00  0.00    -0.031 A 
ATOM      3  C3  DEN d   1      -1.433  -2.842  -2.246  0.00  0.00     0.027 A 
ATOM      4  C4  DEN d   1      -0.692  -5.205  -1.525  0.00  0.00     0.027 A 
ATOM      5  C5  DEN d   1      -0.366  -5.999  -0.447  0.00  0.00    -0.003 A 
ATOM      6  C6  DEN d   1      -0.360  -5.522   0.836  0.00  0.00     0.001 A 
ATOM      7  C7  DEN d   1      -0.731  -4.226   1.080  0.00  0.00     0.017 A 
ATOM      8  C8  DEN d   1      -1.054  -3.417  -0.001  0.00  0.00    -0.094 A 
ATOM      9  C9  DEN d   1      -1.066  -3.922  -1.291  0.00  0.00    -0.072 A 
ENDROOT
TORSDOF 0
ENDMDL
