MODEL 1
REMARK minimizedAffinity 16.8384609
REMARK minimizedRMSD -1
REMARK  0 active torsions:
REMARK  status: ('A' for Active; 'I' for Inactive)
ROOT
ATOM      1  C1  DEN d   1       0.333  -0.454  -3.133  0.00  0.00     0.130 A 
ATOM      2  C2  DEN d   1       1.790  -0.359  -3.092  0.00  0.00    -0.031 A 
ATOM      3  C3  DEN d   1       2.172   0.991  -3.553  0.00  0.00     0.027 A 
ATOM      4  C4  DEN d   1       0.658   2.934  -4.318  0.00  0.00     0.027 A 
ATOM      5  C5  DEN d   1      -0.645   3.323  -4.535  0.00  0.00    -0.003 A 
ATOM      6  C6  DEN d   1      -1.703   2.477  -4.333  0.00  0.00     0.001 A 
ATOM      7  C7  DEN d   1      -1.479   1.211  -3.859  0.00  0.00     0.017 A 
ATOM      8  C8  DEN d   1      -0.167   0.809  -3.645  0.00  0.00    -0.094 A 
ATOM      9  C9  DEN d   1       0.888   1.683  -3.843  0.00  0.00    -0.072 A 
ENDROOT
TORSDOF 0
ENDMDL
