MODEL 1
REMARK minimizedAffinity 20.4328842
REMARK minimizedRMSD -1
REMARK  0 active torsions:
REMARK  status: ('A' for Active; 'I' for Inactive)
ROOT
ATOM      1  C1  DEN d   1      -0.216   2.267  -4.276  0.00  0.00     0.130 A 
ATOM      2  C2  DEN d   1      -1.408   3.100  -4.405  0.00  0.00    -0.031 A 
ATOM      3  C3  DEN d   1      -2.540   2.375  -3.793  0.00  0.00     0.027 A 
ATOM      4  C4  DEN d   1      -2.560   0.058  -2.661  0.00  0.00     0.027 A 
ATOM      5  C5  DEN d   1      -1.790  -1.033  -2.323  0.00  0.00    -0.003 A 
ATOM      6  C6  DEN d   1      -0.460  -1.114  -2.639  0.00  0.00     0.001 A 
ATOM      7  C7  DEN d   1       0.151  -0.066  -3.275  0.00  0.00     0.017 A 
ATOM      8  C8  DEN d   1      -0.620   1.034  -3.626  0.00  0.00    -0.094 A 
ATOM      9  C9  DEN d   1      -1.960   1.102  -3.286  0.00  0.00    -0.072 A 
ENDROOT
TORSDOF 0
ENDMDL
