MODEL 1
REMARK minimizedAffinity 17.3819008
REMARK minimizedRMSD -1
REMARK  0 active torsions:
REMARK  status: ('A' for Active; 'I' for Inactive)
ROOT
ATOM      1  C1  DEN d   1       2.330   2.665  -1.121  0.00  0.00     0.130 A 
ATOM      2  C2  DEN d   1       3.455   2.609  -0.191  0.00  0.00    -0.031 A 
ATOM      3  C3  DEN d   1       3.983   1.230  -0.196  0.00  0.00     0.027 A 
ATOM      4  C4  DEN d   1       3.175  -0.812  -1.549  0.00  0.00     0.027 A 
ATOM      5  C5  DEN d   1       2.246  -1.257  -2.463  0.00  0.00    -0.003 A 
ATOM      6  C6  DEN d   1       1.266  -0.441  -2.964  0.00  0.00     0.001 A 
ATOM      7  C7  DEN d   1       1.221   0.876  -2.588  0.00  0.00     0.017 A 
ATOM      8  C8  DEN d   1       2.150   1.329  -1.661  0.00  0.00    -0.094 A 
ATOM      9  C9  DEN d   1       3.141   0.492  -1.176  0.00  0.00    -0.072 A 
ENDROOT
TORSDOF 0
ENDMDL
