MODEL 1
REMARK minimizedAffinity 8.02119064
REMARK minimizedRMSD -1
REMARK  0 active torsions:
REMARK  status: ('A' for Active; 'I' for Inactive)
ROOT
ATOM      1  C1  DEN d   1      -2.293   3.951  -4.148  0.00  0.00     0.130 A 
ATOM      2  C2  DEN d   1      -2.100   2.873  -5.115  0.00  0.00    -0.031 A 
ATOM      3  C3  DEN d   1      -3.281   2.837  -6.000  0.00  0.00     0.027 A 
ATOM      4  C4  DEN d   1      -5.378   4.339  -5.971  0.00  0.00     0.027 A 
ATOM      5  C5  DEN d   1      -6.000   5.385  -5.327  0.00  0.00    -0.003 A 
ATOM      6  C6  DEN d   1      -5.450   6.000  -4.233  0.00  0.00     0.001 A 
ATOM      7  C7  DEN d   1      -4.221   5.602  -3.777  0.00  0.00     0.017 A 
ATOM      8  C8  DEN d   1      -3.591   4.543  -4.417  0.00  0.00    -0.094 A 
ATOM      9  C9  DEN d   1      -4.157   3.943  -5.528  0.00  0.00    -0.072 A 
ENDROOT
TORSDOF 0
ENDMDL
