MODEL 1
REMARK minimizedAffinity 8.49361897
REMARK minimizedRMSD -1
REMARK  0 active torsions:
REMARK  status: ('A' for Active; 'I' for Inactive)
ROOT
ATOM      1  C1  DEN d   1      -0.713  -4.928  -0.366  0.00  0.00     0.130 A 
ATOM      2  C2  DEN d   1      -0.571  -5.990   0.627  0.00  0.00    -0.031 A 
ATOM      3  C3  DEN d   1      -1.072  -5.477   1.918  0.00  0.00     0.027 A 
ATOM      4  C4  DEN d   1      -2.055  -3.158   2.472  0.00  0.00     0.027 A 
ATOM      5  C5  DEN d   1      -2.366  -1.919   1.957  0.00  0.00    -0.003 A 
ATOM      6  C6  DEN d   1      -2.119  -1.587   0.651  0.00  0.00     0.001 A 
ATOM      7  C7  DEN d   1      -1.585  -2.521  -0.197  0.00  0.00     0.017 A 
ATOM      8  C8  DEN d   1      -1.262  -3.770   0.317  0.00  0.00    -0.094 A 
ATOM      9  C9  DEN d   1      -1.530  -4.090   1.637  0.00  0.00    -0.072 A 
ENDROOT
TORSDOF 0
ENDMDL
