MODEL 1
REMARK minimizedAffinity 7.93453264
REMARK minimizedRMSD -1
REMARK  0 active torsions:
REMARK  status: ('A' for Active; 'I' for Inactive)
ROOT
ATOM      1  C1  DEN d   1      -1.348  -5.999   0.599  0.00  0.00     0.130 A 
ATOM      2  C2  DEN d   1      -0.441  -5.960  -0.545  0.00  0.00    -0.031 A 
ATOM      3  C3  DEN d   1       0.943  -5.942  -0.030  0.00  0.00     0.027 A 
ATOM      4  C4  DEN d   1       1.765  -5.976   2.414  0.00  0.00     0.027 A 
ATOM      5  C5  DEN d   1       1.367  -5.997   3.733  0.00  0.00    -0.003 A 
ATOM      6  C6  DEN d   1       0.047  -5.986   4.097  0.00  0.00     0.001 A 
ATOM      7  C7  DEN d   1      -0.924  -5.998   3.130  0.00  0.00     0.017 A 
ATOM      8  C8  DEN d   1      -0.530  -5.970   1.799  0.00  0.00    -0.094 A 
ATOM      9  C9  DEN d   1       0.810  -5.994   1.451  0.00  0.00    -0.072 A 
ENDROOT
TORSDOF 0
ENDMDL
