MODEL 1
REMARK minimizedAffinity 19.0201702
REMARK minimizedRMSD -1
REMARK  0 active torsions:
REMARK  status: ('A' for Active; 'I' for Inactive)
ROOT
ATOM      1  C1  DEN d   1       4.447   5.214  -1.151  0.00  0.00     0.130 A 
ATOM      2  C2  DEN d   1       4.898   6.000  -0.005  0.00  0.00    -0.031 A 
ATOM      3  C3  DEN d   1       4.546   5.260   1.223  0.00  0.00     0.027 A 
ATOM      4  C4  DEN d   1       3.356   2.985   1.462  0.00  0.00     0.027 A 
ATOM      5  C5  DEN d   1       2.772   1.945   0.772  0.00  0.00    -0.003 A 
ATOM      6  C6  DEN d   1       2.677   1.938  -0.594  0.00  0.00     0.001 A 
ATOM      7  C7  DEN d   1       3.213   2.971  -1.317  0.00  0.00     0.017 A 
ATOM      8  C8  DEN d   1       3.796   4.026  -0.628  0.00  0.00    -0.094 A 
ATOM      9  C9  DEN d   1       3.894   4.009   0.753  0.00  0.00    -0.072 A 
ENDROOT
TORSDOF 0
ENDMDL
