MODEL 1
REMARK minimizedAffinity 6.15762663
REMARK minimizedRMSD -1
REMARK  0 active torsions:
REMARK  status: ('A' for Active; 'I' for Inactive)
ROOT
ATOM      1  C1  DEN d   1      -0.385  -5.127   3.888  0.00  0.00     0.130 A 
ATOM      2  C2  DEN d   1       0.776  -5.999   3.732  0.00  0.00    -0.031 A 
ATOM      3  C3  DEN d   1       1.169  -5.984   2.308  0.00  0.00     0.027 A 
ATOM      4  C4  DEN d   1       0.102  -4.700   0.343  0.00  0.00     0.027 A 
ATOM      5  C5  DEN d   1      -0.913  -3.840  -0.017  0.00  0.00    -0.003 A 
ATOM      6  C6  DEN d   1      -1.835  -3.380   0.885  0.00  0.00     0.001 A 
ATOM      7  C7  DEN d   1      -1.735  -3.742   2.202  0.00  0.00     0.017 A 
ATOM      8  C8  DEN d   1      -0.719  -4.614   2.572  0.00  0.00    -0.094 A 
ATOM      9  C9  DEN d   1       0.211  -5.058   1.647  0.00  0.00    -0.072 A 
ENDROOT
TORSDOF 0
ENDMDL
