MODEL 1
REMARK minimizedAffinity 22.8015881
REMARK minimizedRMSD -1
REMARK  0 active torsions:
REMARK  status: ('A' for Active; 'I' for Inactive)
ROOT
ATOM      1  C1  DEN d   1       4.514   1.902  -0.201  0.00  0.00     0.130 A 
ATOM      2  C2  DEN d   1       3.386   1.834   0.725  0.00  0.00    -0.031 A 
ATOM      3  C3  DEN d   1       3.038   3.214   1.121  0.00  0.00     0.027 A 
ATOM      4  C4  DEN d   1       4.124   5.435   0.389  0.00  0.00     0.027 A 
ATOM      5  C5  DEN d   1       5.121   5.999  -0.376  0.00  0.00    -0.003 A 
ATOM      6  C6  DEN d   1       5.999   5.241  -1.104  0.00  0.00     0.001 A 
ATOM      7  C7  DEN d   1       5.870   3.877  -1.118  0.00  0.00     0.017 A 
ATOM      8  C8  DEN d   1       4.872   3.302  -0.343  0.00  0.00    -0.094 A 
ATOM      9  C9  DEN d   1       3.986   4.086   0.377  0.00  0.00    -0.072 A 
ENDROOT
TORSDOF 0
ENDMDL
