MODEL 1
REMARK minimizedAffinity 11.8292112
REMARK minimizedRMSD -1
REMARK  0 active torsions:
REMARK  status: ('A' for Active; 'I' for Inactive)
ROOT
ATOM      1  C1  DEN d   1      -1.792  -2.632   0.175  0.00  0.00     0.130 A 
ATOM      2  C2  DEN d   1      -2.635  -1.910   1.124  0.00  0.00    -0.031 A 
ATOM      3  C3  DEN d   1      -2.722  -2.713   2.360  0.00  0.00     0.027 A 
ATOM      4  C4  DEN d   1      -1.635  -4.990   2.896  0.00  0.00     0.027 A 
ATOM      5  C5  DEN d   1      -0.840  -5.999   2.398  0.00  0.00    -0.003 A 
ATOM      6  C6  DEN d   1      -0.340  -5.973   1.123  0.00  0.00     0.001 A 
ATOM      7  C7  DEN d   1      -0.591  -4.894   0.317  0.00  0.00     0.017 A 
ATOM      8  C8  DEN d   1      -1.397  -3.876   0.809  0.00  0.00    -0.094 A 
ATOM      9  C9  DEN d   1      -1.884  -3.915   2.105  0.00  0.00    -0.072 A 
ENDROOT
TORSDOF 0
ENDMDL
