MODEL 1
REMARK minimizedAffinity 11.0048647
REMARK minimizedRMSD -1
REMARK  0 active torsions:
REMARK  status: ('A' for Active; 'I' for Inactive)
ROOT
ATOM      1  C1  DEN d   1      -0.916  -2.776  -3.272  0.00  0.00     0.130 A 
ATOM      2  C2  DEN d   1      -1.469  -1.467  -3.607  0.00  0.00    -0.031 A 
ATOM      3  C3  DEN d   1      -1.990  -0.860  -2.365  0.00  0.00     0.027 A 
ATOM      4  C4  DEN d   1      -1.988  -1.814   0.032  0.00  0.00     0.027 A 
ATOM      5  C5  DEN d   1      -1.638  -2.896   0.809  0.00  0.00    -0.003 A 
ATOM      6  C6  DEN d   1      -1.058  -4.018   0.279  0.00  0.00     0.001 A 
ATOM      7  C7  DEN d   1      -0.770  -4.066  -1.059  0.00  0.00     0.017 A 
ATOM      8  C8  DEN d   1      -1.127  -2.983  -1.850  0.00  0.00    -0.094 A 
ATOM      9  C9  DEN d   1      -1.701  -1.852  -1.294  0.00  0.00    -0.072 A 
ENDROOT
TORSDOF 0
ENDMDL
