MODEL 1
REMARK minimizedAffinity 7.62170076
REMARK minimizedRMSD -1
REMARK  0 active torsions:
REMARK  status: ('A' for Active; 'I' for Inactive)
ROOT
ATOM      1  C4' PXY d   1      -0.221  -0.836   0.917  0.00  0.00     0.077 C 
ATOM      2  C1' PXY d   1       0.104  -3.904   5.805  0.00  0.00     0.077 C 
ATOM      3  C1  PXY d   1       0.007  -3.104   4.522  0.00  0.00    -0.082 A 
ATOM      4  C2  PXY d   1       1.109  -2.794   3.859  0.00  0.00     0.003 A 
ATOM      5  C3  PXY d   1       1.042  -2.043   2.713  0.00  0.00     0.003 A 
ATOM      6  C4  PXY d   1      -0.171  -1.651   2.212  0.00  0.00    -0.082 A 
ATOM      7  C5  PXY d   1      -1.301  -1.972   2.877  0.00  0.00     0.003 A 
ATOM      8  C6  PXY d   1      -1.208  -2.699   4.060  0.00  0.00     0.003 A 
ENDROOT
TORSDOF 0
ENDMDL
