MODEL 1
REMARK minimizedAffinity 9.0049324
REMARK minimizedRMSD -1
REMARK  0 active torsions:
REMARK  status: ('A' for Active; 'I' for Inactive)
ROOT
ATOM      1  C4' PXY d   1      -4.650  -0.297  -1.843  0.00  0.00     0.077 C 
ATOM      2  C1' PXY d   1       0.623  -0.542   0.513  0.00  0.00     0.077 C 
ATOM      3  C1  PXY d   1      -0.762  -0.467  -0.099  0.00  0.00    -0.082 A 
ATOM      4  C2  PXY d   1      -1.374  -1.579  -0.472  0.00  0.00     0.003 A 
ATOM      5  C3  PXY d   1      -2.613  -1.526  -1.056  0.00  0.00     0.003 A 
ATOM      6  C4  PXY d   1      -3.255  -0.327  -1.212  0.00  0.00    -0.082 A 
ATOM      7  C5  PXY d   1      -2.641   0.811  -0.825  0.00  0.00     0.003 A 
ATOM      8  C6  PXY d   1      -1.366   0.740  -0.272  0.00  0.00     0.003 A 
ENDROOT
TORSDOF 0
ENDMDL
