MODEL 1
REMARK minimizedAffinity 16.3692284
REMARK minimizedRMSD -1
REMARK  0 active torsions:
REMARK  status: ('A' for Active; 'I' for Inactive)
ROOT
ATOM      1  C4' PXY d   1       4.001   2.040  -3.109  0.00  0.00     0.077 C 
ATOM      2  C1' PXY d   1      -1.658   2.343  -4.251  0.00  0.00     0.077 C 
ATOM      3  C1  PXY d   1      -0.176   2.256  -3.941  0.00  0.00    -0.082 A 
ATOM      4  C2  PXY d   1       0.641   3.199  -4.382  0.00  0.00     0.003 A 
ATOM      5  C3  PXY d   1       1.988   3.119  -4.138  0.00  0.00     0.003 A 
ATOM      6  C4  PXY d   1       2.497   2.091  -3.390  0.00  0.00    -0.082 A 
ATOM      7  C5  PXY d   1       1.668   1.131  -2.927  0.00  0.00     0.003 A 
ATOM      8  C6  PXY d   1       0.310   1.209  -3.221  0.00  0.00     0.003 A 
ENDROOT
TORSDOF 0
ENDMDL
