MODEL 1
REMARK minimizedAffinity 3.62218022
REMARK minimizedRMSD -1
REMARK  0 active torsions:
REMARK  status: ('A' for Active; 'I' for Inactive)
ROOT
ATOM      1  C4' PXY d   1       0.071  -5.551  -5.216  0.00  0.00     0.077 C 
ATOM      2  C1' PXY d   1      -5.444  -4.003  -5.996  0.00  0.00     0.077 C 
ATOM      3  C1  PXY d   1      -3.994  -4.399  -5.800  0.00  0.00    -0.082 A 
ATOM      4  C2  PXY d   1      -3.698  -5.634  -5.425  0.00  0.00     0.003 A 
ATOM      5  C3  PXY d   1      -2.394  -6.000  -5.212  0.00  0.00     0.003 A 
ATOM      6  C4  PXY d   1      -1.379  -5.109  -5.436  0.00  0.00    -0.082 A 
ATOM      7  C5  PXY d   1      -1.672  -3.851  -5.828  0.00  0.00     0.003 A 
ATOM      8  C6  PXY d   1      -3.004  -3.487  -5.999  0.00  0.00     0.003 A 
ENDROOT
TORSDOF 0
ENDMDL
