MODEL 1
REMARK minimizedAffinity -0.417169243
REMARK minimizedRMSD -1
REMARK  0 active torsions:
REMARK  status: ('A' for Active; 'I' for Inactive)
ROOT
ATOM      1  C4' PXY d   1      -0.183  -0.396   0.220  0.00  0.00     0.077 C 
ATOM      2  C1' PXY d   1       0.533  -3.897   4.763  0.00  0.00     0.077 C 
ATOM      3  C1  PXY d   1       0.332  -2.981   3.572  0.00  0.00    -0.082 A 
ATOM      4  C2  PXY d   1       1.329  -2.781   2.726  0.00  0.00     0.003 A 
ATOM      5  C3  PXY d   1       1.175  -1.931   1.661  0.00  0.00     0.003 A 
ATOM      6  C4  PXY d   1      -0.029  -1.320   1.431  0.00  0.00    -0.082 A 
ATOM      7  C5  PXY d   1      -1.054  -1.527   2.285  0.00  0.00     0.003 A 
ATOM      8  C6  PXY d   1      -0.864  -2.362   3.382  0.00  0.00     0.003 A 
ENDROOT
TORSDOF 0
ENDMDL
