MODEL 1
REMARK minimizedAffinity 1.41398275
REMARK minimizedRMSD -1
REMARK  0 active torsions:
REMARK  status: ('A' for Active; 'I' for Inactive)
ROOT
ATOM      1  C4' PXY d   1       0.763   2.585  -3.576  0.00  0.00     0.077 C 
ATOM      2  C1' PXY d   1      -4.194   4.515  -1.313  0.00  0.00     0.077 C 
ATOM      3  C1  PXY d   1      -2.899   4.010  -1.919  0.00  0.00    -0.082 A 
ATOM      4  C2  PXY d   1      -2.075   3.280  -1.184  0.00  0.00     0.003 A 
ATOM      5  C3  PXY d   1      -0.885   2.842  -1.706  0.00  0.00     0.003 A 
ATOM      6  C4  PXY d   1      -0.560   3.108  -3.009  0.00  0.00    -0.082 A 
ATOM      7  C5  PXY d   1      -1.401   3.843  -3.768  0.00  0.00     0.003 A 
ATOM      8  C6  PXY d   1      -2.584   4.313  -3.207  0.00  0.00     0.003 A 
ENDROOT
TORSDOF 0
ENDMDL
