MODEL 1
REMARK minimizedAffinity 10.1964283
REMARK minimizedRMSD -1
REMARK  0 active torsions:
REMARK  status: ('A' for Active; 'I' for Inactive)
ROOT
ATOM      1  C4' PXY d   1       0.404  -0.302   0.172  0.00  0.00     0.077 C 
ATOM      2  C1' PXY d   1       5.776  -1.189   2.113  0.00  0.00     0.077 C 
ATOM      3  C1  PXY d   1       4.367  -0.945   1.610  0.00  0.00    -0.082 A 
ATOM      4  C2  PXY d   1       3.573  -1.974   1.361  0.00  0.00     0.003 A 
ATOM      5  C3  PXY d   1       2.308  -1.772   0.875  0.00  0.00     0.003 A 
ATOM      6  C4  PXY d   1       1.831  -0.502   0.691  0.00  0.00    -0.082 A 
ATOM      7  C5  PXY d   1       2.631   0.554   0.953  0.00  0.00     0.003 A 
ATOM      8  C6  PXY d   1       3.926   0.326   1.406  0.00  0.00     0.003 A 
ENDROOT
TORSDOF 0
ENDMDL
