MODEL 1
REMARK minimizedAffinity 2.85495687
REMARK minimizedRMSD -1
REMARK  0 active torsions:
REMARK  status: ('A' for Active; 'I' for Inactive)
ROOT
ATOM      1  C4' PXY d   1      -4.440  -5.993  -5.963  0.00  0.00     0.077 C 
ATOM      2  C1' PXY d   1       0.666  -5.923  -3.253  0.00  0.00     0.077 C 
ATOM      3  C1  PXY d   1      -0.668  -5.936  -3.975  0.00  0.00    -0.082 A 
ATOM      4  C2  PXY d   1      -1.790  -5.945  -3.274  0.00  0.00     0.003 A 
ATOM      5  C3  PXY d   1      -3.004  -5.989  -3.910  0.00  0.00     0.003 A 
ATOM      6  C4  PXY d   1      -3.071  -5.970  -5.278  0.00  0.00    -0.082 A 
ATOM      7  C5  PXY d   1      -1.931  -5.951  -5.999  0.00  0.00     0.003 A 
ATOM      8  C6  PXY d   1      -0.708  -5.948  -5.335  0.00  0.00     0.003 A 
ENDROOT
TORSDOF 0
ENDMDL
