MODEL 1
REMARK minimizedAffinity 2.52622008
REMARK minimizedRMSD -1
REMARK  0 active torsions:
REMARK  status: ('A' for Active; 'I' for Inactive)
ROOT
ATOM      1  C4' PXY d   1       0.766  -5.332  -2.643  0.00  0.00     0.077 C 
ATOM      2  C1' PXY d   1      -3.905  -5.906  -6.000  0.00  0.00     0.077 C 
ATOM      3  C1  PXY d   1      -2.688  -5.753  -5.109  0.00  0.00    -0.082 A 
ATOM      4  C2  PXY d   1      -1.531  -5.392  -5.639  0.00  0.00     0.003 A 
ATOM      5  C3  PXY d   1      -0.412  -5.280  -4.854  0.00  0.00     0.003 A 
ATOM      6  C4  PXY d   1      -0.491  -5.489  -3.503  0.00  0.00    -0.082 A 
ATOM      7  C5  PXY d   1      -1.671  -5.848  -2.953  0.00  0.00     0.003 A 
ATOM      8  C6  PXY d   1      -2.785  -5.996  -3.774  0.00  0.00     0.003 A 
ENDROOT
TORSDOF 0
ENDMDL
