MODEL 1
REMARK minimizedAffinity 2.91992044
REMARK minimizedRMSD -1
REMARK  0 active torsions:
REMARK  status: ('A' for Active; 'I' for Inactive)
ROOT
ATOM      1  C4' PXY d   1      -5.694   0.142  -6.000  0.00  0.00     0.077 C 
ATOM      2  C1' PXY d   1      -5.992  -0.768  -0.299  0.00  0.00     0.077 C 
ATOM      3  C1  PXY d   1      -5.907  -0.540  -1.796  0.00  0.00    -0.082 A 
ATOM      4  C2  PXY d   1      -5.999   0.689  -2.277  0.00  0.00     0.003 A 
ATOM      5  C3  PXY d   1      -5.957   0.909  -3.629  0.00  0.00     0.003 A 
ATOM      6  C4  PXY d   1      -5.765  -0.134  -4.496  0.00  0.00    -0.082 A 
ATOM      7  C5  PXY d   1      -5.659  -1.390  -4.012  0.00  0.00     0.003 A 
ATOM      8  C6  PXY d   1      -5.746  -1.597  -2.638  0.00  0.00     0.003 A 
ENDROOT
TORSDOF 0
ENDMDL
