MODEL 1
REMARK minimizedAffinity 0.136015967
REMARK minimizedRMSD -1
REMARK  0 active torsions:
REMARK  status: ('A' for Active; 'I' for Inactive)
ROOT
ATOM      1  C4' PXY d   1       5.106  -1.115   1.579  0.00  0.00     0.077 C 
ATOM      2  C1' PXY d   1      -0.103   0.721  -0.127  0.00  0.00     0.077 C 
ATOM      3  C1  PXY d   1       1.268   0.251   0.320  0.00  0.00    -0.082 A 
ATOM      4  C2  PXY d   1       1.614  -1.014   0.148  0.00  0.00     0.003 A 
ATOM      5  C3  PXY d   1       2.837  -1.463   0.575  0.00  0.00     0.003 A 
ATOM      6  C4  PXY d   1       3.736  -0.595   1.135  0.00  0.00    -0.082 A 
ATOM      7  C5  PXY d   1       3.395   0.700   1.303  0.00  0.00     0.003 A 
ATOM      8  C6  PXY d   1       2.133   1.127   0.901  0.00  0.00     0.003 A 
ENDROOT
TORSDOF 0
ENDMDL
