MODEL 1
REMARK minimizedAffinity 9.17811203
REMARK minimizedRMSD -1
REMARK  0 active torsions:
REMARK  status: ('A' for Active; 'I' for Inactive)
ROOT
ATOM      1  C4' PXY d   1      -4.454  -0.389  -1.547  0.00  0.00     0.077 C 
ATOM      2  C1' PXY d   1       0.906   0.061   0.572  0.00  0.00     0.077 C 
ATOM      3  C1  PXY d   1      -0.503  -0.045   0.021  0.00  0.00    -0.082 A 
ATOM      4  C2  PXY d   1      -1.025  -1.238  -0.215  0.00  0.00     0.003 A 
ATOM      5  C3  PXY d   1      -2.285  -1.351  -0.743  0.00  0.00     0.003 A 
ATOM      6  C4  PXY d   1      -3.039  -0.234  -0.982  0.00  0.00    -0.082 A 
ATOM      7  C5  PXY d   1      -2.518   0.986  -0.734  0.00  0.00     0.003 A 
ATOM      8  C6  PXY d   1      -1.221   1.081  -0.237  0.00  0.00     0.003 A 
ENDROOT
TORSDOF 0
ENDMDL
