MODEL 1
REMARK minimizedAffinity -1.09338367
REMARK minimizedRMSD -1
REMARK  0 active torsions:
REMARK  status: ('A' for Active; 'I' for Inactive)
ROOT
ATOM      1  C4' PXY d   1      -6.000  -4.186  -5.999  0.00  0.00     0.077 C 
ATOM      2  C1' PXY d   1      -0.427  -5.386  -5.037  0.00  0.00     0.077 C 
ATOM      3  C1  PXY d   1      -1.886  -5.059  -5.287  0.00  0.00    -0.082 A 
ATOM      4  C2  PXY d   1      -2.804  -6.000  -5.133  0.00  0.00     0.003 A 
ATOM      5  C3  PXY d   1      -4.124  -5.730  -5.385  0.00  0.00     0.003 A 
ATOM      6  C4  PXY d   1      -4.516  -4.469  -5.748  0.00  0.00    -0.082 A 
ATOM      7  C5  PXY d   1      -3.588  -3.501  -5.897  0.00  0.00     0.003 A 
ATOM      8  C6  PXY d   1      -2.248  -3.806  -5.676  0.00  0.00     0.003 A 
ENDROOT
TORSDOF 0
ENDMDL
