MODEL 1
REMARK minimizedAffinity 8.3635807
REMARK minimizedRMSD -1
REMARK  0 active torsions:
REMARK  status: ('A' for Active; 'I' for Inactive)
ROOT
ATOM      1  C4' PXY d   1       2.768  -2.862   2.614  0.00  0.00     0.077 C 
ATOM      2  C1' PXY d   1      -2.484  -2.857   5.029  0.00  0.00     0.077 C 
ATOM      3  C1  PXY d   1      -1.101  -2.859   4.408  0.00  0.00    -0.082 A 
ATOM      4  C2  PXY d   1      -0.919  -2.316   3.215  0.00  0.00     0.003 A 
ATOM      5  C3  PXY d   1       0.318  -2.338   2.624  0.00  0.00     0.003 A 
ATOM      6  C4  PXY d   1       1.391  -2.874   3.284  0.00  0.00    -0.082 A 
ATOM      7  C5  PXY d   1       1.216  -3.421   4.506  0.00  0.00     0.003 A 
ATOM      8  C6  PXY d   1      -0.056  -3.425   5.071  0.00  0.00     0.003 A 
ENDROOT
TORSDOF 0
ENDMDL
