MODEL 1
REMARK minimizedAffinity -1.07169306
REMARK minimizedRMSD -1
REMARK  0 active torsions:
REMARK  status: ('A' for Active; 'I' for Inactive)
ROOT
ATOM      1  C4' PXY d   1      -5.190  -1.234  -2.384  0.00  0.00     0.077 C 
ATOM      2  C1' PXY d   1      -1.894  -4.629  -5.705  0.00  0.00     0.077 C 
ATOM      3  C1  PXY d   1      -2.757  -3.747  -4.824  0.00  0.00    -0.082 A 
ATOM      4  C2  PXY d   1      -3.653  -2.946  -5.377  0.00  0.00     0.003 A 
ATOM      5  C3  PXY d   1      -4.419  -2.118  -4.598  0.00  0.00     0.003 A 
ATOM      6  C4  PXY d   1      -4.304  -2.149  -3.234  0.00  0.00    -0.082 A 
ATOM      7  C5  PXY d   1      -3.399  -2.971  -2.660  0.00  0.00     0.003 A 
ATOM      8  C6  PXY d   1      -2.602  -3.773  -3.472  0.00  0.00     0.003 A 
ENDROOT
TORSDOF 0
ENDMDL
