MODEL 1
REMARK minimizedAffinity 17.2692699
REMARK minimizedRMSD -1
REMARK  0 active torsions:
REMARK  status: ('A' for Active; 'I' for Inactive)
ROOT
ATOM      1  C4' PXY d   1      -0.695  -1.092   0.440  0.00  0.00     0.077 C 
ATOM      2  C1' PXY d   1       2.003  -4.343   4.385  0.00  0.00     0.077 C 
ATOM      3  C1  PXY d   1       1.307  -3.486   3.346  0.00  0.00    -0.082 A 
ATOM      4  C2  PXY d   1       0.039  -3.151   3.518  0.00  0.00     0.003 A 
ATOM      5  C3  PXY d   1      -0.616  -2.403   2.574  0.00  0.00     0.003 A 
ATOM      6  C4  PXY d   1       0.050  -1.948   1.467  0.00  0.00    -0.082 A 
ATOM      7  C5  PXY d   1       1.348  -2.276   1.290  0.00  0.00     0.003 A 
ATOM      8  C6  PXY d   1       1.982  -3.071   2.240  0.00  0.00     0.003 A 
ENDROOT
TORSDOF 0
ENDMDL
