MODEL 1
REMARK minimizedAffinity 2.71698546
REMARK minimizedRMSD -1
REMARK  0 active torsions:
REMARK  status: ('A' for Active; 'I' for Inactive)
ROOT
ATOM      1  C4' PXY d   1      -5.617  -1.436  -5.952  0.00  0.00     0.077 C 
ATOM      2  C1' PXY d   1      -2.029  -5.968  -5.975  0.00  0.00     0.077 C 
ATOM      3  C1  PXY d   1      -2.979  -4.787  -5.974  0.00  0.00    -0.082 A 
ATOM      4  C2  PXY d   1      -2.493  -3.557  -6.000  0.00  0.00     0.003 A 
ATOM      5  C3  PXY d   1      -3.338  -2.477  -5.967  0.00  0.00     0.003 A 
ATOM      6  C4  PXY d   1      -4.695  -2.659  -5.961  0.00  0.00    -0.082 A 
ATOM      7  C5  PXY d   1      -5.198  -3.911  -5.946  0.00  0.00     0.003 A 
ATOM      8  C6  PXY d   1      -4.324  -4.994  -5.938  0.00  0.00     0.003 A 
ENDROOT
TORSDOF 0
ENDMDL
