MODEL 1
REMARK minimizedAffinity -0.361403733
REMARK minimizedRMSD -1
REMARK  0 active torsions:
REMARK  status: ('A' for Active; 'I' for Inactive)
ROOT
ATOM      1  C4' PXY d   1      -1.145  -6.000  -5.627  0.00  0.00     0.077 C 
ATOM      2  C1' PXY d   1      -5.130  -2.102  -4.096  0.00  0.00     0.077 C 
ATOM      3  C1  PXY d   1      -4.094  -3.131  -4.504  0.00  0.00    -0.082 A 
ATOM      4  C2  PXY d   1      -3.007  -3.293  -3.767  0.00  0.00     0.003 A 
ATOM      5  C3  PXY d   1      -2.045  -4.197  -4.139  0.00  0.00     0.003 A 
ATOM      6  C4  PXY d   1      -2.222  -4.980  -5.248  0.00  0.00    -0.082 A 
ATOM      7  C5  PXY d   1      -3.333  -4.827  -6.000  0.00  0.00     0.003 A 
ATOM      8  C6  PXY d   1      -4.278  -3.876  -5.628  0.00  0.00     0.003 A 
ENDROOT
TORSDOF 0
ENDMDL
