MODEL 1
REMARK minimizedAffinity -5.56786537
REMARK minimizedRMSD -1
REMARK  0 active torsions:
REMARK  status: ('A' for Active; 'I' for Inactive)
ROOT
ATOM      1  O1  BZF d   1      -0.196   2.384  -0.703  0.00  0.00    -0.204 OA
ATOM      2  C2  BZF d   1      -0.824   3.420  -0.039  0.00  0.00     0.174 A 
ATOM      3  C3  BZF d   1      -1.467   2.966   1.057  0.00  0.00    -0.012 A 
ATOM      4  C3A BZF d   1      -1.149   1.573   1.129  0.00  0.00    -0.107 A 
ATOM      5  C4  BZF d   1      -1.478   0.579   2.006  0.00  0.00     0.055 A 
ATOM      6  C5  BZF d   1      -1.065  -0.690   1.752  0.00  0.00    -0.016 A 
ATOM      7  C6  BZF d   1      -0.326  -1.002   0.629  0.00  0.00     0.022 A 
ATOM      8  C7  BZF d   1       0.030  -0.049  -0.267  0.00  0.00     0.029 A 
ATOM      9  C7A BZF d   1      -0.359   1.240   0.005  0.00  0.00     0.058 A 
ENDROOT
TORSDOF 0
ENDMDL
