MODEL 1
REMARK minimizedAffinity -1.26667559
REMARK minimizedRMSD -1
REMARK  0 active torsions:
REMARK  status: ('A' for Active; 'I' for Inactive)
ROOT
ATOM      1  O1  BZF d   1      -2.042   1.451   2.659  0.00  0.00    -0.204 OA
ATOM      2  C2  BZF d   1      -1.981   2.757   2.213  0.00  0.00     0.174 A 
ATOM      3  C3  BZF d   1      -1.081   2.880   1.216  0.00  0.00    -0.012 A 
ATOM      4  C3A BZF d   1      -0.614   1.551   0.965  0.00  0.00    -0.107 A 
ATOM      5  C4  BZF d   1       0.279   1.022   0.077  0.00  0.00     0.055 A 
ATOM      6  C5  BZF d   1       0.565  -0.305   0.140  0.00  0.00    -0.016 A 
ATOM      7  C6  BZF d   1      -0.018  -1.130   1.079  0.00  0.00     0.022 A 
ATOM      8  C7  BZF d   1      -0.914  -0.651   1.977  0.00  0.00     0.029 A 
ATOM      9  C7A BZF d   1      -1.230   0.683   1.895  0.00  0.00     0.058 A 
ENDROOT
TORSDOF 0
ENDMDL
