MODEL 1
REMARK minimizedAffinity -4.5080986
REMARK minimizedRMSD -1
REMARK  0 active torsions:
REMARK  status: ('A' for Active; 'I' for Inactive)
ROOT
ATOM      1  O1  BZF d   1      -2.236   1.192   1.751  0.00  0.00    -0.204 OA
ATOM      2  C2  BZF d   1      -2.687   2.060   0.775  0.00  0.00     0.174 A 
ATOM      3  C3  BZF d   1      -1.845   2.075  -0.278  0.00  0.00    -0.012 A 
ATOM      4  C3A BZF d   1      -0.851   1.091   0.021  0.00  0.00    -0.107 A 
ATOM      5  C4  BZF d   1       0.248   0.632  -0.648  0.00  0.00     0.055 A 
ATOM      6  C5  BZF d   1       1.052  -0.284  -0.048  0.00  0.00    -0.016 A 
ATOM      7  C6  BZF d   1       0.792  -0.758   1.221  0.00  0.00     0.022 A 
ATOM      8  C7  BZF d   1      -0.289  -0.336   1.923  0.00  0.00     0.029 A 
ATOM      9  C7A BZF d   1      -1.122   0.564   1.306  0.00  0.00     0.058 A 
ENDROOT
TORSDOF 0
ENDMDL
