MODEL 1
REMARK minimizedAffinity -4.84459591
REMARK minimizedRMSD -1
REMARK  0 active torsions:
REMARK  status: ('A' for Active; 'I' for Inactive)
ROOT
ATOM      1  O1  BZF d   1       0.748   0.709  -0.813  0.00  0.00    -0.204 OA
ATOM      2  C2  BZF d   1       1.276  -0.546  -0.585  0.00  0.00     0.174 A 
ATOM      3  C3  BZF d   1       0.638  -1.156   0.435  0.00  0.00    -0.012 A 
ATOM      4  C3A BZF d   1      -0.412  -0.260   0.811  0.00  0.00    -0.107 A 
ATOM      5  C4  BZF d   1      -1.398  -0.312   1.755  0.00  0.00     0.055 A 
ATOM      6  C5  BZF d   1      -2.217   0.761   1.914  0.00  0.00    -0.016 A 
ATOM      7  C6  BZF d   1      -2.075   1.902   1.152  0.00  0.00     0.022 A 
ATOM      8  C7  BZF d   1      -1.115   1.999   0.201  0.00  0.00     0.029 A 
ATOM      9  C7A BZF d   1      -0.307   0.904   0.014  0.00  0.00     0.058 A 
ENDROOT
TORSDOF 0
ENDMDL
