MODEL 1
REMARK minimizedAffinity -1.80753553
REMARK minimizedRMSD -1
REMARK  0 active torsions:
REMARK  status: ('A' for Active; 'I' for Inactive)
ROOT
ATOM      1  O1  BZF d   1      -0.155  -0.055  -1.519  0.00  0.00    -0.204 OA
ATOM      2  C2  BZF d   1       0.717  -1.126  -1.574  0.00  0.00     0.174 A 
ATOM      3  C3  BZF d   1       1.078  -1.512  -0.333  0.00  0.00    -0.012 A 
ATOM      4  C3A BZF d   1       0.317  -0.687   0.555  0.00  0.00    -0.107 A 
ATOM      5  C4  BZF d   1       0.225  -0.606   1.915  0.00  0.00     0.055 A 
ATOM      6  C5  BZF d   1      -0.557   0.357   2.468  0.00  0.00    -0.016 A 
ATOM      7  C6  BZF d   1      -1.256   1.258   1.693  0.00  0.00     0.022 A 
ATOM      8  C7  BZF d   1      -1.201   1.215   0.339  0.00  0.00     0.029 A 
ATOM      9  C7A BZF d   1      -0.437   0.221  -0.223  0.00  0.00     0.058 A 
ENDROOT
TORSDOF 0
ENDMDL
