MODEL 1
REMARK minimizedAffinity -4.24383497
REMARK minimizedRMSD -1
REMARK  0 active torsions:
REMARK  status: ('A' for Active; 'I' for Inactive)
ROOT
ATOM      1  O1  BZF d   1      -1.177   1.378   2.399  0.00  0.00    -0.204 OA
ATOM      2  C2  BZF d   1      -1.853   2.370   1.716  0.00  0.00     0.174 A 
ATOM      3  C3  BZF d   1      -1.642   2.266   0.388  0.00  0.00    -0.012 A 
ATOM      4  C3A BZF d   1      -0.854   1.083   0.224  0.00  0.00    -0.107 A 
ATOM      5  C4  BZF d   1      -0.338   0.443  -0.866  0.00  0.00     0.055 A 
ATOM      6  C5  BZF d   1       0.448  -0.650  -0.679  0.00  0.00    -0.016 A 
ATOM      7  C6  BZF d   1       0.742  -1.126   0.582  0.00  0.00     0.022 A 
ATOM      8  C7  BZF d   1       0.248  -0.528   1.693  0.00  0.00     0.029 A 
ATOM      9  C7A BZF d   1      -0.573   0.557   1.506  0.00  0.00     0.058 A 
ENDROOT
TORSDOF 0
ENDMDL
