MODEL 1
REMARK minimizedAffinity -1.90705204
REMARK minimizedRMSD -1
REMARK  0 active torsions:
REMARK  status: ('A' for Active; 'I' for Inactive)
ROOT
ATOM      1  O1  BZF d   1      -1.435   1.102   2.162  0.00  0.00    -0.204 OA
ATOM      2  C2  BZF d   1      -2.350   1.815   1.412  0.00  0.00     0.174 A 
ATOM      3  C3  BZF d   1      -2.090   1.691   0.095  0.00  0.00    -0.012 A 
ATOM      4  C3A BZF d   1      -0.996   0.773   0.012  0.00  0.00    -0.107 A 
ATOM      5  C4  BZF d   1      -0.296   0.238  -1.032  0.00  0.00     0.055 A 
ATOM      6  C5  BZF d   1       0.763  -0.572  -0.770  0.00  0.00    -0.016 A 
ATOM      7  C6  BZF d   1       1.153  -0.864   0.520  0.00  0.00     0.022 A 
ATOM      8  C7  BZF d   1       0.487  -0.361   1.588  0.00  0.00     0.029 A 
ATOM      9  C7A BZF d   1      -0.605   0.431   1.327  0.00  0.00     0.058 A 
ENDROOT
TORSDOF 0
ENDMDL
