MODEL 1
REMARK minimizedAffinity -4.70306778
REMARK minimizedRMSD -1
REMARK  0 active torsions:
REMARK  status: ('A' for Active; 'I' for Inactive)
ROOT
ATOM      1  O1  BZF d   1      -1.556   1.993  -0.029  0.00  0.00    -0.204 OA
ATOM      2  C2  BZF d   1      -2.042   1.829   1.254  0.00  0.00     0.174 A 
ATOM      3  C3  BZF d   1      -1.467   0.765   1.851  0.00  0.00    -0.012 A 
ATOM      4  C3A BZF d   1      -0.498   0.286   0.913  0.00  0.00    -0.107 A 
ATOM      5  C4  BZF d   1       0.403  -0.740   0.936  0.00  0.00     0.055 A 
ATOM      6  C5  BZF d   1       1.152  -0.985  -0.170  0.00  0.00    -0.016 A 
ATOM      7  C6  BZF d   1       1.024  -0.229  -1.317  0.00  0.00     0.022 A 
ATOM      8  C7  BZF d   1       0.147   0.802  -1.385  0.00  0.00     0.029 A 
ATOM      9  C7A BZF d   1      -0.588   1.073  -0.258  0.00  0.00     0.058 A 
ENDROOT
TORSDOF 0
ENDMDL
