MODEL 1
REMARK minimizedAffinity -3.12445569
REMARK minimizedRMSD -1
REMARK  0 active torsions:
REMARK  status: ('A' for Active; 'I' for Inactive)
ROOT
ATOM      1  O1  BZF d   1       0.407   0.323  -1.472  0.00  0.00    -0.204 OA
ATOM      2  C2  BZF d   1       0.976  -0.887  -1.125  0.00  0.00     0.174 A 
ATOM      3  C3  BZF d   1       0.659  -1.219   0.143  0.00  0.00    -0.012 A 
ATOM      4  C3A BZF d   1      -0.235  -0.194   0.588  0.00  0.00    -0.107 A 
ATOM      5  C4  BZF d   1      -0.906   0.024   1.757  0.00  0.00     0.055 A 
ATOM      6  C5  BZF d   1      -1.641   1.159   1.895  0.00  0.00    -0.016 A 
ATOM      7  C6  BZF d   1      -1.723   2.098   0.888  0.00  0.00     0.022 A 
ATOM      8  C7  BZF d   1      -1.080   1.923  -0.292  0.00  0.00     0.029 A 
ATOM      9  C7A BZF d   1      -0.363   0.762  -0.447  0.00  0.00     0.058 A 
ENDROOT
TORSDOF 0
ENDMDL
