MODEL 1
REMARK minimizedAffinity -4.17043352
REMARK minimizedRMSD -1
REMARK  0 active torsions:
REMARK  status: ('A' for Active; 'I' for Inactive)
ROOT
ATOM      1  O1  BZF d   1      -0.060   0.863  -1.361  0.00  0.00    -0.204 OA
ATOM      2  C2  BZF d   1       0.613  -0.325  -1.571  0.00  0.00     0.174 A 
ATOM      3  C3  BZF d   1       0.709  -1.029  -0.424  0.00  0.00    -0.012 A 
ATOM      4  C3A BZF d   1      -0.025  -0.273   0.544  0.00  0.00    -0.107 A 
ATOM      5  C4  BZF d   1      -0.307  -0.465   1.867  0.00  0.00     0.055 A 
ATOM      6  C5  BZF d   1      -0.987   0.498   2.543  0.00  0.00    -0.016 A 
ATOM      7  C6  BZF d   1      -1.395   1.665   1.930  0.00  0.00     0.022 A 
ATOM      8  C7  BZF d   1      -1.143   1.897   0.619  0.00  0.00     0.029 A 
ATOM      9  C7A BZF d   1      -0.485   0.912  -0.075  0.00  0.00     0.058 A 
ENDROOT
TORSDOF 0
ENDMDL
