MODEL 1
REMARK minimizedAffinity -6.48046684
REMARK minimizedRMSD -1
REMARK  0 active torsions:
REMARK  status: ('A' for Active; 'I' for Inactive)
ROOT
ATOM      1  O1  BZF d   1       0.393  -0.096  -0.951  0.00  0.00    -0.204 OA
ATOM      2  C2  BZF d   1       0.476  -1.151  -0.063  0.00  0.00     0.174 A 
ATOM      3  C3  BZF d   1      -0.054  -0.814   1.131  0.00  0.00    -0.012 A 
ATOM      4  C3A BZF d   1      -0.578   0.505   0.951  0.00  0.00    -0.107 A 
ATOM      5  C4  BZF d   1      -1.240   1.373   1.772  0.00  0.00     0.055 A 
ATOM      6  C5  BZF d   1      -1.549   2.613   1.310  0.00  0.00    -0.016 A 
ATOM      7  C6  BZF d   1      -1.208   3.020   0.037  0.00  0.00     0.022 A 
ATOM      8  C7  BZF d   1      -0.556   2.193  -0.815  0.00  0.00     0.029 A 
ATOM      9  C7A BZF d   1      -0.271   0.928  -0.364  0.00  0.00     0.058 A 
ENDROOT
TORSDOF 0
ENDMDL
