MODEL 1
REMARK minimizedAffinity -3.29759049
REMARK minimizedRMSD -1
REMARK  0 active torsions:
REMARK  status: ('A' for Active; 'I' for Inactive)
ROOT
ATOM      1  O1  BZF d   1      -2.643   1.815   1.405  0.00  0.00    -0.204 OA
ATOM      2  C2  BZF d   1      -3.216   1.771   0.148  0.00  0.00     0.174 A 
ATOM      3  C3  BZF d   1      -2.405   1.140  -0.725  0.00  0.00    -0.012 A 
ATOM      4  C3A BZF d   1      -1.294   0.686   0.053  0.00  0.00    -0.107 A 
ATOM      5  C4  BZF d   1      -0.163  -0.019  -0.246  0.00  0.00     0.055 A 
ATOM      6  C5  BZF d   1       0.758  -0.234   0.729  0.00  0.00    -0.016 A 
ATOM      7  C6  BZF d   1       0.585   0.245   2.011  0.00  0.00     0.022 A 
ATOM      8  C7  BZF d   1      -0.523   0.945   2.357  0.00  0.00     0.029 A 
ATOM      9  C7A BZF d   1      -1.471   1.136   1.382  0.00  0.00     0.058 A 
ENDROOT
TORSDOF 0
ENDMDL
