MODEL 1
REMARK minimizedAffinity -6.11349297
REMARK minimizedRMSD -1
REMARK  0 active torsions:
REMARK  status: ('A' for Active; 'I' for Inactive)
ROOT
ATOM      1  O1  BZF d   1      -1.240   0.507   2.337  0.00  0.00    -0.204 OA
ATOM      2  C2  BZF d   1      -0.555  -0.648   2.011  0.00  0.00     0.174 A 
ATOM      3  C3  BZF d   1       0.046  -0.525   0.810  0.00  0.00    -0.012 A 
ATOM      4  C3A BZF d   1      -0.207   0.822   0.398  0.00  0.00    -0.107 A 
ATOM      5  C4  BZF d   1       0.145   1.549  -0.703  0.00  0.00     0.055 A 
ATOM      6  C5  BZF d   1      -0.325   2.817  -0.834  0.00  0.00    -0.016 A 
ATOM      7  C6  BZF d   1      -1.152   3.387   0.111  0.00  0.00     0.022 A 
ATOM      8  C7  BZF d   1      -1.525   2.707   1.223  0.00  0.00     0.029 A 
ATOM      9  C7A BZF d   1      -1.025   1.436   1.375  0.00  0.00     0.058 A 
ENDROOT
TORSDOF 0
ENDMDL
