MODEL 1
REMARK minimizedAffinity -4.41627264
REMARK minimizedRMSD -1
REMARK  0 active torsions:
REMARK  status: ('A' for Active; 'I' for Inactive)
ROOT
ATOM      1  O1  BZF d   1      -1.314  -0.339   1.766  0.00  0.00    -0.204 OA
ATOM      2  C2  BZF d   1      -2.401   0.504   1.888  0.00  0.00     0.174 A 
ATOM      3  C3  BZF d   1      -2.274   1.570   1.073  0.00  0.00    -0.012 A 
ATOM      4  C3A BZF d   1      -1.074   1.336   0.331  0.00  0.00    -0.107 A 
ATOM      5  C4  BZF d   1      -0.424   2.032  -0.648  0.00  0.00     0.055 A 
ATOM      6  C5  BZF d   1       0.765   1.565  -1.112  0.00  0.00    -0.016 A 
ATOM      7  C6  BZF d   1       1.335   0.411  -0.616  0.00  0.00     0.022 A 
ATOM      8  C7  BZF d   1       0.726  -0.316   0.351  0.00  0.00     0.029 A 
ATOM      9  C7A BZF d   1      -0.492   0.135   0.798  0.00  0.00     0.058 A 
ENDROOT
TORSDOF 0
ENDMDL
