MODEL 1
REMARK minimizedAffinity -3.65937686
REMARK minimizedRMSD -1
REMARK  0 active torsions:
REMARK  status: ('A' for Active; 'I' for Inactive)
ROOT
ATOM      1  O1  BZF d   1      -1.069   1.078   2.514  0.00  0.00    -0.204 OA
ATOM      2  C2  BZF d   1      -1.782   2.062   1.856  0.00  0.00     0.174 A 
ATOM      3  C3  BZF d   1      -1.503   2.053   0.537  0.00  0.00    -0.012 A 
ATOM      4  C3A BZF d   1      -0.628   0.938   0.344  0.00  0.00    -0.107 A 
ATOM      5  C4  BZF d   1      -0.018   0.402  -0.754  0.00  0.00     0.055 A 
ATOM      6  C5  BZF d   1       0.833  -0.645  -0.591  0.00  0.00    -0.016 A 
ATOM      7  C6  BZF d   1       1.102  -1.176   0.654  0.00  0.00     0.022 A 
ATOM      8  C7  BZF d   1       0.517  -0.681   1.772  0.00  0.00     0.029 A 
ATOM      9  C7A BZF d   1      -0.369   0.356   1.607  0.00  0.00     0.058 A 
ENDROOT
TORSDOF 0
ENDMDL
