MODEL 1
REMARK minimizedAffinity -2.75412726
REMARK minimizedRMSD -1
REMARK  0 active torsions:
REMARK  status: ('A' for Active; 'I' for Inactive)
ROOT
ATOM      1  O1  BZF d   1      -0.839  -0.360  -0.743  0.00  0.00    -0.204 OA
ATOM      2  C2  BZF d   1       0.429  -0.905  -0.669  0.00  0.00     0.174 A 
ATOM      3  C3  BZF d   1       1.108  -0.396   0.379  0.00  0.00    -0.012 A 
ATOM      4  C3A BZF d   1       0.176   0.455   1.053  0.00  0.00    -0.107 A 
ATOM      5  C4  BZF d   1       0.254   1.230   2.175  0.00  0.00     0.055 A 
ATOM      6  C5  BZF d   1      -0.812   1.997   2.524  0.00  0.00    -0.016 A 
ATOM      7  C6  BZF d   1      -1.968   2.018   1.771  0.00  0.00     0.022 A 
ATOM      8  C7  BZF d   1      -2.094   1.263   0.652  0.00  0.00     0.029 A 
ATOM      9  C7A BZF d   1      -1.031   0.462   0.316  0.00  0.00     0.058 A 
ENDROOT
TORSDOF 0
ENDMDL
