MODEL 1
REMARK minimizedAffinity -5.48476982
REMARK minimizedRMSD -1
REMARK  0 active torsions:
REMARK  status: ('A' for Active; 'I' for Inactive)
ROOT
ATOM      1  O1  BZF d   1      -1.458   0.928   2.335  0.00  0.00    -0.204 OA
ATOM      2  C2  BZF d   1      -0.952  -0.341   2.127  0.00  0.00     0.174 A 
ATOM      3  C3  BZF d   1      -0.290  -0.406   0.954  0.00  0.00    -0.012 A 
ATOM      4  C3A BZF d   1      -0.309   0.928   0.437  0.00  0.00    -0.107 A 
ATOM      5  C4  BZF d   1       0.200   1.505  -0.692  0.00  0.00     0.055 A 
ATOM      6  C5  BZF d   1      -0.057   2.817  -0.936  0.00  0.00    -0.016 A 
ATOM      7  C6  BZF d   1      -0.822   3.579  -0.078  0.00  0.00     0.022 A 
ATOM      8  C7  BZF d   1      -1.343   3.052   1.057  0.00  0.00     0.029 A 
ATOM      9  C7A BZF d   1      -1.058   1.736   1.323  0.00  0.00     0.058 A 
ENDROOT
TORSDOF 0
ENDMDL
