MODEL 1
REMARK minimizedAffinity -3.39039564
REMARK minimizedRMSD -1
REMARK  3 active torsions:
REMARK  status: ('A' for Active; 'I' for Inactive)
REMARK    1  A    between atoms: C3'_2  and  C2'_3 
REMARK    2  A    between atoms: C2'_3  and  C1'_4 
REMARK    3  A    between atoms: C1'_4  and  C1_5 
ROOT
ATOM      1  C1  N4B d   1      -0.071  -0.125   0.264  0.00  0.00    -0.075 A 
ATOM      2  C2  N4B d   1       0.666   0.818  -0.486  0.00  0.00     0.002 A 
ATOM      3  C3  N4B d   1       1.803   0.429  -1.150  0.00  0.00     0.002 A 
ATOM      4  C4  N4B d   1       2.231  -0.887  -1.065  0.00  0.00    -0.004 A 
ATOM      5  C5  N4B d   1       1.500  -1.797  -0.359  0.00  0.00     0.002 A 
ATOM      6  C6  N4B d   1       0.353  -1.422   0.310  0.00  0.00     0.002 A 
ENDROOT
BRANCH   1   7
ATOM      7  C1' N4B d   1      -1.273   0.271   1.077  0.00  0.00     0.057 C 
BRANCH   7   8
ATOM      8  C2' N4B d   1      -0.879   1.385   2.042  0.00  0.00     0.009 C 
BRANCH   8   9
ATOM      9  C3' N4B d   1      -1.616   1.278   3.366  0.00  0.00     0.004 C 
ATOM     10  C4' N4B d   1      -2.917   0.542   3.248  0.00  0.00     0.003 C 
ENDBRANCH   8   9
ENDBRANCH   7   8
ENDBRANCH   1   7
TORSDOF 3
ENDMDL
