MODEL 1
REMARK minimizedAffinity -0.278291821
REMARK minimizedRMSD -1
REMARK  3 active torsions:
REMARK  status: ('A' for Active; 'I' for Inactive)
REMARK    1  A    between atoms: C3'_2  and  C2'_3 
REMARK    2  A    between atoms: C2'_3  and  C1'_4 
REMARK    3  A    between atoms: C1'_4  and  C1_5 
ROOT
ATOM      1  C1  N4B d   1       0.260  -0.694  -0.190  0.00  0.00    -0.075 A 
ATOM      2  C2  N4B d   1       0.936   0.511  -0.480  0.00  0.00     0.002 A 
ATOM      3  C3  N4B d   1       2.154   0.481  -1.115  0.00  0.00     0.002 A 
ATOM      4  C4  N4B d   1       2.720  -0.739  -1.452  0.00  0.00    -0.004 A 
ATOM      5  C5  N4B d   1       2.049  -1.898  -1.192  0.00  0.00     0.002 A 
ATOM      6  C6  N4B d   1       0.823  -1.882  -0.558  0.00  0.00     0.002 A 
ENDROOT
BRANCH   1   7
ATOM      7  C1' N4B d   1      -1.032  -0.715   0.579  0.00  0.00     0.057 C 
BRANCH   7   8
ATOM      8  C2' N4B d   1      -0.936   0.264   1.746  0.00  0.00     0.009 C 
BRANCH   8   9
ATOM      9  C3' N4B d   1      -1.968  -0.030   2.821  0.00  0.00     0.004 C 
ATOM     10  C4' N4B d   1      -1.871   0.904   3.990  0.00  0.00     0.003 C 
ENDBRANCH   8   9
ENDBRANCH   7   8
ENDBRANCH   1   7
TORSDOF 3
ENDMDL
