MODEL 1
REMARK minimizedAffinity -4.68468094
REMARK minimizedRMSD -1
REMARK  3 active torsions:
REMARK  status: ('A' for Active; 'I' for Inactive)
REMARK    1  A    between atoms: C3'_2  and  C2'_3 
REMARK    2  A    between atoms: C2'_3  and  C1'_4 
REMARK    3  A    between atoms: C1'_4  and  C1_5 
ROOT
ATOM      1  C1  N4B d   1       0.039   0.142  -0.210  0.00  0.00    -0.075 A 
ATOM      2  C2  N4B d   1       1.198   0.842  -0.614  0.00  0.00     0.002 A 
ATOM      3  C3  N4B d   1       2.338   0.150  -0.942  0.00  0.00     0.002 A 
ATOM      4  C4  N4B d   1       2.349  -1.234  -0.856  0.00  0.00    -0.004 A 
ATOM      5  C5  N4B d   1       1.219  -1.903  -0.490  0.00  0.00     0.002 A 
ATOM      6  C6  N4B d   1       0.064  -1.222  -0.161  0.00  0.00     0.002 A 
ENDROOT
BRANCH   1   7
ATOM      7  C1' N4B d   1      -1.204   0.859   0.240  0.00  0.00     0.057 C 
BRANCH   7   8
ATOM      8  C2' N4B d   1      -1.627   0.319   1.604  0.00  0.00     0.009 C 
BRANCH   8   9
ATOM      9  C3' N4B d   1      -1.493   1.366   2.696  0.00  0.00     0.004 C 
ATOM     10  C4' N4B d   1      -1.672   0.797   4.071  0.00  0.00     0.003 C 
ENDBRANCH   8   9
ENDBRANCH   7   8
ENDBRANCH   1   7
TORSDOF 3
ENDMDL
