MODEL 1
REMARK minimizedAffinity -5.5612607
REMARK minimizedRMSD -1
REMARK  3 active torsions:
REMARK  status: ('A' for Active; 'I' for Inactive)
REMARK    1  A    between atoms: C3'_2  and  C2'_3 
REMARK    2  A    between atoms: C2'_3  and  C1'_4 
REMARK    3  A    between atoms: C1'_4  and  C1_5 
ROOT
ATOM      1  C1  N4B d   1       0.007  -0.146   0.004  0.00  0.00    -0.075 A 
ATOM      2  C2  N4B d   1       0.834   0.952  -0.321  0.00  0.00     0.002 A 
ATOM      3  C3  N4B d   1       2.082   0.738  -0.853  0.00  0.00     0.002 A 
ATOM      4  C4  N4B d   1       2.530  -0.559  -1.051  0.00  0.00    -0.004 A 
ATOM      5  C5  N4B d   1       1.716  -1.614  -0.758  0.00  0.00     0.002 A 
ATOM      6  C6  N4B d   1       0.457  -1.414  -0.227  0.00  0.00     0.002 A 
ENDROOT
BRANCH   1   7
ATOM      7  C1' N4B d   1      -1.331   0.036   0.667  0.00  0.00     0.057 C 
BRANCH   7   8
ATOM      8  C2' N4B d   1      -1.126   0.665   2.042  0.00  0.00     0.009 C 
BRANCH   8   9
ATOM      9  C3' N4B d   1      -2.272   0.348   2.988  0.00  0.00     0.004 C 
ATOM     10  C4' N4B d   1      -3.345  -0.479   2.344  0.00  0.00     0.003 C 
ENDBRANCH   8   9
ENDBRANCH   7   8
ENDBRANCH   1   7
TORSDOF 3
ENDMDL
