MODEL 1
REMARK minimizedAffinity -6.85566902
REMARK minimizedRMSD -1
REMARK  3 active torsions:
REMARK  status: ('A' for Active; 'I' for Inactive)
REMARK    1  A    between atoms: C3'_2  and  C2'_3 
REMARK    2  A    between atoms: C2'_3  and  C1'_4 
REMARK    3  A    between atoms: C1'_4  and  C1_5 
ROOT
ATOM      1  C1  N4B d   1       1.642   0.275  -0.916  0.00  0.00    -0.075 A 
ATOM      2  C2  N4B d   1       1.079   1.123  -1.894  0.00  0.00     0.002 A 
ATOM      3  C3  N4B d   1       1.810   1.475  -3.002  0.00  0.00     0.002 A 
ATOM      4  C4  N4B d   1       3.108   1.007  -3.144  0.00  0.00    -0.004 A 
ATOM      5  C5  N4B d   1       3.636   0.167  -2.208  0.00  0.00     0.002 A 
ATOM      6  C6  N4B d   1       2.911  -0.198  -1.091  0.00  0.00     0.002 A 
ENDROOT
BRANCH   1   7
ATOM      7  C1' N4B d   1       0.913  -0.068   0.354  0.00  0.00     0.057 C 
BRANCH   7   8
ATOM      8  C2' N4B d   1      -0.317  -0.905   0.015  0.00  0.00     0.009 C 
BRANCH   8   9
ATOM      9  C3' N4B d   1       0.011  -2.385  -0.079  0.00  0.00     0.004 C 
ATOM     10  C4' N4B d   1      -1.184  -3.225  -0.417  0.00  0.00     0.003 C 
ENDBRANCH   8   9
ENDBRANCH   7   8
ENDBRANCH   1   7
TORSDOF 3
ENDMDL
