MODEL 1
REMARK minimizedAffinity -6.02430725
REMARK minimizedRMSD -1
REMARK  3 active torsions:
REMARK  status: ('A' for Active; 'I' for Inactive)
REMARK    1  A    between atoms: C3'_2  and  C2'_3 
REMARK    2  A    between atoms: C2'_3  and  C1'_4 
REMARK    3  A    between atoms: C1'_4  and  C1_5 
ROOT
ATOM      1  C1  N4B d   1       0.695  -0.111  -0.454  0.00  0.00    -0.075 A 
ATOM      2  C2  N4B d   1       1.876  -0.747  -0.894  0.00  0.00     0.002 A 
ATOM      3  C3  N4B d   1       2.625  -0.184  -1.898  0.00  0.00     0.002 A 
ATOM      4  C4  N4B d   1       2.205   0.999  -2.486  0.00  0.00    -0.004 A 
ATOM      5  C5  N4B d   1       1.077   1.621  -2.037  0.00  0.00     0.002 A 
ATOM      6  C6  N4B d   1       0.316   1.068  -1.027  0.00  0.00     0.002 A 
ENDROOT
BRANCH   1   7
ATOM      7  C1' N4B d   1      -0.203  -0.732   0.581  0.00  0.00     0.057 C 
BRANCH   7   8
ATOM      8  C2' N4B d   1      -1.232   0.299   1.035  0.00  0.00     0.009 C 
BRANCH   8   9
ATOM      9  C3' N4B d   1      -0.897   0.873   2.401  0.00  0.00     0.004 C 
ATOM     10  C4' N4B d   1      -2.089   0.952   3.307  0.00  0.00     0.003 C 
ENDBRANCH   8   9
ENDBRANCH   7   8
ENDBRANCH   1   7
TORSDOF 3
ENDMDL
