MODEL 1
REMARK minimizedAffinity -4.83690119
REMARK minimizedRMSD -1
REMARK  3 active torsions:
REMARK  status: ('A' for Active; 'I' for Inactive)
REMARK    1  A    between atoms: C3'_2  and  C2'_3 
REMARK    2  A    between atoms: C2'_3  and  C1'_4 
REMARK    3  A    between atoms: C1'_4  and  C1_5 
ROOT
ATOM      1  C1  N4B d   1       0.221  -0.040  -0.183  0.00  0.00    -0.075 A 
ATOM      2  C2  N4B d   1       1.345   0.799  -0.350  0.00  0.00     0.002 A 
ATOM      3  C3  N4B d   1       2.545   0.266  -0.752  0.00  0.00     0.002 A 
ATOM      4  C4  N4B d   1       2.649  -1.099  -0.975  0.00  0.00    -0.004 A 
ATOM      5  C5  N4B d   1       1.552  -1.898  -0.836  0.00  0.00     0.002 A 
ATOM      6  C6  N4B d   1       0.339  -1.376  -0.436  0.00  0.00     0.002 A 
ENDROOT
BRANCH   1   7
ATOM      7  C1' N4B d   1      -1.090   0.483   0.338  0.00  0.00     0.057 C 
BRANCH   7   8
ATOM      8  C2' N4B d   1      -0.864   1.133   1.700  0.00  0.00     0.009 C 
BRANCH   8   9
ATOM      9  C3' N4B d   1      -1.994   0.830   2.669  0.00  0.00     0.004 C 
ATOM     10  C4' N4B d   1      -1.561   0.889   4.104  0.00  0.00     0.003 C 
ENDBRANCH   8   9
ENDBRANCH   7   8
ENDBRANCH   1   7
TORSDOF 3
ENDMDL
