MODEL 1
REMARK minimizedAffinity -2.67720032
REMARK minimizedRMSD -1
REMARK  3 active torsions:
REMARK  status: ('A' for Active; 'I' for Inactive)
REMARK    1  A    between atoms: C3'_2  and  C2'_3 
REMARK    2  A    between atoms: C2'_3  and  C1'_4 
REMARK    3  A    between atoms: C1'_4  and  C1_5 
ROOT
ATOM      1  C1  N4B d   1      -1.157   0.709   1.726  0.00  0.00    -0.075 A 
ATOM      2  C2  N4B d   1      -0.270   1.324   2.637  0.00  0.00     0.002 A 
ATOM      3  C3  N4B d   1      -0.670   1.562   3.930  0.00  0.00     0.002 A 
ATOM      4  C4  N4B d   1      -1.952   1.214   4.326  0.00  0.00    -0.004 A 
ATOM      5  C5  N4B d   1      -2.794   0.597   3.447  0.00  0.00     0.002 A 
ATOM      6  C6  N4B d   1      -2.404   0.348   2.146  0.00  0.00     0.002 A 
ENDROOT
BRANCH   1   7
ATOM      7  C1' N4B d   1      -0.795   0.506   0.280  0.00  0.00     0.057 C 
BRANCH   7   8
ATOM      8  C2' N4B d   1       0.660   0.058   0.186  0.00  0.00     0.009 C 
BRANCH   8   9
ATOM      9  C3' N4B d   1       1.517   1.060  -0.568  0.00  0.00     0.004 C 
ATOM     10  C4' N4B d   1       0.725   1.888  -1.536  0.00  0.00     0.003 C 
ENDBRANCH   8   9
ENDBRANCH   7   8
ENDBRANCH   1   7
TORSDOF 3
ENDMDL
