MODEL 1
REMARK minimizedAffinity -4.72467613
REMARK minimizedRMSD -1
REMARK  3 active torsions:
REMARK  status: ('A' for Active; 'I' for Inactive)
REMARK    1  A    between atoms: C3'_2  and  C2'_3 
REMARK    2  A    between atoms: C2'_3  and  C1'_4 
REMARK    3  A    between atoms: C1'_4  and  C1_5 
ROOT
ATOM      1  C1  N4B d   1      -1.316   0.960   1.236  0.00  0.00    -0.075 A 
ATOM      2  C2  N4B d   1      -1.884  -0.062   2.029  0.00  0.00     0.002 A 
ATOM      3  C3  N4B d   1      -2.016   0.114   3.385  0.00  0.00     0.002 A 
ATOM      4  C4  N4B d   1      -1.572   1.291   3.970  0.00  0.00    -0.004 A 
ATOM      5  C5  N4B d   1      -1.048   2.283   3.194  0.00  0.00     0.002 A 
ATOM      6  C6  N4B d   1      -0.913   2.121   1.829  0.00  0.00     0.002 A 
ENDROOT
BRANCH   1   7
ATOM      7  C1' N4B d   1      -1.073   0.779  -0.237  0.00  0.00     0.057 C 
BRANCH   7   8
ATOM      8  C2' N4B d   1       0.421   0.581  -0.477  0.00  0.00     0.009 C 
BRANCH   8   9
ATOM      9  C3' N4B d   1       0.818  -0.884  -0.404  0.00  0.00     0.004 C 
ATOM     10  C4' N4B d   1       2.250  -1.116  -0.786  0.00  0.00     0.003 C 
ENDBRANCH   8   9
ENDBRANCH   7   8
ENDBRANCH   1   7
TORSDOF 3
ENDMDL
