MODEL 1
REMARK minimizedAffinity -4.58345842
REMARK minimizedRMSD -1
REMARK  3 active torsions:
REMARK  status: ('A' for Active; 'I' for Inactive)
REMARK    1  A    between atoms: C3'_2  and  C2'_3 
REMARK    2  A    between atoms: C2'_3  and  C1'_4 
REMARK    3  A    between atoms: C1'_4  and  C1_5 
ROOT
ATOM      1  C1  N4B d   1       0.380   0.148  -0.112  0.00  0.00    -0.075 A 
ATOM      2  C2  N4B d   1       0.227  -1.118  -0.719  0.00  0.00     0.002 A 
ATOM      3  C3  N4B d   1       1.285  -1.697  -1.376  0.00  0.00     0.002 A 
ATOM      4  C4  N4B d   1       2.495  -1.023  -1.455  0.00  0.00    -0.004 A 
ATOM      5  C5  N4B d   1       2.642   0.188  -0.845  0.00  0.00     0.002 A 
ATOM      6  C6  N4B d   1       1.588   0.780  -0.178  0.00  0.00     0.002 A 
ENDROOT
BRANCH   1   7
ATOM      7  C1' N4B d   1      -0.772   0.859   0.543  0.00  0.00     0.057 C 
BRANCH   7   8
ATOM      8  C2' N4B d   1      -1.448  -0.087   1.531  0.00  0.00     0.009 C 
BRANCH   8   9
ATOM      9  C3' N4B d   1      -2.052   0.658   2.709  0.00  0.00     0.004 C 
ATOM     10  C4' N4B d   1      -2.140  -0.185   3.946  0.00  0.00     0.003 C 
ENDBRANCH   8   9
ENDBRANCH   7   8
ENDBRANCH   1   7
TORSDOF 3
ENDMDL
