MODEL 1
REMARK minimizedAffinity -2.49910426
REMARK minimizedRMSD -1
REMARK  3 active torsions:
REMARK  status: ('A' for Active; 'I' for Inactive)
REMARK    1  A    between atoms: C3'_2  and  C2'_3 
REMARK    2  A    between atoms: C2'_3  and  C1'_4 
REMARK    3  A    between atoms: C1'_4  and  C1_5 
ROOT
ATOM      1  C1  N4B d   1      -0.351   0.196   0.150  0.00  0.00    -0.075 A 
ATOM      2  C2  N4B d   1       0.561   0.872  -0.691  0.00  0.00     0.002 A 
ATOM      3  C3  N4B d   1       1.638   0.200  -1.217  0.00  0.00     0.002 A 
ATOM      4  C4  N4B d   1       1.832  -1.137  -0.902  0.00  0.00    -0.004 A 
ATOM      5  C5  N4B d   1       0.933  -1.789  -0.110  0.00  0.00     0.002 A 
ATOM      6  C6  N4B d   1      -0.156  -1.127   0.422  0.00  0.00     0.002 A 
ENDROOT
BRANCH   1   7
ATOM      7  C1' N4B d   1      -1.494   0.910   0.817  0.00  0.00     0.057 C 
BRANCH   7   8
ATOM      8  C2' N4B d   1      -2.119  -0.011   1.860  0.00  0.00     0.009 C 
BRANCH   8   9
ATOM      9  C3' N4B d   1      -2.628   0.760   3.066  0.00  0.00     0.004 C 
ATOM     10  C4' N4B d   1      -1.736   1.905   3.443  0.00  0.00     0.003 C 
ENDBRANCH   8   9
ENDBRANCH   7   8
ENDBRANCH   1   7
TORSDOF 3
ENDMDL
