MODEL 1
REMARK minimizedAffinity -4.55850792
REMARK minimizedRMSD -1
REMARK  1 active torsions:
REMARK  status: ('A' for Active; 'I' for Inactive)
REMARK    1  A    between atoms: C1_2  and  C2_3 
ROOT
ATOM      1  C2  UNL d   1      -0.232  -0.064  -0.176  0.00  0.00    -0.073 A 
ATOM      2  C3  UNL d   1       1.127  -0.372  -0.052  0.00  0.00    -0.002 A 
ATOM      3  C4  UNL d   1       1.655  -0.753   1.182  0.00  0.00     0.004 A 
ATOM      4  C5  UNL d   1       0.828  -0.837   2.302  0.00  0.00    -0.004 A 
ATOM      5  C6  UNL d   1      -0.535  -0.545   2.197  0.00  0.00    -0.075 A 
ATOM      6  C7  UNL d   1      -1.437  -0.629   3.393  0.00  0.00     0.076 C 
ATOM      7  C8  UNL d   1      -1.057  -0.160   0.954  0.00  0.00     0.001 A 
ENDROOT
BRANCH   1   8
ATOM      8  C1  UNL d   1      -0.807   0.342  -1.508  0.00  0.00     0.053 C 
ATOM      9  C   UNL d   1      -0.982   1.849  -1.618  0.00  0.00     0.018 C 
ENDBRANCH   1   8
TORSDOF 1
ENDMDL
