MODEL 1
REMARK minimizedAffinity -2.79206109
REMARK minimizedRMSD -1
REMARK  1 active torsions:
REMARK  status: ('A' for Active; 'I' for Inactive)
REMARK    1  A    between atoms: C1_2  and  C2_3 
ROOT
ATOM      1  C2  UNL d   1      -0.358   0.044  -0.456  0.00  0.00    -0.073 A 
ATOM      2  C3  UNL d   1      -1.684   0.276  -0.075  0.00  0.00    -0.002 A 
ATOM      3  C4  UNL d   1      -2.105  -0.014   1.224  0.00  0.00     0.004 A 
ATOM      4  C5  UNL d   1      -1.205  -0.531   2.155  0.00  0.00    -0.004 A 
ATOM      5  C6  UNL d   1       0.128  -0.758   1.797  0.00  0.00    -0.075 A 
ATOM      6  C7  UNL d   1       1.108  -1.316   2.786  0.00  0.00     0.076 C 
ATOM      7  C8  UNL d   1       0.543  -0.467   0.490  0.00  0.00     0.001 A 
ENDROOT
BRANCH   1   8
ATOM      8  C1  UNL d   1       0.104   0.362  -1.855  0.00  0.00     0.053 C 
ATOM      9  C   UNL d   1      -0.813   1.360  -2.544  0.00  0.00     0.018 C 
ENDBRANCH   1   8
TORSDOF 1
ENDMDL
