MODEL 1
REMARK minimizedAffinity -1.06886625
REMARK minimizedRMSD -1
REMARK  1 active torsions:
REMARK  status: ('A' for Active; 'I' for Inactive)
REMARK    1  A    between atoms: C1_2  and  C2_3 
ROOT
ATOM      1  C2  UNL d   1      -1.931   2.736  -2.386  0.00  0.00    -0.073 A 
ATOM      2  C3  UNL d   1      -0.994   3.583  -2.988  0.00  0.00    -0.002 A 
ATOM      3  C4  UNL d   1       0.286   3.116  -3.291  0.00  0.00     0.004 A 
ATOM      4  C5  UNL d   1       0.639   1.799  -3.002  0.00  0.00    -0.004 A 
ATOM      5  C6  UNL d   1      -0.287   0.933  -2.411  0.00  0.00    -0.075 A 
ATOM      6  C7  UNL d   1       0.078  -0.486  -2.091  0.00  0.00     0.076 C 
ATOM      7  C8  UNL d   1      -1.569   1.410  -2.107  0.00  0.00     0.001 A 
ENDROOT
BRANCH   1   8
ATOM      8  C1  UNL d   1      -3.316   3.234  -2.063  0.00  0.00     0.053 C 
ATOM      9  C   UNL d   1      -4.394   2.302  -2.592  0.00  0.00     0.018 C 
ENDBRANCH   1   8
TORSDOF 1
ENDMDL
