MODEL 1
REMARK minimizedAffinity -5.673069
REMARK minimizedRMSD -1
REMARK  1 active torsions:
REMARK  status: ('A' for Active; 'I' for Inactive)
REMARK    1  A    between atoms: C1_2  and  C2_3 
ROOT
ATOM      1  C2  UNL d   1       0.092  -0.300  -0.691  0.00  0.00    -0.073 A 
ATOM      2  C3  UNL d   1       1.057  -1.006  -1.419  0.00  0.00    -0.002 A 
ATOM      3  C4  UNL d   1       2.120  -1.628  -0.763  0.00  0.00     0.004 A 
ATOM      4  C5  UNL d   1       2.226  -1.556   0.626  0.00  0.00    -0.004 A 
ATOM      5  C6  UNL d   1       1.266  -0.865   1.372  0.00  0.00    -0.075 A 
ATOM      6  C7  UNL d   1       1.367  -0.777   2.867  0.00  0.00     0.076 C 
ATOM      7  C8  UNL d   1       0.203  -0.241   0.706  0.00  0.00     0.001 A 
ENDROOT
BRANCH   1   8
ATOM      8  C1  UNL d   1      -1.061   0.368  -1.394  0.00  0.00     0.053 C 
ATOM      9  C   UNL d   1      -0.660   1.699  -2.010  0.00  0.00     0.018 C 
ENDBRANCH   1   8
TORSDOF 1
ENDMDL
