MODEL 1
REMARK minimizedAffinity -4.78765583
REMARK minimizedRMSD -1
REMARK  1 active torsions:
REMARK  status: ('A' for Active; 'I' for Inactive)
REMARK    1  A    between atoms: C1_2  and  C2_3 
ROOT
ATOM      1  C2  UNL d   1      -2.261   2.003  -1.819  0.00  0.00    -0.073 A 
ATOM      2  C3  UNL d   1      -1.596   1.661  -3.002  0.00  0.00    -0.002 A 
ATOM      3  C4  UNL d   1      -0.562   0.724  -2.984  0.00  0.00     0.004 A 
ATOM      4  C5  UNL d   1      -0.188   0.114  -1.787  0.00  0.00    -0.004 A 
ATOM      5  C6  UNL d   1      -0.849   0.433  -0.597  0.00  0.00    -0.075 A 
ATOM      6  C7  UNL d   1      -0.457  -0.213   0.700  0.00  0.00     0.076 C 
ATOM      7  C8  UNL d   1      -1.884   1.377  -0.622  0.00  0.00     0.001 A 
ENDROOT
BRANCH   1   8
ATOM      8  C1  UNL d   1      -3.382   3.009  -1.834  0.00  0.00     0.053 C 
ATOM      9  C   UNL d   1      -4.727   2.361  -2.122  0.00  0.00     0.018 C 
ENDBRANCH   1   8
TORSDOF 1
ENDMDL
