MODEL 1
REMARK minimizedAffinity 2.40234256
REMARK minimizedRMSD -1
REMARK  0 active torsions:
REMARK  status: ('A' for Active; 'I' for Inactive)
ROOT
ATOM      1  O1  BZF d   1       0.379   4.467  -4.474  0.00  0.00    -0.204 OA
ATOM      2  C2  BZF d   1       0.396   4.102  -3.142  0.00  0.00     0.174 A 
ATOM      3  C3  BZF d   1       1.602   4.354  -2.593  0.00  0.00    -0.012 A 
ATOM      4  C3A BZF d   1       2.358   4.997  -3.623  0.00  0.00    -0.107 A 
ATOM      5  C4  BZF d   1       3.626   5.502  -3.681  0.00  0.00     0.055 A 
ATOM      6  C5  BZF d   1       4.085   5.998  -4.860  0.00  0.00    -0.016 A 
ATOM      7  C6  BZF d   1       3.308   6.000  -6.000  0.00  0.00     0.022 A 
ATOM      8  C7  BZF d   1       2.043   5.514  -5.990  0.00  0.00     0.029 A 
ATOM      9  C7A BZF d   1       1.564   5.042  -4.792  0.00  0.00     0.058 A 
ENDROOT
TORSDOF 0
ENDMDL
