MODEL 1
REMARK minimizedAffinity -1.48025274
REMARK minimizedRMSD -1
REMARK  0 active torsions:
REMARK  status: ('A' for Active; 'I' for Inactive)
ROOT
ATOM      1  O1  BZF d   1       5.665   1.360  -1.037  0.00  0.00    -0.204 OA
ATOM      2  C2  BZF d   1       5.673   2.301  -2.049  0.00  0.00     0.174 A 
ATOM      3  C3  BZF d   1       4.652   3.171  -1.901  0.00  0.00    -0.012 A 
ATOM      4  C3A BZF d   1       4.019   2.802  -0.672  0.00  0.00    -0.107 A 
ATOM      5  C4  BZF d   1       2.954   3.302   0.022  0.00  0.00     0.055 A 
ATOM      6  C5  BZF d   1       2.546   2.667   1.152  0.00  0.00    -0.016 A 
ATOM      7  C6  BZF d   1       3.175   1.529   1.613  0.00  0.00     0.022 A 
ATOM      8  C7  BZF d   1       4.238   0.999   0.961  0.00  0.00     0.029 A 
ATOM      9  C7A BZF d   1       4.674   1.657  -0.163  0.00  0.00     0.058 A 
ENDROOT
TORSDOF 0
ENDMDL
