MODEL 1
REMARK minimizedAffinity 15.8348637
REMARK minimizedRMSD -1
REMARK  0 active torsions:
REMARK  status: ('A' for Active; 'I' for Inactive)
ROOT
ATOM      1  O1  BZF d   1       0.879   2.572  -5.960  0.00  0.00    -0.204 OA
ATOM      2  C2  BZF d   1       1.170   3.922  -5.941  0.00  0.00     0.174 A 
ATOM      3  C3  BZF d   1       2.502   4.124  -5.886  0.00  0.00    -0.012 A 
ATOM      4  C3A BZF d   1       3.084   2.819  -5.963  0.00  0.00    -0.107 A 
ATOM      5  C4  BZF d   1       4.371   2.364  -5.973  0.00  0.00     0.055 A 
ATOM      6  C5  BZF d   1       4.598   1.024  -5.983  0.00  0.00    -0.016 A 
ATOM      7  C6  BZF d   1       3.563   0.112  -5.979  0.00  0.00     0.022 A 
ATOM      8  C7  BZF d   1       2.269   0.516  -5.975  0.00  0.00     0.029 A 
ATOM      9  C7A BZF d   1       2.036   1.869  -5.998  0.00  0.00     0.058 A 
ENDROOT
TORSDOF 0
ENDMDL
