MODEL 1
REMARK minimizedAffinity 11.8835278
REMARK minimizedRMSD -1
REMARK  0 active torsions:
REMARK  status: ('A' for Active; 'I' for Inactive)
ROOT
ATOM      1  O1  BZF d   1       1.982   2.271  -5.956  0.00  0.00    -0.204 OA
ATOM      2  C2  BZF d   1       1.962   3.653  -5.951  0.00  0.00     0.174 A 
ATOM      3  C3  BZF d   1       3.215   4.149  -5.910  0.00  0.00    -0.012 A 
ATOM      4  C3A BZF d   1       4.074   3.007  -5.981  0.00  0.00    -0.107 A 
ATOM      5  C4  BZF d   1       5.431   2.853  -5.998  0.00  0.00     0.055 A 
ATOM      6  C5  BZF d   1       5.953   1.598  -6.000  0.00  0.00    -0.016 A 
ATOM      7  C6  BZF d   1       5.149   0.477  -5.979  0.00  0.00     0.022 A 
ATOM      8  C7  BZF d   1       3.798   0.580  -5.967  0.00  0.00     0.029 A 
ATOM      9  C7A BZF d   1       3.267   1.846  -5.999  0.00  0.00     0.058 A 
ENDROOT
TORSDOF 0
ENDMDL
