MODEL 1
REMARK minimizedAffinity 6.74545336
REMARK minimizedRMSD -1
REMARK  0 active torsions:
REMARK  status: ('A' for Active; 'I' for Inactive)
ROOT
ATOM      1  O1  BZF d   1       1.250  -0.716   4.947  0.00  0.00    -0.204 OA
ATOM      2  C2  BZF d   1      -0.009  -0.287   4.576  0.00  0.00     0.174 A 
ATOM      3  C3  BZF d   1      -0.013   0.134   3.294  0.00  0.00    -0.012 A 
ATOM      4  C3A BZF d   1       1.307  -0.130   2.808  0.00  0.00    -0.107 A 
ATOM      5  C4  BZF d   1       1.916   0.054   1.600  0.00  0.00     0.055 A 
ATOM      6  C5  BZF d   1       3.237  -0.241   1.475  0.00  0.00    -0.016 A 
ATOM      7  C6  BZF d   1       3.979  -0.715   2.537  0.00  0.00     0.022 A 
ATOM      8  C7  BZF d   1       3.417  -0.918   3.753  0.00  0.00     0.029 A 
ATOM      9  C7A BZF d   1       2.074  -0.653   3.874  0.00  0.00     0.058 A 
ENDROOT
TORSDOF 0
ENDMDL
