MODEL 1
REMARK minimizedAffinity -2.48243356
REMARK minimizedRMSD -1
REMARK  0 active torsions:
REMARK  status: ('A' for Active; 'I' for Inactive)
ROOT
ATOM      1  O1  BZF d   1      -2.145  -2.666  -4.278  0.00  0.00    -0.204 OA
ATOM      2  C2  BZF d   1      -1.455  -1.481  -4.111  0.00  0.00     0.174 A 
ATOM      3  C3  BZF d   1      -1.597  -1.018  -2.852  0.00  0.00    -0.012 A 
ATOM      4  C3A BZF d   1      -2.352  -2.021  -2.165  0.00  0.00    -0.107 A 
ATOM      5  C4  BZF d   1      -2.800  -2.144  -0.881  0.00  0.00     0.055 A 
ATOM      6  C5  BZF d   1      -3.572  -3.212  -0.550  0.00  0.00    -0.016 A 
ATOM      7  C6  BZF d   1      -3.919  -4.172  -1.478  0.00  0.00     0.022 A 
ATOM      8  C7  BZF d   1      -3.495  -4.096  -2.763  0.00  0.00     0.029 A 
ATOM      9  C7A BZF d   1      -2.687  -3.035  -3.092  0.00  0.00     0.058 A 
ENDROOT
TORSDOF 0
ENDMDL
