MODEL 1
REMARK minimizedAffinity 7.5337348
REMARK minimizedRMSD -1
REMARK  0 active torsions:
REMARK  status: ('A' for Active; 'I' for Inactive)
ROOT
ATOM      1  O1  BZF d   1       0.915   5.935  -3.311  0.00  0.00    -0.204 OA
ATOM      2  C2  BZF d   1       0.249   4.917  -2.656  0.00  0.00     0.174 A 
ATOM      3  C3  BZF d   1       0.565   3.719  -3.188  0.00  0.00    -0.012 A 
ATOM      4  C3A BZF d   1       1.557   3.998  -4.181  0.00  0.00    -0.107 A 
ATOM      5  C4  BZF d   1       2.271   3.214  -5.041  0.00  0.00     0.055 A 
ATOM      6  C5  BZF d   1       3.108   3.805  -5.934  0.00  0.00    -0.016 A 
ATOM      7  C6  BZF d   1       3.249   5.175  -5.999  0.00  0.00     0.022 A 
ATOM      8  C7  BZF d   1       2.565   5.995  -5.164  0.00  0.00     0.029 A 
ATOM      9  C7A BZF d   1       1.744   5.399  -4.238  0.00  0.00     0.058 A 
ENDROOT
TORSDOF 0
ENDMDL
