MODEL 1
REMARK minimizedAffinity 7.38099957
REMARK minimizedRMSD -1
REMARK  0 active torsions:
REMARK  status: ('A' for Active; 'I' for Inactive)
ROOT
ATOM      1  O1  BZF d   1      -5.072  -3.459  -4.681  0.00  0.00    -0.204 OA
ATOM      2  C2  BZF d   1      -5.357  -3.520  -3.330  0.00  0.00     0.174 A 
ATOM      3  C3  BZF d   1      -4.229  -3.698  -2.612  0.00  0.00    -0.012 A 
ATOM      4  C3A BZF d   1      -3.164  -3.660  -3.567  0.00  0.00    -0.107 A 
ATOM      5  C4  BZF d   1      -1.807  -3.763  -3.464  0.00  0.00     0.055 A 
ATOM      6  C5  BZF d   1      -1.056  -3.758  -4.597  0.00  0.00    -0.016 A 
ATOM      7  C6  BZF d   1      -1.629  -3.657  -5.847  0.00  0.00     0.022 A 
ATOM      8  C7  BZF d   1      -2.972  -3.547  -6.000  0.00  0.00     0.029 A 
ATOM      9  C7A BZF d   1      -3.730  -3.519  -4.855  0.00  0.00     0.058 A 
ENDROOT
TORSDOF 0
ENDMDL
