MODEL 1
REMARK minimizedAffinity 17.0555286
REMARK minimizedRMSD -1
REMARK  0 active torsions:
REMARK  status: ('A' for Active; 'I' for Inactive)
ROOT
ATOM      1  O1  BZF d   1      -3.000  -3.383  -5.218  0.00  0.00    -0.204 OA
ATOM      2  C2  BZF d   1      -2.005  -2.827  -5.998  0.00  0.00     0.174 A 
ATOM      3  C3  BZF d   1      -1.258  -1.966  -5.278  0.00  0.00    -0.012 A 
ATOM      4  C3A BZF d   1      -1.764  -2.054  -3.943  0.00  0.00    -0.107 A 
ATOM      5  C4  BZF d   1      -1.422  -1.450  -2.767  0.00  0.00     0.055 A 
ATOM      6  C5  BZF d   1      -2.162  -1.700  -1.655  0.00  0.00    -0.016 A 
ATOM      7  C6  BZF d   1      -3.254  -2.544  -1.685  0.00  0.00     0.022 A 
ATOM      8  C7  BZF d   1      -3.629  -3.170  -2.827  0.00  0.00     0.029 A 
ATOM      9  C7A BZF d   1      -2.862  -2.945  -3.944  0.00  0.00     0.058 A 
ENDROOT
TORSDOF 0
ENDMDL
