MODEL 1
REMARK minimizedAffinity 22.7671604
REMARK minimizedRMSD -1
REMARK  0 active torsions:
REMARK  status: ('A' for Active; 'I' for Inactive)
ROOT
ATOM      1  O1  BZF d   1      -3.195  -2.707  -2.389  0.00  0.00    -0.204 OA
ATOM      2  C2  BZF d   1      -2.185  -2.243  -1.569  0.00  0.00     0.174 A 
ATOM      3  C3  BZF d   1      -1.095  -1.913  -2.291  0.00  0.00    -0.012 A 
ATOM      4  C3A BZF d   1      -1.478  -2.101  -3.657  0.00  0.00    -0.107 A 
ATOM      5  C4  BZF d   1      -0.831  -1.924  -4.846  0.00  0.00     0.055 A 
ATOM      6  C5  BZF d   1      -1.462  -2.269  -5.999  0.00  0.00    -0.016 A 
ATOM      7  C6  BZF d   1      -2.736  -2.799  -5.999  0.00  0.00     0.022 A 
ATOM      8  C7  BZF d   1      -3.419  -2.989  -4.845  0.00  0.00     0.029 A 
ATOM      9  C7A BZF d   1      -2.797  -2.610  -3.680  0.00  0.00     0.058 A 
ENDROOT
TORSDOF 0
ENDMDL
