MODEL 1
REMARK minimizedAffinity 13.8763552
REMARK minimizedRMSD -1
REMARK  0 active torsions:
REMARK  status: ('A' for Active; 'I' for Inactive)
ROOT
ATOM      1  O1  BZF d   1       0.815  -1.761   0.310  0.00  0.00    -0.204 OA
ATOM      2  C2  BZF d   1      -0.382  -2.439   0.189  0.00  0.00     0.174 A 
ATOM      3  C3  BZF d   1      -1.307  -1.930   1.028  0.00  0.00    -0.012 A 
ATOM      4  C3A BZF d   1      -0.675  -0.808   1.650  0.00  0.00    -0.107 A 
ATOM      5  C4  BZF d   1      -1.089   0.113   2.569  0.00  0.00     0.055 A 
ATOM      6  C5  BZF d   1      -0.203   1.039   3.023  0.00  0.00    -0.016 A 
ATOM      7  C6  BZF d   1       1.104   1.068   2.583  0.00  0.00     0.022 A 
ATOM      8  C7  BZF d   1       1.560   0.178   1.669  0.00  0.00     0.029 A 
ATOM      9  C7A BZF d   1       0.658  -0.737   1.184  0.00  0.00     0.058 A 
ENDROOT
TORSDOF 0
ENDMDL
