MODEL 1
REMARK minimizedAffinity 8.58297062
REMARK minimizedRMSD -1
REMARK  0 active torsions:
REMARK  status: ('A' for Active; 'I' for Inactive)
ROOT
ATOM      1  O1  BZF d   1      -0.363  -2.143   2.134  0.00  0.00    -0.204 OA
ATOM      2  C2  BZF d   1      -1.395  -1.639   2.901  0.00  0.00     0.174 A 
ATOM      3  C3  BZF d   1      -2.502  -1.456   2.153  0.00  0.00    -0.012 A 
ATOM      4  C3A BZF d   1      -2.167  -1.958   0.856  0.00  0.00    -0.107 A 
ATOM      5  C4  BZF d   1      -2.859  -2.067  -0.317  0.00  0.00     0.055 A 
ATOM      6  C5  BZF d   1      -2.219  -2.535  -1.420  0.00  0.00    -0.016 A 
ATOM      7  C6  BZF d   1      -0.888  -2.898  -1.389  0.00  0.00     0.022 A 
ATOM      8  C7  BZF d   1      -0.162  -2.813  -0.248  0.00  0.00     0.029 A 
ATOM      9  C7A BZF d   1      -0.815  -2.371   0.877  0.00  0.00     0.058 A 
ENDROOT
TORSDOF 0
ENDMDL
