MODEL 1
REMARK minimizedAffinity 8.71592045
REMARK minimizedRMSD -1
REMARK  0 active torsions:
REMARK  status: ('A' for Active; 'I' for Inactive)
ROOT
ATOM      1  O1  BZF d   1      -0.810  -4.639   1.646  0.00  0.00    -0.204 OA
ATOM      2  C2  BZF d   1      -0.036  -4.256   0.567  0.00  0.00     0.174 A 
ATOM      3  C3  BZF d   1      -0.062  -2.916   0.411  0.00  0.00    -0.012 A 
ATOM      4  C3A BZF d   1      -0.831  -2.424   1.513  0.00  0.00    -0.107 A 
ATOM      5  C4  BZF d   1      -1.198  -1.172   1.917  0.00  0.00     0.055 A 
ATOM      6  C5  BZF d   1      -2.013  -1.039   2.996  0.00  0.00    -0.016 A 
ATOM      7  C6  BZF d   1      -2.484  -2.134   3.690  0.00  0.00     0.022 A 
ATOM      8  C7  BZF d   1      -2.143  -3.395   3.330  0.00  0.00     0.029 A 
ATOM      9  C7A BZF d   1      -1.293  -3.532   2.260  0.00  0.00     0.058 A 
ENDROOT
TORSDOF 0
ENDMDL
