MODEL 1
REMARK minimizedAffinity -0.586199343
REMARK minimizedRMSD -1
REMARK  0 active torsions:
REMARK  status: ('A' for Active; 'I' for Inactive)
ROOT
ATOM      1  O1  BZF d   1      -5.061  -3.493   0.055  0.00  0.00    -0.204 OA
ATOM      2  C2  BZF d   1      -5.702  -4.552  -0.557  0.00  0.00     0.174 A 
ATOM      3  C3  BZF d   1      -4.956  -5.044  -1.567  0.00  0.00    -0.012 A 
ATOM      4  C3A BZF d   1      -3.733  -4.302  -1.527  0.00  0.00    -0.107 A 
ATOM      5  C4  BZF d   1      -2.588  -4.340  -2.269  0.00  0.00     0.055 A 
ATOM      6  C5  BZF d   1      -1.609  -3.430  -2.021  0.00  0.00    -0.016 A 
ATOM      7  C6  BZF d   1      -1.745  -2.466  -1.043  0.00  0.00     0.022 A 
ATOM      8  C7  BZF d   1      -2.862  -2.392  -0.278  0.00  0.00     0.029 A 
ATOM      9  C7A BZF d   1      -3.838  -3.331  -0.505  0.00  0.00     0.058 A 
ENDROOT
TORSDOF 0
ENDMDL
