MODEL 1
REMARK minimizedAffinity 4.07888126
REMARK minimizedRMSD -1
REMARK  0 active torsions:
REMARK  status: ('A' for Active; 'I' for Inactive)
ROOT
ATOM      1  O1  BZF d   1      -3.740  -3.362  -4.491  0.00  0.00    -0.204 OA
ATOM      2  C2  BZF d   1      -2.478  -3.176  -5.022  0.00  0.00     0.174 A 
ATOM      3  C3  BZF d   1      -1.680  -2.533  -4.145  0.00  0.00    -0.012 A 
ATOM      4  C3A BZF d   1      -2.467  -2.386  -2.959  0.00  0.00    -0.107 A 
ATOM      5  C4  BZF d   1      -2.221  -1.840  -1.731  0.00  0.00     0.055 A 
ATOM      6  C5  BZF d   1      -3.225  -1.790  -0.817  0.00  0.00    -0.016 A 
ATOM      7  C6  BZF d   1      -4.488  -2.271  -1.099  0.00  0.00     0.022 A 
ATOM      8  C7  BZF d   1      -4.778  -2.826  -2.301  0.00  0.00     0.029 A 
ATOM      9  C7A BZF d   1      -3.756  -2.907  -3.215  0.00  0.00     0.058 A 
ENDROOT
TORSDOF 0
ENDMDL
