MODEL 1
REMARK minimizedAffinity 17.4435997
REMARK minimizedRMSD -1
REMARK  0 active torsions:
REMARK  status: ('A' for Active; 'I' for Inactive)
ROOT
ATOM      1  O1  BZF d   1       0.083   1.677   3.149  0.00  0.00    -0.204 OA
ATOM      2  C2  BZF d   1       0.046   0.465   3.811  0.00  0.00     0.174 A 
ATOM      3  C3  BZF d   1       1.045  -0.340   3.391  0.00  0.00    -0.012 A 
ATOM      4  C3A BZF d   1       1.805   0.451   2.473  0.00  0.00    -0.107 A 
ATOM      5  C4  BZF d   1       2.929   0.213   1.736  0.00  0.00     0.055 A 
ATOM      6  C5  BZF d   1       3.374   1.171   0.881  0.00  0.00    -0.016 A 
ATOM      7  C6  BZF d   1       2.718   2.375   0.735  0.00  0.00     0.022 A 
ATOM      8  C7  BZF d   1       1.601   2.660   1.449  0.00  0.00     0.029 A 
ATOM      9  C7A BZF d   1       1.168   1.706   2.337  0.00  0.00     0.058 A 
ENDROOT
TORSDOF 0
ENDMDL
