MODEL 1
REMARK minimizedAffinity 2.51590586
REMARK minimizedRMSD -1
REMARK  0 active torsions:
REMARK  status: ('A' for Active; 'I' for Inactive)
ROOT
ATOM      1  O1  BZF d   1       5.251   2.818  -4.071  0.00  0.00    -0.204 OA
ATOM      2  C2  BZF d   1       5.075   1.925  -5.110  0.00  0.00     0.174 A 
ATOM      3  C3  BZF d   1       4.177   2.395  -5.999  0.00  0.00    -0.012 A 
ATOM      4  C3A BZF d   1       3.834   3.703  -5.531  0.00  0.00    -0.107 A 
ATOM      5  C4  BZF d   1       2.999   4.678  -5.998  0.00  0.00     0.055 A 
ATOM      6  C5  BZF d   1       2.834   5.811  -5.266  0.00  0.00    -0.016 A 
ATOM      7  C6  BZF d   1       3.481   6.000  -4.063  0.00  0.00     0.022 A 
ATOM      8  C7  BZF d   1       4.322   5.063  -3.562  0.00  0.00     0.029 A 
ATOM      9  C7A BZF d   1       4.518   3.931  -4.315  0.00  0.00     0.058 A 
ENDROOT
TORSDOF 0
ENDMDL
