MODEL 1
REMARK minimizedAffinity -3.38671136
REMARK minimizedRMSD -1
REMARK  1 active torsions:
REMARK  status: ('A' for Active; 'I' for Inactive)
REMARK    1  A    between atoms: C3_4  and  O_7 
ROOT
ATOM      1  C   UNL d   1      -0.044   1.549   0.023  0.00  0.00    -0.033 A 
ATOM      2  C1  UNL d   1       0.909   0.556  -0.206  0.00  0.00     0.039 A 
ATOM      3  C2  UNL d   1       0.694  -0.742   0.262  0.00  0.00    -0.080 A 
ATOM      4  C3  UNL d   1      -0.477  -1.032   0.956  0.00  0.00     0.150 A 
ATOM      5  C4  UNL d   1      -1.433  -0.048   1.185  0.00  0.00    -0.007 A 
ATOM      6  C5  UNL d   1      -1.216   1.247   0.717  0.00  0.00     0.039 A 
ENDROOT
BRANCH   4   7
ATOM      7  O   UNL d   1      -0.729  -2.283   1.437  0.00  0.00    -0.526 OA
ATOM      8  H5  UNL d   1       0.032  -2.851   1.230  0.00  0.00     0.418 HD
ENDBRANCH   4   7
TORSDOF 1
ENDMDL
