MODEL 1
REMARK minimizedAffinity -3.82164598
REMARK minimizedRMSD -1
REMARK  1 active torsions:
REMARK  status: ('A' for Active; 'I' for Inactive)
REMARK    1  A    between atoms: C3_4  and  O_7 
ROOT
ATOM      1  C   UNL d   1      -0.063   0.448  -0.137  0.00  0.00    -0.033 A 
ATOM      2  C1  UNL d   1       0.756  -0.674   0.004  0.00  0.00     0.039 A 
ATOM      3  C2  UNL d   1       0.209  -1.896   0.399  0.00  0.00    -0.080 A 
ATOM      4  C3  UNL d   1      -1.158  -1.982   0.650  0.00  0.00     0.150 A 
ATOM      5  C4  UNL d   1      -1.981  -0.870   0.508  0.00  0.00    -0.007 A 
ATOM      6  C5  UNL d   1      -1.432   0.350   0.114  0.00  0.00     0.039 A 
ENDROOT
BRANCH   4   7
ATOM      7  O   UNL d   1      -1.738  -3.152   1.043  0.00  0.00    -0.526 OA
ATOM      8  H5  UNL d   1      -1.043  -3.827   1.126  0.00  0.00     0.418 HD
ENDBRANCH   4   7
TORSDOF 1
ENDMDL
