MODEL 1
REMARK minimizedAffinity -1.8276571
REMARK minimizedRMSD -1
REMARK  1 active torsions:
REMARK  status: ('A' for Active; 'I' for Inactive)
REMARK    1  A    between atoms: C3_4  and  O_7 
ROOT
ATOM      1  C   UNL d   1       2.249   1.422   1.023  0.00  0.00    -0.033 A 
ATOM      2  C1  UNL d   1       2.136   0.038   1.169  0.00  0.00     0.039 A 
ATOM      3  C2  UNL d   1       3.149  -0.684   1.804  0.00  0.00    -0.080 A 
ATOM      4  C3  UNL d   1       4.267  -0.010   2.289  0.00  0.00     0.150 A 
ATOM      5  C4  UNL d   1       4.384   1.369   2.150  0.00  0.00    -0.007 A 
ATOM      6  C5  UNL d   1       3.372   2.087   1.514  0.00  0.00     0.039 A 
ENDROOT
BRANCH   4   7
ATOM      7  O   UNL d   1       5.283  -0.672   2.912  0.00  0.00    -0.526 OA
ATOM      8  H5  UNL d   1       5.079  -1.622   2.910  0.00  0.00     0.418 HD
ENDBRANCH   4   7
TORSDOF 1
ENDMDL
