MODEL 1
REMARK minimizedAffinity 0.749418855
REMARK minimizedRMSD -1
REMARK  1 active torsions:
REMARK  status: ('A' for Active; 'I' for Inactive)
REMARK    1  A    between atoms: C3_4  and  O_7 
ROOT
ATOM      1  C   UNL d   1       3.627   4.221   0.865  0.00  0.00    -0.033 A 
ATOM      2  C1  UNL d   1       3.378   2.981   0.273  0.00  0.00     0.039 A 
ATOM      3  C2  UNL d   1       3.659   1.804   0.970  0.00  0.00    -0.080 A 
ATOM      4  C3  UNL d   1       4.187   1.881   2.256  0.00  0.00     0.150 A 
ATOM      5  C4  UNL d   1       4.433   3.113   2.853  0.00  0.00    -0.007 A 
ATOM      6  C5  UNL d   1       4.153   4.287   2.156  0.00  0.00     0.039 A 
ENDROOT
BRANCH   4   7
ATOM      7  O   UNL d   1       4.482   0.760   2.973  0.00  0.00    -0.526 OA
ATOM      8  H5  UNL d   1       4.286  -0.017   2.424  0.00  0.00     0.418 HD
ENDBRANCH   4   7
TORSDOF 1
ENDMDL
