MODEL 1
REMARK minimizedAffinity 1.71892011
REMARK minimizedRMSD -1
REMARK  1 active torsions:
REMARK  status: ('A' for Active; 'I' for Inactive)
REMARK    1  A    between atoms: C3_4  and  O_7 
ROOT
ATOM      1  C   UNL d   1      -2.338  -1.615   0.256  0.00  0.00    -0.033 A 
ATOM      2  C1  UNL d   1      -1.148  -1.229  -0.363  0.00  0.00     0.039 A 
ATOM      3  C2  UNL d   1      -0.661   0.070  -0.195  0.00  0.00    -0.080 A 
ATOM      4  C3  UNL d   1      -1.373   0.969   0.593  0.00  0.00     0.150 A 
ATOM      5  C4  UNL d   1      -2.558   0.590   1.215  0.00  0.00    -0.007 A 
ATOM      6  C5  UNL d   1      -3.042  -0.706   1.046  0.00  0.00     0.039 A 
ENDROOT
BRANCH   4   7
ATOM      7  O   UNL d   1      -0.941   2.248   0.782  0.00  0.00    -0.526 OA
ATOM      8  H5  UNL d   1      -0.126   2.377   0.268  0.00  0.00     0.418 HD
ENDBRANCH   4   7
TORSDOF 1
ENDMDL
