MODEL 1
REMARK minimizedAffinity 1.41481602
REMARK minimizedRMSD -1
REMARK  1 active torsions:
REMARK  status: ('A' for Active; 'I' for Inactive)
REMARK    1  A    between atoms: C3_4  and  O_7 
ROOT
ATOM      1  C   UNL d   1      -0.453   2.544  -3.305  0.00  0.00    -0.033 A 
ATOM      2  C1  UNL d   1      -0.293   2.282  -4.667  0.00  0.00     0.039 A 
ATOM      3  C2  UNL d   1       0.956   1.905  -5.166  0.00  0.00    -0.080 A 
ATOM      4  C3  UNL d   1       2.034   1.793  -4.293  0.00  0.00     0.150 A 
ATOM      5  C4  UNL d   1       1.881   2.048  -2.934  0.00  0.00    -0.007 A 
ATOM      6  C5  UNL d   1       0.634   2.426  -2.438  0.00  0.00     0.039 A 
ENDROOT
BRANCH   4   7
ATOM      7  O   UNL d   1       3.273   1.433  -4.733  0.00  0.00    -0.526 OA
ATOM      8  H5  UNL d   1       3.235   1.316  -5.697  0.00  0.00     0.418 HD
ENDBRANCH   4   7
TORSDOF 1
ENDMDL
