MODEL 1
REMARK minimizedAffinity -4.27421427
REMARK minimizedRMSD -1
REMARK  1 active torsions:
REMARK  status: ('A' for Active; 'I' for Inactive)
REMARK    1  A    between atoms: C3_4  and  O_7 
ROOT
ATOM      1  C   UNL d   1      -0.503  -1.255  -0.280  0.00  0.00    -0.033 A 
ATOM      2  C1  UNL d   1       0.443  -0.232  -0.380  0.00  0.00     0.039 A 
ATOM      3  C2  UNL d   1       0.164   1.032   0.143  0.00  0.00    -0.080 A 
ATOM      4  C3  UNL d   1      -1.060   1.260   0.765  0.00  0.00     0.150 A 
ATOM      5  C4  UNL d   1      -2.005   0.244   0.872  0.00  0.00    -0.007 A 
ATOM      6  C5  UNL d   1      -1.726  -1.017   0.348  0.00  0.00     0.039 A 
ENDROOT
BRANCH   4   7
ATOM      7  O   UNL d   1      -1.379   2.478   1.286  0.00  0.00    -0.526 OA
ATOM      8  H5  UNL d   1      -0.643   3.089   1.113  0.00  0.00     0.418 HD
ENDBRANCH   4   7
TORSDOF 1
ENDMDL
