MODEL 1
REMARK minimizedAffinity -0.122202285
REMARK minimizedRMSD -1
REMARK  1 active torsions:
REMARK  status: ('A' for Active; 'I' for Inactive)
REMARK    1  A    between atoms: C3_4  and  O_7 
ROOT
ATOM      1  C   UNL d   1       3.497   1.015   1.483  0.00  0.00    -0.033 A 
ATOM      2  C1  UNL d   1       2.605   2.026   1.119  0.00  0.00     0.039 A 
ATOM      3  C2  UNL d   1       1.423   1.708   0.447  0.00  0.00    -0.080 A 
ATOM      4  C3  UNL d   1       1.144   0.378   0.147  0.00  0.00     0.150 A 
ATOM      5  C4  UNL d   1       2.026  -0.635   0.511  0.00  0.00    -0.007 A 
ATOM      6  C5  UNL d   1       3.207  -0.316   1.180  0.00  0.00     0.039 A 
ENDROOT
BRANCH   4   7
ATOM      7  O   UNL d   1       0.006   0.019  -0.511  0.00  0.00    -0.526 OA
ATOM      8  H5  UNL d   1      -0.494   0.825  -0.724  0.00  0.00     0.418 HD
ENDBRANCH   4   7
TORSDOF 1
ENDMDL
