MODEL 1
REMARK minimizedAffinity -4.48075819
REMARK minimizedRMSD -1
REMARK  1 active torsions:
REMARK  status: ('A' for Active; 'I' for Inactive)
REMARK    1  A    between atoms: C3_4  and  O_7 
ROOT
ATOM      1  C   UNL d   1      -0.353   1.180   0.139  0.00  0.00    -0.033 A 
ATOM      2  C1  UNL d   1       0.440   0.076  -0.181  0.00  0.00     0.039 A 
ATOM      3  C2  UNL d   1      -0.044  -1.217   0.029  0.00  0.00    -0.080 A 
ATOM      4  C3  UNL d   1      -1.319  -1.393   0.558  0.00  0.00     0.150 A 
ATOM      5  C4  UNL d   1      -2.116  -0.297   0.875  0.00  0.00    -0.007 A 
ATOM      6  C5  UNL d   1      -1.632   0.993   0.666  0.00  0.00     0.039 A 
ENDROOT
BRANCH   4   7
ATOM      7  O   UNL d   1      -1.832  -2.635   0.784  0.00  0.00    -0.526 OA
ATOM      8  H5  UNL d   1      -1.159  -3.294   0.545  0.00  0.00     0.418 HD
ENDBRANCH   4   7
TORSDOF 1
ENDMDL
