MODEL 1
REMARK minimizedAffinity -4.61521816
REMARK minimizedRMSD -1
REMARK  1 active torsions:
REMARK  status: ('A' for Active; 'I' for Inactive)
REMARK    1  A    between atoms: C3_4  and  O_7 
ROOT
ATOM      1  C   UNL d   1      -1.243  -2.807   1.158  0.00  0.00    -0.033 A 
ATOM      2  C1  UNL d   1       0.080  -2.512   1.492  0.00  0.00     0.039 A 
ATOM      3  C2  UNL d   1       0.646  -1.296   1.102  0.00  0.00    -0.080 A 
ATOM      4  C3  UNL d   1      -0.121  -0.386   0.381  0.00  0.00     0.150 A 
ATOM      5  C4  UNL d   1      -1.441  -0.672   0.048  0.00  0.00    -0.007 A 
ATOM      6  C5  UNL d   1      -2.004  -1.886   0.437  0.00  0.00     0.039 A 
ENDROOT
BRANCH   4   7
ATOM      7  O   UNL d   1       0.389   0.811  -0.026  0.00  0.00    -0.526 OA
ATOM      8  H5  UNL d   1       1.319   0.859   0.250  0.00  0.00     0.418 HD
ENDBRANCH   4   7
TORSDOF 1
ENDMDL
