MODEL 1
REMARK minimizedAffinity -1.69533002
REMARK minimizedRMSD -1
REMARK  1 active torsions:
REMARK  status: ('A' for Active; 'I' for Inactive)
REMARK    1  A    between atoms: C3_4  and  O_7 
ROOT
ATOM      1  C   UNL d   1      -0.310  -0.305  -0.291  0.00  0.00    -0.033 A 
ATOM      2  C1  UNL d   1      -0.299   1.045  -0.649  0.00  0.00     0.039 A 
ATOM      3  C2  UNL d   1       0.605   1.507  -1.608  0.00  0.00    -0.080 A 
ATOM      4  C3  UNL d   1       1.490   0.611  -2.201  0.00  0.00     0.150 A 
ATOM      5  C4  UNL d   1       1.481  -0.736  -1.853  0.00  0.00    -0.007 A 
ATOM      6  C5  UNL d   1       0.579  -1.195  -0.894  0.00  0.00     0.039 A 
ENDROOT
BRANCH   4   7
ATOM      7  O   UNL d   1       2.393   1.017  -3.138  0.00  0.00    -0.526 OA
ATOM      8  H5  UNL d   1       2.303   1.977  -3.257  0.00  0.00     0.418 HD
ENDBRANCH   4   7
TORSDOF 1
ENDMDL
