MODEL 1
REMARK minimizedAffinity -5.18137026
REMARK minimizedRMSD -1
REMARK  1 active torsions:
REMARK  status: ('A' for Active; 'I' for Inactive)
REMARK    1  A    between atoms: C3_4  and  O_7 
ROOT
ATOM      1  C   UNL d   1       0.606   0.166   0.314  0.00  0.00    -0.033 A 
ATOM      2  C1  UNL d   1      -0.769   0.275   0.099  0.00  0.00     0.039 A 
ATOM      3  C2  UNL d   1      -1.617  -0.779   0.446  0.00  0.00    -0.080 A 
ATOM      4  C3  UNL d   1      -1.078  -1.934   1.006  0.00  0.00     0.150 A 
ATOM      5  C4  UNL d   1       0.291  -2.048   1.226  0.00  0.00    -0.007 A 
ATOM      6  C5  UNL d   1       1.136  -0.995   0.879  0.00  0.00     0.039 A 
ENDROOT
BRANCH   4   7
ATOM      7  O   UNL d   1      -1.865  -2.991   1.356  0.00  0.00    -0.526 OA
ATOM      8  H5  UNL d   1      -2.784  -2.781   1.120  0.00  0.00     0.418 HD
ENDBRANCH   4   7
TORSDOF 1
ENDMDL
