MODEL 1
REMARK minimizedAffinity -1.46126974
REMARK minimizedRMSD -1
REMARK  1 active torsions:
REMARK  status: ('A' for Active; 'I' for Inactive)
REMARK    1  A    between atoms: C3_4  and  O_7 
ROOT
ATOM      1  C   UNL d   1       0.930   0.756   0.040  0.00  0.00    -0.033 A 
ATOM      2  C1  UNL d   1       1.674  -0.381   0.362  0.00  0.00     0.039 A 
ATOM      3  C2  UNL d   1       1.025  -1.554   0.754  0.00  0.00    -0.080 A 
ATOM      4  C3  UNL d   1      -0.366  -1.576   0.819  0.00  0.00     0.150 A 
ATOM      5  C4  UNL d   1      -1.113  -0.448   0.496  0.00  0.00    -0.007 A 
ATOM      6  C5  UNL d   1      -0.463   0.722   0.105  0.00  0.00     0.039 A 
ENDROOT
BRANCH   4   7
ATOM      7  O   UNL d   1      -1.043  -2.696   1.201  0.00  0.00    -0.526 OA
ATOM      8  H5  UNL d   1      -0.396  -3.387   1.422  0.00  0.00     0.418 HD
ENDBRANCH   4   7
TORSDOF 1
ENDMDL
