MODEL 1
REMARK minimizedAffinity -5.07490826
REMARK minimizedRMSD -1
REMARK  1 active torsions:
REMARK  status: ('A' for Active; 'I' for Inactive)
REMARK    1  A    between atoms: C3_4  and  O_7 
ROOT
ATOM      1  C   UNL d   1       0.723   0.002   0.637  0.00  0.00    -0.033 A 
ATOM      2  C1  UNL d   1       1.277  -1.236   0.969  0.00  0.00     0.039 A 
ATOM      3  C2  UNL d   1       0.461  -2.365   1.065  0.00  0.00    -0.080 A 
ATOM      4  C3  UNL d   1      -0.905  -2.243   0.826  0.00  0.00     0.150 A 
ATOM      5  C4  UNL d   1      -1.463  -1.014   0.491  0.00  0.00    -0.007 A 
ATOM      6  C5  UNL d   1      -0.647   0.112   0.396  0.00  0.00     0.039 A 
ENDROOT
BRANCH   4   7
ATOM      7  O   UNL d   1      -1.742  -3.316   0.913  0.00  0.00    -0.526 OA
ATOM      8  H5  UNL d   1      -1.221  -4.091   1.181  0.00  0.00     0.418 HD
ENDBRANCH   4   7
TORSDOF 1
ENDMDL
