MODEL 1
REMARK minimizedAffinity 4.00086451
REMARK minimizedRMSD -1
REMARK  0 active torsions:
REMARK  status: ('A' for Active; 'I' for Inactive)
ROOT
ATOM      1  C   UNL d   1       1.865   2.770  -5.999  0.00  0.00     0.023 A 
ATOM      2  C1  UNL d   1       0.704   3.299  -5.435  0.00  0.00     0.003 A 
ATOM      3  C2  UNL d   1       0.218   2.790  -4.229  0.00  0.00     0.048 A 
ATOM      4  C3  UNL d   1       0.899   1.753  -3.591  0.00  0.00     0.023 A 
ATOM      5  C4  UNL d   1       2.062   1.222  -4.152  0.00  0.00     0.048 A 
ATOM      6  C5  UNL d   1       2.543   1.733  -5.358  0.00  0.00     0.003 A 
ATOM      7  I   UNL d   1       0.177   0.994  -1.796  0.00  0.00    -0.146 I 
ENDROOT
TORSDOF 0
ENDMDL
