MODEL 1
REMARK minimizedAffinity 6.5756011
REMARK minimizedRMSD -1
REMARK  0 active torsions:
REMARK  status: ('A' for Active; 'I' for Inactive)
ROOT
ATOM      1  C   UNL d   1      -0.288  -2.960  -1.534  0.00  0.00     0.023 A 
ATOM      2  C1  UNL d   1      -0.854  -1.962  -2.328  0.00  0.00     0.003 A 
ATOM      3  C2  UNL d   1      -1.735  -1.036  -1.764  0.00  0.00     0.048 A 
ATOM      4  C3  UNL d   1      -2.044  -1.114  -0.406  0.00  0.00     0.023 A 
ATOM      5  C4  UNL d   1      -1.479  -2.110   0.391  0.00  0.00     0.048 A 
ATOM      6  C5  UNL d   1      -0.599  -3.034  -0.177  0.00  0.00     0.003 A 
ATOM      7  I   UNL d   1      -3.355   0.263   0.435  0.00  0.00    -0.146 I 
ENDROOT
TORSDOF 0
ENDMDL
