MODEL 1
REMARK minimizedAffinity 7.31704473
REMARK minimizedRMSD -1
REMARK  0 active torsions:
REMARK  status: ('A' for Active; 'I' for Inactive)
ROOT
ATOM      1  C   UNL d   1       1.278  -0.048   3.133  0.00  0.00     0.023 A 
ATOM      2  C1  UNL d   1       0.391  -1.100   3.363  0.00  0.00     0.003 A 
ATOM      3  C2  UNL d   1      -0.919  -1.028   2.883  0.00  0.00     0.048 A 
ATOM      4  C3  UNL d   1      -1.334   0.099   2.174  0.00  0.00     0.023 A 
ATOM      5  C4  UNL d   1      -0.450   1.153   1.940  0.00  0.00     0.048 A 
ATOM      6  C5  UNL d   1       0.858   1.077   2.422  0.00  0.00     0.003 A 
ATOM      7  I   UNL d   1      -3.283   0.209   1.459  0.00  0.00    -0.146 I 
ENDROOT
TORSDOF 0
ENDMDL
