MODEL 1
REMARK minimizedAffinity -0.554141581
REMARK minimizedRMSD -1
REMARK  0 active torsions:
REMARK  status: ('A' for Active; 'I' for Inactive)
ROOT
ATOM      1  C   UNL d   1      -3.792   0.696   0.549  0.00  0.00     0.023 A 
ATOM      2  C1  UNL d   1      -4.244   0.151   1.751  0.00  0.00     0.003 A 
ATOM      3  C2  UNL d   1      -3.342  -0.460   2.625  0.00  0.00     0.048 A 
ATOM      4  C3  UNL d   1      -1.989  -0.521   2.292  0.00  0.00     0.023 A 
ATOM      5  C4  UNL d   1      -1.532   0.024   1.090  0.00  0.00     0.048 A 
ATOM      6  C5  UNL d   1      -2.438   0.632   0.219  0.00  0.00     0.003 A 
ATOM      7  I   UNL d   1      -0.645  -1.429   3.591  0.00  0.00    -0.146 I 
ENDROOT
TORSDOF 0
ENDMDL
