MODEL 1
REMARK minimizedAffinity 2.16740561
REMARK minimizedRMSD -1
REMARK  0 active torsions:
REMARK  status: ('A' for Active; 'I' for Inactive)
ROOT
ATOM      1  C   UNL d   1      -2.092   0.116   3.512  0.00  0.00     0.023 A 
ATOM      2  C1  UNL d   1      -0.831  -0.231   3.026  0.00  0.00     0.003 A 
ATOM      3  C2  UNL d   1      -0.576  -0.191   1.654  0.00  0.00     0.048 A 
ATOM      4  C3  UNL d   1      -1.585   0.197   0.773  0.00  0.00     0.023 A 
ATOM      5  C4  UNL d   1      -2.848   0.546   1.256  0.00  0.00     0.048 A 
ATOM      6  C5  UNL d   1      -3.099   0.504   2.628  0.00  0.00     0.003 A 
ATOM      7  I   UNL d   1      -1.208   0.257  -1.269  0.00  0.00    -0.146 I 
ENDROOT
TORSDOF 0
ENDMDL
