MODEL 1
REMARK minimizedAffinity 5.35259628
REMARK minimizedRMSD -1
REMARK  0 active torsions:
REMARK  status: ('A' for Active; 'I' for Inactive)
ROOT
ATOM      1  C   UNL d   1       5.956   1.495   2.360  0.00  0.00     0.023 A 
ATOM      2  C1  UNL d   1       5.937   0.333   1.589  0.00  0.00     0.003 A 
ATOM      3  C2  UNL d   1       5.946  -0.918   2.210  0.00  0.00     0.048 A 
ATOM      4  C3  UNL d   1       5.974  -0.999   3.601  0.00  0.00     0.023 A 
ATOM      5  C4  UNL d   1       5.992   0.161   4.377  0.00  0.00     0.048 A 
ATOM      6  C5  UNL d   1       5.983   1.410   3.752  0.00  0.00     0.003 A 
ATOM      7  I   UNL d   1       5.988  -2.860   4.527  0.00  0.00    -0.146 I 
ENDROOT
TORSDOF 0
ENDMDL
