MODEL 1
REMARK minimizedAffinity 6.50523615
REMARK minimizedRMSD -1
REMARK  0 active torsions:
REMARK  status: ('A' for Active; 'I' for Inactive)
ROOT
ATOM      1  C   UNL d   1      -3.459   2.394   2.657  0.00  0.00     0.023 A 
ATOM      2  C1  UNL d   1      -3.316   1.086   2.195  0.00  0.00     0.003 A 
ATOM      3  C2  UNL d   1      -2.096   0.422   2.341  0.00  0.00     0.048 A 
ATOM      4  C3  UNL d   1      -1.024   1.071   2.950  0.00  0.00     0.023 A 
ATOM      5  C4  UNL d   1      -1.162   2.380   3.415  0.00  0.00     0.048 A 
ATOM      6  C5  UNL d   1      -2.383   3.041   3.266  0.00  0.00     0.003 A 
ATOM      7  I   UNL d   1       0.793   0.085   3.169  0.00  0.00    -0.146 I 
ENDROOT
TORSDOF 0
ENDMDL
