MODEL 1
REMARK minimizedAffinity 5.29440594
REMARK minimizedRMSD -1
REMARK  0 active torsions:
REMARK  status: ('A' for Active; 'I' for Inactive)
ROOT
ATOM      1  C   UNL d   1      -2.589   0.820   2.880  0.00  0.00     0.023 A 
ATOM      2  C1  UNL d   1      -1.247   0.460   2.762  0.00  0.00     0.003 A 
ATOM      3  C2  UNL d   1      -0.737   0.055   1.527  0.00  0.00     0.048 A 
ATOM      4  C3  UNL d   1      -1.575   0.013   0.413  0.00  0.00     0.023 A 
ATOM      5  C4  UNL d   1      -2.918   0.374   0.526  0.00  0.00     0.048 A 
ATOM      6  C5  UNL d   1      -3.424   0.777   1.763  0.00  0.00     0.003 A 
ATOM      7  I   UNL d   1      -0.818  -0.589  -1.427  0.00  0.00    -0.146 I 
ENDROOT
TORSDOF 0
ENDMDL
