MODEL 1
REMARK minimizedAffinity 2.51294184
REMARK minimizedRMSD -1
REMARK  0 active torsions:
REMARK  status: ('A' for Active; 'I' for Inactive)
ROOT
ATOM      1  C   UNL d   1      -3.300   1.362   1.519  0.00  0.00     0.023 A 
ATOM      2  C1  UNL d   1      -4.147   0.907   0.508  0.00  0.00     0.003 A 
ATOM      3  C2  UNL d   1      -3.670   0.015  -0.455  0.00  0.00     0.048 A 
ATOM      4  C3  UNL d   1      -2.345  -0.418  -0.401  0.00  0.00     0.023 A 
ATOM      5  C4  UNL d   1      -1.495   0.034   0.610  0.00  0.00     0.048 A 
ATOM      6  C5  UNL d   1      -1.976   0.926   1.570  0.00  0.00     0.003 A 
ATOM      7  I   UNL d   1      -1.633  -1.745  -1.833  0.00  0.00    -0.146 I 
ENDROOT
TORSDOF 0
ENDMDL
