MODEL 1
REMARK minimizedAffinity 5.81624746
REMARK minimizedRMSD -1
REMARK  0 active torsions:
REMARK  status: ('A' for Active; 'I' for Inactive)
ROOT
ATOM      1  C   UNL d   1      -2.391  -1.124  -1.833  0.00  0.00     0.023 A 
ATOM      2  C1  UNL d   1      -3.246  -0.277  -1.128  0.00  0.00     0.003 A 
ATOM      3  C2  UNL d   1      -2.913   0.138   0.163  0.00  0.00     0.048 A 
ATOM      4  C3  UNL d   1      -1.723  -0.298   0.743  0.00  0.00     0.023 A 
ATOM      5  C4  UNL d   1      -0.863  -1.145   0.042  0.00  0.00     0.048 A 
ATOM      6  C5  UNL d   1      -1.201  -1.557  -1.248  0.00  0.00     0.003 A 
ATOM      7  I   UNL d   1      -1.225   0.318   2.665  0.00  0.00    -0.146 I 
ENDROOT
TORSDOF 0
ENDMDL
