MODEL 1
REMARK minimizedAffinity 15.9581575
REMARK minimizedRMSD -1
REMARK  0 active torsions:
REMARK  status: ('A' for Active; 'I' for Inactive)
ROOT
ATOM      1  C   UNL d   1      -1.071   0.525   4.099  0.00  0.00     0.023 A 
ATOM      2  C1  UNL d   1      -1.290   1.846   3.707  0.00  0.00     0.003 A 
ATOM      3  C2  UNL d   1      -0.614   2.369   2.603  0.00  0.00     0.048 A 
ATOM      4  C3  UNL d   1       0.278   1.566   1.894  0.00  0.00     0.023 A 
ATOM      5  C4  UNL d   1       0.500   0.243   2.281  0.00  0.00     0.048 A 
ATOM      6  C5  UNL d   1      -0.178  -0.276   3.387  0.00  0.00     0.003 A 
ATOM      7  I   UNL d   1       1.285   2.342   0.250  0.00  0.00    -0.146 I 
ENDROOT
TORSDOF 0
ENDMDL
