MODEL 1
REMARK minimizedAffinity 5.1936903
REMARK minimizedRMSD -1
REMARK  0 active torsions:
REMARK  status: ('A' for Active; 'I' for Inactive)
ROOT
ATOM      1  C   UNL d   1      -0.516  -2.205  -1.480  0.00  0.00     0.023 A 
ATOM      2  C1  UNL d   1      -1.243  -2.934  -0.539  0.00  0.00     0.003 A 
ATOM      3  C2  UNL d   1      -2.285  -2.326   0.164  0.00  0.00     0.048 A 
ATOM      4  C3  UNL d   1      -2.596  -0.989  -0.080  0.00  0.00     0.023 A 
ATOM      5  C4  UNL d   1      -1.872  -0.256  -1.022  0.00  0.00     0.048 A 
ATOM      6  C5  UNL d   1      -0.831  -0.868  -1.722  0.00  0.00     0.003 A 
ATOM      7  I   UNL d   1      -4.147  -0.081   0.965  0.00  0.00    -0.146 I 
ENDROOT
TORSDOF 0
ENDMDL
