MODEL 1
REMARK minimizedAffinity 7.85454369
REMARK minimizedRMSD -1
REMARK  0 active torsions:
REMARK  status: ('A' for Active; 'I' for Inactive)
ROOT
ATOM      1  C   UNL d   1      -0.789  -2.503  -2.428  0.00  0.00     0.023 A 
ATOM      2  C1  UNL d   1      -1.745  -1.724  -3.081  0.00  0.00     0.003 A 
ATOM      3  C2  UNL d   1      -2.727  -1.059  -2.344  0.00  0.00     0.048 A 
ATOM      4  C3  UNL d   1      -2.746  -1.175  -0.955  0.00  0.00     0.023 A 
ATOM      5  C4  UNL d   1      -1.791  -1.951  -0.297  0.00  0.00     0.048 A 
ATOM      6  C5  UNL d   1      -0.812  -2.616  -1.038  0.00  0.00     0.003 A 
ATOM      7  I   UNL d   1      -4.207  -0.184   0.144  0.00  0.00    -0.146 I 
ENDROOT
TORSDOF 0
ENDMDL
