MODEL 1
REMARK minimizedAffinity 8.02941895
REMARK minimizedRMSD -1
REMARK  0 active torsions:
REMARK  status: ('A' for Active; 'I' for Inactive)
ROOT
ATOM      1  C   UNL d   1      -0.623  -2.731  -1.945  0.00  0.00     0.023 A 
ATOM      2  C1  UNL d   1      -1.282  -3.340  -0.877  0.00  0.00     0.003 A 
ATOM      3  C2  UNL d   1      -2.221  -2.622  -0.134  0.00  0.00     0.048 A 
ATOM      4  C3  UNL d   1      -2.498  -1.296  -0.465  0.00  0.00     0.023 A 
ATOM      5  C4  UNL d   1      -1.841  -0.683  -1.533  0.00  0.00     0.048 A 
ATOM      6  C5  UNL d   1      -0.902  -1.404  -2.273  0.00  0.00     0.003 A 
ATOM      7  I   UNL d   1      -3.896  -0.226   0.639  0.00  0.00    -0.146 I 
ENDROOT
TORSDOF 0
ENDMDL
