MODEL 1
REMARK minimizedAffinity 3.34253407
REMARK minimizedRMSD -1
REMARK  0 active torsions:
REMARK  status: ('A' for Active; 'I' for Inactive)
ROOT
ATOM      1  C   UNL d   1      -4.089   0.648   1.256  0.00  0.00     0.023 A 
ATOM      2  C1  UNL d   1      -3.813   0.834   2.611  0.00  0.00     0.003 A 
ATOM      3  C2  UNL d   1      -2.537   0.562   3.108  0.00  0.00     0.048 A 
ATOM      4  C3  UNL d   1      -1.542   0.103   2.246  0.00  0.00     0.023 A 
ATOM      5  C4  UNL d   1      -1.813  -0.084   0.890  0.00  0.00     0.048 A 
ATOM      6  C5  UNL d   1      -3.091   0.189   0.397  0.00  0.00     0.003 A 
ATOM      7  I   UNL d   1       0.358  -0.303   2.984  0.00  0.00    -0.146 I 
ENDROOT
TORSDOF 0
ENDMDL
