MODEL 1
REMARK minimizedAffinity 3.6382544
REMARK minimizedRMSD -1
REMARK  1 active torsions:
REMARK  status: ('A' for Active; 'I' for Inactive)
REMARK    1  A    between atoms: N_2  and  C1_3 
ROOT
ATOM      1  C1  UNL d   1       1.252  -0.539   2.606  0.00  0.00     0.143 A 
ATOM      2  C2  UNL d   1       0.048  -0.858   3.244  0.00  0.00    -0.057 A 
ATOM      3  C3  UNL d   1      -0.607  -2.070   2.994  0.00  0.00     0.033 A 
ATOM      4  C4  UNL d   1      -0.083  -2.974   2.076  0.00  0.00    -0.042 A 
ATOM      5  C5  UNL d   1       1.099  -2.667   1.412  0.00  0.00     0.033 A 
ATOM      6  C6  UNL d   1       1.752  -1.459   1.671  0.00  0.00    -0.057 A 
ENDROOT
BRANCH   1   7
ATOM      7  N   UNL d   1       1.900   0.691   2.738  0.00  0.00    -0.732 N 
ATOM      8  C   UNL d   1       1.591   1.787   1.845  0.00  0.00     0.284 C 
ATOM      9  H3  UNL d   1       2.015   0.967   3.711  0.00  0.00     0.395 HD
ENDBRANCH   1   7
TORSDOF 1
ENDMDL
