MODEL 1
REMARK minimizedAffinity 8.73434544
REMARK minimizedRMSD -1
REMARK  1 active torsions:
REMARK  status: ('A' for Active; 'I' for Inactive)
REMARK    1  A    between atoms: N_2  and  C1_3 
ROOT
ATOM      1  C1  UNL d   1       0.711  -1.851   1.619  0.00  0.00     0.143 A 
ATOM      2  C2  UNL d   1       1.622  -2.891   1.831  0.00  0.00    -0.057 A 
ATOM      3  C3  UNL d   1       2.370  -3.428   0.776  0.00  0.00     0.033 A 
ATOM      4  C4  UNL d   1       2.197  -2.952  -0.520  0.00  0.00    -0.042 A 
ATOM      5  C5  UNL d   1       1.279  -1.935  -0.758  0.00  0.00     0.033 A 
ATOM      6  C6  UNL d   1       0.540  -1.399   0.301  0.00  0.00    -0.057 A 
ENDROOT
BRANCH   1   7
ATOM      7  N   UNL d   1      -0.134  -1.343   2.609  0.00  0.00    -0.732 N 
ATOM      8  C   UNL d   1       0.293  -0.245   3.449  0.00  0.00     0.284 C 
ATOM      9  H3  UNL d   1      -1.101  -1.277   2.299  0.00  0.00     0.395 HD
ENDBRANCH   1   7
TORSDOF 1
ENDMDL
