MODEL 1
REMARK minimizedAffinity -3.22970724
REMARK minimizedRMSD -1
REMARK  1 active torsions:
REMARK  status: ('A' for Active; 'I' for Inactive)
REMARK    1  A    between atoms: N_2  and  C1_3 
ROOT
ATOM      1  C1  UNL d   1      -2.203   4.927   4.492  0.00  0.00     0.143 A 
ATOM      2  C2  UNL d   1      -2.925   3.870   5.056  0.00  0.00    -0.057 A 
ATOM      3  C3  UNL d   1      -4.325   3.861   5.047  0.00  0.00     0.033 A 
ATOM      4  C4  UNL d   1      -5.030   4.927   4.498  0.00  0.00    -0.042 A 
ATOM      5  C5  UNL d   1      -4.333   6.000   3.954  0.00  0.00     0.033 A 
ATOM      6  C6  UNL d   1      -2.935   6.000   3.959  0.00  0.00    -0.057 A 
ENDROOT
BRANCH   1   7
ATOM      7  N   UNL d   1      -0.812   5.041   4.557  0.00  0.00    -0.732 N 
ATOM      8  C   UNL d   1      -0.018   5.081   3.348  0.00  0.00     0.284 C 
ATOM      9  H3  UNL d   1      -0.509   5.694   5.275  0.00  0.00     0.395 HD
ENDBRANCH   1   7
TORSDOF 1
ENDMDL
