MODEL 1
REMARK minimizedAffinity 1.81313431
REMARK minimizedRMSD -1
REMARK  1 active torsions:
REMARK  status: ('A' for Active; 'I' for Inactive)
REMARK    1  A    between atoms: N_2  and  C1_3 
ROOT
ATOM      1  C1  UNL d   1       3.572   5.249   3.825  0.00  0.00     0.143 A 
ATOM      2  C2  UNL d   1       4.795   5.176   3.150  0.00  0.00    -0.057 A 
ATOM      3  C3  UNL d   1       5.999   5.482   3.795  0.00  0.00     0.033 A 
ATOM      4  C4  UNL d   1       5.998   5.896   5.123  0.00  0.00    -0.042 A 
ATOM      5  C5  UNL d   1       4.792   6.000   5.806  0.00  0.00     0.033 A 
ATOM      6  C6  UNL d   1       3.593   5.687   5.158  0.00  0.00    -0.057 A 
ENDROOT
BRANCH   1   7
ATOM      7  N   UNL d   1       2.332   5.053   3.211  0.00  0.00    -0.732 N 
ATOM      8  C   UNL d   1       1.890   3.723   2.851  0.00  0.00     0.284 C 
ATOM      9  H3  UNL d   1       1.603   5.639   3.612  0.00  0.00     0.395 HD
ENDBRANCH   1   7
TORSDOF 1
ENDMDL
