MODEL 1
REMARK minimizedAffinity 7.23352003
REMARK minimizedRMSD -1
REMARK  1 active torsions:
REMARK  status: ('A' for Active; 'I' for Inactive)
REMARK    1  A    between atoms: N_2  and  C1_3 
ROOT
ATOM      1  C1  UNL d   1       0.734  -0.649  -1.964  0.00  0.00     0.143 A 
ATOM      2  C2  UNL d   1       1.857  -0.901  -1.167  0.00  0.00    -0.057 A 
ATOM      3  C3  UNL d   1       1.749  -1.609   0.036  0.00  0.00     0.033 A 
ATOM      4  C4  UNL d   1       0.508  -2.053   0.480  0.00  0.00    -0.042 A 
ATOM      5  C5  UNL d   1      -0.625  -1.792  -0.282  0.00  0.00     0.033 A 
ATOM      6  C6  UNL d   1      -0.510  -1.091  -1.487  0.00  0.00    -0.057 A 
ENDROOT
BRANCH   1   7
ATOM      7  N   UNL d   1       0.761   0.133  -3.121  0.00  0.00    -0.732 N 
ATOM      8  C   UNL d   1       0.269   1.494  -3.102  0.00  0.00     0.284 C 
ATOM      9  H3  UNL d   1       1.619   0.009  -3.654  0.00  0.00     0.395 HD
ENDBRANCH   1   7
TORSDOF 1
ENDMDL
