MODEL 1
REMARK minimizedAffinity 3.81520653
REMARK minimizedRMSD -1
REMARK  1 active torsions:
REMARK  status: ('A' for Active; 'I' for Inactive)
REMARK    1  A    between atoms: N_2  and  C1_3 
ROOT
ATOM      1  C1  UNL d   1      -3.274   3.857  -4.144  0.00  0.00     0.143 A 
ATOM      2  C2  UNL d   1      -2.211   4.116  -5.015  0.00  0.00    -0.057 A 
ATOM      3  C3  UNL d   1      -1.012   3.398  -4.932  0.00  0.00     0.033 A 
ATOM      4  C4  UNL d   1      -0.844   2.425  -3.952  0.00  0.00    -0.042 A 
ATOM      5  C5  UNL d   1      -1.879   2.167  -3.060  0.00  0.00     0.033 A 
ATOM      6  C6  UNL d   1      -3.076   2.883  -3.153  0.00  0.00    -0.057 A 
ENDROOT
BRANCH   1   7
ATOM      7  N   UNL d   1      -4.455   4.603  -4.114  0.00  0.00    -0.732 N 
ATOM      8  C   UNL d   1      -4.435   5.998  -3.728  0.00  0.00     0.284 C 
ATOM      9  H3  UNL d   1      -5.064   4.399  -4.902  0.00  0.00     0.395 HD
ENDBRANCH   1   7
TORSDOF 1
ENDMDL
