MODEL 1
REMARK minimizedAffinity 8.8849411
REMARK minimizedRMSD -1
REMARK  1 active torsions:
REMARK  status: ('A' for Active; 'I' for Inactive)
REMARK    1  A    between atoms: N_2  and  C1_3 
ROOT
ATOM      1  C1  UNL d   1      -0.267  -3.515   1.581  0.00  0.00     0.143 A 
ATOM      2  C2  UNL d   1      -0.923  -2.617   2.430  0.00  0.00    -0.057 A 
ATOM      3  C3  UNL d   1      -0.383  -1.357   2.711  0.00  0.00     0.033 A 
ATOM      4  C4  UNL d   1       0.843  -0.982   2.170  0.00  0.00    -0.042 A 
ATOM      5  C5  UNL d   1       1.524  -1.868   1.343  0.00  0.00     0.033 A 
ATOM      6  C6  UNL d   1       0.976  -3.123   1.060  0.00  0.00    -0.057 A 
ENDROOT
BRANCH   1   7
ATOM      7  N   UNL d   1      -0.705  -4.819   1.340  0.00  0.00    -0.732 N 
ATOM      8  C   UNL d   1       0.246  -5.894   1.158  0.00  0.00     0.284 C 
ATOM      9  H3  UNL d   1      -1.511  -5.070   1.909  0.00  0.00     0.395 HD
ENDBRANCH   1   7
TORSDOF 1
ENDMDL
