MODEL 1
REMARK minimizedAffinity 10.3178787
REMARK minimizedRMSD -1
REMARK  1 active torsions:
REMARK  status: ('A' for Active; 'I' for Inactive)
REMARK    1  A    between atoms: N_2  and  C1_3 
ROOT
ATOM      1  C1  UNL d   1       3.940   4.240  -5.646  0.00  0.00     0.143 A 
ATOM      2  C2  UNL d   1       2.892   3.376  -5.311  0.00  0.00    -0.057 A 
ATOM      3  C3  UNL d   1       1.560   3.804  -5.344  0.00  0.00     0.033 A 
ATOM      4  C4  UNL d   1       1.253   5.117  -5.687  0.00  0.00    -0.042 A 
ATOM      5  C5  UNL d   1       2.280   6.000  -6.000  0.00  0.00     0.033 A 
ATOM      6  C6  UNL d   1       3.608   5.565  -5.971  0.00  0.00    -0.057 A 
ENDROOT
BRANCH   1   7
ATOM      7  N   UNL d   1       5.292   3.903  -5.537  0.00  0.00    -0.732 N 
ATOM      8  C   UNL d   1       5.810   3.320  -4.318  0.00  0.00     0.284 C 
ATOM      9  H3  UNL d   1       5.656   3.480  -6.388  0.00  0.00     0.395 HD
ENDBRANCH   1   7
TORSDOF 1
ENDMDL
