MODEL 1
REMARK minimizedAffinity 0.594436169
REMARK minimizedRMSD -1
REMARK  1 active torsions:
REMARK  status: ('A' for Active; 'I' for Inactive)
REMARK    1  A    between atoms: C3_4  and  O_7 
ROOT
ATOM      1  C   UNL d   1       1.375  -1.520   2.688  0.00  0.00    -0.033 A 
ATOM      2  C1  UNL d   1       2.596  -0.867   2.506  0.00  0.00     0.039 A 
ATOM      3  C2  UNL d   1       3.688  -1.185   3.316  0.00  0.00    -0.080 A 
ATOM      4  C3  UNL d   1       3.546  -2.158   4.301  0.00  0.00     0.150 A 
ATOM      5  C4  UNL d   1       2.334  -2.816   4.485  0.00  0.00    -0.007 A 
ATOM      6  C5  UNL d   1       1.245  -2.495   3.676  0.00  0.00     0.039 A 
ENDROOT
BRANCH   4   7
ATOM      7  O   UNL d   1       4.582  -2.500   5.119  0.00  0.00    -0.526 OA
ATOM      8  H5  UNL d   1       5.347  -1.944   4.895  0.00  0.00     0.418 HD
ENDBRANCH   4   7
TORSDOF 1
ENDMDL
