MODEL 1
REMARK minimizedAffinity 6.41328859
REMARK minimizedRMSD -1
REMARK  1 active torsions:
REMARK  status: ('A' for Active; 'I' for Inactive)
REMARK    1  A    between atoms: C3_4  and  O_7 
ROOT
ATOM      1  C   UNL d   1      -5.331   3.195   2.212  0.00  0.00    -0.033 A 
ATOM      2  C1  UNL d   1      -5.736   3.666   0.962  0.00  0.00     0.039 A 
ATOM      3  C2  UNL d   1      -4.822   3.729  -0.092  0.00  0.00    -0.080 A 
ATOM      4  C3  UNL d   1      -3.509   3.319   0.117  0.00  0.00     0.150 A 
ATOM      5  C4  UNL d   1      -3.099   2.846   1.360  0.00  0.00    -0.007 A 
ATOM      6  C5  UNL d   1      -4.013   2.784   2.411  0.00  0.00     0.039 A 
ENDROOT
BRANCH   4   7
ATOM      7  O   UNL d   1      -2.580   3.367  -0.879  0.00  0.00    -0.526 OA
ATOM      8  H5  UNL d   1      -2.998   3.742  -1.672  0.00  0.00     0.418 HD
ENDBRANCH   4   7
TORSDOF 1
ENDMDL
