MODEL 1
REMARK minimizedAffinity 3.2783165
REMARK minimizedRMSD -1
REMARK  1 active torsions:
REMARK  status: ('A' for Active; 'I' for Inactive)
REMARK    1  A    between atoms: C3_4  and  O_7 
ROOT
ATOM      1  C   UNL d   1       5.199   1.241  -5.965  0.00  0.00    -0.033 A 
ATOM      2  C1  UNL d   1       6.000   0.097  -5.988  0.00  0.00     0.039 A 
ATOM      3  C2  UNL d   1       5.412  -1.169  -5.986  0.00  0.00    -0.080 A 
ATOM      4  C3  UNL d   1       4.025  -1.279  -5.962  0.00  0.00     0.150 A 
ATOM      5  C4  UNL d   1       3.220  -0.144  -5.943  0.00  0.00    -0.007 A 
ATOM      6  C5  UNL d   1       3.809   1.120  -5.945  0.00  0.00     0.039 A 
ENDROOT
BRANCH   4   7
ATOM      7  O   UNL d   1       3.406  -2.493  -5.954  0.00  0.00    -0.526 OA
ATOM      8  H5  UNL d   1       4.087  -3.186  -5.940  0.00  0.00     0.418 HD
ENDBRANCH   4   7
TORSDOF 1
ENDMDL
