MODEL 1
REMARK minimizedAffinity 9.1422472
REMARK minimizedRMSD -1
REMARK  1 active torsions:
REMARK  status: ('A' for Active; 'I' for Inactive)
REMARK    1  A    between atoms: C3_4  and  O_7 
ROOT
ATOM      1  C   UNL d   1       5.623   1.175  -6.000  0.00  0.00    -0.033 A 
ATOM      2  C1  UNL d   1       4.511   1.836  -5.475  0.00  0.00     0.039 A 
ATOM      3  C2  UNL d   1       3.771   1.253  -4.445  0.00  0.00    -0.080 A 
ATOM      4  C3  UNL d   1       4.154   0.010  -3.948  0.00  0.00     0.150 A 
ATOM      5  C4  UNL d   1       5.263  -0.653  -4.463  0.00  0.00    -0.007 A 
ATOM      6  C5  UNL d   1       6.000  -0.069  -5.493  0.00  0.00     0.039 A 
ENDROOT
BRANCH   4   7
ATOM      7  O   UNL d   1       3.461  -0.601  -2.946  0.00  0.00    -0.526 OA
ATOM      8  H5  UNL d   1       2.703  -0.040  -2.709  0.00  0.00     0.418 HD
ENDBRANCH   4   7
TORSDOF 1
ENDMDL
