MODEL 1
REMARK minimizedAffinity 11.1130657
REMARK minimizedRMSD -1
REMARK  1 active torsions:
REMARK  status: ('A' for Active; 'I' for Inactive)
REMARK    1  A    between atoms: C3_4  and  O_7 
ROOT
ATOM      1  C   UNL d   1       0.301   0.002   0.292  0.00  0.00    -0.033 A 
ATOM      2  C1  UNL d   1       0.551  -0.843  -0.791  0.00  0.00     0.039 A 
ATOM      3  C2  UNL d   1       0.145  -0.475  -2.075  0.00  0.00    -0.080 A 
ATOM      4  C3  UNL d   1      -0.509   0.740  -2.263  0.00  0.00     0.150 A 
ATOM      5  C4  UNL d   1      -0.757   1.589  -1.189  0.00  0.00    -0.007 A 
ATOM      6  C5  UNL d   1      -0.352   1.218   0.093  0.00  0.00     0.039 A 
ENDROOT
BRANCH   4   7
ATOM      7  O   UNL d   1      -0.928   1.141  -3.496  0.00  0.00    -0.526 OA
ATOM      8  H5  UNL d   1      -0.714   0.442  -4.136  0.00  0.00     0.418 HD
ENDBRANCH   4   7
TORSDOF 1
ENDMDL
