MODEL 1
REMARK minimizedAffinity 2.40651202
REMARK minimizedRMSD -1
REMARK  1 active torsions:
REMARK  status: ('A' for Active; 'I' for Inactive)
REMARK    1  A    between atoms: C3_4  and  O_7 
ROOT
ATOM      1  C   UNL d   1      -1.218   2.617   0.918  0.00  0.00    -0.033 A 
ATOM      2  C1  UNL d   1       0.039   2.896   0.379  0.00  0.00     0.039 A 
ATOM      3  C2  UNL d   1       0.800   1.872  -0.190  0.00  0.00    -0.080 A 
ATOM      4  C3  UNL d   1       0.292   0.576  -0.214  0.00  0.00     0.150 A 
ATOM      5  C4  UNL d   1      -0.962   0.292   0.318  0.00  0.00    -0.007 A 
ATOM      6  C5  UNL d   1      -1.719   1.315   0.887  0.00  0.00     0.039 A 
ENDROOT
BRANCH   4   7
ATOM      7  O   UNL d   1       0.999  -0.456  -0.754  0.00  0.00    -0.526 OA
ATOM      8  H5  UNL d   1       1.858  -0.116  -1.056  0.00  0.00     0.418 HD
ENDBRANCH   4   7
TORSDOF 1
ENDMDL
