MODEL 1
REMARK minimizedAffinity 8.37051868
REMARK minimizedRMSD -1
REMARK  1 active torsions:
REMARK  status: ('A' for Active; 'I' for Inactive)
REMARK    1  A    between atoms: C3_4  and  O_7 
ROOT
ATOM      1  C   UNL d   1      -2.591   2.914   0.958  0.00  0.00    -0.033 A 
ATOM      2  C1  UNL d   1      -3.683   2.810   1.821  0.00  0.00     0.039 A 
ATOM      3  C2  UNL d   1      -4.840   3.553   1.579  0.00  0.00    -0.080 A 
ATOM      4  C3  UNL d   1      -4.892   4.395   0.472  0.00  0.00     0.150 A 
ATOM      5  C4  UNL d   1      -3.809   4.501  -0.394  0.00  0.00    -0.007 A 
ATOM      6  C5  UNL d   1      -2.654   3.759  -0.150  0.00  0.00     0.039 A 
ENDROOT
BRANCH   4   7
ATOM      7  O   UNL d   1      -5.998   5.144   0.197  0.00  0.00    -0.526 OA
ATOM      8  H5  UNL d   1      -6.655   4.990   0.896  0.00  0.00     0.418 HD
ENDBRANCH   4   7
TORSDOF 1
ENDMDL
