MODEL 1
REMARK minimizedAffinity -0.632889867
REMARK minimizedRMSD -1
REMARK  1 active torsions:
REMARK  status: ('A' for Active; 'I' for Inactive)
REMARK    1  A    between atoms: C3_4  and  O_7 
ROOT
ATOM      1  C   UNL d   1       5.992  -2.771   5.531  0.00  0.00    -0.033 A 
ATOM      2  C1  UNL d   1       5.997  -1.779   4.549  0.00  0.00     0.039 A 
ATOM      3  C2  UNL d   1       4.791  -1.301   4.031  0.00  0.00    -0.080 A 
ATOM      4  C3  UNL d   1       3.590  -1.823   4.503  0.00  0.00     0.150 A 
ATOM      5  C4  UNL d   1       3.578  -2.809   5.485  0.00  0.00    -0.007 A 
ATOM      6  C5  UNL d   1       4.783  -3.285   6.000  0.00  0.00     0.039 A 
ENDROOT
BRANCH   4   7
ATOM      7  O   UNL d   1       2.389  -1.392   4.025  0.00  0.00    -0.526 OA
ATOM      8  H5  UNL d   1       2.553  -0.731   3.332  0.00  0.00     0.418 HD
ENDBRANCH   4   7
TORSDOF 1
ENDMDL
