MODEL 1
REMARK minimizedAffinity 1.40179789
REMARK minimizedRMSD -1
REMARK  1 active torsions:
REMARK  status: ('A' for Active; 'I' for Inactive)
REMARK    1  A    between atoms: C3_4  and  O_7 
ROOT
ATOM      1  C   UNL d   1       5.876  -2.263   5.012  0.00  0.00    -0.033 A 
ATOM      2  C1  UNL d   1       4.916  -2.490   6.000  0.00  0.00     0.039 A 
ATOM      3  C2  UNL d   1       3.568  -2.234   5.737  0.00  0.00    -0.080 A 
ATOM      4  C3  UNL d   1       3.196  -1.755   4.484  0.00  0.00     0.150 A 
ATOM      5  C4  UNL d   1       4.147  -1.530   3.495  0.00  0.00    -0.007 A 
ATOM      6  C5  UNL d   1       5.492  -1.785   3.759  0.00  0.00     0.039 A 
ENDROOT
BRANCH   4   7
ATOM      7  O   UNL d   1       1.893  -1.486   4.183  0.00  0.00    -0.526 OA
ATOM      8  H5  UNL d   1       1.353  -1.661   4.971  0.00  0.00     0.418 HD
ENDBRANCH   4   7
TORSDOF 1
ENDMDL
