MODEL 1
REMARK minimizedAffinity 8.46820927
REMARK minimizedRMSD -1
REMARK  1 active torsions:
REMARK  status: ('A' for Active; 'I' for Inactive)
REMARK    1  A    between atoms: C3_4  and  O_7 
ROOT
ATOM      1  C   UNL d   1      -0.135  -1.237   0.004  0.00  0.00    -0.033 A 
ATOM      2  C1  UNL d   1      -0.020  -0.460   1.158  0.00  0.00     0.039 A 
ATOM      3  C2  UNL d   1       1.021  -0.693   2.058  0.00  0.00    -0.080 A 
ATOM      4  C3  UNL d   1       1.940  -1.705   1.793  0.00  0.00     0.150 A 
ATOM      5  C4  UNL d   1       1.833  -2.481   0.644  0.00  0.00    -0.007 A 
ATOM      6  C5  UNL d   1       0.792  -2.247  -0.254  0.00  0.00     0.039 A 
ENDROOT
BRANCH   4   7
ATOM      7  O   UNL d   1       2.970  -1.974   2.645  0.00  0.00    -0.526 OA
ATOM      8  H5  UNL d   1       2.900  -1.378   3.409  0.00  0.00     0.418 HD
ENDBRANCH   4   7
TORSDOF 1
ENDMDL
