MODEL 1
REMARK minimizedAffinity 1.73545635
REMARK minimizedRMSD -1
REMARK  1 active torsions:
REMARK  status: ('A' for Active; 'I' for Inactive)
REMARK    1  A    between atoms: C3_4  and  O_7 
ROOT
ATOM      1  C   UNL d   1       2.728   1.976   3.471  0.00  0.00    -0.033 A 
ATOM      2  C1  UNL d   1       3.119   1.351   2.285  0.00  0.00     0.039 A 
ATOM      3  C2  UNL d   1       2.890  -0.014   2.104  0.00  0.00    -0.080 A 
ATOM      4  C3  UNL d   1       2.270  -0.743   3.115  0.00  0.00     0.150 A 
ATOM      5  C4  UNL d   1       1.873  -0.126   4.297  0.00  0.00    -0.007 A 
ATOM      6  C5  UNL d   1       2.103   1.237   4.476  0.00  0.00     0.039 A 
ENDROOT
BRANCH   4   7
ATOM      7  O   UNL d   1       2.030  -2.078   2.986  0.00  0.00    -0.526 OA
ATOM      8  H5  UNL d   1       2.383  -2.373   2.130  0.00  0.00     0.418 HD
ENDBRANCH   4   7
TORSDOF 1
ENDMDL
