MODEL 1
REMARK minimizedAffinity 9.89691067
REMARK minimizedRMSD -1
REMARK  0 active torsions:
REMARK  status: ('A' for Active; 'I' for Inactive)
ROOT
ATOM      1  N1  IND d   1       1.277  -3.466   1.462  0.00  0.00    -0.196 N 
ATOM      2  C2  IND d   1       2.566  -3.441   1.916  0.00  0.00     0.054 A 
ATOM      3  C3  IND d   1       2.715  -2.481   2.856  0.00  0.00    -0.031 A 
ATOM      4  C4  IND d   1       0.956  -0.903   3.876  0.00  0.00     0.051 A 
ATOM      5  C5  IND d   1      -0.353  -0.527   3.756  0.00  0.00    -0.031 A 
ATOM      6  C6  IND d   1      -1.203  -1.125   2.848  0.00  0.00     0.015 A 
ATOM      7  C7  IND d   1      -0.777  -2.134   2.032  0.00  0.00    -0.016 A 
ATOM      8  C8  IND d   1       0.553  -2.514   2.146  0.00  0.00    -0.047 A 
ATOM      9  C9  IND d   1       1.431  -1.881   3.035  0.00  0.00    -0.096 A 
ATOM     10  HN1 IND d   1       0.970  -3.988   0.852  0.00  0.00     0.298 HD
ENDROOT
TORSDOF 0
ENDMDL
