MODEL 1
REMARK minimizedAffinity 12.5215845
REMARK minimizedRMSD -1
REMARK  0 active torsions:
REMARK  status: ('A' for Active; 'I' for Inactive)
ROOT
ATOM      1  N1  IND d   1       2.115  -3.850   0.964  0.00  0.00    -0.196 N 
ATOM      2  C2  IND d   1       2.156  -3.442   2.268  0.00  0.00     0.054 A 
ATOM      3  C3  IND d   1       3.401  -3.600   2.771  0.00  0.00    -0.031 A 
ATOM      4  C4  IND d   1       5.545  -4.415   1.604  0.00  0.00     0.051 A 
ATOM      5  C5  IND d   1       5.999  -4.935   0.424  0.00  0.00    -0.031 A 
ATOM      6  C6  IND d   1       5.164  -5.121  -0.659  0.00  0.00     0.015 A 
ATOM      7  C7  IND d   1       3.842  -4.782  -0.606  0.00  0.00    -0.016 A 
ATOM      8  C8  IND d   1       3.376  -4.261   0.593  0.00  0.00    -0.047 A 
ATOM      9  C9  IND d   1       4.209  -4.109   1.709  0.00  0.00    -0.096 A 
ATOM     10  HN1 IND d   1       1.418  -3.851   0.460  0.00  0.00     0.298 HD
ENDROOT
TORSDOF 0
ENDMDL
