MODEL 1
REMARK minimizedAffinity 9.98081875
REMARK minimizedRMSD -1
REMARK  0 active torsions:
REMARK  status: ('A' for Active; 'I' for Inactive)
ROOT
ATOM      1  N1  IND d   1       5.174  -4.899   5.983  0.00  0.00    -0.196 N 
ATOM      2  C2  IND d   1       5.194  -5.999   5.172  0.00  0.00     0.054 A 
ATOM      3  C3  IND d   1       4.372  -5.819   4.114  0.00  0.00    -0.031 A 
ATOM      4  C4  IND d   1       2.975  -3.758   3.462  0.00  0.00     0.051 A 
ATOM      5  C5  IND d   1       2.605  -2.521   3.911  0.00  0.00    -0.031 A 
ATOM      6  C6  IND d   1       3.084  -2.002   5.096  0.00  0.00     0.015 A 
ATOM      7  C7  IND d   1       3.964  -2.699   5.875  0.00  0.00    -0.016 A 
ATOM      8  C8  IND d   1       4.337  -3.958   5.425  0.00  0.00    -0.047 A 
ATOM      9  C9  IND d   1       3.821  -4.507   4.244  0.00  0.00    -0.096 A 
ATOM     10  HN1 IND d   1       5.611  -4.809   6.718  0.00  0.00     0.298 HD
ENDROOT
TORSDOF 0
ENDMDL
