MODEL 1
REMARK minimizedAffinity 7.1071043
REMARK minimizedRMSD -1
REMARK  0 active torsions:
REMARK  status: ('A' for Active; 'I' for Inactive)
ROOT
ATOM      1  N1  IND d   1      -3.636  -2.216  -3.415  0.00  0.00    -0.196 N 
ATOM      2  C2  IND d   1      -4.412  -1.802  -4.461  0.00  0.00     0.054 A 
ATOM      3  C3  IND d   1      -5.048  -0.650  -4.148  0.00  0.00    -0.031 A 
ATOM      4  C4  IND d   1      -4.882   0.781  -2.015  0.00  0.00     0.051 A 
ATOM      5  C5  IND d   1      -4.328   0.793  -0.765  0.00  0.00    -0.031 A 
ATOM      6  C6  IND d   1      -3.496  -0.217  -0.327  0.00  0.00     0.015 A 
ATOM      7  C7  IND d   1      -3.176  -1.276  -1.131  0.00  0.00    -0.016 A 
ATOM      8  C8  IND d   1      -3.743  -1.294  -2.397  0.00  0.00    -0.047 A 
ATOM      9  C9  IND d   1      -4.622  -0.293  -2.832  0.00  0.00    -0.096 A 
ATOM     10  HN1 IND d   1      -3.160  -2.932  -3.396  0.00  0.00     0.298 HD
ENDROOT
TORSDOF 0
ENDMDL
