MODEL 1
REMARK minimizedAffinity 14.3413715
REMARK minimizedRMSD -1
REMARK  0 active torsions:
REMARK  status: ('A' for Active; 'I' for Inactive)
ROOT
ATOM      1  N1  IND d   1       1.148  -1.370   3.280  0.00  0.00    -0.196 N 
ATOM      2  C2  IND d   1      -0.175  -1.513   2.967  0.00  0.00     0.054 A 
ATOM      3  C3  IND d   1      -0.352  -2.573   2.147  0.00  0.00    -0.031 A 
ATOM      4  C4  IND d   1       1.373  -4.272   1.274  0.00  0.00     0.051 A 
ATOM      5  C5  IND d   1       2.715  -4.534   1.259  0.00  0.00    -0.031 A 
ATOM      6  C6  IND d   1       3.620  -3.741   1.933  0.00  0.00     0.015 A 
ATOM      7  C7  IND d   1       3.215  -2.657   2.660  0.00  0.00    -0.016 A 
ATOM      8  C8  IND d   1       1.854  -2.383   2.671  0.00  0.00    -0.047 A 
ATOM      9  C9  IND d   1       0.935  -3.161   1.954  0.00  0.00    -0.096 A 
ATOM     10  HN1 IND d   1       1.482  -0.751   3.774  0.00  0.00     0.298 HD
ENDROOT
TORSDOF 0
ENDMDL
