MODEL 1
REMARK minimizedAffinity -4.50592422
REMARK minimizedRMSD -1
REMARK  0 active torsions:
REMARK  status: ('A' for Active; 'I' for Inactive)
ROOT
ATOM      1  N1  IND d   1       4.917  -4.543   2.346  0.00  0.00    -0.196 N 
ATOM      2  C2  IND d   1       4.986  -3.378   1.634  0.00  0.00     0.054 A 
ATOM      3  C3  IND d   1       4.650  -2.328   2.418  0.00  0.00    -0.031 A 
ATOM      4  C4  IND d   1       4.052  -2.281   4.921  0.00  0.00     0.051 A 
ATOM      5  C5  IND d   1       3.822  -3.101   5.989  0.00  0.00    -0.031 A 
ATOM      6  C6  IND d   1       3.950  -4.472   5.897  0.00  0.00     0.015 A 
ATOM      7  C7  IND d   1       4.326  -5.075   4.730  0.00  0.00    -0.016 A 
ATOM      8  C8  IND d   1       4.554  -4.245   3.641  0.00  0.00    -0.047 A 
ATOM      9  C9  IND d   1       4.384  -2.857   3.718  0.00  0.00    -0.096 A 
ATOM     10  HN1 IND d   1       5.073  -5.330   2.036  0.00  0.00     0.298 HD
ENDROOT
TORSDOF 0
ENDMDL
