MODEL 1
REMARK minimizedAffinity 0.223869145
REMARK minimizedRMSD -1
REMARK  0 active torsions:
REMARK  status: ('A' for Active; 'I' for Inactive)
ROOT
ATOM      1  N1  IND d   1       3.758  -3.892   5.515  0.00  0.00    -0.196 N 
ATOM      2  C2  IND d   1       4.393  -5.002   5.999  0.00  0.00     0.054 A 
ATOM      3  C3  IND d   1       4.359  -5.999   5.086  0.00  0.00    -0.031 A 
ATOM      4  C4  IND d   1       3.403  -5.995   2.696  0.00  0.00     0.051 A 
ATOM      5  C5  IND d   1       2.693  -5.222   1.821  0.00  0.00    -0.031 A 
ATOM      6  C6  IND d   1       2.296  -3.939   2.138  0.00  0.00     0.015 A 
ATOM      7  C7  IND d   1       2.606  -3.375   3.343  0.00  0.00    -0.016 A 
ATOM      8  C8  IND d   1       3.321  -4.160   4.237  0.00  0.00    -0.047 A 
ATOM      9  C9  IND d   1       3.689  -5.478   3.937  0.00  0.00    -0.096 A 
ATOM     10  HN1 IND d   1       3.650  -3.152   5.939  0.00  0.00     0.298 HD
ENDROOT
TORSDOF 0
ENDMDL
