MODEL 1
REMARK minimizedAffinity 13.4827518
REMARK minimizedRMSD -1
REMARK  0 active torsions:
REMARK  status: ('A' for Active; 'I' for Inactive)
ROOT
ATOM      1  N1  IND d   1      -2.820   1.314   3.790  0.00  0.00    -0.196 N 
ATOM      2  C2  IND d   1      -4.103   1.181   3.338  0.00  0.00     0.054 A 
ATOM      3  C3  IND d   1      -4.231   0.049   2.609  0.00  0.00    -0.031 A 
ATOM      4  C4  IND d   1      -2.490  -1.783   2.116  0.00  0.00     0.051 A 
ATOM      5  C5  IND d   1      -1.169  -2.087   2.286  0.00  0.00    -0.031 A 
ATOM      6  C6  IND d   1      -0.313  -1.258   2.982  0.00  0.00     0.015 A 
ATOM      7  C7  IND d   1      -0.753  -0.094   3.547  0.00  0.00    -0.016 A 
ATOM      8  C8  IND d   1      -2.092   0.222   3.371  0.00  0.00    -0.047 A 
ATOM      9  C9  IND d   1      -2.956  -0.595   2.629  0.00  0.00    -0.096 A 
ATOM     10  HN1 IND d   1      -2.518   1.969   4.258  0.00  0.00     0.298 HD
ENDROOT
TORSDOF 0
ENDMDL
