MODEL 1
REMARK minimizedAffinity 17.6795845
REMARK minimizedRMSD -1
REMARK  0 active torsions:
REMARK  status: ('A' for Active; 'I' for Inactive)
ROOT
ATOM      1  N1  IND d   1      -4.129  -3.161  -3.165  0.00  0.00    -0.196 N 
ATOM      2  C2  IND d   1      -4.949  -2.814  -4.202  0.00  0.00     0.054 A 
ATOM      3  C3  IND d   1      -5.412  -1.555  -4.035  0.00  0.00    -0.031 A 
ATOM      4  C4  IND d   1      -4.873   0.155  -2.187  0.00  0.00     0.051 A 
ATOM      5  C5  IND d   1      -4.203   0.286  -1.004  0.00  0.00    -0.031 A 
ATOM      6  C6  IND d   1      -3.456  -0.745  -0.470  0.00  0.00     0.015 A 
ATOM      7  C7  IND d   1      -3.343  -1.947  -1.109  0.00  0.00    -0.016 A 
ATOM      8  C8  IND d   1      -4.027  -2.086  -2.308  0.00  0.00    -0.047 A 
ATOM      9  C9  IND d   1      -4.821  -1.058  -2.833  0.00  0.00    -0.096 A 
ATOM     10  HN1 IND d   1      -3.741  -3.921  -3.064  0.00  0.00     0.298 HD
ENDROOT
TORSDOF 0
ENDMDL
