MODEL 1
REMARK minimizedAffinity 9.35925865
REMARK minimizedRMSD -1
REMARK  0 active torsions:
REMARK  status: ('A' for Active; 'I' for Inactive)
ROOT
ATOM      1  N1  IND d   1       0.500  -2.672   0.833  0.00  0.00    -0.196 N 
ATOM      2  C2  IND d   1       1.273  -2.862   1.945  0.00  0.00     0.054 A 
ATOM      3  C3  IND d   1       2.031  -1.768   2.183  0.00  0.00    -0.031 A 
ATOM      4  C4  IND d   1       2.089   0.484   0.937  0.00  0.00     0.051 A 
ATOM      5  C5  IND d   1       1.588   1.119  -0.165  0.00  0.00    -0.031 A 
ATOM      6  C6  IND d   1       0.677   0.511  -1.005  0.00  0.00     0.015 A 
ATOM      7  C7  IND d   1       0.224  -0.756  -0.768  0.00  0.00    -0.016 A 
ATOM      8  C8  IND d   1       0.737  -1.406   0.345  0.00  0.00    -0.047 A 
ATOM      9  C9  IND d   1       1.693  -0.810   1.178  0.00  0.00    -0.096 A 
ATOM     10  HN1 IND d   1      -0.043  -3.248   0.495  0.00  0.00     0.298 HD
ENDROOT
TORSDOF 0
ENDMDL
