MODEL 1
REMARK minimizedAffinity -1.16680336
REMARK minimizedRMSD -1
REMARK  0 active torsions:
REMARK  status: ('A' for Active; 'I' for Inactive)
ROOT
ATOM      1  N1  IND d   1       2.556  -3.052   3.606  0.00  0.00    -0.196 N 
ATOM      2  C2  IND d   1       2.461  -3.459   2.304  0.00  0.00     0.054 A 
ATOM      3  C3  IND d   1       3.182  -4.586   2.110  0.00  0.00    -0.031 A 
ATOM      4  C4  IND d   1       4.511  -5.991   3.809  0.00  0.00     0.051 A 
ATOM      5  C5  IND d   1       4.920  -6.000   5.113  0.00  0.00    -0.031 A 
ATOM      6  C6  IND d   1       4.553  -5.009   6.000  0.00  0.00     0.015 A 
ATOM      7  C7  IND d   1       3.750  -3.972   5.617  0.00  0.00    -0.016 A 
ATOM      8  C8  IND d   1       3.338  -3.956   4.292  0.00  0.00    -0.047 A 
ATOM      9  C9  IND d   1       3.742  -4.936   3.377  0.00  0.00    -0.096 A 
ATOM     10  HN1 IND d   1       2.189  -2.350   3.940  0.00  0.00     0.298 HD
ENDROOT
TORSDOF 0
ENDMDL
