MODEL 1
REMARK minimizedAffinity -5.11025524
REMARK minimizedRMSD -1
REMARK  0 active torsions:
REMARK  status: ('A' for Active; 'I' for Inactive)
ROOT
ATOM      1  C   UNL d   1       0.181   0.197  -0.353  0.00  0.00     0.078 C 
ATOM      2  C1  UNL d   1      -1.038  -0.609  -0.016  0.00  0.00    -0.077 A 
ATOM      3  C2  UNL d   1      -2.302  -0.237  -0.488  0.00  0.00    -0.001 A 
ATOM      4  C3  UNL d   1      -3.429  -0.992  -0.158  0.00  0.00     0.003 A 
ATOM      5  C4  UNL d   1      -3.303  -2.122   0.647  0.00  0.00    -0.005 A 
ATOM      6  C5  UNL d   1      -2.050  -2.498   1.124  0.00  0.00     0.003 A 
ATOM      7  C6  UNL d   1      -0.921  -1.745   0.795  0.00  0.00    -0.001 A 
ENDROOT
TORSDOF 0
ENDMDL
