MODEL 1
REMARK minimizedAffinity -4.39140034
REMARK minimizedRMSD -1
REMARK  0 active torsions:
REMARK  status: ('A' for Active; 'I' for Inactive)
ROOT
ATOM      1  C   UNL d   1       1.336  -0.049   0.312  0.00  0.00     0.078 C 
ATOM      2  C1  UNL d   1      -0.099  -0.156  -0.108  0.00  0.00    -0.077 A 
ATOM      3  C2  UNL d   1      -1.060  -0.715   0.744  0.00  0.00    -0.001 A 
ATOM      4  C3  UNL d   1      -2.391  -0.817   0.336  0.00  0.00     0.003 A 
ATOM      5  C4  UNL d   1      -2.773  -0.363  -0.925  0.00  0.00    -0.005 A 
ATOM      6  C5  UNL d   1      -1.824   0.192  -1.781  0.00  0.00     0.003 A 
ATOM      7  C6  UNL d   1      -0.492   0.295  -1.375  0.00  0.00    -0.001 A 
ENDROOT
TORSDOF 0
ENDMDL
