MODEL 1
REMARK minimizedAffinity -4.04863358
REMARK minimizedRMSD -1
REMARK  0 active torsions:
REMARK  status: ('A' for Active; 'I' for Inactive)
ROOT
ATOM      1  C   UNL d   1      -3.513  -0.764  -0.009  0.00  0.00     0.078 C 
ATOM      2  C1  UNL d   1      -2.042  -0.559   0.201  0.00  0.00    -0.077 A 
ATOM      3  C2  UNL d   1      -1.402  -1.050   1.345  0.00  0.00    -0.001 A 
ATOM      4  C3  UNL d   1      -0.035  -0.844   1.533  0.00  0.00     0.003 A 
ATOM      5  C4  UNL d   1       0.705  -0.145   0.581  0.00  0.00    -0.005 A 
ATOM      6  C5  UNL d   1       0.076   0.349  -0.560  0.00  0.00     0.003 A 
ATOM      7  C6  UNL d   1      -1.291   0.144  -0.750  0.00  0.00    -0.001 A 
ENDROOT
TORSDOF 0
ENDMDL
