MODEL 1
REMARK minimizedAffinity -5.53665257
REMARK minimizedRMSD -1
REMARK  0 active torsions:
REMARK  status: ('A' for Active; 'I' for Inactive)
ROOT
ATOM      1  C   UNL d   1       1.003   0.362   0.343  0.00  0.00     0.078 C 
ATOM      2  C1  UNL d   1      -0.360  -0.153  -0.015  0.00  0.00    -0.077 A 
ATOM      3  C2  UNL d   1      -1.051  -1.018   0.841  0.00  0.00    -0.001 A 
ATOM      4  C3  UNL d   1      -2.314  -1.498   0.491  0.00  0.00     0.003 A 
ATOM      5  C4  UNL d   1      -2.896  -1.118  -0.717  0.00  0.00    -0.005 A 
ATOM      6  C5  UNL d   1      -2.215  -0.259  -1.576  0.00  0.00     0.003 A 
ATOM      7  C6  UNL d   1      -0.952   0.221  -1.228  0.00  0.00    -0.001 A 
ENDROOT
TORSDOF 0
ENDMDL
