MODEL 1
REMARK minimizedAffinity -5.74736786
REMARK minimizedRMSD -1
REMARK  0 active torsions:
REMARK  status: ('A' for Active; 'I' for Inactive)
ROOT
ATOM      1  C   UNL d   1       1.158   0.305   0.051  0.00  0.00     0.078 C 
ATOM      2  C1  UNL d   1      -0.240  -0.221  -0.083  0.00  0.00    -0.077 A 
ATOM      3  C2  UNL d   1      -0.786  -1.072   0.885  0.00  0.00    -0.001 A 
ATOM      4  C3  UNL d   1      -2.086  -1.562   0.743  0.00  0.00     0.003 A 
ATOM      5  C4  UNL d   1      -2.849  -1.207  -0.368  0.00  0.00    -0.005 A 
ATOM      6  C5  UNL d   1      -2.313  -0.363  -1.338  0.00  0.00     0.003 A 
ATOM      7  C6  UNL d   1      -1.014   0.128  -1.197  0.00  0.00    -0.001 A 
ENDROOT
TORSDOF 0
ENDMDL
