MODEL 1
REMARK minimizedAffinity -4.05625486
REMARK minimizedRMSD -1
REMARK  0 active torsions:
REMARK  status: ('A' for Active; 'I' for Inactive)
ROOT
ATOM      1  C   UNL d   1      -0.668   0.594  -0.545  0.00  0.00     0.078 C 
ATOM      2  C1  UNL d   1       0.513   1.327   0.016  0.00  0.00    -0.077 A 
ATOM      3  C2  UNL d   1       1.750   0.689   0.173  0.00  0.00    -0.001 A 
ATOM      4  C3  UNL d   1       2.839   1.381   0.705  0.00  0.00     0.003 A 
ATOM      5  C4  UNL d   1       2.702   2.714   1.086  0.00  0.00    -0.005 A 
ATOM      6  C5  UNL d   1       1.475   3.357   0.936  0.00  0.00     0.003 A 
ATOM      7  C6  UNL d   1       0.385   2.666   0.404  0.00  0.00    -0.001 A 
ENDROOT
TORSDOF 0
ENDMDL
