MODEL 1
REMARK minimizedAffinity -3.67422295
REMARK minimizedRMSD -1
REMARK  0 active torsions:
REMARK  status: ('A' for Active; 'I' for Inactive)
ROOT
ATOM      1  C   UNL d   1      -3.479  -0.742  -0.081  0.00  0.00     0.078 C 
ATOM      2  C1  UNL d   1      -2.013  -0.448  -0.188  0.00  0.00    -0.077 A 
ATOM      3  C2  UNL d   1      -1.133  -0.780   0.850  0.00  0.00    -0.001 A 
ATOM      4  C3  UNL d   1       0.228  -0.492   0.740  0.00  0.00     0.003 A 
ATOM      5  C4  UNL d   1       0.722   0.130  -0.405  0.00  0.00    -0.005 A 
ATOM      6  C5  UNL d   1      -0.146   0.466  -1.441  0.00  0.00     0.003 A 
ATOM      7  C6  UNL d   1      -1.508   0.179  -1.334  0.00  0.00    -0.001 A 
ENDROOT
TORSDOF 0
ENDMDL
