MODEL 1
REMARK minimizedAffinity -5.0081315
REMARK minimizedRMSD -1
REMARK  0 active torsions:
REMARK  status: ('A' for Active; 'I' for Inactive)
ROOT
ATOM      1  C   UNL d   1       0.607   0.067  -0.191  0.00  0.00     0.078 C 
ATOM      2  C1  UNL d   1      -0.610  -0.773   0.060  0.00  0.00    -0.077 A 
ATOM      3  C2  UNL d   1      -0.602  -1.779   1.034  0.00  0.00    -0.001 A 
ATOM      4  C3  UNL d   1      -1.739  -2.560   1.251  0.00  0.00     0.003 A 
ATOM      5  C4  UNL d   1      -2.890  -2.345   0.496  0.00  0.00    -0.005 A 
ATOM      6  C5  UNL d   1      -2.906  -1.348  -0.478  0.00  0.00     0.003 A 
ATOM      7  C6  UNL d   1      -1.770  -0.566  -0.696  0.00  0.00    -0.001 A 
ENDROOT
TORSDOF 0
ENDMDL
