MODEL 1
REMARK minimizedAffinity -5.55887794
REMARK minimizedRMSD -1
REMARK  0 active torsions:
REMARK  status: ('A' for Active; 'I' for Inactive)
ROOT
ATOM      1  C   UNL d   1       0.975  -0.147   0.089  0.00  0.00     0.078 C 
ATOM      2  C1  UNL d   1      -0.432  -0.660   0.171  0.00  0.00    -0.077 A 
ATOM      3  C2  UNL d   1      -0.764  -1.722   1.020  0.00  0.00    -0.001 A 
ATOM      4  C3  UNL d   1      -2.076  -2.196   1.079  0.00  0.00     0.003 A 
ATOM      5  C4  UNL d   1      -3.066  -1.614   0.290  0.00  0.00    -0.005 A 
ATOM      6  C5  UNL d   1      -2.744  -0.557  -0.560  0.00  0.00     0.003 A 
ATOM      7  C6  UNL d   1      -1.433  -0.083  -0.620  0.00  0.00    -0.001 A 
ENDROOT
TORSDOF 0
ENDMDL
