MODEL 1
REMARK minimizedAffinity -4.69287205
REMARK minimizedRMSD -1
REMARK  0 active torsions:
REMARK  status: ('A' for Active; 'I' for Inactive)
ROOT
ATOM      1  C   UNL d   1      -0.884  -2.738   2.491  0.00  0.00     0.078 C 
ATOM      2  C1  UNL d   1      -1.432  -2.045   1.280  0.00  0.00    -0.077 A 
ATOM      3  C2  UNL d   1      -0.783  -0.931   0.731  0.00  0.00    -0.001 A 
ATOM      4  C3  UNL d   1      -1.310  -0.289  -0.391  0.00  0.00     0.003 A 
ATOM      5  C4  UNL d   1      -2.488  -0.752  -0.973  0.00  0.00    -0.005 A 
ATOM      6  C5  UNL d   1      -3.142  -1.858  -0.433  0.00  0.00     0.003 A 
ATOM      7  C6  UNL d   1      -2.617  -2.501   0.689  0.00  0.00    -0.001 A 
ENDROOT
TORSDOF 0
ENDMDL
