MODEL 1
REMARK minimizedAffinity -5.15513659
REMARK minimizedRMSD -1
REMARK  0 active torsions:
REMARK  status: ('A' for Active; 'I' for Inactive)
ROOT
ATOM      1  C   UNL d   1      -1.368  -2.540   2.615  0.00  0.00     0.078 C 
ATOM      2  C1  UNL d   1      -1.632  -1.837   1.316  0.00  0.00    -0.077 A 
ATOM      3  C2  UNL d   1      -2.600  -2.312   0.423  0.00  0.00    -0.001 A 
ATOM      4  C3  UNL d   1      -2.828  -1.653  -0.786  0.00  0.00     0.003 A 
ATOM      5  C4  UNL d   1      -2.091  -0.517  -1.114  0.00  0.00    -0.005 A 
ATOM      6  C5  UNL d   1      -1.123  -0.039  -0.232  0.00  0.00     0.003 A 
ATOM      7  C6  UNL d   1      -0.894  -0.696   0.978  0.00  0.00    -0.001 A 
ENDROOT
TORSDOF 0
ENDMDL
