MODEL 1
REMARK minimizedAffinity -5.29526806
REMARK minimizedRMSD -1
REMARK  0 active torsions:
REMARK  status: ('A' for Active; 'I' for Inactive)
ROOT
ATOM      1  C   UNL d   1       0.995  -0.030  -0.239  0.00  0.00     0.078 C 
ATOM      2  C1  UNL d   1      -0.382  -0.605  -0.093  0.00  0.00    -0.077 A 
ATOM      3  C2  UNL d   1      -0.658  -1.578   0.875  0.00  0.00    -0.001 A 
ATOM      4  C3  UNL d   1      -1.942  -2.112   0.993  0.00  0.00     0.003 A 
ATOM      5  C4  UNL d   1      -2.960  -1.681   0.145  0.00  0.00    -0.005 A 
ATOM      6  C5  UNL d   1      -2.694  -0.715  -0.823  0.00  0.00     0.003 A 
ATOM      7  C6  UNL d   1      -1.411  -0.180  -0.943  0.00  0.00    -0.001 A 
ENDROOT
TORSDOF 0
ENDMDL
