MODEL 1
REMARK minimizedAffinity -2.92375183
REMARK minimizedRMSD -1
REMARK  1 active torsions:
REMARK  status: ('A' for Active; 'I' for Inactive)
REMARK    1  A    between atoms: C3_4  and  O_7 
ROOT
ATOM      1  C   UNL d   1       0.679  -1.069  -0.997  0.00  0.00    -0.033 A 
ATOM      2  C1  UNL d   1       1.858  -1.813  -0.933  0.00  0.00     0.039 A 
ATOM      3  C2  UNL d   1       1.892  -3.010  -0.215  0.00  0.00    -0.080 A 
ATOM      4  C3  UNL d   1       0.742  -3.452   0.433  0.00  0.00     0.150 A 
ATOM      5  C4  UNL d   1      -0.438  -2.717   0.370  0.00  0.00    -0.007 A 
ATOM      6  C5  UNL d   1      -0.470  -1.522  -0.347  0.00  0.00     0.039 A 
ENDROOT
BRANCH   4   7
ATOM      7  O   UNL d   1       0.728  -4.611   1.150  0.00  0.00    -0.526 OA
ATOM      8  H5  UNL d   1       1.620  -4.997   1.129  0.00  0.00     0.418 HD
ENDBRANCH   4   7
TORSDOF 1
ENDMDL
