MODEL 1
REMARK minimizedAffinity -0.430796385
REMARK minimizedRMSD -1
REMARK  1 active torsions:
REMARK  status: ('A' for Active; 'I' for Inactive)
REMARK    1  A    between atoms: C3_4  and  O_7 
ROOT
ATOM      1  C   UNL d   1       0.536   0.306  -1.986  0.00  0.00    -0.033 A 
ATOM      2  C1  UNL d   1       0.702  -0.835  -2.775  0.00  0.00     0.039 A 
ATOM      3  C2  UNL d   1       1.469  -1.903  -2.307  0.00  0.00    -0.080 A 
ATOM      4  C3  UNL d   1       2.063  -1.820  -1.051  0.00  0.00     0.150 A 
ATOM      5  C4  UNL d   1       1.899  -0.689  -0.258  0.00  0.00    -0.007 A 
ATOM      6  C5  UNL d   1       1.134   0.378  -0.728  0.00  0.00     0.039 A 
ENDROOT
BRANCH   4   7
ATOM      7  O   UNL d   1       2.825  -2.836  -0.554  0.00  0.00    -0.526 OA
ATOM      8  H5  UNL d   1       2.874  -3.539  -1.222  0.00  0.00     0.418 HD
ENDBRANCH   4   7
TORSDOF 1
ENDMDL
