MODEL 1
REMARK minimizedAffinity -4.89860773
REMARK minimizedRMSD -1
REMARK  1 active torsions:
REMARK  status: ('A' for Active; 'I' for Inactive)
REMARK    1  A    between atoms: C3_4  and  O_7 
ROOT
ATOM      1  C   UNL d   1      -0.775  -1.781   0.036  0.00  0.00    -0.033 A 
ATOM      2  C1  UNL d   1      -0.268  -3.065   0.246  0.00  0.00     0.039 A 
ATOM      3  C2  UNL d   1       1.089  -3.323   0.045  0.00  0.00    -0.080 A 
ATOM      4  C3  UNL d   1       1.928  -2.289  -0.363  0.00  0.00     0.150 A 
ATOM      5  C4  UNL d   1       1.431  -1.007  -0.570  0.00  0.00    -0.007 A 
ATOM      6  C5  UNL d   1       0.075  -0.752  -0.370  0.00  0.00     0.039 A 
ENDROOT
BRANCH   4   7
ATOM      7  O   UNL d   1       3.259  -2.494  -0.576  0.00  0.00    -0.526 OA
ATOM      8  H5  UNL d   1       3.455  -3.433  -0.422  0.00  0.00     0.418 HD
ENDBRANCH   4   7
TORSDOF 1
ENDMDL
