MODEL 1
REMARK minimizedAffinity -3.74286795
REMARK minimizedRMSD -1
REMARK  1 active torsions:
REMARK  status: ('A' for Active; 'I' for Inactive)
REMARK    1  A    between atoms: C3_4  and  O_7 
ROOT
ATOM      1  C   UNL d   1       0.753  -4.349   0.560  0.00  0.00    -0.033 A 
ATOM      2  C1  UNL d   1       1.997  -3.795   0.252  0.00  0.00     0.039 A 
ATOM      3  C2  UNL d   1       2.073  -2.586  -0.442  0.00  0.00    -0.080 A 
ATOM      4  C3  UNL d   1       0.899  -1.941  -0.821  0.00  0.00     0.150 A 
ATOM      5  C4  UNL d   1      -0.344  -2.485  -0.514  0.00  0.00    -0.007 A 
ATOM      6  C5  UNL d   1      -0.418  -3.693   0.178  0.00  0.00     0.039 A 
ENDROOT
BRANCH   4   7
ATOM      7  O   UNL d   1       0.922  -0.761  -1.504  0.00  0.00    -0.526 OA
ATOM      8  H5  UNL d   1       1.849  -0.521  -1.671  0.00  0.00     0.418 HD
ENDBRANCH   4   7
TORSDOF 1
ENDMDL
