MODEL 1
REMARK minimizedAffinity -4.15939569
REMARK minimizedRMSD -1
REMARK  1 active torsions:
REMARK  status: ('A' for Active; 'I' for Inactive)
REMARK    1  A    between atoms: C3_4  and  O_7 
ROOT
ATOM      1  C   UNL d   1       0.742  -1.066  -1.149  0.00  0.00    -0.033 A 
ATOM      2  C1  UNL d   1      -0.367  -1.411  -0.374  0.00  0.00     0.039 A 
ATOM      3  C2  UNL d   1      -0.334  -2.554   0.426  0.00  0.00    -0.080 A 
ATOM      4  C3  UNL d   1       0.814  -3.342   0.445  0.00  0.00     0.150 A 
ATOM      5  C4  UNL d   1       1.924  -3.003  -0.321  0.00  0.00    -0.007 A 
ATOM      6  C5  UNL d   1       1.888  -1.861  -1.121  0.00  0.00     0.039 A 
ENDROOT
BRANCH   4   7
ATOM      7  O   UNL d   1       0.892  -4.470   1.207  0.00  0.00    -0.526 OA
ATOM      8  H5  UNL d   1       0.041  -4.595   1.659  0.00  0.00     0.418 HD
ENDBRANCH   4   7
TORSDOF 1
ENDMDL
