MODEL 1
REMARK minimizedAffinity 1.331635
REMARK minimizedRMSD -1
REMARK  1 active torsions:
REMARK  status: ('A' for Active; 'I' for Inactive)
REMARK    1  A    between atoms: C3_4  and  O_7 
ROOT
ATOM      1  C   UNL d   1       0.148  -0.422  -1.118  0.00  0.00    -0.033 A 
ATOM      2  C1  UNL d   1      -0.458  -1.400  -0.327  0.00  0.00     0.039 A 
ATOM      3  C2  UNL d   1       0.272  -2.517   0.085  0.00  0.00    -0.080 A 
ATOM      4  C3  UNL d   1       1.604  -2.643  -0.298  0.00  0.00     0.150 A 
ATOM      5  C4  UNL d   1       2.215  -1.670  -1.083  0.00  0.00    -0.007 A 
ATOM      6  C5  UNL d   1       1.484  -0.556  -1.495  0.00  0.00     0.039 A 
ENDROOT
BRANCH   4   7
ATOM      7  O   UNL d   1       2.355  -3.718   0.076  0.00  0.00    -0.526 OA
ATOM      8  H5  UNL d   1       1.793  -4.321   0.591  0.00  0.00     0.418 HD
ENDBRANCH   4   7
TORSDOF 1
ENDMDL
