MODEL 1
REMARK minimizedAffinity 4.050138
REMARK minimizedRMSD -1
REMARK  1 active torsions:
REMARK  status: ('A' for Active; 'I' for Inactive)
REMARK    1  A    between atoms: C3_4  and  O_7 
ROOT
ATOM      1  C   UNL d   1      -4.111  -1.776   3.221  0.00  0.00    -0.033 A 
ATOM      2  C1  UNL d   1      -4.975  -0.690   3.069  0.00  0.00     0.039 A 
ATOM      3  C2  UNL d   1      -4.685   0.527   3.689  0.00  0.00    -0.080 A 
ATOM      4  C3  UNL d   1      -3.529   0.645   4.454  0.00  0.00     0.150 A 
ATOM      5  C4  UNL d   1      -2.661  -0.431   4.606  0.00  0.00    -0.007 A 
ATOM      6  C5  UNL d   1      -2.953  -1.646   3.988  0.00  0.00     0.039 A 
ENDROOT
BRANCH   4   7
ATOM      7  O   UNL d   1      -3.206   1.812   5.082  0.00  0.00    -0.526 OA
ATOM      8  H5  UNL d   1      -3.911   2.458   4.911  0.00  0.00     0.418 HD
ENDBRANCH   4   7
TORSDOF 1
ENDMDL
