MODEL 1
REMARK minimizedAffinity -5.87977552
REMARK minimizedRMSD -1
REMARK  1 active torsions:
REMARK  status: ('A' for Active; 'I' for Inactive)
REMARK    1  A    between atoms: C3_4  and  O_7 
ROOT
ATOM      1  C   UNL d   1       0.353  -0.755  -0.450  0.00  0.00    -0.033 A 
ATOM      2  C1  UNL d   1      -0.590  -1.743  -0.159  0.00  0.00     0.039 A 
ATOM      3  C2  UNL d   1      -0.175  -3.052   0.097  0.00  0.00    -0.080 A 
ATOM      4  C3  UNL d   1       1.183  -3.358   0.061  0.00  0.00     0.150 A 
ATOM      5  C4  UNL d   1       2.127  -2.377  -0.224  0.00  0.00    -0.007 A 
ATOM      6  C5  UNL d   1       1.711  -1.072  -0.481  0.00  0.00     0.039 A 
ENDROOT
BRANCH   4   7
ATOM      7  O   UNL d   1       1.635  -4.622   0.299  0.00  0.00    -0.526 OA
ATOM      8  H5  UNL d   1       0.868  -5.199   0.453  0.00  0.00     0.418 HD
ENDBRANCH   4   7
TORSDOF 1
ENDMDL
