MODEL 1
REMARK minimizedAffinity -3.08336496
REMARK minimizedRMSD -1
REMARK  1 active torsions:
REMARK  status: ('A' for Active; 'I' for Inactive)
REMARK    1  A    between atoms: C3_4  and  O_7 
ROOT
ATOM      1  C   UNL d   1       0.052  -0.682  -0.943  0.00  0.00    -0.033 A 
ATOM      2  C1  UNL d   1      -0.855  -1.539  -0.318  0.00  0.00     0.039 A 
ATOM      3  C2  UNL d   1      -0.403  -2.712   0.290  0.00  0.00    -0.080 A 
ATOM      4  C3  UNL d   1       0.955  -3.015   0.267  0.00  0.00     0.150 A 
ATOM      5  C4  UNL d   1       1.865  -2.163  -0.351  0.00  0.00    -0.007 A 
ATOM      6  C5  UNL d   1       1.412  -0.993  -0.959  0.00  0.00     0.039 A 
ENDROOT
BRANCH   4   7
ATOM      7  O   UNL d   1       1.442  -4.151   0.843  0.00  0.00    -0.526 OA
ATOM      8  H5  UNL d   1       0.696  -4.656   1.206  0.00  0.00     0.418 HD
ENDBRANCH   4   7
TORSDOF 1
ENDMDL
