MODEL 1
REMARK minimizedAffinity 0.54633534
REMARK minimizedRMSD -1
REMARK  1 active torsions:
REMARK  status: ('A' for Active; 'I' for Inactive)
REMARK    1  A    between atoms: C3_4  and  O_7 
ROOT
ATOM      1  C   UNL d   1      -0.087  -0.656  -1.076  0.00  0.00    -0.033 A 
ATOM      2  C1  UNL d   1      -0.594  -1.708  -0.310  0.00  0.00     0.039 A 
ATOM      3  C2  UNL d   1       0.264  -2.695   0.178  0.00  0.00    -0.080 A 
ATOM      4  C3  UNL d   1       1.625  -2.618  -0.105  0.00  0.00     0.150 A 
ATOM      5  C4  UNL d   1       2.137  -1.571  -0.864  0.00  0.00    -0.007 A 
ATOM      6  C5  UNL d   1       1.279  -0.587  -1.351  0.00  0.00     0.039 A 
ENDROOT
BRANCH   4   7
ATOM      7  O   UNL d   1       2.501  -3.561   0.345  0.00  0.00    -0.526 OA
ATOM      8  H5  UNL d   1       2.001  -4.238   0.831  0.00  0.00     0.418 HD
ENDBRANCH   4   7
TORSDOF 1
ENDMDL
