MODEL 1
REMARK minimizedAffinity -3.89436507
REMARK minimizedRMSD -1
REMARK  1 active torsions:
REMARK  status: ('A' for Active; 'I' for Inactive)
REMARK    1  A    between atoms: C3_4  and  O_7 
ROOT
ATOM      1  C   UNL d   1       0.887  -1.501  -0.459  0.00  0.00    -0.033 A 
ATOM      2  C1  UNL d   1      -0.154  -2.253   0.089  0.00  0.00     0.039 A 
ATOM      3  C2  UNL d   1       0.097  -3.531   0.594  0.00  0.00    -0.080 A 
ATOM      4  C3  UNL d   1       1.390  -4.043   0.546  0.00  0.00     0.150 A 
ATOM      5  C4  UNL d   1       2.432  -3.298   0.004  0.00  0.00    -0.007 A 
ATOM      6  C5  UNL d   1       2.180  -2.023  -0.500  0.00  0.00     0.039 A 
ENDROOT
BRANCH   4   7
ATOM      7  O   UNL d   1       1.682  -5.287   1.022  0.00  0.00    -0.526 OA
ATOM      8  H5  UNL d   1       0.860  -5.696   1.339  0.00  0.00     0.418 HD
ENDBRANCH   4   7
TORSDOF 1
ENDMDL
