MODEL 1
REMARK minimizedAffinity 0.220125437
REMARK minimizedRMSD -1
REMARK  1 active torsions:
REMARK  status: ('A' for Active; 'I' for Inactive)
REMARK    1  A    between atoms: C3_4  and  O_7 
ROOT
ATOM      1  C   UNL d   1       0.066  -0.246  -1.083  0.00  0.00    -0.033 A 
ATOM      2  C1  UNL d   1       1.453  -0.149  -1.206  0.00  0.00     0.039 A 
ATOM      3  C2  UNL d   1       2.260  -1.251  -0.917  0.00  0.00    -0.080 A 
ATOM      4  C3  UNL d   1       1.668  -2.443  -0.508  0.00  0.00     0.150 A 
ATOM      5  C4  UNL d   1       0.287  -2.548  -0.388  0.00  0.00    -0.007 A 
ATOM      6  C5  UNL d   1      -0.518  -1.446  -0.676  0.00  0.00     0.039 A 
ENDROOT
BRANCH   4   7
ATOM      7  O   UNL d   1       2.415  -3.544  -0.211  0.00  0.00    -0.526 OA
ATOM      8  H5  UNL d   1       3.354  -3.315  -0.311  0.00  0.00     0.418 HD
ENDBRANCH   4   7
TORSDOF 1
ENDMDL
