MODEL 1
REMARK minimizedAffinity -3.92778611
REMARK minimizedRMSD -1
REMARK  1 active torsions:
REMARK  status: ('A' for Active; 'I' for Inactive)
REMARK    1  A    between atoms: C3_4  and  O_7 
ROOT
ATOM      1  C   UNL d   1      -4.046  -0.973   2.858  0.00  0.00    -0.033 A 
ATOM      2  C1  UNL d   1      -5.213  -0.395   3.360  0.00  0.00     0.039 A 
ATOM      3  C2  UNL d   1      -5.143   0.536   4.398  0.00  0.00    -0.080 A 
ATOM      4  C3  UNL d   1      -3.900   0.881   4.923  0.00  0.00     0.150 A 
ATOM      5  C4  UNL d   1      -2.733   0.313   4.424  0.00  0.00    -0.007 A 
ATOM      6  C5  UNL d   1      -2.805  -0.618   3.389  0.00  0.00     0.039 A 
ENDROOT
BRANCH   4   7
ATOM      7  O   UNL d   1      -3.781   1.782   5.939  0.00  0.00    -0.526 OA
ATOM      8  H5  UNL d   1      -4.672   2.070   6.201  0.00  0.00     0.418 HD
ENDBRANCH   4   7
TORSDOF 1
ENDMDL
