MODEL 1
REMARK minimizedAffinity -4.75911283
REMARK minimizedRMSD -1
REMARK  1 active torsions:
REMARK  status: ('A' for Active; 'I' for Inactive)
REMARK    1  A    between atoms: C3_4  and  O_7 
ROOT
ATOM      1  C   UNL d   1       0.130  -0.527  -0.722  0.00  0.00    -0.033 A 
ATOM      2  C1  UNL d   1       1.436  -0.836  -0.337  0.00  0.00     0.039 A 
ATOM      3  C2  UNL d   1       1.754  -2.127   0.087  0.00  0.00    -0.080 A 
ATOM      4  C3  UNL d   1       0.759  -3.100   0.120  0.00  0.00     0.150 A 
ATOM      5  C4  UNL d   1      -0.543  -2.801  -0.266  0.00  0.00    -0.007 A 
ATOM      6  C5  UNL d   1      -0.859  -1.510  -0.688  0.00  0.00     0.039 A 
ENDROOT
BRANCH   4   7
ATOM      7  O   UNL d   1       1.021  -4.374   0.530  0.00  0.00    -0.526 OA
ATOM      8  H5  UNL d   1       1.955  -4.426   0.793  0.00  0.00     0.418 HD
ENDBRANCH   4   7
TORSDOF 1
ENDMDL
