MODEL 1
REMARK minimizedAffinity -0.659139037
REMARK minimizedRMSD -1
REMARK  1 active torsions:
REMARK  status: ('A' for Active; 'I' for Inactive)
REMARK    1  A    between atoms: C3_4  and  O_7 
ROOT
ATOM      1  C   UNL d   1       2.631  -2.284   0.035  0.00  0.00    -0.033 A 
ATOM      2  C1  UNL d   1       1.734  -2.977  -0.780  0.00  0.00     0.039 A 
ATOM      3  C2  UNL d   1       1.258  -4.230  -0.389  0.00  0.00    -0.080 A 
ATOM      4  C3  UNL d   1       1.685  -4.777   0.817  0.00  0.00     0.150 A 
ATOM      5  C4  UNL d   1       2.575  -4.091   1.636  0.00  0.00    -0.007 A 
ATOM      6  C5  UNL d   1       3.051  -2.841   1.244  0.00  0.00     0.039 A 
ENDROOT
BRANCH   4   7
ATOM      7  O   UNL d   1       1.251  -5.999   1.238  0.00  0.00    -0.526 OA
ATOM      8  H5  UNL d   1       0.663  -6.368   0.558  0.00  0.00     0.418 HD
ENDBRANCH   4   7
TORSDOF 1
ENDMDL
