MODEL 1
REMARK minimizedAffinity -4.2420373
REMARK minimizedRMSD -1
REMARK  1 active torsions:
REMARK  status: ('A' for Active; 'I' for Inactive)
REMARK    1  A    between atoms: C3_4  and  O_7 
ROOT
ATOM      1  C   UNL d   1       0.909  -3.366   0.775  0.00  0.00    -0.033 A 
ATOM      2  C1  UNL d   1      -0.393  -2.876   0.658  0.00  0.00     0.039 A 
ATOM      3  C2  UNL d   1      -0.645  -1.733  -0.102  0.00  0.00    -0.080 A 
ATOM      4  C3  UNL d   1       0.412  -1.091  -0.742  0.00  0.00     0.150 A 
ATOM      5  C4  UNL d   1       1.711  -1.576  -0.633  0.00  0.00    -0.007 A 
ATOM      6  C5  UNL d   1       1.961  -2.717   0.128  0.00  0.00     0.039 A 
ENDROOT
BRANCH   4   7
ATOM      7  O   UNL d   1       0.215   0.031  -1.491  0.00  0.00    -0.526 OA
ATOM      8  H5  UNL d   1      -0.727   0.266  -1.452  0.00  0.00     0.418 HD
ENDBRANCH   4   7
TORSDOF 1
ENDMDL
