MODEL 1
REMARK minimizedAffinity -2.56649208
REMARK minimizedRMSD -1
REMARK  1 active torsions:
REMARK  status: ('A' for Active; 'I' for Inactive)
REMARK    1  A    between atoms: C3_4  and  O_7 
ROOT
ATOM      1  C   UNL d   1       0.279   0.353   2.016  0.00  0.00    -0.033 A 
ATOM      2  C1  UNL d   1      -0.131   1.679   2.164  0.00  0.00     0.039 A 
ATOM      3  C2  UNL d   1      -0.182   2.524   1.053  0.00  0.00    -0.080 A 
ATOM      4  C3  UNL d   1       0.178   2.030  -0.198  0.00  0.00     0.150 A 
ATOM      5  C4  UNL d   1       0.584   0.709  -0.353  0.00  0.00    -0.007 A 
ATOM      6  C5  UNL d   1       0.636  -0.133   0.758  0.00  0.00     0.039 A 
ENDROOT
BRANCH   4   7
ATOM      7  O   UNL d   1       0.149   2.818  -1.310  0.00  0.00    -0.526 OA
ATOM      8  H5  UNL d   1      -0.123   3.713  -1.046  0.00  0.00     0.418 HD
ENDBRANCH   4   7
TORSDOF 1
ENDMDL
