MODEL 1
REMARK minimizedAffinity -1.96629775
REMARK minimizedRMSD -1
REMARK  1 active torsions:
REMARK  status: ('A' for Active; 'I' for Inactive)
REMARK    1  A    between atoms: C3_4  and  O_7 
ROOT
ATOM      1  C   UNL d   1       0.039   2.273   0.669  0.00  0.00    -0.033 A 
ATOM      2  C1  UNL d   1       0.285   1.934  -0.663  0.00  0.00     0.039 A 
ATOM      3  C2  UNL d   1       0.373   0.593  -1.039  0.00  0.00    -0.080 A 
ATOM      4  C3  UNL d   1       0.211  -0.399  -0.076  0.00  0.00     0.150 A 
ATOM      5  C4  UNL d   1      -0.039  -0.069   1.252  0.00  0.00    -0.007 A 
ATOM      6  C5  UNL d   1      -0.125   1.271   1.626  0.00  0.00     0.039 A 
ENDROOT
BRANCH   4   7
ATOM      7  O   UNL d   1       0.293  -1.722  -0.395  0.00  0.00    -0.526 OA
ATOM      8  H5  UNL d   1       0.498  -1.798  -1.342  0.00  0.00     0.418 HD
ENDBRANCH   4   7
TORSDOF 1
ENDMDL
