MODEL 1
REMARK minimizedAffinity -2.53138375
REMARK minimizedRMSD -1
REMARK  1 active torsions:
REMARK  status: ('A' for Active; 'I' for Inactive)
REMARK    1  A    between atoms: C3_4  and  O_7 
ROOT
ATOM      1  C   UNL d   1      -0.279   2.079   0.967  0.00  0.00    -0.033 A 
ATOM      2  C1  UNL d   1      -0.258   1.020   1.878  0.00  0.00     0.039 A 
ATOM      3  C2  UNL d   1      -0.067  -0.287   1.427  0.00  0.00    -0.080 A 
ATOM      4  C3  UNL d   1       0.103  -0.523   0.066  0.00  0.00     0.150 A 
ATOM      5  C4  UNL d   1       0.087   0.527  -0.847  0.00  0.00    -0.007 A 
ATOM      6  C5  UNL d   1      -0.105   1.832  -0.395  0.00  0.00     0.039 A 
ENDROOT
BRANCH   4   7
ATOM      7  O   UNL d   1       0.288  -1.782  -0.422  0.00  0.00    -0.526 OA
ATOM      8  H5  UNL d   1       0.247  -2.408   0.320  0.00  0.00     0.418 HD
ENDBRANCH   4   7
TORSDOF 1
ENDMDL
