MODEL 1
REMARK minimizedAffinity -1.81118345
REMARK minimizedRMSD -1
REMARK  1 active torsions:
REMARK  status: ('A' for Active; 'I' for Inactive)
REMARK    1  A    between atoms: C3_4  and  O_7 
ROOT
ATOM      1  C   UNL d   1      -0.719  -4.686  -1.150  0.00  0.00    -0.033 A 
ATOM      2  C1  UNL d   1       0.667  -4.515  -1.183  0.00  0.00     0.039 A 
ATOM      3  C2  UNL d   1       1.216  -3.234  -1.096  0.00  0.00    -0.080 A 
ATOM      4  C3  UNL d   1       0.370  -2.135  -0.976  0.00  0.00     0.150 A 
ATOM      5  C4  UNL d   1      -1.011  -2.298  -0.939  0.00  0.00    -0.007 A 
ATOM      6  C5  UNL d   1      -1.558  -3.578  -1.027  0.00  0.00     0.039 A 
ENDROOT
BRANCH   4   7
ATOM      7  O   UNL d   1       0.859  -0.865  -0.892  0.00  0.00    -0.526 OA
ATOM      8  H5  UNL d   1       1.827  -0.903  -0.960  0.00  0.00     0.418 HD
ENDBRANCH   4   7
TORSDOF 1
ENDMDL
