MODEL 1
REMARK minimizedAffinity -3.93277073
REMARK minimizedRMSD -1
REMARK  1 active torsions:
REMARK  status: ('A' for Active; 'I' for Inactive)
REMARK    1  A    between atoms: C3_4  and  O_7 
ROOT
ATOM      1  C   UNL d   1       0.172   0.060   1.500  0.00  0.00    -0.033 A 
ATOM      2  C1  UNL d   1       0.483  -0.155   0.156  0.00  0.00     0.039 A 
ATOM      3  C2  UNL d   1       0.493   0.915  -0.740  0.00  0.00    -0.080 A 
ATOM      4  C3  UNL d   1       0.193   2.195  -0.280  0.00  0.00     0.150 A 
ATOM      5  C4  UNL d   1      -0.113   2.417   1.059  0.00  0.00    -0.007 A 
ATOM      6  C5  UNL d   1      -0.125   1.346   1.952  0.00  0.00     0.039 A 
ENDROOT
BRANCH   4   7
ATOM      7  O   UNL d   1       0.187   3.270  -1.118  0.00  0.00    -0.526 OA
ATOM      8  H5  UNL d   1       0.388   2.961  -2.017  0.00  0.00     0.418 HD
ENDBRANCH   4   7
TORSDOF 1
ENDMDL
