MODEL 1
REMARK minimizedAffinity -1.89777231
REMARK minimizedRMSD -1
REMARK  1 active torsions:
REMARK  status: ('A' for Active; 'I' for Inactive)
REMARK    1  A    between atoms: C3_4  and  O_7 
ROOT
ATOM      1  C   UNL d   1       0.165   0.201   1.499  0.00  0.00    -0.033 A 
ATOM      2  C1  UNL d   1       0.793   0.271   0.254  0.00  0.00     0.039 A 
ATOM      3  C2  UNL d   1       0.423  -0.607  -0.767  0.00  0.00    -0.080 A 
ATOM      4  C3  UNL d   1      -0.576  -1.548  -0.531  0.00  0.00     0.150 A 
ATOM      5  C4  UNL d   1      -1.208  -1.620   0.706  0.00  0.00    -0.007 A 
ATOM      6  C5  UNL d   1      -0.837  -0.744   1.725  0.00  0.00     0.039 A 
ENDROOT
BRANCH   4   7
ATOM      7  O   UNL d   1      -0.967  -2.429  -1.494  0.00  0.00    -0.526 OA
ATOM      8  H5  UNL d   1      -0.424  -2.280  -2.286  0.00  0.00     0.418 HD
ENDBRANCH   4   7
TORSDOF 1
ENDMDL
