MODEL 1
REMARK minimizedAffinity -2.25957298
REMARK minimizedRMSD -1
REMARK  0 active torsions:
REMARK  status: ('A' for Active; 'I' for Inactive)
ROOT
ATOM      1  C4' PXY d   1       1.577  -2.198  -1.323  0.00  0.00     0.077 C 
ATOM      2  C1' PXY d   1      -1.087   1.921   1.736  0.00  0.00     0.077 C 
ATOM      3  C1  PXY d   1      -0.390   0.848   0.923  0.00  0.00    -0.082 A 
ATOM      4  C2  PXY d   1      -0.364  -0.398   1.369  0.00  0.00     0.003 A 
ATOM      5  C3  PXY d   1       0.290  -1.374   0.662  0.00  0.00     0.003 A 
ATOM      6  C4  PXY d   1       0.877  -1.084  -0.540  0.00  0.00    -0.082 A 
ATOM      7  C5  PXY d   1       0.845   0.182  -1.007  0.00  0.00     0.003 A 
ATOM      8  C6  PXY d   1       0.213   1.167  -0.254  0.00  0.00     0.003 A 
ENDROOT
TORSDOF 0
ENDMDL
