MODEL 1
REMARK minimizedAffinity -2.30262756
REMARK minimizedRMSD -1
REMARK  0 active torsions:
REMARK  status: ('A' for Active; 'I' for Inactive)
ROOT
ATOM      1  C4' PXY d   1       1.008  -2.510  -1.234  0.00  0.00     0.077 C 
ATOM      2  C1' PXY d   1      -1.139   1.854   1.889  0.00  0.00     0.077 C 
ATOM      3  C1  PXY d   1      -0.580   0.715   1.059  0.00  0.00    -0.082 A 
ATOM      4  C2  PXY d   1      -0.426  -0.479   1.607  0.00  0.00     0.003 A 
ATOM      5  C3  PXY d   1       0.108  -1.512   0.880  0.00  0.00     0.003 A 
ATOM      6  C4  PXY d   1       0.439  -1.334  -0.437  0.00  0.00    -0.082 A 
ATOM      7  C5  PXY d   1       0.275  -0.121  -1.006  0.00  0.00     0.003 A 
ATOM      8  C6  PXY d   1      -0.231   0.925  -0.239  0.00  0.00     0.003 A 
ENDROOT
TORSDOF 0
ENDMDL
