MODEL 1
REMARK minimizedAffinity -3.98000073
REMARK minimizedRMSD -1
REMARK  0 active torsions:
REMARK  status: ('A' for Active; 'I' for Inactive)
ROOT
ATOM      1  C4' PXY d   1       1.141  -1.115  -0.658  0.00  0.00     0.077 C 
ATOM      2  C1' PXY d   1      -2.328   2.891   1.653  0.00  0.00     0.077 C 
ATOM      3  C1  PXY d   1      -1.417   1.835   1.059  0.00  0.00    -0.082 A 
ATOM      4  C2  PXY d   1      -0.802   2.073  -0.088  0.00  0.00     0.003 A 
ATOM      5  C3  PXY d   1       0.001   1.117  -0.656  0.00  0.00     0.003 A 
ATOM      6  C4  PXY d   1       0.218  -0.074  -0.016  0.00  0.00    -0.082 A 
ATOM      7  C5  PXY d   1      -0.397  -0.320   1.160  0.00  0.00     0.003 A 
ATOM      8  C6  PXY d   1      -1.240   0.647   1.699  0.00  0.00     0.003 A 
ENDROOT
TORSDOF 0
ENDMDL
