MODEL 1
REMARK minimizedAffinity -4.000247
REMARK minimizedRMSD -1
REMARK  0 active torsions:
REMARK  status: ('A' for Active; 'I' for Inactive)
ROOT
ATOM      1  C4' PXY d   1      -0.906   0.855   1.680  0.00  0.00     0.077 C 
ATOM      2  C1' PXY d   1       0.542  -2.664  -2.670  0.00  0.00     0.077 C 
ATOM      3  C1  PXY d   1       0.175  -1.742  -1.525  0.00  0.00    -0.082 A 
ATOM      4  C2  PXY d   1      -1.077  -1.694  -1.099  0.00  0.00     0.003 A 
ATOM      5  C3  PXY d   1      -1.433  -0.842  -0.086  0.00  0.00     0.003 A 
ATOM      6  C4  PXY d   1      -0.488  -0.069   0.533  0.00  0.00    -0.082 A 
ATOM      7  C5  PXY d   1       0.794  -0.119   0.112  0.00  0.00     0.003 A 
ATOM      8  C6  PXY d   1       1.127  -0.961  -0.946  0.00  0.00     0.003 A 
ENDROOT
TORSDOF 0
ENDMDL
