MODEL 1
REMARK minimizedAffinity -1.2504952
REMARK minimizedRMSD -1
REMARK  0 active torsions:
REMARK  status: ('A' for Active; 'I' for Inactive)
ROOT
ATOM      1  C4' PXY d   1      -0.751   0.702   1.667  0.00  0.00     0.077 C 
ATOM      2  C1' PXY d   1       0.307  -3.152  -2.510  0.00  0.00     0.077 C 
ATOM      3  C1  PXY d   1       0.041  -2.135  -1.417  0.00  0.00    -0.082 A 
ATOM      4  C2  PXY d   1      -0.768  -2.446  -0.418  0.00  0.00     0.003 A 
ATOM      5  C3  PXY d   1      -1.045  -1.528   0.562  0.00  0.00     0.003 A 
ATOM      6  C4  PXY d   1      -0.446  -0.297   0.547  0.00  0.00    -0.082 A 
ATOM      7  C5  PXY d   1       0.389   0.024  -0.464  0.00  0.00     0.003 A 
ATOM      8  C6  PXY d   1       0.625  -0.907  -1.471  0.00  0.00     0.003 A 
ENDROOT
TORSDOF 0
ENDMDL
