MODEL 1
REMARK minimizedAffinity -4.1412673
REMARK minimizedRMSD -1
REMARK  0 active torsions:
REMARK  status: ('A' for Active; 'I' for Inactive)
ROOT
ATOM      1  C4' PXY d   1       1.233  -1.679  -1.150  0.00  0.00     0.077 C 
ATOM      2  C1' PXY d   1      -1.201   2.712   1.714  0.00  0.00     0.077 C 
ATOM      3  C1  PXY d   1      -0.564   1.568   0.951  0.00  0.00    -0.082 A 
ATOM      4  C2  PXY d   1      -0.660   0.335   1.422  0.00  0.00     0.003 A 
ATOM      5  C3  PXY d   1      -0.062  -0.708   0.762  0.00  0.00     0.003 A 
ATOM      6  C4  PXY d   1       0.597  -0.494  -0.419  0.00  0.00    -0.082 A 
ATOM      7  C5  PXY d   1       0.691   0.760  -0.911  0.00  0.00     0.003 A 
ATOM      8  C6  PXY d   1       0.112   1.810  -0.205  0.00  0.00     0.003 A 
ENDROOT
TORSDOF 0
ENDMDL
