MODEL 1
REMARK minimizedAffinity -1.50305915
REMARK minimizedRMSD -1
REMARK  0 active torsions:
REMARK  status: ('A' for Active; 'I' for Inactive)
ROOT
ATOM      1  C4' PXY d   1       1.109  -1.972  -1.254  0.00  0.00     0.077 C 
ATOM      2  C1' PXY d   1      -1.217   2.205   1.996  0.00  0.00     0.077 C 
ATOM      3  C1  PXY d   1      -0.610   1.116   1.133  0.00  0.00    -0.082 A 
ATOM      4  C2  PXY d   1      -0.458  -0.102   1.627  0.00  0.00     0.003 A 
ATOM      5  C3  PXY d   1       0.118  -1.091   0.871  0.00  0.00     0.003 A 
ATOM      6  C4  PXY d   1       0.493  -0.844  -0.422  0.00  0.00    -0.082 A 
ATOM      7  C5  PXY d   1       0.332   0.393  -0.937  0.00  0.00     0.003 A 
ATOM      8  C6  PXY d   1      -0.217   1.394  -0.140  0.00  0.00     0.003 A 
ENDROOT
TORSDOF 0
ENDMDL
