MODEL 1
REMARK minimizedAffinity -3.52636147
REMARK minimizedRMSD -1
REMARK  0 active torsions:
REMARK  status: ('A' for Active; 'I' for Inactive)
ROOT
ATOM      1  C4' PXY d   1       0.515  -3.038  -2.882  0.00  0.00     0.077 C 
ATOM      2  C1' PXY d   1      -0.517   0.396   1.652  0.00  0.00     0.077 C 
ATOM      3  C1  PXY d   1      -0.236  -0.496   0.459  0.00  0.00    -0.082 A 
ATOM      4  C2  PXY d   1      -1.198  -1.269  -0.020  0.00  0.00     0.003 A 
ATOM      5  C3  PXY d   1      -0.952  -2.106  -1.077  0.00  0.00     0.003 A 
ATOM      6  C4  PXY d   1       0.275  -2.114  -1.685  0.00  0.00    -0.082 A 
ATOM      7  C5  PXY d   1       1.257  -1.320  -1.209  0.00  0.00     0.003 A 
ATOM      8  C6  PXY d   1       1.000  -0.508  -0.108  0.00  0.00     0.003 A 
ENDROOT
TORSDOF 0
ENDMDL
