MODEL 1
REMARK minimizedAffinity 2.22401142
REMARK minimizedRMSD -1
REMARK  0 active torsions:
REMARK  status: ('A' for Active; 'I' for Inactive)
ROOT
ATOM      1  C4' PXY d   1      -1.678   1.023   2.745  0.00  0.00     0.077 C 
ATOM      2  C1' PXY d   1       1.426   0.450  -2.097  0.00  0.00     0.077 C 
ATOM      3  C1  PXY d   1       0.611   0.587  -0.826  0.00  0.00    -0.082 A 
ATOM      4  C2  PXY d   1      -0.088   1.690  -0.613  0.00  0.00     0.003 A 
ATOM      5  C3  PXY d   1      -0.804   1.844   0.545  0.00  0.00     0.003 A 
ATOM      6  C4  PXY d   1      -0.849   0.837   1.471  0.00  0.00    -0.082 A 
ATOM      7  C5  PXY d   1      -0.147  -0.296   1.257  0.00  0.00     0.003 A 
ATOM      8  C6  PXY d   1       0.607  -0.416   0.093  0.00  0.00     0.003 A 
ENDROOT
TORSDOF 0
ENDMDL
