MODEL 1
REMARK minimizedAffinity -2.45895243
REMARK minimizedRMSD -1
REMARK  0 active torsions:
REMARK  status: ('A' for Active; 'I' for Inactive)
ROOT
ATOM      1  C4' PXY d   1      -0.795   2.655  -1.801  0.00  0.00     0.077 C 
ATOM      2  C1' PXY d   1      -0.221  -1.286   2.389  0.00  0.00     0.077 C 
ATOM      3  C1  PXY d   1      -0.360  -0.255   1.286  0.00  0.00    -0.082 A 
ATOM      4  C2  PXY d   1      -1.203   0.753   1.435  0.00  0.00     0.003 A 
ATOM      5  C3  PXY d   1      -1.365   1.676   0.434  0.00  0.00     0.003 A 
ATOM      6  C4  PXY d   1      -0.616   1.596  -0.710  0.00  0.00    -0.082 A 
ATOM      7  C5  PXY d   1       0.255   0.576  -0.865  0.00  0.00     0.003 A 
ATOM      8  C6  PXY d   1       0.374  -0.374   0.146  0.00  0.00     0.003 A 
ENDROOT
TORSDOF 0
ENDMDL
