MODEL 1
REMARK minimizedAffinity -4.52625036
REMARK minimizedRMSD -1
REMARK  0 active torsions:
REMARK  status: ('A' for Active; 'I' for Inactive)
ROOT
ATOM      1  C4' PXY d   1       1.063  -1.989  -0.882  0.00  0.00     0.077 C 
ATOM      2  C1' PXY d   1      -2.176   2.275   1.296  0.00  0.00     0.077 C 
ATOM      3  C1  PXY d   1      -1.330   1.160   0.713  0.00  0.00    -0.082 A 
ATOM      4  C2  PXY d   1      -1.031   0.108   1.457  0.00  0.00     0.003 A 
ATOM      5  C3  PXY d   1      -0.241  -0.894   0.956  0.00  0.00     0.003 A 
ATOM      6  C4  PXY d   1       0.204  -0.844  -0.338  0.00  0.00    -0.082 A 
ATOM      7  C5  PXY d   1      -0.105   0.221  -1.107  0.00  0.00     0.003 A 
ATOM      8  C6  PXY d   1      -0.875   1.247  -0.567  0.00  0.00     0.003 A 
ENDROOT
TORSDOF 0
ENDMDL
