MODEL 1
REMARK minimizedAffinity -5.10996914
REMARK minimizedRMSD -1
REMARK  0 active torsions:
REMARK  status: ('A' for Active; 'I' for Inactive)
ROOT
ATOM      1  C4' PXY d   1       0.436   2.080  -1.717  0.00  0.00     0.077 C 
ATOM      2  C1' PXY d   1       0.744  -3.683  -2.046  0.00  0.00     0.077 C 
ATOM      3  C1  PXY d   1       0.663  -2.172  -1.947  0.00  0.00    -0.082 A 
ATOM      4  C2  PXY d   1       0.150  -1.477  -2.949  0.00  0.00     0.003 A 
ATOM      5  C3  PXY d   1       0.098  -0.108  -2.889  0.00  0.00     0.003 A 
ATOM      6  C4  PXY d   1       0.529   0.553  -1.770  0.00  0.00    -0.082 A 
ATOM      7  C5  PXY d   1       1.045  -0.150  -0.739  0.00  0.00     0.003 A 
ATOM      8  C6  PXY d   1       1.126  -1.536  -0.836  0.00  0.00     0.003 A 
ENDROOT
TORSDOF 0
ENDMDL
