MODEL 1
REMARK minimizedAffinity -3.4605577
REMARK minimizedRMSD -1
REMARK  0 active torsions:
REMARK  status: ('A' for Active; 'I' for Inactive)
ROOT
ATOM      1  C4' PXY d   1      -1.271  -1.724   2.330  0.00  0.00     0.077 C 
ATOM      2  C1' PXY d   1      -0.360   3.705   0.566  0.00  0.00     0.077 C 
ATOM      3  C1  PXY d   1      -0.599   2.277   1.016  0.00  0.00    -0.082 A 
ATOM      4  C2  PXY d   1      -1.201   2.048   2.172  0.00  0.00     0.003 A 
ATOM      5  C3  PXY d   1      -1.396   0.763   2.609  0.00  0.00     0.003 A 
ATOM      6  C4  PXY d   1      -1.018  -0.299   1.831  0.00  0.00    -0.082 A 
ATOM      7  C5  PXY d   1      -0.413  -0.073   0.646  0.00  0.00     0.003 A 
ATOM      8  C6  PXY d   1      -0.187   1.239   0.239  0.00  0.00     0.003 A 
ENDROOT
TORSDOF 0
ENDMDL
