MODEL 1
REMARK minimizedAffinity -4.74730158
REMARK minimizedRMSD -1
REMARK  0 active torsions:
REMARK  status: ('A' for Active; 'I' for Inactive)
ROOT
ATOM      1  C4' PXY d   1       0.717  -1.741  -0.719  0.00  0.00     0.077 C 
ATOM      2  C1' PXY d   1      -0.198   3.754   0.826  0.00  0.00     0.077 C 
ATOM      3  C1  PXY d   1       0.040   2.309   0.433  0.00  0.00    -0.082 A 
ATOM      4  C2  PXY d   1       0.747   2.034  -0.651  0.00  0.00     0.003 A 
ATOM      5  C3  PXY d   1       0.945   0.733  -1.038  0.00  0.00     0.003 A 
ATOM      6  C4  PXY d   1       0.460  -0.297  -0.279  0.00  0.00    -0.082 A 
ATOM      7  C5  PXY d   1      -0.253  -0.025   0.835  0.00  0.00     0.003 A 
ATOM      8  C6  PXY d   1      -0.478   1.302   1.188  0.00  0.00     0.003 A 
ENDROOT
TORSDOF 0
ENDMDL
