MODEL 1
REMARK minimizedAffinity -2.16229916
REMARK minimizedRMSD -1
REMARK  0 active torsions:
REMARK  status: ('A' for Active; 'I' for Inactive)
ROOT
ATOM      1  C4' PXY d   1      -0.057   1.297  -0.178  0.00  0.00     0.077 C 
ATOM      2  C1' PXY d   1       0.778  -4.047  -2.217  0.00  0.00     0.077 C 
ATOM      3  C1  PXY d   1       0.562  -2.650  -1.670  0.00  0.00    -0.082 A 
ATOM      4  C2  PXY d   1      -0.253  -1.819  -2.300  0.00  0.00     0.003 A 
ATOM      5  C3  PXY d   1      -0.435  -0.541  -1.838  0.00  0.00     0.003 A 
ATOM      6  C4  PXY d   1       0.183  -0.126  -0.689  0.00  0.00    -0.082 A 
ATOM      7  C5  PXY d   1       1.009  -0.971  -0.034  0.00  0.00     0.003 A 
ATOM      8  C6  PXY d   1       1.212  -2.250  -0.543  0.00  0.00     0.003 A 
ENDROOT
TORSDOF 0
ENDMDL
