MODEL 1
REMARK minimizedAffinity -3.72350597
REMARK minimizedRMSD -1
REMARK  0 active torsions:
REMARK  status: ('A' for Active; 'I' for Inactive)
ROOT
ATOM      1  C4' PXY d   1       1.073  -3.000  -1.919  0.00  0.00     0.077 C 
ATOM      2  C1' PXY d   1      -1.204   1.037   1.534  0.00  0.00     0.077 C 
ATOM      3  C1  PXY d   1      -0.618  -0.028   0.628  0.00  0.00    -0.082 A 
ATOM      4  C2  PXY d   1       0.686  -0.248   0.637  0.00  0.00     0.003 A 
ATOM      5  C3  PXY d   1       1.236  -1.185  -0.200  0.00  0.00     0.003 A 
ATOM      6  C4  PXY d   1       0.437  -1.942  -1.014  0.00  0.00    -0.082 A 
ATOM      7  C5  PXY d   1      -0.896  -1.730  -1.021  0.00  0.00     0.003 A 
ATOM      8  C6  PXY d   1      -1.430  -0.745  -0.195  0.00  0.00     0.003 A 
ENDROOT
TORSDOF 0
ENDMDL
