MODEL 1
REMARK minimizedAffinity -5.3854537
REMARK minimizedRMSD -1
REMARK  0 active torsions:
REMARK  status: ('A' for Active; 'I' for Inactive)
ROOT
ATOM      1  C4' PXY d   1      -1.413   3.576   1.467  0.00  0.00     0.077 C 
ATOM      2  C1' PXY d   1       0.894  -1.210  -0.812  0.00  0.00     0.077 C 
ATOM      3  C1  PXY d   1       0.280   0.038  -0.208  0.00  0.00    -0.082 A 
ATOM      4  C2  PXY d   1       0.383   1.192  -0.846  0.00  0.00     0.003 A 
ATOM      5  C3  PXY d   1      -0.138   2.336  -0.298  0.00  0.00     0.003 A 
ATOM      6  C4  PXY d   1      -0.817   2.289   0.889  0.00  0.00    -0.082 A 
ATOM      7  C5  PXY d   1      -0.936   1.113   1.541  0.00  0.00     0.003 A 
ATOM      8  C6  PXY d   1      -0.364  -0.030   0.988  0.00  0.00     0.003 A 
ENDROOT
TORSDOF 0
ENDMDL
