MODEL 1
REMARK minimizedAffinity -4.57689905
REMARK minimizedRMSD -1
REMARK  0 active torsions:
REMARK  status: ('A' for Active; 'I' for Inactive)
ROOT
ATOM      1  C4' PXY d   1      -1.013  -0.370   2.640  0.00  0.00     0.077 C 
ATOM      2  C1' PXY d   1       0.007   3.646  -1.391  0.00  0.00     0.077 C 
ATOM      3  C1  PXY d   1      -0.261   2.602  -0.325  0.00  0.00    -0.082 A 
ATOM      4  C2  PXY d   1       0.091   1.344  -0.538  0.00  0.00     0.003 A 
ATOM      5  C3  PXY d   1      -0.172   0.382   0.402  0.00  0.00     0.003 A 
ATOM      6  C4  PXY d   1      -0.754   0.719   1.595  0.00  0.00    -0.082 A 
ATOM      7  C5  PXY d   1      -1.106   2.002   1.824  0.00  0.00     0.003 A 
ATOM      8  C6  PXY d   1      -0.867   2.957   0.840  0.00  0.00     0.003 A 
ENDROOT
TORSDOF 0
ENDMDL
