MODEL 1
REMARK minimizedAffinity -4.05783367
REMARK minimizedRMSD -1
REMARK  0 active torsions:
REMARK  status: ('A' for Active; 'I' for Inactive)
ROOT
ATOM      1  C4' PXY d   1       0.946  -1.926  -1.551  0.00  0.00     0.077 C 
ATOM      2  C1' PXY d   1      -0.908   2.316   1.911  0.00  0.00     0.077 C 
ATOM      3  C1  PXY d   1      -0.421   1.213   0.993  0.00  0.00    -0.082 A 
ATOM      4  C2  PXY d   1      -0.758  -0.042   1.243  0.00  0.00     0.003 A 
ATOM      5  C3  PXY d   1      -0.300  -1.056   0.442  0.00  0.00     0.003 A 
ATOM      6  C4  PXY d   1       0.469  -0.778  -0.657  0.00  0.00    -0.082 A 
ATOM      7  C5  PXY d   1       0.808   0.501  -0.924  0.00  0.00     0.003 A 
ATOM      8  C6  PXY d   1       0.367   1.512  -0.075  0.00  0.00     0.003 A 
ENDROOT
TORSDOF 0
ENDMDL
