MODEL 1
REMARK minimizedAffinity -1.25748241
REMARK minimizedRMSD -1
REMARK  0 active torsions:
REMARK  status: ('A' for Active; 'I' for Inactive)
ROOT
ATOM      1  C4' PXY d   1       0.404  -4.484  -1.730  0.00  0.00     0.077 C 
ATOM      2  C1' PXY d   1       0.524   1.218  -0.791  0.00  0.00     0.077 C 
ATOM      3  C1  PXY d   1       0.481  -0.276  -1.043  0.00  0.00    -0.082 A 
ATOM      4  C2  PXY d   1       1.136  -1.095  -0.236  0.00  0.00     0.003 A 
ATOM      5  C3  PXY d   1       1.134  -2.446  -0.468  0.00  0.00     0.003 A 
ATOM      6  C4  PXY d   1       0.411  -2.969  -1.507  0.00  0.00    -0.082 A 
ATOM      7  C5  PXY d   1      -0.267  -2.141  -2.329  0.00  0.00     0.003 A 
ATOM      8  C6  PXY d   1      -0.219  -0.769  -2.100  0.00  0.00     0.003 A 
ENDROOT
TORSDOF 0
ENDMDL
