MODEL 1
REMARK minimizedAffinity 2.67946506
REMARK minimizedRMSD -1
REMARK  0 active torsions:
REMARK  status: ('A' for Active; 'I' for Inactive)
ROOT
ATOM      1  C   UNL d   1      -1.818   5.115  -5.131  0.00  0.00    -0.002 A 
ATOM      2  C1  UNL d   1      -0.761   5.350  -5.999  0.00  0.00     0.010 A 
ATOM      3  C2  UNL d   1       0.535   4.955  -5.661  0.00  0.00     0.041 A 
ATOM      4  C3  UNL d   1       0.753   4.313  -4.426  0.00  0.00    -0.075 A 
ATOM      5  S   UNL d   1       2.255   3.741  -3.802  0.00  0.00     0.015 SA
ATOM      6  C4  UNL d   1       1.528   3.171  -2.370  0.00  0.00     0.022 A 
ATOM      7  C5  UNL d   1       0.173   3.403  -2.352  0.00  0.00     0.026 A 
ATOM      8  C6  UNL d   1      -0.296   4.065  -3.537  0.00  0.00    -0.082 A 
ATOM      9  C7  UNL d   1      -1.599   4.477  -3.907  0.00  0.00     0.045 A 
ENDROOT
TORSDOF 0
ENDMDL
