MODEL 1
REMARK minimizedAffinity 19.4020557
REMARK minimizedRMSD -1
REMARK  0 active torsions:
REMARK  status: ('A' for Active; 'I' for Inactive)
ROOT
ATOM      1  C   UNL d   1       4.508   2.443  -3.256  0.00  0.00    -0.002 A 
ATOM      2  C1  UNL d   1       5.332   1.590  -2.536  0.00  0.00     0.010 A 
ATOM      3  C2  UNL d   1       4.863   0.952  -1.386  0.00  0.00     0.041 A 
ATOM      4  C3  UNL d   1       3.538   1.186  -0.969  0.00  0.00    -0.075 A 
ATOM      5  S   UNL d   1       2.748   0.514   0.408  0.00  0.00     0.015 SA
ATOM      6  C4  UNL d   1       1.296   1.342   0.071  0.00  0.00     0.022 A 
ATOM      7  C5  UNL d   1       1.395   2.117  -1.060  0.00  0.00     0.026 A 
ATOM      8  C6  UNL d   1       2.688   2.040  -1.678  0.00  0.00    -0.082 A 
ATOM      9  C7  UNL d   1       3.194   2.672  -2.840  0.00  0.00     0.045 A 
ENDROOT
TORSDOF 0
ENDMDL
