MODEL 1
REMARK minimizedAffinity 12.1665745
REMARK minimizedRMSD -1
REMARK  0 active torsions:
REMARK  status: ('A' for Active; 'I' for Inactive)
ROOT
ATOM      1  C   UNL d   1       1.331  -3.113   2.502  0.00  0.00    -0.002 A 
ATOM      2  C1  UNL d   1       1.593  -2.297   3.593  0.00  0.00     0.010 A 
ATOM      3  C2  UNL d   1       0.649  -1.362   4.023  0.00  0.00     0.041 A 
ATOM      4  C3  UNL d   1      -0.575  -1.261   3.332  0.00  0.00    -0.075 A 
ATOM      5  S   UNL d   1      -1.880  -0.189   3.679  0.00  0.00     0.015 SA
ATOM      6  C4  UNL d   1      -2.815  -0.790   2.387  0.00  0.00     0.022 A 
ATOM      7  C5  UNL d   1      -2.163  -1.784   1.697  0.00  0.00     0.026 A 
ATOM      8  C6  UNL d   1      -0.861  -2.073   2.230  0.00  0.00    -0.082 A 
ATOM      9  C7  UNL d   1       0.117  -3.010   1.819  0.00  0.00     0.045 A 
ENDROOT
TORSDOF 0
ENDMDL
