MODEL 1
REMARK minimizedAffinity 5.54608727
REMARK minimizedRMSD -1
REMARK  0 active torsions:
REMARK  status: ('A' for Active; 'I' for Inactive)
ROOT
ATOM      1  C   UNL d   1      -5.955   3.132  -1.415  0.00  0.00    -0.002 A 
ATOM      2  C1  UNL d   1      -5.962   4.240  -2.251  0.00  0.00     0.010 A 
ATOM      3  C2  UNL d   1      -5.975   4.084  -3.638  0.00  0.00     0.041 A 
ATOM      4  C3  UNL d   1      -5.982   2.782  -4.177  0.00  0.00    -0.075 A 
ATOM      5  S   UNL d   1      -5.998   2.348  -5.845  0.00  0.00     0.015 SA
ATOM      6  C4  UNL d   1      -5.998   0.682  -5.489  0.00  0.00     0.022 A 
ATOM      7  C5  UNL d   1      -5.985   0.444  -4.135  0.00  0.00     0.026 A 
ATOM      8  C6  UNL d   1      -5.976   1.651  -3.356  0.00  0.00    -0.082 A 
ATOM      9  C7  UNL d   1      -5.963   1.843  -1.954  0.00  0.00     0.045 A 
ENDROOT
TORSDOF 0
ENDMDL
