MODEL 1
REMARK minimizedAffinity 13.5538788
REMARK minimizedRMSD -1
REMARK  0 active torsions:
REMARK  status: ('A' for Active; 'I' for Inactive)
ROOT
ATOM      1  C   UNL d   1       1.534   2.166  -1.095  0.00  0.00    -0.002 A 
ATOM      2  C1  UNL d   1       2.533   1.686  -1.930  0.00  0.00     0.010 A 
ATOM      3  C2  UNL d   1       3.355   0.634  -1.521  0.00  0.00     0.041 A 
ATOM      4  C3  UNL d   1       3.152   0.066  -0.248  0.00  0.00    -0.075 A 
ATOM      5  S   UNL d   1       4.035  -1.232   0.465  0.00  0.00     0.015 SA
ATOM      6  C4  UNL d   1       3.106  -1.180   1.892  0.00  0.00     0.022 A 
ATOM      7  C5  UNL d   1       2.141  -0.202   1.844  0.00  0.00     0.026 A 
ATOM      8  C6  UNL d   1       2.151   0.531   0.610  0.00  0.00    -0.082 A 
ATOM      9  C7  UNL d   1       1.335   1.600   0.167  0.00  0.00     0.045 A 
ENDROOT
TORSDOF 0
ENDMDL
