MODEL 1
REMARK minimizedAffinity 11.6208725
REMARK minimizedRMSD -1
REMARK  0 active torsions:
REMARK  status: ('A' for Active; 'I' for Inactive)
ROOT
ATOM      1  C   UNL d   1       4.744  -0.473   1.606  0.00  0.00    -0.002 A 
ATOM      2  C1  UNL d   1       5.276   0.683   2.159  0.00  0.00     0.010 A 
ATOM      3  C2  UNL d   1       4.523   1.858   2.208  0.00  0.00     0.041 A 
ATOM      4  C3  UNL d   1       3.214   1.851   1.689  0.00  0.00    -0.075 A 
ATOM      5  S   UNL d   1       2.106   3.172   1.642  0.00  0.00     0.015 SA
ATOM      6  C4  UNL d   1       0.901   2.232   0.888  0.00  0.00     0.022 A 
ATOM      7  C5  UNL d   1       1.317   0.940   0.669  0.00  0.00     0.026 A 
ATOM      8  C6  UNL d   1       2.656   0.699   1.128  0.00  0.00    -0.082 A 
ATOM      9  C7  UNL d   1       3.445  -0.476   1.092  0.00  0.00     0.045 A 
ENDROOT
TORSDOF 0
ENDMDL
