MODEL 1
REMARK minimizedAffinity 12.2616587
REMARK minimizedRMSD -1
REMARK  0 active torsions:
REMARK  status: ('A' for Active; 'I' for Inactive)
ROOT
ATOM      1  C   UNL d   1      -3.833   0.530   4.263  0.00  0.00    -0.002 A 
ATOM      2  C1  UNL d   1      -2.544   0.798   4.700  0.00  0.00     0.010 A 
ATOM      3  C2  UNL d   1      -1.451   0.133   4.140  0.00  0.00     0.041 A 
ATOM      4  C3  UNL d   1      -1.678  -0.814   3.122  0.00  0.00    -0.075 A 
ATOM      5  S   UNL d   1      -0.494  -1.750   2.289  0.00  0.00     0.015 SA
ATOM      6  C4  UNL d   1      -1.671  -2.527   1.334  0.00  0.00     0.022 A 
ATOM      7  C5  UNL d   1      -2.943  -2.096   1.630  0.00  0.00     0.026 A 
ATOM      8  C6  UNL d   1      -2.968  -1.101   2.665  0.00  0.00    -0.082 A 
ATOM      9  C7  UNL d   1      -4.055  -0.410   3.253  0.00  0.00     0.045 A 
ENDROOT
TORSDOF 0
ENDMDL
