MODEL 1
REMARK minimizedAffinity 17.2307701
REMARK minimizedRMSD -1
REMARK  0 active torsions:
REMARK  status: ('A' for Active; 'I' for Inactive)
ROOT
ATOM      1  C   UNL d   1       1.351   2.783  -0.004  0.00  0.00    -0.002 A 
ATOM      2  C1  UNL d   1       1.484   2.232  -1.271  0.00  0.00     0.010 A 
ATOM      3  C2  UNL d   1       2.175   1.034  -1.455  0.00  0.00     0.041 A 
ATOM      4  C3  UNL d   1       2.735   0.390  -0.334  0.00  0.00    -0.075 A 
ATOM      5  S   UNL d   1       3.624  -1.087  -0.320  0.00  0.00     0.015 SA
ATOM      6  C4  UNL d   1       3.848  -1.023   1.369  0.00  0.00     0.022 A 
ATOM      7  C5  UNL d   1       3.266   0.092   1.924  0.00  0.00     0.026 A 
ATOM      8  C6  UNL d   1       2.614   0.925   0.952  0.00  0.00    -0.082 A 
ATOM      9  C7  UNL d   1       1.908   2.142   1.106  0.00  0.00     0.045 A 
ENDROOT
TORSDOF 0
ENDMDL
