MODEL 1
REMARK minimizedAffinity 0.512515664
REMARK minimizedRMSD -1
REMARK  0 active torsions:
REMARK  status: ('A' for Active; 'I' for Inactive)
ROOT
ATOM      1  C   UNL d   1       2.190   1.429  -1.653  0.00  0.00    -0.002 A 
ATOM      2  C1  UNL d   1       0.848   1.163  -1.883  0.00  0.00     0.010 A 
ATOM      3  C2  UNL d   1       0.124   1.911  -2.814  0.00  0.00     0.041 A 
ATOM      4  C3  UNL d   1       0.780   2.940  -3.518  0.00  0.00    -0.075 A 
ATOM      5  S   UNL d   1       0.096   3.985  -4.706  0.00  0.00     0.015 SA
ATOM      6  C4  UNL d   1       1.569   4.809  -4.938  0.00  0.00     0.022 A 
ATOM      7  C5  UNL d   1       2.569   4.312  -4.136  0.00  0.00     0.026 A 
ATOM      8  C6  UNL d   1       2.131   3.226  -3.305  0.00  0.00    -0.082 A 
ATOM      9  C7  UNL d   1       2.837   2.451  -2.354  0.00  0.00     0.045 A 
ENDROOT
TORSDOF 0
ENDMDL
