MODEL 1
REMARK minimizedAffinity 12.1757164
REMARK minimizedRMSD -1
REMARK  0 active torsions:
REMARK  status: ('A' for Active; 'I' for Inactive)
ROOT
ATOM      1  C   UNL d   1       3.476  -0.499   1.801  0.00  0.00    -0.002 A 
ATOM      2  C1  UNL d   1       4.100   0.695   2.135  0.00  0.00     0.010 A 
ATOM      3  C2  UNL d   1       3.926   1.832   1.343  0.00  0.00     0.041 A 
ATOM      4  C3  UNL d   1       3.105   1.748   0.201  0.00  0.00    -0.075 A 
ATOM      5  S   UNL d   1       2.746   3.011  -0.916  0.00  0.00     0.015 SA
ATOM      6  C4  UNL d   1       1.756   1.996  -1.861  0.00  0.00     0.022 A 
ATOM      7  C5  UNL d   1       1.690   0.721  -1.352  0.00  0.00     0.026 A 
ATOM      8  C6  UNL d   1       2.466   0.557  -0.155  0.00  0.00    -0.082 A 
ATOM      9  C7  UNL d   1       2.663  -0.578   0.668  0.00  0.00     0.045 A 
ENDROOT
TORSDOF 0
ENDMDL
