MODEL 1
REMARK minimizedAffinity 3.68853188
REMARK minimizedRMSD -1
REMARK  0 active torsions:
REMARK  status: ('A' for Active; 'I' for Inactive)
ROOT
ATOM      1  C   UNL d   1       1.988   2.217  -3.117  0.00  0.00    -0.002 A 
ATOM      2  C1  UNL d   1       2.952   3.149  -2.759  0.00  0.00     0.010 A 
ATOM      3  C2  UNL d   1       3.267   3.364  -1.416  0.00  0.00     0.041 A 
ATOM      4  C3  UNL d   1       2.591   2.619  -0.429  0.00  0.00    -0.075 A 
ATOM      5  S   UNL d   1       2.812   2.713   1.278  0.00  0.00     0.015 SA
ATOM      6  C4  UNL d   1       1.632   1.519   1.572  0.00  0.00     0.022 A 
ATOM      7  C5  UNL d   1       1.073   1.049   0.407  0.00  0.00     0.026 A 
ATOM      8  C6  UNL d   1       1.617   1.675  -0.766  0.00  0.00    -0.082 A 
ATOM      9  C7  UNL d   1       1.319   1.480  -2.136  0.00  0.00     0.045 A 
ENDROOT
TORSDOF 0
ENDMDL
