MODEL 1
REMARK minimizedAffinity 3.58892369
REMARK minimizedRMSD -1
REMARK  0 active torsions:
REMARK  status: ('A' for Active; 'I' for Inactive)
ROOT
ATOM      1  C   UNL d   1       4.352   2.118  -2.981  0.00  0.00    -0.002 A 
ATOM      2  C1  UNL d   1       4.462   2.526  -4.302  0.00  0.00     0.010 A 
ATOM      3  C2  UNL d   1       3.487   3.345  -4.876  0.00  0.00     0.041 A 
ATOM      4  C3  UNL d   1       2.390   3.751  -4.090  0.00  0.00    -0.075 A 
ATOM      5  S   UNL d   1       1.076   4.754  -4.580  0.00  0.00     0.015 SA
ATOM      6  C4  UNL d   1       0.338   4.664  -3.046  0.00  0.00     0.022 A 
ATOM      7  C5  UNL d   1       1.063   3.892  -2.170  0.00  0.00     0.026 A 
ATOM      8  C6  UNL d   1       2.258   3.354  -2.757  0.00  0.00    -0.082 A 
ATOM      9  C7  UNL d   1       3.262   2.523  -2.205  0.00  0.00     0.045 A 
ENDROOT
TORSDOF 0
ENDMDL
