MODEL 1
REMARK minimizedAffinity -5.91174412
REMARK minimizedRMSD -1
REMARK  2 active torsions:
REMARK  status: ('A' for Active; 'I' for Inactive)
REMARK    1  A    between atoms: C2'_3  and  C1'_4 
REMARK    2  A    between atoms: C1'_4  and  C1_5 
ROOT
ATOM      1  C1  I4B d   1       0.268  -0.608  -1.289  0.00  0.00    -0.075 A 
ATOM      2  C2  I4B d   1       0.883   0.221  -2.194  0.00  0.00     0.003 A 
ATOM      3  C3  I4B d   1       1.899  -0.279  -3.043  0.00  0.00     0.002 A 
ATOM      4  C4  I4B d   1       2.303  -1.593  -2.920  0.00  0.00    -0.004 A 
ATOM      5  C5  I4B d   1       1.663  -2.438  -2.017  0.00  0.00     0.002 A 
ATOM      6  C6  I4B d   1       0.631  -1.946  -1.205  0.00  0.00     0.003 A 
ENDROOT
BRANCH   1   7
ATOM      7  C1' I4B d   1      -0.779  -0.038  -0.385  0.00  0.00     0.060 C 
BRANCH   7   8
ATOM      8  C2' I4B d   1      -0.145   0.200   0.970  0.00  0.00    -0.013 C 
ATOM      9  C4' I4B d   1       0.731   1.425   0.955  0.00  0.00     0.013 C 
ATOM     10  C3' I4B d   1      -1.247   0.335   1.979  0.00  0.00     0.013 C 
ENDBRANCH   7   8
ENDBRANCH   1   7
TORSDOF 2
ENDMDL
