MODEL 1
REMARK minimizedAffinity -4.61231041
REMARK minimizedRMSD -1
REMARK  2 active torsions:
REMARK  status: ('A' for Active; 'I' for Inactive)
REMARK    1  A    between atoms: C2'_3  and  C1'_4 
REMARK    2  A    between atoms: C1'_4  and  C1_5 
ROOT
ATOM      1  C1  I4B d   1       0.660   0.080  -0.757  0.00  0.00    -0.075 A 
ATOM      2  C2  I4B d   1       1.150   0.933  -1.714  0.00  0.00     0.003 A 
ATOM      3  C3  I4B d   1       1.812   0.418  -2.855  0.00  0.00     0.002 A 
ATOM      4  C4  I4B d   1       2.005  -0.943  -2.973  0.00  0.00    -0.004 A 
ATOM      5  C5  I4B d   1       1.486  -1.807  -2.013  0.00  0.00     0.002 A 
ATOM      6  C6  I4B d   1       0.799  -1.294  -0.904  0.00  0.00     0.003 A 
ENDROOT
BRANCH   1   7
ATOM      7  C1' I4B d   1      -0.005   0.659   0.452  0.00  0.00     0.060 C 
BRANCH   7   8
ATOM      8  C2' I4B d   1      -0.893  -0.411   1.054  0.00  0.00    -0.013 C 
ATOM      9  C4' I4B d   1      -0.128  -1.272   2.023  0.00  0.00     0.013 C 
ATOM     10  C3' I4B d   1      -2.047   0.271   1.728  0.00  0.00     0.013 C 
ENDBRANCH   7   8
ENDBRANCH   1   7
TORSDOF 2
ENDMDL
