MODEL 1
REMARK minimizedAffinity -3.22072482
REMARK minimizedRMSD -1
REMARK  2 active torsions:
REMARK  status: ('A' for Active; 'I' for Inactive)
REMARK    1  A    between atoms: C2'_3  and  C1'_4 
REMARK    2  A    between atoms: C1'_4  and  C1_5 
ROOT
ATOM      1  C1  I4B d   1      -0.267  -0.238   0.400  0.00  0.00    -0.075 A 
ATOM      2  C2  I4B d   1      -0.106  -1.560   0.070  0.00  0.00     0.003 A 
ATOM      3  C3  I4B d   1       0.554  -1.920  -1.130  0.00  0.00     0.002 A 
ATOM      4  C4  I4B d   1       0.988  -0.931  -1.989  0.00  0.00    -0.004 A 
ATOM      5  C5  I4B d   1       0.844   0.409  -1.642  0.00  0.00     0.002 A 
ATOM      6  C6  I4B d   1       0.223   0.758  -0.434  0.00  0.00     0.003 A 
ENDROOT
BRANCH   1   7
ATOM      7  C1' I4B d   1      -0.998   0.107   1.659  0.00  0.00     0.060 C 
BRANCH   7   8
ATOM      8  C2' I4B d   1      -2.390   0.569   1.280  0.00  0.00    -0.013 C 
ATOM      9  C4' I4B d   1      -3.289  -0.601   0.978  0.00  0.00     0.013 C 
ATOM     10  C3' I4B d   1      -2.931   1.389   2.413  0.00  0.00     0.013 C 
ENDBRANCH   7   8
ENDBRANCH   1   7
TORSDOF 2
ENDMDL
