MODEL 1
REMARK minimizedAffinity -4.80801058
REMARK minimizedRMSD -1
REMARK  2 active torsions:
REMARK  status: ('A' for Active; 'I' for Inactive)
REMARK    1  A    between atoms: C2'_3  and  C1'_4 
REMARK    2  A    between atoms: C1'_4  and  C1_5 
ROOT
ATOM      1  C1  I4B d   1      -0.330  -0.104   0.614  0.00  0.00    -0.075 A 
ATOM      2  C2  I4B d   1       0.232   1.148   0.640  0.00  0.00     0.003 A 
ATOM      3  C3  I4B d   1       1.025   1.597  -0.444  0.00  0.00     0.002 A 
ATOM      4  C4  I4B d   1       1.270   0.747  -1.504  0.00  0.00    -0.004 A 
ATOM      5  C5  I4B d   1       0.680  -0.513  -1.539  0.00  0.00     0.002 A 
ATOM      6  C6  I4B d   1      -0.135  -0.937  -0.480  0.00  0.00     0.003 A 
ENDROOT
BRANCH   1   7
ATOM      7  C1' I4B d   1      -1.135  -0.557   1.790  0.00  0.00     0.060 C 
BRANCH   7   8
ATOM      8  C2' I4B d   1      -2.552  -0.053   1.608  0.00  0.00    -0.013 C 
ATOM      9  C4' I4B d   1      -3.557  -1.143   1.877  0.00  0.00     0.013 C 
ATOM     10  C3' I4B d   1      -2.753   1.108   2.535  0.00  0.00     0.013 C 
ENDBRANCH   7   8
ENDBRANCH   1   7
TORSDOF 2
ENDMDL
