MODEL 1
REMARK minimizedAffinity -4.35963821
REMARK minimizedRMSD -1
REMARK  2 active torsions:
REMARK  status: ('A' for Active; 'I' for Inactive)
REMARK    1  A    between atoms: C2'_3  and  C1'_4 
REMARK    2  A    between atoms: C1'_4  and  C1_5 
ROOT
ATOM      1  C1  I4B d   1      -0.852  -0.415   1.474  0.00  0.00    -0.075 A 
ATOM      2  C2  I4B d   1      -0.493  -1.692   1.828  0.00  0.00     0.003 A 
ATOM      3  C3  I4B d   1       0.328  -2.465   0.973  0.00  0.00     0.002 A 
ATOM      4  C4  I4B d   1       0.724  -1.945  -0.242  0.00  0.00    -0.004 A 
ATOM      5  C5  I4B d   1       0.379  -0.642  -0.590  0.00  0.00     0.002 A 
ATOM      6  C6  I4B d   1      -0.404   0.132   0.279  0.00  0.00     0.003 A 
ENDROOT
BRANCH   1   7
ATOM      7  C1' I4B d   1      -1.748   0.361   2.386  0.00  0.00     0.060 C 
BRANCH   7   8
ATOM      8  C2' I4B d   1      -3.010   0.703   1.620  0.00  0.00    -0.013 C 
ATOM      9  C4' I4B d   1      -4.008  -0.423   1.684  0.00  0.00     0.013 C 
ATOM     10  C3' I4B d   1      -3.577   1.963   2.203  0.00  0.00     0.013 C 
ENDBRANCH   7   8
ENDBRANCH   1   7
TORSDOF 2
ENDMDL
