MODEL 1
REMARK minimizedAffinity -3.39300132
REMARK minimizedRMSD -1
REMARK  2 active torsions:
REMARK  status: ('A' for Active; 'I' for Inactive)
REMARK    1  A    between atoms: C2'_3  and  C1'_4 
REMARK    2  A    between atoms: C1'_4  and  C1_5 
ROOT
ATOM      1  C1  I4B d   1       0.035   0.187  -0.482  0.00  0.00    -0.075 A 
ATOM      2  C2  I4B d   1       0.293  -0.680  -1.514  0.00  0.00     0.003 A 
ATOM      3  C3  I4B d   1       1.493  -0.566  -2.258  0.00  0.00     0.002 A 
ATOM      4  C4  I4B d   1       2.376   0.454  -1.970  0.00  0.00    -0.004 A 
ATOM      5  C5  I4B d   1       2.124   1.318  -0.908  0.00  0.00     0.002 A 
ATOM      6  C6  I4B d   1       0.952   1.176  -0.151  0.00  0.00     0.003 A 
ENDROOT
BRANCH   1   7
ATOM      7  C1' I4B d   1      -1.256   0.058   0.262  0.00  0.00     0.060 C 
BRANCH   7   8
ATOM      8  C2' I4B d   1      -0.933  -0.110   1.733  0.00  0.00    -0.013 C 
ATOM      9  C4' I4B d   1      -2.022   0.465   2.599  0.00  0.00     0.013 C 
ATOM     10  C3' I4B d   1      -0.745  -1.574   2.000  0.00  0.00     0.013 C 
ENDBRANCH   7   8
ENDBRANCH   1   7
TORSDOF 2
ENDMDL
