MODEL 1
REMARK minimizedAffinity -5.49824142
REMARK minimizedRMSD -1
REMARK  2 active torsions:
REMARK  status: ('A' for Active; 'I' for Inactive)
REMARK    1  A    between atoms: C2'_3  and  C1'_4 
REMARK    2  A    between atoms: C1'_4  and  C1_5 
ROOT
ATOM      1  C1  I4B d   1       0.096  -0.326   0.445  0.00  0.00    -0.075 A 
ATOM      2  C2  I4B d   1       0.722   0.829   0.842  0.00  0.00     0.003 A 
ATOM      3  C3  I4B d   1       1.464   1.594  -0.090  0.00  0.00     0.002 A 
ATOM      4  C4  I4B d   1       1.594   1.144  -1.388  0.00  0.00    -0.004 A 
ATOM      5  C5  I4B d   1       0.940  -0.015  -1.794  0.00  0.00     0.002 A 
ATOM      6  C6  I4B d   1       0.176  -0.749  -0.875  0.00  0.00     0.003 A 
ENDROOT
BRANCH   1   7
ATOM      7  C1' I4B d   1      -0.651  -1.127   1.464  0.00  0.00     0.060 C 
BRANCH   7   8
ATOM      8  C2' I4B d   1      -1.856  -0.319   1.901  0.00  0.00    -0.013 C 
ATOM      9  C4' I4B d   1      -3.140  -1.043   1.589  0.00  0.00     0.013 C 
ATOM     10  C3' I4B d   1      -1.727  -0.054   3.371  0.00  0.00     0.013 C 
ENDBRANCH   7   8
ENDBRANCH   1   7
TORSDOF 2
ENDMDL
