MODEL 1
REMARK minimizedAffinity -5.98334789
REMARK minimizedRMSD -1
REMARK  2 active torsions:
REMARK  status: ('A' for Active; 'I' for Inactive)
REMARK    1  A    between atoms: C2'_3  and  C1'_4 
REMARK    2  A    between atoms: C1'_4  and  C1_5 
ROOT
ATOM      1  C1  I4B d   1      -0.281   0.398  -0.351  0.00  0.00    -0.075 A 
ATOM      2  C2  I4B d   1       0.291   1.552  -0.826  0.00  0.00     0.003 A 
ATOM      3  C3  I4B d   1       1.200   1.504  -1.911  0.00  0.00     0.002 A 
ATOM      4  C4  I4B d   1       1.546   0.283  -2.453  0.00  0.00    -0.004 A 
ATOM      5  C5  I4B d   1       0.948  -0.884  -1.986  0.00  0.00     0.002 A 
ATOM      6  C6  I4B d   1       0.019  -0.825  -0.936  0.00  0.00     0.003 A 
ENDROOT
BRANCH   1   7
ATOM      7  C1' I4B d   1      -1.212   0.483   0.816  0.00  0.00     0.060 C 
BRANCH   7   8
ATOM      8  C2' I4B d   1      -2.630   0.383   0.291  0.00  0.00    -0.013 C 
ATOM      9  C4' I4B d   1      -3.390  -0.720   0.980  0.00  0.00     0.013 C 
ATOM     10  C3' I4B d   1      -3.295   1.711   0.500  0.00  0.00     0.013 C 
ENDBRANCH   7   8
ENDBRANCH   1   7
TORSDOF 2
ENDMDL
