MODEL 1
REMARK minimizedAffinity -6.08798361
REMARK minimizedRMSD -1
REMARK  2 active torsions:
REMARK  status: ('A' for Active; 'I' for Inactive)
REMARK    1  A    between atoms: C2'_3  and  C1'_4 
REMARK    2  A    between atoms: C1'_4  and  C1_5 
ROOT
ATOM      1  C1  I4B d   1       0.814  -0.102  -0.603  0.00  0.00    -0.075 A 
ATOM      2  C2  I4B d   1       1.655   0.681  -1.354  0.00  0.00     0.003 A 
ATOM      3  C3  I4B d   1       2.353   0.126  -2.454  0.00  0.00     0.002 A 
ATOM      4  C4  I4B d   1       2.220  -1.218  -2.735  0.00  0.00    -0.004 A 
ATOM      5  C5  I4B d   1       1.349  -2.005  -1.987  0.00  0.00     0.002 A 
ATOM      6  C6  I4B d   1       0.632  -1.441  -0.922  0.00  0.00     0.003 A 
ENDROOT
BRANCH   1   7
ATOM      7  C1' I4B d   1       0.119   0.509   0.572  0.00  0.00     0.060 C 
BRANCH   7   8
ATOM      8  C2' I4B d   1      -0.848  -0.518   1.128  0.00  0.00    -0.013 C 
ATOM      9  C4' I4B d   1      -0.139  -1.514   2.007  0.00  0.00     0.013 C 
ATOM     10  C3' I4B d   1      -1.913   0.214   1.888  0.00  0.00     0.013 C 
ENDBRANCH   7   8
ENDBRANCH   1   7
TORSDOF 2
ENDMDL
