MODEL 1
REMARK minimizedAffinity -4.49082041
REMARK minimizedRMSD -1
REMARK  2 active torsions:
REMARK  status: ('A' for Active; 'I' for Inactive)
REMARK    1  A    between atoms: C2'_3  and  C1'_4 
REMARK    2  A    between atoms: C1'_4  and  C1_5 
ROOT
ATOM      1  C1  I4B d   1      -0.265  -0.435   0.672  0.00  0.00    -0.075 A 
ATOM      2  C2  I4B d   1      -0.158  -1.775   0.394  0.00  0.00     0.003 A 
ATOM      3  C3  I4B d   1       0.506  -2.209  -0.779  0.00  0.00     0.002 A 
ATOM      4  C4  I4B d   1       1.001  -1.275  -1.665  0.00  0.00    -0.004 A 
ATOM      5  C5  I4B d   1       0.913   0.083  -1.370  0.00  0.00     0.002 A 
ATOM      6  C6  I4B d   1       0.287   0.505  -0.189  0.00  0.00     0.003 A 
ENDROOT
BRANCH   1   7
ATOM      7  C1' I4B d   1      -1.002  -0.011   1.902  0.00  0.00     0.060 C 
BRANCH   7   8
ATOM      8  C2' I4B d   1      -2.382   0.453   1.483  0.00  0.00    -0.013 C 
ATOM      9  C4' I4B d   1      -3.278  -0.715   1.168  0.00  0.00     0.013 C 
ATOM     10  C3' I4B d   1      -2.948   1.286   2.595  0.00  0.00     0.013 C 
ENDBRANCH   7   8
ENDBRANCH   1   7
TORSDOF 2
ENDMDL
