MODEL 1
REMARK minimizedAffinity 1.65431643
REMARK minimizedRMSD -1
REMARK  1 active torsions:
REMARK  status: ('A' for Active; 'I' for Inactive)
REMARK    1  A    between atoms: C1_2  and  C2_3 
ROOT
ATOM      1  C2  UNL d   1       1.002   4.986   5.963  0.00  0.00    -0.081 A 
ATOM      2  C3  UNL d   1       2.073   5.887   5.978  0.00  0.00     0.006 A 
ATOM      3  C4  UNL d   1       3.390   5.422   5.998  0.00  0.00     0.002 A 
ATOM      4  C5  UNL d   1       3.657   4.049   5.995  0.00  0.00    -0.080 A 
ATOM      5  C6  UNL d   1       5.067   3.536   5.985  0.00  0.00     0.076 C 
ATOM      6  C7  UNL d   1       2.587   3.148   5.997  0.00  0.00     0.002 A 
ATOM      7  C8  UNL d   1       1.270   3.613   5.978  0.00  0.00     0.006 A 
ENDROOT
BRANCH   1   8
ATOM      8  C1  UNL d   1      -0.418   5.485   5.876  0.00  0.00     0.054 C 
ATOM      9  C   UNL d   1      -0.808   5.798   4.439  0.00  0.00     0.018 C 
ENDBRANCH   1   8
TORSDOF 1
ENDMDL
