MODEL 1
REMARK minimizedAffinity 8.21292114
REMARK minimizedRMSD -1
REMARK  1 active torsions:
REMARK  status: ('A' for Active; 'I' for Inactive)
REMARK    1  A    between atoms: C1_2  and  C2_3 
ROOT
ATOM      1  C2  UNL d   1       4.698   1.148  -1.893  0.00  0.00    -0.081 A 
ATOM      2  C3  UNL d   1       3.526   1.246  -1.134  0.00  0.00     0.006 A 
ATOM      3  C4  UNL d   1       3.573   1.688   0.190  0.00  0.00     0.002 A 
ATOM      4  C5  UNL d   1       4.792   2.047   0.775  0.00  0.00    -0.080 A 
ATOM      5  C6  UNL d   1       4.854   2.552   2.186  0.00  0.00     0.076 C 
ATOM      6  C7  UNL d   1       5.967   1.932   0.023  0.00  0.00     0.002 A 
ATOM      7  C8  UNL d   1       5.919   1.490  -1.301  0.00  0.00     0.006 A 
ENDROOT
BRANCH   1   8
ATOM      8  C1  UNL d   1       4.642   0.733  -3.341  0.00  0.00     0.054 C 
ATOM      9  C   UNL d   1       5.993   0.910  -4.020  0.00  0.00     0.018 C 
ENDBRANCH   1   8
TORSDOF 1
ENDMDL
