MODEL 1
REMARK minimizedAffinity 6.72075319
REMARK minimizedRMSD -1
REMARK  1 active torsions:
REMARK  status: ('A' for Active; 'I' for Inactive)
REMARK    1  A    between atoms: C1_2  and  C2_3 
ROOT
ATOM      1  C2  UNL d   1      -3.405   0.027  -0.828  0.00  0.00    -0.081 A 
ATOM      2  C3  UNL d   1      -4.699   0.334  -0.392  0.00  0.00     0.006 A 
ATOM      3  C4  UNL d   1      -4.899   1.252   0.642  0.00  0.00     0.002 A 
ATOM      4  C5  UNL d   1      -3.809   1.882   1.252  0.00  0.00    -0.080 A 
ATOM      5  C6  UNL d   1      -4.011   2.891   2.343  0.00  0.00     0.076 C 
ATOM      6  C7  UNL d   1      -2.515   1.562   0.828  0.00  0.00     0.002 A 
ATOM      7  C8  UNL d   1      -2.314   0.644  -0.206  0.00  0.00     0.006 A 
ENDROOT
BRANCH   1   8
ATOM      8  C1  UNL d   1      -3.189  -0.913  -1.987  0.00  0.00     0.054 C 
ATOM      9  C   UNL d   1      -2.562  -0.195  -3.173  0.00  0.00     0.018 C 
ENDBRANCH   1   8
TORSDOF 1
ENDMDL
