MODEL 1
REMARK minimizedAffinity 5.45583773
REMARK minimizedRMSD -1
REMARK  1 active torsions:
REMARK  status: ('A' for Active; 'I' for Inactive)
REMARK    1  A    between atoms: C1_2  and  C2_3 
ROOT
ATOM      1  C2  UNL d   1       3.732   3.365   4.794  0.00  0.00    -0.081 A 
ATOM      2  C3  UNL d   1       3.138   3.772   5.995  0.00  0.00     0.006 A 
ATOM      3  C4  UNL d   1       2.035   4.630   5.985  0.00  0.00     0.002 A 
ATOM      4  C5  UNL d   1       1.504   5.088   4.774  0.00  0.00    -0.080 A 
ATOM      5  C6  UNL d   1       0.302   5.985   4.748  0.00  0.00     0.076 C 
ATOM      6  C7  UNL d   1       2.108   4.695   3.575  0.00  0.00     0.002 A 
ATOM      7  C8  UNL d   1       3.211   3.838   3.585  0.00  0.00     0.006 A 
ENDROOT
BRANCH   1   8
ATOM      8  C1  UNL d   1       4.880   2.389   4.800  0.00  0.00     0.054 C 
ATOM      9  C   UNL d   1       4.567   1.171   5.657  0.00  0.00     0.018 C 
ENDBRANCH   1   8
TORSDOF 1
ENDMDL
