MODEL 1
REMARK minimizedAffinity 6.34603024
REMARK minimizedRMSD -1
REMARK  1 active torsions:
REMARK  status: ('A' for Active; 'I' for Inactive)
REMARK    1  A    between atoms: C1_2  and  C2_3 
ROOT
ATOM      1  C2  UNL d   1       5.296   3.383  -0.129  0.00  0.00    -0.081 A 
ATOM      2  C3  UNL d   1       5.961   2.242   0.337  0.00  0.00     0.006 A 
ATOM      3  C4  UNL d   1       5.328   0.997   0.319  0.00  0.00     0.002 A 
ATOM      4  C5  UNL d   1       4.024   0.871  -0.171  0.00  0.00    -0.080 A 
ATOM      5  C6  UNL d   1       3.344  -0.465  -0.224  0.00  0.00     0.076 C 
ATOM      6  C7  UNL d   1       3.354   2.014  -0.620  0.00  0.00     0.002 A 
ATOM      7  C8  UNL d   1       3.986   3.259  -0.602  0.00  0.00     0.006 A 
ENDROOT
BRANCH   1   8
ATOM      8  C1  UNL d   1       5.999   4.716  -0.171  0.00  0.00     0.054 C 
ATOM      9  C   UNL d   1       5.855   5.374  -1.536  0.00  0.00     0.018 C 
ENDBRANCH   1   8
TORSDOF 1
ENDMDL
