MODEL 1
REMARK minimizedAffinity -0.0881543383
REMARK minimizedRMSD -1
REMARK  1 active torsions:
REMARK  status: ('A' for Active; 'I' for Inactive)
REMARK    1  A    between atoms: C1_2  and  C2_3 
ROOT
ATOM      1  C2  UNL d   1       4.093   0.786  -0.268  0.00  0.00    -0.081 A 
ATOM      2  C3  UNL d   1       4.134   1.796   0.701  0.00  0.00     0.006 A 
ATOM      3  C4  UNL d   1       4.761   3.014   0.428  0.00  0.00     0.002 A 
ATOM      4  C5  UNL d   1       5.350   3.245  -0.820  0.00  0.00    -0.080 A 
ATOM      5  C6  UNL d   1       6.000   4.559  -1.137  0.00  0.00     0.076 C 
ATOM      6  C7  UNL d   1       5.324   2.229  -1.782  0.00  0.00     0.002 A 
ATOM      7  C8  UNL d   1       4.698   1.011  -1.509  0.00  0.00     0.006 A 
ENDROOT
BRANCH   1   8
ATOM      8  C1  UNL d   1       3.361  -0.505   0.001  0.00  0.00     0.054 C 
ATOM      9  C   UNL d   1       2.678  -1.026  -1.255  0.00  0.00     0.018 C 
ENDBRANCH   1   8
TORSDOF 1
ENDMDL
