MODEL 1
REMARK minimizedAffinity -1.05723095
REMARK minimizedRMSD -1
REMARK  1 active torsions:
REMARK  status: ('A' for Active; 'I' for Inactive)
REMARK    1  A    between atoms: C1_2  and  C2_3 
ROOT
ATOM      1  C2  UNL d   1       3.686   0.143  -0.377  0.00  0.00    -0.081 A 
ATOM      2  C3  UNL d   1       4.566   0.175   0.712  0.00  0.00     0.006 A 
ATOM      3  C4  UNL d   1       5.324   1.318   0.976  0.00  0.00     0.002 A 
ATOM      4  C5  UNL d   1       5.210   2.449   0.161  0.00  0.00    -0.080 A 
ATOM      5  C6  UNL d   1       5.995   3.694   0.451  0.00  0.00     0.076 C 
ATOM      6  C7  UNL d   1       4.344   2.411  -0.937  0.00  0.00     0.002 A 
ATOM      7  C8  UNL d   1       3.586   1.268  -1.202  0.00  0.00     0.006 A 
ENDROOT
BRANCH   1   8
ATOM      8  C1  UNL d   1       2.819  -1.065  -0.627  0.00  0.00     0.054 C 
ATOM      9  C   UNL d   1       2.968  -2.092   0.487  0.00  0.00     0.018 C 
ENDBRANCH   1   8
TORSDOF 1
ENDMDL
