MODEL 1
REMARK minimizedAffinity 3.35738802
REMARK minimizedRMSD -1
REMARK  1 active torsions:
REMARK  status: ('A' for Active; 'I' for Inactive)
REMARK    1  A    between atoms: C1_2  and  C2_3 
ROOT
ATOM      1  C2  UNL d   1       4.105   0.917  -0.803  0.00  0.00    -0.081 A 
ATOM      2  C3  UNL d   1       4.503   0.717  -2.130  0.00  0.00     0.006 A 
ATOM      3  C4  UNL d   1       4.250  -0.499  -2.770  0.00  0.00     0.002 A 
ATOM      4  C5  UNL d   1       3.590  -1.531  -2.096  0.00  0.00    -0.080 A 
ATOM      5  C6  UNL d   1       3.285  -2.831  -2.780  0.00  0.00     0.076 C 
ATOM      6  C7  UNL d   1       3.208  -1.338  -0.764  0.00  0.00     0.002 A 
ATOM      7  C8  UNL d   1       3.460  -0.122  -0.124  0.00  0.00     0.006 A 
ENDROOT
BRANCH   1   8
ATOM      8  C1  UNL d   1       4.318   2.250  -0.131  0.00  0.00     0.054 C 
ATOM      9  C   UNL d   1       5.752   2.401   0.356  0.00  0.00     0.018 C 
ENDBRANCH   1   8
TORSDOF 1
ENDMDL
