MODEL 1
REMARK minimizedAffinity 5.9784317
REMARK minimizedRMSD -1
REMARK  1 active torsions:
REMARK  status: ('A' for Active; 'I' for Inactive)
REMARK    1  A    between atoms: C1_2  and  C2_3 
ROOT
ATOM      1  C2  UNL d   1       5.305   3.132   0.014  0.00  0.00    -0.081 A 
ATOM      2  C3  UNL d   1       5.999   1.973   0.382  0.00  0.00     0.006 A 
ATOM      3  C4  UNL d   1       5.370   0.727   0.335  0.00  0.00     0.002 A 
ATOM      4  C5  UNL d   1       4.041   0.618  -0.088  0.00  0.00    -0.080 A 
ATOM      5  C6  UNL d   1       3.364  -0.718  -0.172  0.00  0.00     0.076 C 
ATOM      6  C7  UNL d   1       3.342   1.778  -0.438  0.00  0.00     0.002 A 
ATOM      7  C8  UNL d   1       3.970   3.024  -0.391  0.00  0.00     0.006 A 
ENDROOT
BRANCH   1   8
ATOM      8  C1  UNL d   1       6.000   4.470   0.002  0.00  0.00     0.054 C 
ATOM      9  C   UNL d   1       5.161   5.523  -0.709  0.00  0.00     0.018 C 
ENDBRANCH   1   8
TORSDOF 1
ENDMDL
