MODEL 1
REMARK minimizedAffinity -5.85604525
REMARK minimizedRMSD -1
REMARK  0 active torsions:
REMARK  status: ('A' for Active; 'I' for Inactive)
ROOT
ATOM      1  C1  DEN d   1      -4.498   1.989  -2.989  0.00  0.00     0.130 A 
ATOM      2  C2  DEN d   1      -5.160   3.274  -2.784  0.00  0.00    -0.031 A 
ATOM      3  C3  DEN d   1      -4.149   4.237  -2.304  0.00  0.00     0.027 A 
ATOM      4  C4  DEN d   1      -1.635   3.867  -1.866  0.00  0.00     0.027 A 
ATOM      5  C5  DEN d   1      -0.616   2.940  -1.886  0.00  0.00    -0.003 A 
ATOM      6  C6  DEN d   1      -0.825   1.633  -2.240  0.00  0.00     0.001 A 
ATOM      7  C7  DEN d   1      -2.074   1.228  -2.632  0.00  0.00     0.017 A 
ATOM      8  C8  DEN d   1      -3.107   2.155  -2.607  0.00  0.00    -0.094 A 
ATOM      9  C9  DEN d   1      -2.873   3.474  -2.258  0.00  0.00    -0.072 A 
ENDROOT
TORSDOF 0
ENDMDL
