MODEL 1
REMARK minimizedAffinity -4.9875741
REMARK minimizedRMSD -1
REMARK  0 active torsions:
REMARK  status: ('A' for Active; 'I' for Inactive)
ROOT
ATOM      1  C1  DEN d   1       0.144  -0.256  -1.401  0.00  0.00     0.130 A 
ATOM      2  C2  DEN d   1      -1.072   0.462  -1.029  0.00  0.00    -0.031 A 
ATOM      3  C3  DEN d   1      -1.279   0.286   0.423  0.00  0.00     0.027 A 
ATOM      4  C4  DEN d   1       0.161  -1.015   2.122  0.00  0.00     0.027 A 
ATOM      5  C5  DEN d   1       1.284  -1.797   2.275  0.00  0.00    -0.003 A 
ATOM      6  C6  DEN d   1       2.081  -2.145   1.217  0.00  0.00     0.001 A 
ATOM      7  C7  DEN d   1       1.791  -1.673  -0.036  0.00  0.00     0.017 A 
ATOM      8  C8  DEN d   1       0.655  -0.890  -0.200  0.00  0.00    -0.094 A 
ATOM      9  C9  DEN d   1      -0.131  -0.539   0.885  0.00  0.00    -0.072 A 
ENDROOT
TORSDOF 0
ENDMDL
