MODEL 1
REMARK minimizedAffinity 0.104095392
REMARK minimizedRMSD -1
REMARK  0 active torsions:
REMARK  status: ('A' for Active; 'I' for Inactive)
ROOT
ATOM      1  C1  DEN d   1      -0.022   2.531  -2.441  0.00  0.00     0.130 A 
ATOM      2  C2  DEN d   1      -1.354   2.892  -2.918  0.00  0.00    -0.031 A 
ATOM      3  C3  DEN d   1      -2.332   2.009  -2.251  0.00  0.00     0.027 A 
ATOM      4  C4  DEN d   1      -1.916   0.134  -0.530  0.00  0.00     0.027 A 
ATOM      5  C5  DEN d   1      -0.949  -0.548   0.175  0.00  0.00    -0.003 A 
ATOM      6  C6  DEN d   1       0.386  -0.277   0.033  0.00  0.00     0.001 A 
ATOM      7  C7  DEN d   1       0.789   0.733  -0.800  0.00  0.00     0.017 A 
ATOM      8  C8  DEN d   1      -0.180   1.420  -1.520  0.00  0.00    -0.094 A 
ATOM      9  C9  DEN d   1      -1.525   1.139  -1.354  0.00  0.00    -0.072 A 
ENDROOT
TORSDOF 0
ENDMDL
