MODEL 1
REMARK minimizedAffinity -2.5580039
REMARK minimizedRMSD -1
REMARK  0 active torsions:
REMARK  status: ('A' for Active; 'I' for Inactive)
ROOT
ATOM      1  C1  DEN d   1       1.928  -1.774  -0.653  0.00  0.00     0.130 A 
ATOM      2  C2  DEN d   1       1.066  -1.013  -1.554  0.00  0.00    -0.031 A 
ATOM      3  C3  DEN d   1      -0.043  -0.451  -0.758  0.00  0.00     0.027 A 
ATOM      4  C4  DEN d   1      -0.506  -0.679   1.769  0.00  0.00     0.027 A 
ATOM      5  C5  DEN d   1      -0.059  -1.239   2.946  0.00  0.00    -0.003 A 
ATOM      6  C6  DEN d   1       1.053  -2.037   2.999  0.00  0.00     0.001 A 
ATOM      7  C7  DEN d   1       1.782  -2.261   1.862  0.00  0.00     0.017 A 
ATOM      8  C8  DEN d   1       1.334  -1.707   0.670  0.00  0.00    -0.094 A 
ATOM      9  C9  DEN d   1       0.214  -0.893   0.639  0.00  0.00    -0.072 A 
ENDROOT
TORSDOF 0
ENDMDL
