MODEL 1
REMARK minimizedAffinity -4.03385496
REMARK minimizedRMSD -1
REMARK  0 active torsions:
REMARK  status: ('A' for Active; 'I' for Inactive)
ROOT
ATOM      1  C1  DEN d   1      -0.606  -0.101   0.217  0.00  0.00     0.130 A 
ATOM      2  C2  DEN d   1      -0.207  -0.129  -1.187  0.00  0.00    -0.031 A 
ATOM      3  C3  DEN d   1       0.918  -1.076  -1.323  0.00  0.00     0.027 A 
ATOM      4  C4  DEN d   1       2.072  -2.498   0.493  0.00  0.00     0.027 A 
ATOM      5  C5  DEN d   1       2.089  -2.803   1.836  0.00  0.00    -0.003 A 
ATOM      6  C6  DEN d   1       1.240  -2.210   2.732  0.00  0.00     0.001 A 
ATOM      7  C7  DEN d   1       0.305  -1.312   2.288  0.00  0.00     0.017 A 
ATOM      8  C8  DEN d   1       0.286  -0.993   0.937  0.00  0.00    -0.094 A 
ATOM      9  C9  DEN d   1       1.145  -1.613   0.045  0.00  0.00    -0.072 A 
ENDROOT
TORSDOF 0
ENDMDL
