MODEL 1
REMARK minimizedAffinity -1.64422202
REMARK minimizedRMSD -1
REMARK  0 active torsions:
REMARK  status: ('A' for Active; 'I' for Inactive)
ROOT
ATOM      1  C1  DEN d   1       0.171  -0.714  -1.498  0.00  0.00     0.130 A 
ATOM      2  C2  DEN d   1       1.568  -1.081  -1.714  0.00  0.00    -0.031 A 
ATOM      3  C3  DEN d   1       2.121  -1.550  -0.427  0.00  0.00     0.027 A 
ATOM      4  C4  DEN d   1       0.954  -1.746   1.865  0.00  0.00     0.027 A 
ATOM      5  C5  DEN d   1      -0.226  -1.541   2.545  0.00  0.00    -0.003 A 
ATOM      6  C6  DEN d   1      -1.337  -1.019   1.938  0.00  0.00     0.001 A 
ATOM      7  C7  DEN d   1      -1.305  -0.725   0.600  0.00  0.00     0.017 A 
ATOM      8  C8  DEN d   1      -0.117  -0.922  -0.090  0.00  0.00    -0.094 A 
ATOM      9  C9  DEN d   1       0.992  -1.463   0.538  0.00  0.00    -0.072 A 
ENDROOT
TORSDOF 0
ENDMDL
