MODEL 1
REMARK minimizedAffinity 16.9047222
REMARK minimizedRMSD -1
REMARK  2 active torsions:
REMARK  status: ('A' for Active; 'I' for Inactive)
REMARK    1  A    between atoms: C2'_3  and  C1'_4 
REMARK    2  A    between atoms: C1'_4  and  C1_5 
ROOT
ATOM      1  C1  I4B d   1       1.075  -3.343  -0.738  0.00  0.00    -0.075 A 
ATOM      2  C2  I4B d   1       0.358  -2.316  -1.298  0.00  0.00     0.003 A 
ATOM      3  C3  I4B d   1      -0.609  -2.585  -2.298  0.00  0.00     0.002 A 
ATOM      4  C4  I4B d   1      -0.788  -3.880  -2.739  0.00  0.00    -0.004 A 
ATOM      5  C5  I4B d   1      -0.076  -4.923  -2.153  0.00  0.00     0.002 A 
ATOM      6  C6  I4B d   1       0.853  -4.654  -1.137  0.00  0.00     0.003 A 
ENDROOT
BRANCH   1   7
ATOM      7  C1' I4B d   1       2.111  -3.020   0.292  0.00  0.00     0.060 C 
BRANCH   7   8
ATOM      8  C2' I4B d   1       2.934  -1.857  -0.223  0.00  0.00    -0.013 C 
ATOM      9  C4' I4B d   1       2.986  -0.737   0.783  0.00  0.00     0.013 C 
ATOM     10  C3' I4B d   1       4.309  -2.365  -0.537  0.00  0.00     0.013 C 
ENDBRANCH   7   8
ENDBRANCH   1   7
TORSDOF 2
ENDMDL
