MODEL 1
REMARK minimizedAffinity 8.74792576
REMARK minimizedRMSD -1
REMARK  2 active torsions:
REMARK  status: ('A' for Active; 'I' for Inactive)
REMARK    1  A    between atoms: C2'_3  and  C1'_4 
REMARK    2  A    between atoms: C1'_4  and  C1_5 
ROOT
ATOM      1  C1  I4B d   1      -0.241  -4.636  -2.841  0.00  0.00    -0.075 A 
ATOM      2  C2  I4B d   1       0.662  -5.660  -2.983  0.00  0.00     0.003 A 
ATOM      3  C3  I4B d   1       1.528  -6.000  -1.915  0.00  0.00     0.002 A 
ATOM      4  C4  I4B d   1       1.492  -5.262  -0.750  0.00  0.00    -0.004 A 
ATOM      5  C5  I4B d   1       0.560  -4.239  -0.600  0.00  0.00     0.002 A 
ATOM      6  C6  I4B d   1      -0.320  -3.931  -1.647  0.00  0.00     0.003 A 
ENDROOT
BRANCH   1   7
ATOM      7  C1' I4B d   1      -1.117  -4.282  -4.001  0.00  0.00     0.060 C 
BRANCH   7   8
ATOM      8  C2' I4B d   1      -0.396  -3.239  -4.830  0.00  0.00    -0.013 C 
ATOM      9  C4' I4B d   1       0.314  -3.868  -6.000  0.00  0.00     0.013 C 
ATOM     10  C3' I4B d   1      -1.407  -2.231  -5.288  0.00  0.00     0.013 C 
ENDBRANCH   7   8
ENDBRANCH   1   7
TORSDOF 2
ENDMDL
