MODEL 1
REMARK minimizedAffinity 8.00159359
REMARK minimizedRMSD -1
REMARK  2 active torsions:
REMARK  status: ('A' for Active; 'I' for Inactive)
REMARK    1  A    between atoms: C2'_3  and  C1'_4 
REMARK    2  A    between atoms: C1'_4  and  C1_5 
ROOT
ATOM      1  C1  I4B d   1       0.628   3.352   1.223  0.00  0.00    -0.075 A 
ATOM      2  C2  I4B d   1      -0.249   2.425   1.729  0.00  0.00     0.003 A 
ATOM      3  C3  I4B d   1      -0.020   1.848   3.002  0.00  0.00     0.002 A 
ATOM      4  C4  I4B d   1       1.117   2.186   3.707  0.00  0.00    -0.004 A 
ATOM      5  C5  I4B d   1       1.993   3.142   3.203  0.00  0.00     0.002 A 
ATOM      6  C6  I4B d   1       1.741   3.738   1.958  0.00  0.00     0.003 A 
ENDROOT
BRANCH   1   7
ATOM      7  C1' I4B d   1       0.373   3.917  -0.138  0.00  0.00     0.060 C 
BRANCH   7   8
ATOM      8  C2' I4B d   1       0.433   5.427  -0.035  0.00  0.00    -0.013 C 
ATOM      9  C4' I4B d   1       1.853   5.923  -0.111  0.00  0.00     0.013 C 
ATOM     10  C3' I4B d   1      -0.401   6.000  -1.142  0.00  0.00     0.013 C 
ENDBRANCH   7   8
ENDBRANCH   1   7
TORSDOF 2
ENDMDL
