MODEL 1
REMARK minimizedAffinity 2.27552128
REMARK minimizedRMSD -1
REMARK  2 active torsions:
REMARK  status: ('A' for Active; 'I' for Inactive)
REMARK    1  A    between atoms: C2'_3  and  C1'_4 
REMARK    2  A    between atoms: C1'_4  and  C1_5 
ROOT
ATOM      1  C1  I4B d   1      -1.052   4.820  -0.400  0.00  0.00    -0.075 A 
ATOM      2  C2  I4B d   1      -1.526   4.191   0.724  0.00  0.00     0.003 A 
ATOM      3  C3  I4B d   1      -0.859   3.054   1.240  0.00  0.00     0.002 A 
ATOM      4  C4  I4B d   1       0.242   2.553   0.576  0.00  0.00    -0.004 A 
ATOM      5  C5  I4B d   1       0.735   3.204  -0.551  0.00  0.00     0.002 A 
ATOM      6  C6  I4B d   1       0.091   4.352  -1.035  0.00  0.00     0.003 A 
ENDROOT
BRANCH   1   7
ATOM      7  C1' I4B d   1      -1.801   5.998  -0.937  0.00  0.00     0.060 C 
BRANCH   7   8
ATOM      8  C2' I4B d   1      -2.151   5.710  -2.383  0.00  0.00    -0.013 C 
ATOM      9  C4' I4B d   1      -0.987   5.997  -3.294  0.00  0.00     0.013 C 
ATOM     10  C3' I4B d   1      -2.573   4.274  -2.479  0.00  0.00     0.013 C 
ENDBRANCH   7   8
ENDBRANCH   1   7
TORSDOF 2
ENDMDL
