MODEL 1
REMARK minimizedAffinity -0.212109998
REMARK minimizedRMSD -1
REMARK  2 active torsions:
REMARK  status: ('A' for Active; 'I' for Inactive)
REMARK    1  A    between atoms: C2'_3  and  C1'_4 
REMARK    2  A    between atoms: C1'_4  and  C1_5 
ROOT
ATOM      1  C1  I4B d   1       0.864   3.480   1.053  0.00  0.00    -0.075 A 
ATOM      2  C2  I4B d   1      -0.148   3.175   1.928  0.00  0.00     0.003 A 
ATOM      3  C3  I4B d   1       0.142   2.912   3.289  0.00  0.00     0.002 A 
ATOM      4  C4  I4B d   1       1.453   2.914   3.717  0.00  0.00    -0.004 A 
ATOM      5  C5  I4B d   1       2.476   3.245   2.833  0.00  0.00     0.002 A 
ATOM      6  C6  I4B d   1       2.179   3.542   1.495  0.00  0.00     0.003 A 
ENDROOT
BRANCH   1   7
ATOM      7  C1' I4B d   1       0.526   3.720  -0.384  0.00  0.00     0.060 C 
BRANCH   7   8
ATOM      8  C2' I4B d   1      -0.728   4.569  -0.433  0.00  0.00    -0.013 C 
ATOM      9  C4' I4B d   1      -0.434   5.999  -0.063  0.00  0.00     0.013 C 
ATOM     10  C3' I4B d   1      -1.298   4.475  -1.817  0.00  0.00     0.013 C 
ENDBRANCH   7   8
ENDBRANCH   1   7
TORSDOF 2
ENDMDL
