MODEL 1
REMARK minimizedAffinity 8.81231594
REMARK minimizedRMSD -1
REMARK  2 active torsions:
REMARK  status: ('A' for Active; 'I' for Inactive)
REMARK    1  A    between atoms: C2'_3  and  C1'_4 
REMARK    2  A    between atoms: C1'_4  and  C1_5 
ROOT
ATOM      1  C1  I4B d   1      -3.869   4.480  -2.546  0.00  0.00    -0.075 A 
ATOM      2  C2  I4B d   1      -4.899   3.998  -1.778  0.00  0.00     0.003 A 
ATOM      3  C3  I4B d   1      -5.970   3.296  -2.381  0.00  0.00     0.002 A 
ATOM      4  C4  I4B d   1      -5.996   3.144  -3.753  0.00  0.00    -0.004 A 
ATOM      5  C5  I4B d   1      -4.940   3.614  -4.528  0.00  0.00     0.002 A 
ATOM      6  C6  I4B d   1      -3.863   4.275  -3.920  0.00  0.00     0.003 A 
ENDROOT
BRANCH   1   7
ATOM      7  C1' I4B d   1      -2.770   5.246  -1.880  0.00  0.00     0.060 C 
BRANCH   7   8
ATOM      8  C2' I4B d   1      -1.455   4.793  -2.481  0.00  0.00    -0.013 C 
ATOM      9  C4' I4B d   1      -0.663   5.963  -3.004  0.00  0.00     0.013 C 
ATOM     10  C3' I4B d   1      -0.692   4.053  -1.423  0.00  0.00     0.013 C 
ENDBRANCH   7   8
ENDBRANCH   1   7
TORSDOF 2
ENDMDL
