MODEL 1
REMARK minimizedAffinity -3.18257904
REMARK minimizedRMSD -1
REMARK  0 active torsions:
REMARK  status: ('A' for Active; 'I' for Inactive)
ROOT
ATOM      1  C   UNL d   1      -0.355   1.702   2.241  0.00  0.00     0.078 C 
ATOM      2  C1  UNL d   1      -0.154   0.784   1.073  0.00  0.00    -0.077 A 
ATOM      3  C2  UNL d   1       1.114   0.277   0.763  0.00  0.00    -0.001 A 
ATOM      4  C3  UNL d   1       1.289  -0.569  -0.333  0.00  0.00     0.003 A 
ATOM      5  C4  UNL d   1       0.199  -0.915  -1.130  0.00  0.00    -0.005 A 
ATOM      6  C5  UNL d   1      -1.066  -0.414  -0.831  0.00  0.00     0.003 A 
ATOM      7  C6  UNL d   1      -1.243   0.432   0.265  0.00  0.00    -0.001 A 
ENDROOT
TORSDOF 0
ENDMDL
