MODEL 1
REMARK minimizedAffinity -4.44037533
REMARK minimizedRMSD -1
REMARK  0 active torsions:
REMARK  status: ('A' for Active; 'I' for Inactive)
ROOT
ATOM      1  C   UNL d   1       0.446  -0.505  -0.966  0.00  0.00     0.078 C 
ATOM      2  C1  UNL d   1       0.289  -0.303   0.511  0.00  0.00    -0.077 A 
ATOM      3  C2  UNL d   1       1.333  -0.602   1.395  0.00  0.00    -0.001 A 
ATOM      4  C3  UNL d   1       1.170  -0.419   2.769  0.00  0.00     0.003 A 
ATOM      5  C4  UNL d   1      -0.037   0.063   3.272  0.00  0.00    -0.005 A 
ATOM      6  C5  UNL d   1      -1.083   0.361   2.401  0.00  0.00     0.003 A 
ATOM      7  C6  UNL d   1      -0.921   0.179   1.026  0.00  0.00    -0.001 A 
ENDROOT
TORSDOF 0
ENDMDL
