MODEL 1
REMARK minimizedAffinity -3.74714971
REMARK minimizedRMSD -1
REMARK  0 active torsions:
REMARK  status: ('A' for Active; 'I' for Inactive)
ROOT
ATOM      1  C   UNL d   1       0.494   0.291  -1.778  0.00  0.00     0.078 C 
ATOM      2  C1  UNL d   1      -0.088   0.524  -0.415  0.00  0.00    -0.077 A 
ATOM      3  C2  UNL d   1       0.526  -0.001   0.729  0.00  0.00    -0.001 A 
ATOM      4  C3  UNL d   1      -0.032   0.216   1.990  0.00  0.00     0.003 A 
ATOM      5  C4  UNL d   1      -1.206   0.955   2.119  0.00  0.00    -0.005 A 
ATOM      6  C5  UNL d   1      -1.824   1.479   0.986  0.00  0.00     0.003 A 
ATOM      7  C6  UNL d   1      -1.268   1.264  -0.276  0.00  0.00    -0.001 A 
ENDROOT
TORSDOF 0
ENDMDL
