MODEL 1
REMARK minimizedAffinity -4.11318302
REMARK minimizedRMSD -1
REMARK  0 active torsions:
REMARK  status: ('A' for Active; 'I' for Inactive)
ROOT
ATOM      1  C   UNL d   1      -0.929   1.572   2.420  0.00  0.00     0.078 C 
ATOM      2  C1  UNL d   1      -0.459   1.076   1.085  0.00  0.00    -0.077 A 
ATOM      3  C2  UNL d   1       0.527   0.087   0.990  0.00  0.00    -0.001 A 
ATOM      4  C3  UNL d   1       0.962  -0.358  -0.259  0.00  0.00     0.003 A 
ATOM      5  C4  UNL d   1       0.417   0.181  -1.423  0.00  0.00    -0.005 A 
ATOM      6  C5  UNL d   1      -0.564   1.167  -1.338  0.00  0.00     0.003 A 
ATOM      7  C6  UNL d   1      -1.000   1.613  -0.089  0.00  0.00    -0.001 A 
ENDROOT
TORSDOF 0
ENDMDL
