MODEL 1
REMARK minimizedAffinity -3.29737949
REMARK minimizedRMSD -1
REMARK  0 active torsions:
REMARK  status: ('A' for Active; 'I' for Inactive)
ROOT
ATOM      1  C   UNL d   1      -0.228   0.874   2.224  0.00  0.00     0.078 C 
ATOM      2  C1  UNL d   1       0.195   0.116   1.001  0.00  0.00    -0.077 A 
ATOM      3  C2  UNL d   1      -0.509   0.239  -0.203  0.00  0.00    -0.001 A 
ATOM      4  C3  UNL d   1      -0.109  -0.480  -1.331  0.00  0.00     0.003 A 
ATOM      5  C4  UNL d   1       0.995  -1.328  -1.265  0.00  0.00    -0.005 A 
ATOM      6  C5  UNL d   1       1.700  -1.458  -0.070  0.00  0.00     0.003 A 
ATOM      7  C6  UNL d   1       1.302  -0.740   1.058  0.00  0.00    -0.001 A 
ENDROOT
TORSDOF 0
ENDMDL
