MODEL 1
REMARK minimizedAffinity -1.81691825
REMARK minimizedRMSD -1
REMARK  0 active torsions:
REMARK  status: ('A' for Active; 'I' for Inactive)
ROOT
ATOM      1  C   UNL d   1      -1.948  -0.587   0.738  0.00  0.00     0.078 C 
ATOM      2  C1  UNL d   1      -0.491  -0.280   0.561  0.00  0.00    -0.077 A 
ATOM      3  C2  UNL d   1       0.488  -1.014   1.242  0.00  0.00    -0.001 A 
ATOM      4  C3  UNL d   1       1.840  -0.710   1.075  0.00  0.00     0.003 A 
ATOM      5  C4  UNL d   1       2.225   0.329   0.230  0.00  0.00    -0.005 A 
ATOM      6  C5  UNL d   1       1.258   1.066  -0.449  0.00  0.00     0.003 A 
ATOM      7  C6  UNL d   1      -0.095   0.764  -0.284  0.00  0.00    -0.001 A 
ENDROOT
TORSDOF 0
ENDMDL
