MODEL 1
REMARK minimizedAffinity -5.65995264
REMARK minimizedRMSD -1
REMARK  0 active torsions:
REMARK  status: ('A' for Active; 'I' for Inactive)
ROOT
ATOM      1  C   UNL d   1       0.110   1.125   3.705  0.00  0.00     0.078 C 
ATOM      2  C1  UNL d   1      -0.151   0.463   2.385  0.00  0.00    -0.077 A 
ATOM      3  C2  UNL d   1      -1.443   0.413   1.846  0.00  0.00    -0.001 A 
ATOM      4  C3  UNL d   1      -1.673  -0.215   0.621  0.00  0.00     0.003 A 
ATOM      5  C4  UNL d   1      -0.616  -0.799  -0.075  0.00  0.00    -0.005 A 
ATOM      6  C5  UNL d   1       0.672  -0.756   0.455  0.00  0.00     0.003 A 
ATOM      7  C6  UNL d   1       0.904  -0.129   1.679  0.00  0.00    -0.001 A 
ENDROOT
TORSDOF 0
ENDMDL
