MODEL 1
REMARK minimizedAffinity -1.00956416
REMARK minimizedRMSD -1
REMARK  1 active torsions:
REMARK  status: ('A' for Active; 'I' for Inactive)
REMARK    1  A    between atoms: C1_2  and  C2_3 
ROOT
ATOM      1  C2  UNL d   1      -0.242   1.421  -1.131  0.00  0.00    -0.076 A 
ATOM      2  C3  UNL d   1      -0.278   1.231  -2.524  0.00  0.00     0.004 A 
ATOM      3  C4  UNL d   1      -0.237   2.317  -3.397  0.00  0.00    -0.003 A 
ATOM      4  C5  UNL d   1      -0.159   3.610  -2.892  0.00  0.00     0.000 A 
ATOM      5  C6  UNL d   1      -0.104   3.816  -1.513  0.00  0.00     0.000 A 
ATOM      6  C7  UNL d   1      -0.129   2.731  -0.620  0.00  0.00    -0.073 A 
ATOM      7  C8  UNL d   1      -0.074   3.012   0.857  0.00  0.00     0.078 C 
ENDROOT
BRANCH   1   8
ATOM      8  C1  UNL d   1      -0.318   0.207  -0.233  0.00  0.00     0.053 C 
ATOM      9  C   UNL d   1       0.767  -0.814  -0.541  0.00  0.00     0.018 C 
ENDBRANCH   1   8
TORSDOF 1
ENDMDL
