MODEL 1
REMARK minimizedAffinity -5.0630331
REMARK minimizedRMSD -1
REMARK  1 active torsions:
REMARK  status: ('A' for Active; 'I' for Inactive)
REMARK    1  A    between atoms: C1_2  and  C2_3 
ROOT
ATOM      1  C2  UNL d   1      -0.600  -0.462   0.368  0.00  0.00    -0.076 A 
ATOM      2  C3  UNL d   1      -0.368  -1.384   1.403  0.00  0.00     0.004 A 
ATOM      3  C4  UNL d   1       0.682  -1.205   2.302  0.00  0.00    -0.003 A 
ATOM      4  C5  UNL d   1       1.517  -0.100   2.181  0.00  0.00     0.000 A 
ATOM      5  C6  UNL d   1       1.291   0.834   1.171  0.00  0.00     0.000 A 
ATOM      6  C7  UNL d   1       0.227   0.677   0.266  0.00  0.00    -0.073 A 
ATOM      7  C8  UNL d   1       0.034   1.713  -0.807  0.00  0.00     0.078 C 
ENDROOT
BRANCH   1   8
ATOM      8  C1  UNL d   1      -1.737  -0.723  -0.594  0.00  0.00     0.053 C 
ATOM      9  C   UNL d   1      -3.033  -1.076   0.119  0.00  0.00     0.018 C 
ENDBRANCH   1   8
TORSDOF 1
ENDMDL
