MODEL 1
REMARK minimizedAffinity 5.44902992
REMARK minimizedRMSD -1
REMARK  1 active torsions:
REMARK  status: ('A' for Active; 'I' for Inactive)
REMARK    1  A    between atoms: C1_2  and  C2_3 
ROOT
ATOM      1  C2  UNL d   1      -0.031   0.542  -1.011  0.00  0.00    -0.076 A 
ATOM      2  C3  UNL d   1       0.827  -0.328  -1.707  0.00  0.00     0.004 A 
ATOM      3  C4  UNL d   1       1.830  -1.031  -1.041  0.00  0.00    -0.003 A 
ATOM      4  C5  UNL d   1       1.991  -0.876   0.331  0.00  0.00     0.000 A 
ATOM      5  C6  UNL d   1       1.138  -0.030   1.040  0.00  0.00     0.000 A 
ATOM      6  C7  UNL d   1       0.111   0.673   0.387  0.00  0.00    -0.073 A 
ATOM      7  C8  UNL d   1      -0.776   1.575   1.200  0.00  0.00     0.078 C 
ENDROOT
BRANCH   1   8
ATOM      8  C1  UNL d   1      -1.083   1.299  -1.791  0.00  0.00     0.053 C 
ATOM      9  C   UNL d   1      -0.654   2.720  -2.119  0.00  0.00     0.018 C 
ENDBRANCH   1   8
TORSDOF 1
ENDMDL
