MODEL 1
REMARK minimizedAffinity -3.55838585
REMARK minimizedRMSD -1
REMARK  1 active torsions:
REMARK  status: ('A' for Active; 'I' for Inactive)
REMARK    1  A    between atoms: C1_2  and  C2_3 
ROOT
ATOM      1  C2  UNL d   1       0.475  -0.339  -0.071  0.00  0.00    -0.076 A 
ATOM      2  C3  UNL d   1       1.878  -0.420  -0.119  0.00  0.00     0.004 A 
ATOM      3  C4  UNL d   1       2.637  -0.420   1.050  0.00  0.00    -0.003 A 
ATOM      4  C5  UNL d   1       2.005  -0.341   2.286  0.00  0.00     0.000 A 
ATOM      5  C6  UNL d   1       0.614  -0.279   2.353  0.00  0.00     0.000 A 
ATOM      6  C7  UNL d   1      -0.167  -0.293   1.185  0.00  0.00    -0.073 A 
ATOM      7  C8  UNL d   1      -1.664  -0.217   1.315  0.00  0.00     0.078 C 
ENDROOT
BRANCH   1   8
ATOM      8  C1  UNL d   1      -0.294  -0.315  -1.373  0.00  0.00     0.053 C 
ATOM      9  C   UNL d   1      -0.507   1.097  -1.898  0.00  0.00     0.018 C 
ENDBRANCH   1   8
TORSDOF 1
ENDMDL
