MODEL 1
REMARK minimizedAffinity -0.73207742
REMARK minimizedRMSD -1
REMARK  1 active torsions:
REMARK  status: ('A' for Active; 'I' for Inactive)
REMARK    1  A    between atoms: C1_2  and  C2_3 
ROOT
ATOM      1  C2  UNL d   1       0.058  -1.063   2.103  0.00  0.00    -0.076 A 
ATOM      2  C3  UNL d   1       1.461  -1.001   2.034  0.00  0.00     0.004 A 
ATOM      3  C4  UNL d   1       2.099  -0.261   1.041  0.00  0.00    -0.003 A 
ATOM      4  C5  UNL d   1       1.345   0.431   0.099  0.00  0.00     0.000 A 
ATOM      5  C6  UNL d   1      -0.048   0.396   0.163  0.00  0.00     0.000 A 
ATOM      6  C7  UNL d   1      -0.707  -0.333   1.168  0.00  0.00    -0.073 A 
ATOM      7  C8  UNL d   1      -2.211  -0.341   1.185  0.00  0.00     0.078 C 
ENDROOT
BRANCH   1   8
ATOM      8  C1  UNL d   1      -0.578  -1.904   3.186  0.00  0.00     0.053 C 
ATOM      9  C   UNL d   1      -0.303  -3.389   3.008  0.00  0.00     0.018 C 
ENDBRANCH   1   8
TORSDOF 1
ENDMDL
