MODEL 1
REMARK minimizedAffinity 5.95855618
REMARK minimizedRMSD -1
REMARK  0 active torsions:
REMARK  status: ('A' for Active; 'I' for Inactive)
ROOT
ATOM      1  C   UNL d   1       2.688  -1.321  -2.221  0.00  0.00     0.077 C 
ATOM      2  C1  UNL d   1       3.697  -2.099  -3.012  0.00  0.00    -0.074 A 
ATOM      3  C2  UNL d   1       5.054  -2.065  -2.675  0.00  0.00    -0.005 A 
ATOM      4  C3  UNL d   1       5.981  -2.801  -3.414  0.00  0.00     0.006 A 
ATOM      5  C4  UNL d   1       5.560  -3.576  -4.496  0.00  0.00    -0.005 A 
ATOM      6  C5  UNL d   1       4.207  -3.623  -4.847  0.00  0.00    -0.074 A 
ATOM      7  C6  UNL d   1       3.737  -4.458  -6.000  0.00  0.00     0.077 C 
ATOM      8  C7  UNL d   1       3.282  -2.886  -4.095  0.00  0.00    -0.001 A 
ENDROOT
TORSDOF 0
ENDMDL
