MODEL 1
REMARK minimizedAffinity 5.89090681
REMARK minimizedRMSD -1
REMARK  0 active torsions:
REMARK  status: ('A' for Active; 'I' for Inactive)
ROOT
ATOM      1  C   UNL d   1      -4.781  -5.967  -5.743  0.00  0.00     0.077 C 
ATOM      2  C1  UNL d   1      -3.488  -5.209  -5.810  0.00  0.00    -0.074 A 
ATOM      3  C2  UNL d   1      -3.472  -3.811  -5.792  0.00  0.00    -0.005 A 
ATOM      4  C3  UNL d   1      -2.262  -3.121  -5.844  0.00  0.00     0.006 A 
ATOM      5  C4  UNL d   1      -1.056  -3.820  -5.915  0.00  0.00    -0.005 A 
ATOM      6  C5  UNL d   1      -1.052  -5.218  -5.933  0.00  0.00    -0.074 A 
ATOM      7  C6  UNL d   1       0.235  -5.986  -5.999  0.00  0.00     0.077 C 
ATOM      8  C7  UNL d   1      -2.272  -5.905  -5.873  0.00  0.00    -0.001 A 
ENDROOT
TORSDOF 0
ENDMDL
