MODEL 1
REMARK minimizedAffinity 17.2642727
REMARK minimizedRMSD -1
REMARK  0 active torsions:
REMARK  status: ('A' for Active; 'I' for Inactive)
ROOT
ATOM      1  C   UNL d   1       2.910   0.985   1.832  0.00  0.00     0.077 C 
ATOM      2  C1  UNL d   1       1.464   1.369   1.729  0.00  0.00    -0.074 A 
ATOM      3  C2  UNL d   1       0.605   1.237   2.825  0.00  0.00    -0.005 A 
ATOM      4  C3  UNL d   1      -0.735   1.608   2.716  0.00  0.00     0.006 A 
ATOM      5  C4  UNL d   1      -1.230   2.113   1.513  0.00  0.00    -0.005 A 
ATOM      6  C5  UNL d   1      -0.385   2.252   0.407  0.00  0.00    -0.074 A 
ATOM      7  C6  UNL d   1      -0.898   2.802  -0.891  0.00  0.00     0.077 C 
ATOM      8  C7  UNL d   1       0.962   1.884   0.526  0.00  0.00    -0.001 A 
ENDROOT
TORSDOF 0
ENDMDL
