MODEL 1
REMARK minimizedAffinity 6.9962163
REMARK minimizedRMSD -1
REMARK  0 active torsions:
REMARK  status: ('A' for Active; 'I' for Inactive)
ROOT
ATOM      1  C   UNL d   1      -1.628  -5.945  -2.781  0.00  0.00     0.077 C 
ATOM      2  C1  UNL d   1      -2.406  -5.260  -3.865  0.00  0.00    -0.074 A 
ATOM      3  C2  UNL d   1      -2.012  -4.010  -4.353  0.00  0.00    -0.005 A 
ATOM      4  C3  UNL d   1      -2.740  -3.389  -5.368  0.00  0.00     0.006 A 
ATOM      5  C4  UNL d   1      -3.869  -4.011  -5.903  0.00  0.00    -0.005 A 
ATOM      6  C5  UNL d   1      -4.278  -5.261  -5.428  0.00  0.00    -0.074 A 
ATOM      7  C6  UNL d   1      -5.484  -5.947  -5.999  0.00  0.00     0.077 C 
ATOM      8  C7  UNL d   1      -3.537  -5.881  -4.413  0.00  0.00    -0.001 A 
ENDROOT
TORSDOF 0
ENDMDL
