MODEL 1
REMARK minimizedAffinity -2.13332486
REMARK minimizedRMSD -1
REMARK  0 active torsions:
REMARK  status: ('A' for Active; 'I' for Inactive)
ROOT
ATOM      1  C   UNL d   1      -0.880   3.459  -0.070  0.00  0.00     0.077 C 
ATOM      2  C1  UNL d   1      -0.551   2.559   1.084  0.00  0.00    -0.074 A 
ATOM      3  C2  UNL d   1      -1.563   1.914   1.804  0.00  0.00    -0.005 A 
ATOM      4  C3  UNL d   1      -1.242   1.072   2.868  0.00  0.00     0.006 A 
ATOM      5  C4  UNL d   1       0.091   0.866   3.224  0.00  0.00    -0.005 A 
ATOM      6  C5  UNL d   1       1.117   1.501   2.515  0.00  0.00    -0.074 A 
ATOM      7  C6  UNL d   1       2.555   1.283   2.878  0.00  0.00     0.077 C 
ATOM      8  C7  UNL d   1       0.786   2.340   1.442  0.00  0.00    -0.001 A 
ENDROOT
TORSDOF 0
ENDMDL
