MODEL 1
REMARK minimizedAffinity 9.04264069
REMARK minimizedRMSD -1
REMARK  0 active torsions:
REMARK  status: ('A' for Active; 'I' for Inactive)
ROOT
ATOM      1  C   UNL d   1       0.893  -0.634  -3.904  0.00  0.00     0.077 C 
ATOM      2  C1  UNL d   1       2.253  -1.109  -3.487  0.00  0.00    -0.074 A 
ATOM      3  C2  UNL d   1       2.520  -1.450  -2.158  0.00  0.00    -0.005 A 
ATOM      4  C3  UNL d   1       3.788  -1.899  -1.787  0.00  0.00     0.006 A 
ATOM      5  C4  UNL d   1       4.800  -2.012  -2.741  0.00  0.00    -0.005 A 
ATOM      6  C5  UNL d   1       4.551  -1.676  -4.076  0.00  0.00    -0.074 A 
ATOM      7  C6  UNL d   1       5.625  -1.801  -5.116  0.00  0.00     0.077 C 
ATOM      8  C7  UNL d   1       3.273  -1.232  -4.442  0.00  0.00    -0.001 A 
ENDROOT
TORSDOF 0
ENDMDL
