MODEL 1
REMARK minimizedAffinity 3.54082847
REMARK minimizedRMSD -1
REMARK  0 active torsions:
REMARK  status: ('A' for Active; 'I' for Inactive)
ROOT
ATOM      1  C   UNL d   1       1.257  -5.227   2.367  0.00  0.00     0.077 C 
ATOM      2  C1  UNL d   1       1.177  -5.490   0.892  0.00  0.00    -0.074 A 
ATOM      3  C2  UNL d   1       2.337  -5.631   0.123  0.00  0.00    -0.005 A 
ATOM      4  C3  UNL d   1       2.247  -5.885  -1.245  0.00  0.00     0.006 A 
ATOM      5  C4  UNL d   1       0.999  -6.000  -1.858  0.00  0.00    -0.005 A 
ATOM      6  C5  UNL d   1      -0.172  -5.863  -1.105  0.00  0.00    -0.074 A 
ATOM      7  C6  UNL d   1      -1.522  -5.994  -1.746  0.00  0.00     0.077 C 
ATOM      8  C7  UNL d   1      -0.073  -5.615   0.271  0.00  0.00    -0.001 A 
ENDROOT
TORSDOF 0
ENDMDL
