MODEL 1
REMARK minimizedAffinity 6.08612585
REMARK minimizedRMSD -1
REMARK  0 active torsions:
REMARK  status: ('A' for Active; 'I' for Inactive)
ROOT
ATOM      1  C   UNL d   1      -0.243   3.854  -0.398  0.00  0.00     0.077 C 
ATOM      2  C1  UNL d   1       0.267   3.042   0.756  0.00  0.00    -0.074 A 
ATOM      3  C2  UNL d   1      -0.326   3.138   2.019  0.00  0.00    -0.005 A 
ATOM      4  C3  UNL d   1       0.153   2.369   3.080  0.00  0.00     0.006 A 
ATOM      5  C4  UNL d   1       1.228   1.500   2.889  0.00  0.00    -0.005 A 
ATOM      6  C5  UNL d   1       1.832   1.390   1.632  0.00  0.00    -0.074 A 
ATOM      7  C6  UNL d   1       2.981   0.453   1.407  0.00  0.00     0.077 C 
ATOM      8  C7  UNL d   1       1.340   2.161   0.569  0.00  0.00    -0.001 A 
ENDROOT
TORSDOF 0
ENDMDL
