MODEL 1
REMARK minimizedAffinity 0.984359503
REMARK minimizedRMSD -1
REMARK  2 active torsions:
REMARK  status: ('A' for Active; 'I' for Inactive)
REMARK    1  A    between atoms: C1_2  and  C2_3 
REMARK    2  A    between atoms: C2_3  and  C3_4 
ROOT
ATOM      1  C3  UNL d   1       5.946   2.173   3.917  0.00  0.00    -0.075 A 
ATOM      2  C4  UNL d   1       5.940   2.653   2.600  0.00  0.00     0.002 A 
ATOM      3  C5  UNL d   1       5.972   4.025   2.346  0.00  0.00     0.002 A 
ATOM      4  C6  UNL d   1       6.000   4.932   3.403  0.00  0.00    -0.004 A 
ATOM      5  C7  UNL d   1       5.989   4.466   4.716  0.00  0.00     0.002 A 
ATOM      6  C8  UNL d   1       5.962   3.094   4.973  0.00  0.00     0.002 A 
ENDROOT
BRANCH   1   7
ATOM      7  C2  UNL d   1       5.941   0.689   4.198  0.00  0.00     0.056 C 
BRANCH   7   8
ATOM      8  C1  UNL d   1       5.945  -0.184   2.939  0.00  0.00     0.007 C 
ATOM      9  C   UNL d   1       4.548  -0.478   2.408  0.00  0.00     0.009 C 
ENDBRANCH   7   8
ENDBRANCH   1   7
TORSDOF 2
ENDMDL
