MODEL 1
REMARK minimizedAffinity -1.10023379
REMARK minimizedRMSD -1
REMARK  2 active torsions:
REMARK  status: ('A' for Active; 'I' for Inactive)
REMARK    1  A    between atoms: C1_2  and  C2_3 
REMARK    2  A    between atoms: C2_3  and  C3_4 
ROOT
ATOM      1  C3  UNL d   1       5.932   0.302   4.870  0.00  0.00    -0.075 A 
ATOM      2  C4  UNL d   1       5.809   1.468   5.640  0.00  0.00     0.002 A 
ATOM      3  C5  UNL d   1       5.721   2.717   5.026  0.00  0.00     0.002 A 
ATOM      4  C6  UNL d   1       5.765   2.818   3.637  0.00  0.00    -0.004 A 
ATOM      5  C7  UNL d   1       5.905   1.668   2.863  0.00  0.00     0.002 A 
ATOM      6  C8  UNL d   1       5.989   0.416   3.475  0.00  0.00     0.002 A 
ENDROOT
BRANCH   1   7
ATOM      7  C2  UNL d   1       5.998  -1.055   5.528  0.00  0.00     0.056 C 
BRANCH   7   8
ATOM      8  C1  UNL d   1       4.893  -2.019   5.084  0.00  0.00     0.007 C 
ATOM      9  C   UNL d   1       5.402  -3.425   4.797  0.00  0.00     0.009 C 
ENDBRANCH   7   8
ENDBRANCH   1   7
TORSDOF 2
ENDMDL
