MODEL 1
REMARK minimizedAffinity 1.55973828
REMARK minimizedRMSD -1
REMARK  2 active torsions:
REMARK  status: ('A' for Active; 'I' for Inactive)
REMARK    1  A    between atoms: C1_2  and  C2_3 
REMARK    2  A    between atoms: C2_3  and  C3_4 
ROOT
ATOM      1  C3  UNL d   1       5.968   3.578   4.007  0.00  0.00    -0.075 A 
ATOM      2  C4  UNL d   1       5.929   4.847   4.603  0.00  0.00     0.002 A 
ATOM      3  C5  UNL d   1       5.879   5.998   3.816  0.00  0.00     0.002 A 
ATOM      4  C6  UNL d   1       5.878   5.896   2.427  0.00  0.00    -0.004 A 
ATOM      5  C7  UNL d   1       5.933   4.642   1.824  0.00  0.00     0.002 A 
ATOM      6  C8  UNL d   1       5.978   3.488   2.609  0.00  0.00     0.002 A 
ENDROOT
BRANCH   1   7
ATOM      7  C2  UNL d   1       5.991   2.327   4.853  0.00  0.00     0.056 C 
BRANCH   7   8
ATOM      8  C1  UNL d   1       5.233   1.145   4.240  0.00  0.00     0.007 C 
ATOM      9  C   UNL d   1       5.962   0.509   3.064  0.00  0.00     0.009 C 
ENDBRANCH   7   8
ENDBRANCH   1   7
TORSDOF 2
ENDMDL
