MODEL 1
REMARK minimizedAffinity -2.3214314
REMARK minimizedRMSD -1
REMARK  2 active torsions:
REMARK  status: ('A' for Active; 'I' for Inactive)
REMARK    1  A    between atoms: C1_2  and  C2_3 
REMARK    2  A    between atoms: C2_3  and  C3_4 
ROOT
ATOM      1  C3  UNL d   1       5.786   1.245   4.813  0.00  0.00    -0.075 A 
ATOM      2  C4  UNL d   1       5.502   0.547   5.995  0.00  0.00     0.002 A 
ATOM      3  C5  UNL d   1       5.452  -0.848   6.000  0.00  0.00     0.002 A 
ATOM      4  C6  UNL d   1       5.675  -1.560   4.823  0.00  0.00    -0.004 A 
ATOM      5  C7  UNL d   1       5.941  -0.875   3.639  0.00  0.00     0.002 A 
ATOM      6  C8  UNL d   1       5.996   0.519   3.632  0.00  0.00     0.002 A 
ENDROOT
BRANCH   1   7
ATOM      7  C2  UNL d   1       5.871   2.753   4.807  0.00  0.00     0.056 C 
BRANCH   7   8
ATOM      8  C1  UNL d   1       6.000   3.365   3.409  0.00  0.00     0.007 C 
ATOM      9  C   UNL d   1       5.937   4.887   3.411  0.00  0.00     0.009 C 
ENDBRANCH   7   8
ENDBRANCH   1   7
TORSDOF 2
ENDMDL
