MODEL 1
REMARK minimizedAffinity 12.8793201
REMARK minimizedRMSD -1
REMARK  2 active torsions:
REMARK  status: ('A' for Active; 'I' for Inactive)
REMARK    1  A    between atoms: C1_2  and  C2_3 
REMARK    2  A    between atoms: C2_3  and  C3_4 
ROOT
ATOM      1  C3  UNL d   1      -1.510   4.384   3.519  0.00  0.00    -0.075 A 
ATOM      2  C4  UNL d   1      -0.113   4.274   3.490  0.00  0.00     0.002 A 
ATOM      3  C5  UNL d   1       0.523   3.586   2.457  0.00  0.00     0.002 A 
ATOM      4  C6  UNL d   1      -0.229   2.991   1.446  0.00  0.00    -0.004 A 
ATOM      5  C7  UNL d   1      -1.619   3.079   1.473  0.00  0.00     0.002 A 
ATOM      6  C8  UNL d   1      -2.258   3.771   2.504  0.00  0.00     0.002 A 
ENDROOT
BRANCH   1   7
ATOM      7  C2  UNL d   1      -2.203   5.153   4.619  0.00  0.00     0.056 C 
BRANCH   7   8
ATOM      8  C1  UNL d   1      -3.430   4.442   5.200  0.00  0.00     0.007 C 
ATOM      9  C   UNL d   1      -4.653   5.343   5.304  0.00  0.00     0.009 C 
ENDBRANCH   7   8
ENDBRANCH   1   7
TORSDOF 2
ENDMDL
