MODEL 1
REMARK minimizedAffinity 0.0251662564
REMARK minimizedRMSD -1
REMARK  2 active torsions:
REMARK  status: ('A' for Active; 'I' for Inactive)
REMARK    1  A    between atoms: C1_2  and  C2_3 
REMARK    2  A    between atoms: C2_3  and  C3_4 
ROOT
ATOM      1  C3  UNL d   1       5.827   2.353   4.521  0.00  0.00    -0.075 A 
ATOM      2  C4  UNL d   1       5.988   3.703   4.863  0.00  0.00     0.002 A 
ATOM      3  C5  UNL d   1       5.959   4.692   3.879  0.00  0.00     0.002 A 
ATOM      4  C6  UNL d   1       5.779   4.343   2.542  0.00  0.00    -0.004 A 
ATOM      5  C7  UNL d   1       5.634   3.003   2.189  0.00  0.00     0.002 A 
ATOM      6  C8  UNL d   1       5.658   2.012   3.173  0.00  0.00     0.002 A 
ENDROOT
BRANCH   1   7
ATOM      7  C2  UNL d   1       5.828   1.281   5.585  0.00  0.00     0.056 C 
BRANCH   7   8
ATOM      8  C1  UNL d   1       5.160  -0.028   5.152  0.00  0.00     0.007 C 
ATOM      9  C   UNL d   1       5.982  -1.263   5.496  0.00  0.00     0.009 C 
ENDBRANCH   7   8
ENDBRANCH   1   7
TORSDOF 2
ENDMDL
