MODEL 1
REMARK minimizedAffinity -1.76391935
REMARK minimizedRMSD -1
REMARK  2 active torsions:
REMARK  status: ('A' for Active; 'I' for Inactive)
REMARK    1  A    between atoms: C1_2  and  C2_3 
REMARK    2  A    between atoms: C2_3  and  C3_4 
ROOT
ATOM      1  C3  UNL d   1       5.974   2.042   4.262  0.00  0.00    -0.075 A 
ATOM      2  C4  UNL d   1       5.957   1.203   3.138  0.00  0.00     0.002 A 
ATOM      3  C5  UNL d   1       5.945  -0.184   3.289  0.00  0.00     0.002 A 
ATOM      4  C6  UNL d   1       5.958  -0.749   4.563  0.00  0.00    -0.004 A 
ATOM      5  C7  UNL d   1       5.991   0.074   5.686  0.00  0.00     0.002 A 
ATOM      6  C8  UNL d   1       6.000   1.463   5.538  0.00  0.00     0.002 A 
ENDROOT
BRANCH   1   7
ATOM      7  C2  UNL d   1       5.958   3.544   4.106  0.00  0.00     0.056 C 
BRANCH   7   8
ATOM      8  C1  UNL d   1       5.147   4.037   2.903  0.00  0.00     0.007 C 
ATOM      9  C   UNL d   1       5.999   4.732   1.849  0.00  0.00     0.009 C 
ENDBRANCH   7   8
ENDBRANCH   1   7
TORSDOF 2
ENDMDL
