MODEL 1
REMARK minimizedAffinity -2.91685653
REMARK minimizedRMSD -1
REMARK  2 active torsions:
REMARK  status: ('A' for Active; 'I' for Inactive)
REMARK    1  A    between atoms: C1_2  and  C2_3 
REMARK    2  A    between atoms: C2_3  and  C3_4 
ROOT
ATOM      1  C3  UNL d   1       5.038   2.149   3.860  0.00  0.00    -0.075 A 
ATOM      2  C4  UNL d   1       4.869   1.454   5.066  0.00  0.00     0.002 A 
ATOM      3  C5  UNL d   1       5.274   0.123   5.180  0.00  0.00     0.002 A 
ATOM      4  C6  UNL d   1       5.842  -0.531   4.088  0.00  0.00    -0.004 A 
ATOM      5  C7  UNL d   1       5.999   0.145   2.880  0.00  0.00     0.002 A 
ATOM      6  C8  UNL d   1       5.599   1.478   2.765  0.00  0.00     0.002 A 
ENDROOT
BRANCH   1   7
ATOM      7  C2  UNL d   1       4.629   3.598   3.739  0.00  0.00     0.056 C 
BRANCH   7   8
ATOM      8  C1  UNL d   1       5.650   4.475   3.008  0.00  0.00     0.007 C 
ATOM      9  C   UNL d   1       6.000   5.748   3.766  0.00  0.00     0.009 C 
ENDBRANCH   7   8
ENDBRANCH   1   7
TORSDOF 2
ENDMDL
