MODEL 1
REMARK minimizedAffinity 6.44244766
REMARK minimizedRMSD -1
REMARK  2 active torsions:
REMARK  status: ('A' for Active; 'I' for Inactive)
REMARK    1  A    between atoms: C1_2  and  C2_3 
REMARK    2  A    between atoms: C2_3  and  C3_4 
ROOT
ATOM      1  C3  UNL d   1      -1.099   1.026   3.258  0.00  0.00    -0.075 A 
ATOM      2  C4  UNL d   1      -1.544   1.834   4.315  0.00  0.00     0.002 A 
ATOM      3  C5  UNL d   1      -1.428   3.222   4.243  0.00  0.00     0.002 A 
ATOM      4  C6  UNL d   1      -0.859   3.819   3.120  0.00  0.00    -0.004 A 
ATOM      5  C7  UNL d   1      -0.399   3.026   2.071  0.00  0.00     0.002 A 
ATOM      6  C8  UNL d   1      -0.518   1.637   2.139  0.00  0.00     0.002 A 
ENDROOT
BRANCH   1   7
ATOM      7  C2  UNL d   1      -1.249  -0.475   3.318  0.00  0.00     0.056 C 
BRANCH   7   8
ATOM      8  C1  UNL d   1      -2.569  -0.947   3.936  0.00  0.00     0.007 C 
ATOM      9  C   UNL d   1      -3.640  -1.257   2.898  0.00  0.00     0.009 C 
ENDBRANCH   7   8
ENDBRANCH   1   7
TORSDOF 2
ENDMDL
