MODEL 1
REMARK minimizedAffinity -2.67663169
REMARK minimizedRMSD -1
REMARK  2 active torsions:
REMARK  status: ('A' for Active; 'I' for Inactive)
REMARK    1  A    between atoms: C1_2  and  C2_3 
REMARK    2  A    between atoms: C2_3  and  C3_4 
ROOT
ATOM      1  C3  UNL d   1       5.978   2.268   3.293  0.00  0.00    -0.075 A 
ATOM      2  C4  UNL d   1       5.992   1.051   2.596  0.00  0.00     0.002 A 
ATOM      3  C5  UNL d   1       5.997  -0.161   3.286  0.00  0.00     0.002 A 
ATOM      4  C6  UNL d   1       5.997  -0.173   4.679  0.00  0.00    -0.004 A 
ATOM      5  C7  UNL d   1       6.000   1.030   5.382  0.00  0.00     0.002 A 
ATOM      6  C8  UNL d   1       5.991   2.245   4.694  0.00  0.00     0.002 A 
ENDROOT
BRANCH   1   7
ATOM      7  C2  UNL d   1       5.943   3.583   2.551  0.00  0.00     0.056 C 
BRANCH   7   8
ATOM      8  C1  UNL d   1       5.092   4.660   3.231  0.00  0.00     0.007 C 
ATOM      9  C   UNL d   1       5.808   5.997   3.363  0.00  0.00     0.009 C 
ENDBRANCH   7   8
ENDBRANCH   1   7
TORSDOF 2
ENDMDL
