MODEL 1
REMARK minimizedAffinity -0.835164428
REMARK minimizedRMSD -1
REMARK  2 active torsions:
REMARK  status: ('A' for Active; 'I' for Inactive)
REMARK    1  A    between atoms: C1_2  and  C2_3 
REMARK    2  A    between atoms: C2_3  and  C3_4 
ROOT
ATOM      1  C3  UNL d   1       5.907   2.569   3.954  0.00  0.00    -0.075 A 
ATOM      2  C4  UNL d   1       5.992   1.655   2.894  0.00  0.00     0.002 A 
ATOM      3  C5  UNL d   1       5.878   0.285   3.130  0.00  0.00     0.002 A 
ATOM      4  C6  UNL d   1       5.690  -0.189   4.427  0.00  0.00    -0.004 A 
ATOM      5  C7  UNL d   1       5.621   0.710   5.489  0.00  0.00     0.002 A 
ATOM      6  C8  UNL d   1       5.730   2.082   5.256  0.00  0.00     0.002 A 
ENDROOT
BRANCH   1   7
ATOM      7  C2  UNL d   1       6.000   4.055   3.702  0.00  0.00     0.056 C 
BRANCH   7   8
ATOM      8  C1  UNL d   1       5.999   4.437   2.218  0.00  0.00     0.007 C 
ATOM      9  C   UNL d   1       6.000   5.942   1.985  0.00  0.00     0.009 C 
ENDBRANCH   7   8
ENDBRANCH   1   7
TORSDOF 2
ENDMDL
