MODEL 1
REMARK minimizedAffinity 4.05310345
REMARK minimizedRMSD -1
REMARK  2 active torsions:
REMARK  status: ('A' for Active; 'I' for Inactive)
REMARK    1  A    between atoms: C1_2  and  C2_3 
REMARK    2  A    between atoms: C2_3  and  C3_4 
ROOT
ATOM      1  C3  UNL d   1       5.997   1.226   4.095  0.00  0.00    -0.075 A 
ATOM      2  C4  UNL d   1       6.000   0.542   2.871  0.00  0.00     0.002 A 
ATOM      3  C5  UNL d   1       5.983  -0.853   2.839  0.00  0.00     0.002 A 
ATOM      4  C6  UNL d   1       5.974  -1.580   4.027  0.00  0.00    -0.004 A 
ATOM      5  C7  UNL d   1       5.988  -0.911   5.249  0.00  0.00     0.002 A 
ATOM      6  C8  UNL d   1       6.000   0.485   5.284  0.00  0.00     0.002 A 
ENDROOT
BRANCH   1   7
ATOM      7  C2  UNL d   1       5.985   2.735   4.136  0.00  0.00     0.056 C 
BRANCH   7   8
ATOM      8  C1  UNL d   1       5.319   3.387   2.920  0.00  0.00     0.007 C 
ATOM      9  C   UNL d   1       5.690   4.854   2.746  0.00  0.00     0.009 C 
ENDBRANCH   7   8
ENDBRANCH   1   7
TORSDOF 2
ENDMDL
