MODEL 1
REMARK minimizedAffinity 2.69748783
REMARK minimizedRMSD -1
REMARK  2 active torsions:
REMARK  status: ('A' for Active; 'I' for Inactive)
REMARK    1  A    between atoms: C1_2  and  C2_3 
REMARK    2  A    between atoms: C2_3  and  C3_4 
ROOT
ATOM      1  C3  UNL d   1       5.931   2.157   3.393  0.00  0.00    -0.075 A 
ATOM      2  C4  UNL d   1       5.869   1.146   2.422  0.00  0.00     0.002 A 
ATOM      3  C5  UNL d   1       5.807  -0.195   2.800  0.00  0.00     0.002 A 
ATOM      4  C6  UNL d   1       5.817  -0.544   4.149  0.00  0.00    -0.004 A 
ATOM      5  C7  UNL d   1       5.896   0.451   5.121  0.00  0.00     0.002 A 
ATOM      6  C8  UNL d   1       5.954   1.794   4.746  0.00  0.00     0.002 A 
ENDROOT
BRANCH   1   7
ATOM      7  C2  UNL d   1       5.969   3.612   2.991  0.00  0.00     0.056 C 
BRANCH   7   8
ATOM      8  C1  UNL d   1       5.438   4.569   4.064  0.00  0.00     0.007 C 
ATOM      9  C   UNL d   1       5.993   5.981   3.937  0.00  0.00     0.009 C 
ENDBRANCH   7   8
ENDBRANCH   1   7
TORSDOF 2
ENDMDL
