MODEL 1
REMARK minimizedAffinity -1.09171033
REMARK minimizedRMSD -1
REMARK  2 active torsions:
REMARK  status: ('A' for Active; 'I' for Inactive)
REMARK    1  A    between atoms: C2'_3  and  C1'_4 
REMARK    2  A    between atoms: C1'_4  and  C1_5 
ROOT
ATOM      1  C1  I4B d   1       0.487   0.431  -0.048  0.00  0.00    -0.075 A 
ATOM      2  C2  I4B d   1       0.388   0.279  -1.408  0.00  0.00     0.003 A 
ATOM      3  C3  I4B d   1      -0.788  -0.264  -1.981  0.00  0.00     0.002 A 
ATOM      4  C4  I4B d   1      -1.812  -0.686  -1.159  0.00  0.00    -0.004 A 
ATOM      5  C5  I4B d   1      -1.720  -0.510   0.219  0.00  0.00     0.002 A 
ATOM      6  C6  I4B d   1      -0.568   0.063   0.778  0.00  0.00     0.003 A 
ENDROOT
BRANCH   1   7
ATOM      7  C1' I4B d   1       1.755   0.978   0.526  0.00  0.00     0.060 C 
BRANCH   7   8
ATOM      8  C2' I4B d   1       1.588   2.475   0.687  0.00  0.00    -0.013 C 
ATOM      9  C4' I4B d   1       1.770   2.893   2.122  0.00  0.00     0.013 C 
ATOM     10  C3' I4B d   1       2.587   3.151  -0.205  0.00  0.00     0.013 C 
ENDBRANCH   7   8
ENDBRANCH   1   7
TORSDOF 2
ENDMDL
