MODEL 1
REMARK minimizedAffinity -2.84590316
REMARK minimizedRMSD -1
REMARK  2 active torsions:
REMARK  status: ('A' for Active; 'I' for Inactive)
REMARK    1  A    between atoms: C2'_3  and  C1'_4 
REMARK    2  A    between atoms: C1'_4  and  C1_5 
ROOT
ATOM      1  C1  I4B d   1      -1.040  -0.146  -0.323  0.00  0.00    -0.075 A 
ATOM      2  C2  I4B d   1      -0.956  -0.135  -1.693  0.00  0.00     0.003 A 
ATOM      3  C3  I4B d   1      -1.821  -0.945  -2.468  0.00  0.00     0.002 A 
ATOM      4  C4  I4B d   1      -2.715  -1.783  -1.834  0.00  0.00    -0.004 A 
ATOM      5  C5  I4B d   1      -2.815  -1.777  -0.446  0.00  0.00     0.002 A 
ATOM      6  C6  I4B d   1      -1.982  -0.944   0.314  0.00  0.00     0.003 A 
ENDROOT
BRANCH   1   7
ATOM      7  C1' I4B d   1      -0.089   0.697   0.465  0.00  0.00     0.060 C 
BRANCH   7   8
ATOM      8  C2' I4B d   1       1.320   0.303   0.072  0.00  0.00    -0.013 C 
ATOM      9  C4' I4B d   1       2.310   1.375   0.445  0.00  0.00     0.013 C 
ATOM     10  C3' I4B d   1       1.645  -0.994   0.751  0.00  0.00     0.013 C 
ENDBRANCH   7   8
ENDBRANCH   1   7
TORSDOF 2
ENDMDL
