MODEL 1
REMARK minimizedAffinity -1.21994448
REMARK minimizedRMSD -1
REMARK  2 active torsions:
REMARK  status: ('A' for Active; 'I' for Inactive)
REMARK    1  A    between atoms: C2'_3  and  C1'_4 
REMARK    2  A    between atoms: C1'_4  and  C1_5 
ROOT
ATOM      1  C1  I4B d   1       0.163   1.323  -0.293  0.00  0.00    -0.075 A 
ATOM      2  C2  I4B d   1      -0.216   0.883   0.950  0.00  0.00     0.003 A 
ATOM      3  C3  I4B d   1      -0.963  -0.312   1.086  0.00  0.00     0.002 A 
ATOM      4  C4  I4B d   1      -1.351  -1.004  -0.043  0.00  0.00    -0.004 A 
ATOM      5  C5  I4B d   1      -0.946  -0.568  -1.302  0.00  0.00     0.002 A 
ATOM      6  C6  I4B d   1      -0.174   0.595  -1.427  0.00  0.00     0.003 A 
ENDROOT
BRANCH   1   7
ATOM      7  C1' I4B d   1       0.924   2.606  -0.403  0.00  0.00     0.060 C 
BRANCH   7   8
ATOM      8  C2' I4B d   1       2.350   2.343   0.037  0.00  0.00    -0.013 C 
ATOM      9  C4' I4B d   1       3.316   2.536  -1.102  0.00  0.00     0.013 C 
ATOM     10  C3' I4B d   1       2.662   3.268   1.175  0.00  0.00     0.013 C 
ENDBRANCH   7   8
ENDBRANCH   1   7
TORSDOF 2
ENDMDL
