MODEL 1
REMARK minimizedAffinity -4.22840166
REMARK minimizedRMSD -1
REMARK  2 active torsions:
REMARK  status: ('A' for Active; 'I' for Inactive)
REMARK    1  A    between atoms: C2'_3  and  C1'_4 
REMARK    2  A    between atoms: C1'_4  and  C1_5 
ROOT
ATOM      1  C1  I4B d   1       1.579   1.231   0.541  0.00  0.00    -0.075 A 
ATOM      2  C2  I4B d   1       2.694   1.747  -0.070  0.00  0.00     0.003 A 
ATOM      3  C3  I4B d   1       3.228   2.989   0.352  0.00  0.00     0.002 A 
ATOM      4  C4  I4B d   1       2.589   3.700   1.347  0.00  0.00    -0.004 A 
ATOM      5  C5  I4B d   1       1.471   3.165   1.981  0.00  0.00     0.002 A 
ATOM      6  C6  I4B d   1       0.970   1.917   1.584  0.00  0.00     0.003 A 
ENDROOT
BRANCH   1   7
ATOM      7  C1' I4B d   1       1.023  -0.068   0.049  0.00  0.00     0.060 C 
BRANCH   7   8
ATOM      8  C2' I4B d   1      -0.451  -0.108   0.399  0.00  0.00    -0.013 C 
ATOM      9  C4' I4B d   1      -1.307   0.033  -0.831  0.00  0.00     0.013 C 
ATOM     10  C3' I4B d   1      -0.724  -1.402   1.104  0.00  0.00     0.013 C 
ENDBRANCH   7   8
ENDBRANCH   1   7
TORSDOF 2
ENDMDL
