MODEL 1
REMARK minimizedAffinity -5.93251133
REMARK minimizedRMSD -1
REMARK  2 active torsions:
REMARK  status: ('A' for Active; 'I' for Inactive)
REMARK    1  A    between atoms: C2'_3  and  C1'_4 
REMARK    2  A    between atoms: C1'_4  and  C1_5 
ROOT
ATOM      1  C1  I4B d   1       0.202   0.374  -0.173  0.00  0.00    -0.075 A 
ATOM      2  C2  I4B d   1      -0.287   0.479  -1.452  0.00  0.00     0.003 A 
ATOM      3  C3  I4B d   1      -1.603   0.050  -1.749  0.00  0.00     0.002 A 
ATOM      4  C4  I4B d   1      -2.373  -0.520  -0.755  0.00  0.00    -0.004 A 
ATOM      5  C5  I4B d   1      -1.884  -0.605   0.545  0.00  0.00     0.002 A 
ATOM      6  C6  I4B d   1      -0.593  -0.144   0.841  0.00  0.00     0.003 A 
ENDROOT
BRANCH   1   7
ATOM      7  C1' I4B d   1       1.608   0.806   0.098  0.00  0.00     0.060 C 
BRANCH   7   8
ATOM      8  C2' I4B d   1       1.573   1.842   1.203  0.00  0.00    -0.013 C 
ATOM      9  C4' I4B d   1       2.534   1.493   2.309  0.00  0.00     0.013 C 
ATOM     10  C3' I4B d   1       1.903   3.175   0.599  0.00  0.00     0.013 C 
ENDBRANCH   7   8
ENDBRANCH   1   7
TORSDOF 2
ENDMDL
