MODEL 1
REMARK minimizedAffinity -4.82774258
REMARK minimizedRMSD -1
REMARK  2 active torsions:
REMARK  status: ('A' for Active; 'I' for Inactive)
REMARK    1  A    between atoms: C2'_3  and  C1'_4 
REMARK    2  A    between atoms: C1'_4  and  C1_5 
ROOT
ATOM      1  C1  I4B d   1       0.471  -0.203   0.148  0.00  0.00    -0.075 A 
ATOM      2  C2  I4B d   1       0.238  -0.102  -1.201  0.00  0.00     0.003 A 
ATOM      3  C3  I4B d   1      -1.064  -0.314  -1.717  0.00  0.00     0.002 A 
ATOM      4  C4  I4B d   1      -2.085  -0.671  -0.860  0.00  0.00    -0.004 A 
ATOM      5  C5  I4B d   1      -1.851  -0.751   0.510  0.00  0.00     0.002 A 
ATOM      6  C6  I4B d   1      -0.568  -0.503   1.019  0.00  0.00     0.003 A 
ENDROOT
BRANCH   1   7
ATOM      7  C1' I4B d   1       1.864  -0.006   0.655  0.00  0.00     0.060 C 
BRANCH   7   8
ATOM      8  C2' I4B d   1       1.922   1.340   1.349  0.00  0.00    -0.013 C 
ATOM      9  C4' I4B d   1       2.192   1.183   2.822  0.00  0.00     0.013 C 
ATOM     10  C3' I4B d   1       2.992   2.157   0.687  0.00  0.00     0.013 C 
ENDBRANCH   7   8
ENDBRANCH   1   7
TORSDOF 2
ENDMDL
