MODEL 1
REMARK minimizedAffinity -5.18488407
REMARK minimizedRMSD -1
REMARK  2 active torsions:
REMARK  status: ('A' for Active; 'I' for Inactive)
REMARK    1  A    between atoms: C2'_3  and  C1'_4 
REMARK    2  A    between atoms: C1'_4  and  C1_5 
ROOT
ATOM      1  C1  I4B d   1       0.279   0.180  -0.146  0.00  0.00    -0.075 A 
ATOM      2  C2  I4B d   1       0.132   0.498  -1.473  0.00  0.00     0.003 A 
ATOM      3  C3  I4B d   1      -1.122   0.336  -2.110  0.00  0.00     0.002 A 
ATOM      4  C4  I4B d   1      -2.182  -0.192  -1.401  0.00  0.00    -0.004 A 
ATOM      5  C5  I4B d   1      -2.037  -0.492  -0.050  0.00  0.00     0.002 A 
ATOM      6  C6  I4B d   1      -0.803  -0.294   0.585  0.00  0.00     0.003 A 
ENDROOT
BRANCH   1   7
ATOM      7  C1' I4B d   1       1.625   0.333   0.487  0.00  0.00     0.060 C 
BRANCH   7   8
ATOM      8  C2' I4B d   1       1.844   1.805   0.770  0.00  0.00    -0.013 C 
ATOM      9  C4' I4B d   1       2.029   2.056   2.243  0.00  0.00     0.013 C 
ATOM     10  C3' I4B d   1       3.044   2.253  -0.011  0.00  0.00     0.013 C 
ENDBRANCH   7   8
ENDBRANCH   1   7
TORSDOF 2
ENDMDL
