MODEL 1
REMARK minimizedAffinity -2.44709253
REMARK minimizedRMSD -1
REMARK  2 active torsions:
REMARK  status: ('A' for Active; 'I' for Inactive)
REMARK    1  A    between atoms: C2'_3  and  C1'_4 
REMARK    2  A    between atoms: C1'_4  and  C1_5 
ROOT
ATOM      1  C1  I4B d   1       0.961   0.322   0.381  0.00  0.00    -0.075 A 
ATOM      2  C2  I4B d   1       0.915  -0.732   1.260  0.00  0.00     0.003 A 
ATOM      3  C3  I4B d   1      -0.310  -1.398   1.510  0.00  0.00     0.002 A 
ATOM      4  C4  I4B d   1      -1.464  -0.948   0.904  0.00  0.00    -0.004 A 
ATOM      5  C5  I4B d   1      -1.412   0.106  -0.004  0.00  0.00     0.002 A 
ATOM      6  C6  I4B d   1      -0.189   0.737  -0.277  0.00  0.00     0.003 A 
ENDROOT
BRANCH   1   7
ATOM      7  C1' I4B d   1       2.265   1.023   0.165  0.00  0.00     0.060 C 
BRANCH   7   8
ATOM      8  C2' I4B d   1       2.187   2.373   0.849  0.00  0.00    -0.013 C 
ATOM      9  C4' I4B d   1       2.696   2.297   2.264  0.00  0.00     0.013 C 
ATOM     10  C3' I4B d   1       2.986   3.349   0.037  0.00  0.00     0.013 C 
ENDBRANCH   7   8
ENDBRANCH   1   7
TORSDOF 2
ENDMDL
