MODEL 1
REMARK minimizedAffinity -2.8574307
REMARK minimizedRMSD -1
REMARK  1 active torsions:
REMARK  status: ('A' for Active; 'I' for Inactive)
REMARK    1  A    between atoms: C1_2  and  C2_3 
ROOT
ATOM      1  C2  UNL d   1       0.206  -0.184   0.054  0.00  0.00    -0.076 A 
ATOM      2  C3  UNL d   1      -1.173  -0.157  -0.220  0.00  0.00     0.004 A 
ATOM      3  C4  UNL d   1      -2.079   0.350   0.710  0.00  0.00    -0.003 A 
ATOM      4  C5  UNL d   1      -1.622   0.837   1.929  0.00  0.00     0.000 A 
ATOM      5  C6  UNL d   1      -0.256   0.834   2.211  0.00  0.00     0.000 A 
ATOM      6  C7  UNL d   1       0.673   0.342   1.277  0.00  0.00    -0.073 A 
ATOM      7  C8  UNL d   1       2.133   0.357   1.636  0.00  0.00     0.078 C 
ENDROOT
BRANCH   1   8
ATOM      8  C1  UNL d   1       1.138  -0.770  -0.982  0.00  0.00     0.053 C 
ATOM      9  C   UNL d   1       0.745  -0.390  -2.401  0.00  0.00     0.018 C 
ENDBRANCH   1   8
TORSDOF 1
ENDMDL
