MODEL 1
REMARK minimizedAffinity -3.61034727
REMARK minimizedRMSD -1
REMARK  1 active torsions:
REMARK  status: ('A' for Active; 'I' for Inactive)
REMARK    1  A    between atoms: C1_2  and  C2_3 
ROOT
ATOM      1  C2  UNL d   1       0.854  -0.328   2.177  0.00  0.00    -0.076 A 
ATOM      2  C3  UNL d   1       2.005  -0.819   1.538  0.00  0.00     0.004 A 
ATOM      3  C4  UNL d   1       2.012  -1.073   0.167  0.00  0.00    -0.003 A 
ATOM      4  C5  UNL d   1       0.867  -0.839  -0.586  0.00  0.00     0.000 A 
ATOM      5  C6  UNL d   1      -0.279  -0.335   0.028  0.00  0.00     0.000 A 
ATOM      6  C7  UNL d   1      -0.297  -0.059   1.406  0.00  0.00    -0.073 A 
ATOM      7  C8  UNL d   1      -1.562   0.477   2.018  0.00  0.00     0.078 C 
ENDROOT
BRANCH   1   8
ATOM      8  C1  UNL d   1       0.897  -0.098   3.671  0.00  0.00     0.053 C 
ATOM      9  C   UNL d   1       1.297  -1.347   4.442  0.00  0.00     0.018 C 
ENDBRANCH   1   8
TORSDOF 1
ENDMDL
