MODEL 1
REMARK minimizedAffinity -4.05021858
REMARK minimizedRMSD -1
REMARK  1 active torsions:
REMARK  status: ('A' for Active; 'I' for Inactive)
REMARK    1  A    between atoms: C1_2  and  C2_3 
ROOT
ATOM      1  C2  UNL d   1      -0.125  -0.071   0.569  0.00  0.00    -0.076 A 
ATOM      2  C3  UNL d   1      -1.361   0.592   0.664  0.00  0.00     0.004 A 
ATOM      3  C4  UNL d   1      -1.625   1.469   1.714  0.00  0.00    -0.003 A 
ATOM      4  C5  UNL d   1      -0.658   1.699   2.685  0.00  0.00     0.000 A 
ATOM      5  C6  UNL d   1       0.581   1.064   2.597  0.00  0.00     0.000 A 
ATOM      6  C7  UNL d   1       0.869   0.189   1.536  0.00  0.00    -0.073 A 
ATOM      7  C8  UNL d   1       2.219  -0.474   1.493  0.00  0.00     0.078 C 
ENDROOT
BRANCH   1   8
ATOM      8  C1  UNL d   1       0.095  -1.033  -0.578  0.00  0.00     0.053 C 
ATOM      9  C   UNL d   1       0.532  -0.329  -1.853  0.00  0.00     0.018 C 
ENDBRANCH   1   8
TORSDOF 1
ENDMDL
