MODEL 1
REMARK minimizedAffinity -4.09655952
REMARK minimizedRMSD -1
REMARK  1 active torsions:
REMARK  status: ('A' for Active; 'I' for Inactive)
REMARK    1  A    between atoms: C1_2  and  C2_3 
ROOT
ATOM      1  C2  UNL d   1       0.350  -0.342   1.007  0.00  0.00    -0.076 A 
ATOM      2  C3  UNL d   1       1.568  -0.377   1.707  0.00  0.00     0.004 A 
ATOM      3  C4  UNL d   1       1.677   0.168   2.986  0.00  0.00    -0.003 A 
ATOM      4  C5  UNL d   1       0.569   0.757   3.584  0.00  0.00     0.000 A 
ATOM      5  C6  UNL d   1      -0.652   0.785   2.911  0.00  0.00     0.000 A 
ATOM      6  C7  UNL d   1      -0.783   0.226   1.629  0.00  0.00    -0.073 A 
ATOM      7  C8  UNL d   1      -2.122   0.290   0.946  0.00  0.00     0.078 C 
ENDROOT
BRANCH   1   8
ATOM      8  C1  UNL d   1       0.299  -0.925  -0.387  0.00  0.00     0.053 C 
ATOM      9  C   UNL d   1       0.699   0.082  -1.455  0.00  0.00     0.018 C 
ENDBRANCH   1   8
TORSDOF 1
ENDMDL
