MODEL 1
REMARK minimizedAffinity -3.88096142
REMARK minimizedRMSD -1
REMARK  1 active torsions:
REMARK  status: ('A' for Active; 'I' for Inactive)
REMARK    1  A    between atoms: C1_2  and  C2_3 
ROOT
ATOM      1  C2  UNL d   1       0.245  -0.550   0.363  0.00  0.00    -0.076 A 
ATOM      2  C3  UNL d   1      -0.979  -0.157  -0.205  0.00  0.00     0.004 A 
ATOM      3  C4  UNL d   1      -1.985   0.409   0.578  0.00  0.00    -0.003 A 
ATOM      4  C5  UNL d   1      -1.781   0.591   1.941  0.00  0.00     0.000 A 
ATOM      5  C6  UNL d   1      -0.566   0.223   2.518  0.00  0.00     0.000 A 
ATOM      6  C7  UNL d   1       0.463  -0.334   1.740  0.00  0.00    -0.073 A 
ATOM      7  C8  UNL d   1       1.751  -0.718   2.416  0.00  0.00     0.078 C 
ENDROOT
BRANCH   1   8
ATOM      8  C1  UNL d   1       1.288  -1.182  -0.531  0.00  0.00     0.053 C 
ATOM      9  C   UNL d   1       1.213  -0.676  -1.963  0.00  0.00     0.018 C 
ENDBRANCH   1   8
TORSDOF 1
ENDMDL
