MODEL 1
REMARK minimizedAffinity 2.99626756
REMARK minimizedRMSD -1
REMARK  1 active torsions:
REMARK  status: ('A' for Active; 'I' for Inactive)
REMARK    1  A    between atoms: C1_2  and  C2_3 
ROOT
ATOM      1  C2  UNL d   1      -0.147   0.207   2.625  0.00  0.00    -0.076 A 
ATOM      2  C3  UNL d   1       0.816   0.754   1.758  0.00  0.00     0.004 A 
ATOM      3  C4  UNL d   1       0.598   0.799   0.382  0.00  0.00    -0.003 A 
ATOM      4  C5  UNL d   1      -0.585   0.300  -0.149  0.00  0.00     0.000 A 
ATOM      5  C6  UNL d   1      -1.559  -0.230   0.697  0.00  0.00     0.000 A 
ATOM      6  C7  UNL d   1      -1.362  -0.269   2.088  0.00  0.00    -0.073 A 
ATOM      7  C8  UNL d   1      -2.442  -0.857   2.954  0.00  0.00     0.078 C 
ENDROOT
BRANCH   1   8
ATOM      8  C1  UNL d   1       0.156   0.159   4.106  0.00  0.00     0.053 C 
ATOM      9  C   UNL d   1       0.513  -1.240   4.583  0.00  0.00     0.018 C 
ENDBRANCH   1   8
TORSDOF 1
ENDMDL
