MODEL 1
REMARK minimizedAffinity -5.16469717
REMARK minimizedRMSD -1
REMARK  1 active torsions:
REMARK  status: ('A' for Active; 'I' for Inactive)
REMARK    1  A    between atoms: C1_2  and  C2_3 
ROOT
ATOM      1  C2  UNL d   1      -0.027  -0.515   0.560  0.00  0.00    -0.076 A 
ATOM      2  C3  UNL d   1      -1.371  -0.103   0.542  0.00  0.00     0.004 A 
ATOM      3  C4  UNL d   1      -1.903   0.654   1.584  0.00  0.00    -0.003 A 
ATOM      4  C5  UNL d   1      -1.099   1.013   2.660  0.00  0.00     0.000 A 
ATOM      5  C6  UNL d   1       0.241   0.628   2.686  0.00  0.00     0.000 A 
ATOM      6  C7  UNL d   1       0.797  -0.122   1.636  0.00  0.00    -0.073 A 
ATOM      7  C8  UNL d   1       2.247  -0.516   1.719  0.00  0.00     0.078 C 
ENDROOT
BRANCH   1   8
ATOM      8  C1  UNL d   1       0.487  -1.359  -0.585  0.00  0.00     0.053 C 
ATOM      9  C   UNL d   1       0.790  -0.534  -1.826  0.00  0.00     0.018 C 
ENDBRANCH   1   8
TORSDOF 1
ENDMDL
