MODEL 1
REMARK minimizedAffinity -2.60003304
REMARK minimizedRMSD -1
REMARK  1 active torsions:
REMARK  status: ('A' for Active; 'I' for Inactive)
REMARK    1  A    between atoms: C1_2  and  C2_3 
ROOT
ATOM      1  C2  UNL d   1       0.016  -0.161   0.901  0.00  0.00    -0.076 A 
ATOM      2  C3  UNL d   1      -1.301   0.155   1.279  0.00  0.00     0.004 A 
ATOM      3  C4  UNL d   1      -1.553   1.015   2.347  0.00  0.00    -0.003 A 
ATOM      4  C5  UNL d   1      -0.494   1.573   3.054  0.00  0.00     0.000 A 
ATOM      5  C6  UNL d   1       0.819   1.284   2.681  0.00  0.00     0.000 A 
ATOM      6  C7  UNL d   1       1.091   0.432   1.597  0.00  0.00    -0.073 A 
ATOM      7  C8  UNL d   1       2.525   0.151   1.243  0.00  0.00     0.078 C 
ENDROOT
BRANCH   1   8
ATOM      8  C1  UNL d   1       0.229  -1.121  -0.248  0.00  0.00     0.053 C 
ATOM      9  C   UNL d   1      -0.192  -0.531  -1.585  0.00  0.00     0.018 C 
ENDBRANCH   1   8
TORSDOF 1
ENDMDL
