MODEL 1
REMARK minimizedAffinity 16.349638
REMARK minimizedRMSD -1
REMARK  3 active torsions:
REMARK  status: ('A' for Active; 'I' for Inactive)
REMARK    1  A    between atoms: C3'_2  and  C2'_3 
REMARK    2  A    between atoms: C2'_3  and  C1'_4 
REMARK    3  A    between atoms: C1'_4  and  C1_5 
ROOT
ATOM      1  C1  N4B d   1      -3.796  -0.428   3.673  0.00  0.00    -0.075 A 
ATOM      2  C2  N4B d   1      -3.247  -1.247   4.683  0.00  0.00     0.002 A 
ATOM      3  C3  N4B d   1      -3.747  -2.509   4.891  0.00  0.00     0.002 A 
ATOM      4  C4  N4B d   1      -4.803  -2.965   4.116  0.00  0.00    -0.004 A 
ATOM      5  C5  N4B d   1      -5.310  -2.177   3.125  0.00  0.00     0.002 A 
ATOM      6  C6  N4B d   1      -4.815  -0.907   2.902  0.00  0.00     0.002 A 
ENDROOT
BRANCH   1   7
ATOM      7  C1' N4B d   1      -3.340   0.991   3.465  0.00  0.00     0.057 C 
BRANCH   7   8
ATOM      8  C2' N4B d   1      -4.435   1.943   3.938  0.00  0.00     0.009 C 
BRANCH   8   9
ATOM      9  C3' N4B d   1      -4.320   2.248   5.422  0.00  0.00     0.004 C 
ATOM     10  C4' N4B d   1      -3.000   1.834   6.000  0.00  0.00     0.003 C 
ENDBRANCH   8   9
ENDBRANCH   7   8
ENDBRANCH   1   7
TORSDOF 3
ENDMDL
