MODEL 1
REMARK minimizedAffinity 12.1194353
REMARK minimizedRMSD -1
REMARK  3 active torsions:
REMARK  status: ('A' for Active; 'I' for Inactive)
REMARK    1  A    between atoms: C3'_2  and  C2'_3 
REMARK    2  A    between atoms: C2'_3  and  C1'_4 
REMARK    3  A    between atoms: C1'_4  and  C1_5 
ROOT
ATOM      1  C1  N4B d   1      -3.613  -0.157   3.598  0.00  0.00    -0.075 A 
ATOM      2  C2  N4B d   1      -3.926  -1.451   3.129  0.00  0.00     0.002 A 
ATOM      3  C3  N4B d   1      -4.128  -2.475   4.022  0.00  0.00     0.002 A 
ATOM      4  C4  N4B d   1      -4.004  -2.233   5.382  0.00  0.00    -0.004 A 
ATOM      5  C5  N4B d   1      -3.726  -0.974   5.828  0.00  0.00     0.002 A 
ATOM      6  C6  N4B d   1      -3.524   0.065   4.942  0.00  0.00     0.002 A 
ENDROOT
BRANCH   1   7
ATOM      7  C1' N4B d   1      -3.299   0.974   2.658  0.00  0.00     0.057 C 
BRANCH   7   8
ATOM      8  C2' N4B d   1      -1.926   0.741   2.035  0.00  0.00     0.009 C 
BRANCH   8   9
ATOM      9  C3' N4B d   1      -0.867   1.648   2.638  0.00  0.00     0.004 C 
ATOM     10  C4' N4B d   1       0.505   1.043   2.603  0.00  0.00     0.003 C 
ENDBRANCH   8   9
ENDBRANCH   7   8
ENDBRANCH   1   7
TORSDOF 3
ENDMDL
