MODEL 1
REMARK minimizedAffinity 17.6748161
REMARK minimizedRMSD -1
REMARK  3 active torsions:
REMARK  status: ('A' for Active; 'I' for Inactive)
REMARK    1  A    between atoms: C3'_2  and  C2'_3 
REMARK    2  A    between atoms: C2'_3  and  C1'_4 
REMARK    3  A    between atoms: C1'_4  and  C1_5 
ROOT
ATOM      1  C1  N4B d   1      -3.648   0.978   4.134  0.00  0.00    -0.075 A 
ATOM      2  C2  N4B d   1      -4.429   1.613   3.143  0.00  0.00     0.002 A 
ATOM      3  C3  N4B d   1      -5.122   2.759   3.446  0.00  0.00     0.002 A 
ATOM      4  C4  N4B d   1      -5.065   3.276   4.732  0.00  0.00    -0.004 A 
ATOM      5  C5  N4B d   1      -4.288   2.670   5.676  0.00  0.00     0.002 A 
ATOM      6  C6  N4B d   1      -3.583   1.520   5.385  0.00  0.00     0.002 A 
ENDROOT
BRANCH   1   7
ATOM      7  C1' N4B d   1      -2.941  -0.324   3.873  0.00  0.00     0.057 C 
BRANCH   7   8
ATOM      8  C2' N4B d   1      -3.436  -1.370   4.868  0.00  0.00     0.009 C 
BRANCH   8   9
ATOM      9  C3' N4B d   1      -3.758  -2.691   4.191  0.00  0.00     0.004 C 
ATOM     10  C4' N4B d   1      -4.176  -3.755   5.161  0.00  0.00     0.003 C 
ENDBRANCH   8   9
ENDBRANCH   7   8
ENDBRANCH   1   7
TORSDOF 3
ENDMDL
