MODEL 1
REMARK minimizedAffinity 17.243557
REMARK minimizedRMSD -1
REMARK  3 active torsions:
REMARK  status: ('A' for Active; 'I' for Inactive)
REMARK    1  A    between atoms: C3'_2  and  C2'_3 
REMARK    2  A    between atoms: C2'_3  and  C1'_4 
REMARK    3  A    between atoms: C1'_4  and  C1_5 
ROOT
ATOM      1  C1  N4B d   1      -3.903   1.097   4.195  0.00  0.00    -0.075 A 
ATOM      2  C2  N4B d   1      -4.914   1.667   3.392  0.00  0.00     0.002 A 
ATOM      3  C3  N4B d   1      -5.748   2.625   3.915  0.00  0.00     0.002 A 
ATOM      4  C4  N4B d   1      -5.602   3.013   5.238  0.00  0.00    -0.004 A 
ATOM      5  C5  N4B d   1      -4.606   2.476   6.000  0.00  0.00     0.002 A 
ATOM      6  C6  N4B d   1      -3.758   1.515   5.486  0.00  0.00     0.002 A 
ENDROOT
BRANCH   1   7
ATOM      7  C1' N4B d   1      -3.023  -0.015   3.693  0.00  0.00     0.057 C 
BRANCH   7   8
ATOM      8  C2' N4B d   1      -3.766  -1.341   3.827  0.00  0.00     0.009 C 
BRANCH   8   9
ATOM      9  C3' N4B d   1      -5.252  -1.190   3.551  0.00  0.00     0.004 C 
ATOM     10  C4' N4B d   1      -5.684  -1.892   2.298  0.00  0.00     0.003 C 
ENDBRANCH   8   9
ENDBRANCH   7   8
ENDBRANCH   1   7
TORSDOF 3
ENDMDL
