MODEL 1
REMARK minimizedAffinity 13.3429546
REMARK minimizedRMSD -1
REMARK  3 active torsions:
REMARK  status: ('A' for Active; 'I' for Inactive)
REMARK    1  A    between atoms: C3'_2  and  C2'_3 
REMARK    2  A    between atoms: C2'_3  and  C1'_4 
REMARK    3  A    between atoms: C1'_4  and  C1_5 
ROOT
ATOM      1  C1  N4B d   1       2.128  -1.317  -1.137  0.00  0.00    -0.075 A 
ATOM      2  C2  N4B d   1       2.488  -2.347  -0.241  0.00  0.00     0.002 A 
ATOM      3  C3  N4B d   1       2.176  -3.652  -0.535  0.00  0.00     0.002 A 
ATOM      4  C4  N4B d   1       1.490  -3.947  -1.703  0.00  0.00    -0.004 A 
ATOM      5  C5  N4B d   1       1.168  -2.948  -2.575  0.00  0.00     0.002 A 
ATOM      6  C6  N4B d   1       1.479  -1.633  -2.295  0.00  0.00     0.002 A 
ENDROOT
BRANCH   1   7
ATOM      7  C1' N4B d   1       2.372   0.133  -0.819  0.00  0.00     0.057 C 
BRANCH   7   8
ATOM      8  C2' N4B d   1       2.294   0.334   0.692  0.00  0.00     0.009 C 
BRANCH   8   9
ATOM      9  C3' N4B d   1       3.439   1.186   1.212  0.00  0.00     0.004 C 
ATOM     10  C4' N4B d   1       4.508   1.412   0.185  0.00  0.00     0.003 C 
ENDBRANCH   8   9
ENDBRANCH   7   8
ENDBRANCH   1   7
TORSDOF 3
ENDMDL
