MODEL 1
REMARK minimizedAffinity 19.4435177
REMARK minimizedRMSD -1
REMARK  3 active torsions:
REMARK  status: ('A' for Active; 'I' for Inactive)
REMARK    1  A    between atoms: C3'_2  and  C2'_3 
REMARK    2  A    between atoms: C2'_3  and  C1'_4 
REMARK    3  A    between atoms: C1'_4  and  C1_5 
ROOT
ATOM      1  C1  N4B d   1      -1.582   0.821   2.242  0.00  0.00    -0.075 A 
ATOM      2  C2  N4B d   1      -1.272   2.072   2.820  0.00  0.00     0.002 A 
ATOM      3  C3  N4B d   1       0.004   2.328   3.260  0.00  0.00     0.002 A 
ATOM      4  C4  N4B d   1       0.977   1.346   3.150  0.00  0.00    -0.004 A 
ATOM      5  C5  N4B d   1       0.676   0.150   2.567  0.00  0.00     0.002 A 
ATOM      6  C6  N4B d   1      -0.601  -0.120   2.117  0.00  0.00     0.002 A 
ENDROOT
BRANCH   1   7
ATOM      7  C1' N4B d   1      -2.982   0.464   1.825  0.00  0.00     0.057 C 
BRANCH   7   8
ATOM      8  C2' N4B d   1      -3.769   0.010   3.051  0.00  0.00     0.009 C 
BRANCH   8   9
ATOM      9  C3' N4B d   1      -4.105  -1.470   2.995  0.00  0.00     0.004 C 
ATOM     10  C4' N4B d   1      -5.183  -1.784   2.000  0.00  0.00     0.003 C 
ENDBRANCH   8   9
ENDBRANCH   7   8
ENDBRANCH   1   7
TORSDOF 3
ENDMDL
