MODEL 1
REMARK minimizedAffinity 13.4076843
REMARK minimizedRMSD -1
REMARK  3 active torsions:
REMARK  status: ('A' for Active; 'I' for Inactive)
REMARK    1  A    between atoms: C3'_2  and  C2'_3 
REMARK    2  A    between atoms: C2'_3  and  C1'_4 
REMARK    3  A    between atoms: C1'_4  and  C1_5 
ROOT
ATOM      1  C1  N4B d   1      -4.639  -1.061   3.178  0.00  0.00    -0.075 A 
ATOM      2  C2  N4B d   1      -4.079  -1.344   4.443  0.00  0.00     0.002 A 
ATOM      3  C3  N4B d   1      -4.496  -2.447   5.147  0.00  0.00     0.002 A 
ATOM      4  C4  N4B d   1      -5.480  -3.268   4.617  0.00  0.00    -0.004 A 
ATOM      5  C5  N4B d   1      -5.997  -3.002   3.383  0.00  0.00     0.002 A 
ATOM      6  C6  N4B d   1      -5.585  -1.899   2.663  0.00  0.00     0.002 A 
ENDROOT
BRANCH   1   7
ATOM      7  C1' N4B d   1      -4.278   0.180   2.409  0.00  0.00     0.057 C 
BRANCH   7   8
ATOM      8  C2' N4B d   1      -2.890   0.648   2.837  0.00  0.00     0.009 C 
BRANCH   8   9
ATOM      9  C3' N4B d   1      -2.877   2.121   3.211  0.00  0.00     0.004 C 
ATOM     10  C4' N4B d   1      -4.209   2.608   3.696  0.00  0.00     0.003 C 
ENDBRANCH   8   9
ENDBRANCH   7   8
ENDBRANCH   1   7
TORSDOF 3
ENDMDL
