MODEL 1
REMARK minimizedAffinity 16.177
REMARK minimizedRMSD -1
REMARK  3 active torsions:
REMARK  status: ('A' for Active; 'I' for Inactive)
REMARK    1  A    between atoms: C3'_2  and  C2'_3 
REMARK    2  A    between atoms: C2'_3  and  C1'_4 
REMARK    3  A    between atoms: C1'_4  and  C1_5 
ROOT
ATOM      1  C1  N4B d   1       0.657   1.171   1.951  0.00  0.00    -0.075 A 
ATOM      2  C2  N4B d   1       0.656   0.285   0.851  0.00  0.00     0.002 A 
ATOM      3  C3  N4B d   1       1.802   0.102   0.117  0.00  0.00     0.002 A 
ATOM      4  C4  N4B d   1       2.950   0.804   0.450  0.00  0.00    -0.004 A 
ATOM      5  C5  N4B d   1       2.950   1.639   1.529  0.00  0.00     0.002 A 
ATOM      6  C6  N4B d   1       1.806   1.830   2.279  0.00  0.00     0.002 A 
ENDROOT
BRANCH   1   7
ATOM      7  C1' N4B d   1      -0.594   1.469   2.731  0.00  0.00     0.057 C 
BRANCH   7   8
ATOM      8  C2' N4B d   1      -1.787   0.824   2.031  0.00  0.00     0.009 C 
BRANCH   8   9
ATOM      9  C3' N4B d   1      -2.974   0.661   2.965  0.00  0.00     0.004 C 
ATOM     10  C4' N4B d   1      -3.205  -0.765   3.367  0.00  0.00     0.003 C 
ENDBRANCH   8   9
ENDBRANCH   7   8
ENDBRANCH   1   7
TORSDOF 3
ENDMDL
