MODEL 1
REMARK minimizedAffinity -4.69557285
REMARK minimizedRMSD -1
REMARK  0 active torsions:
REMARK  status: ('A' for Active; 'I' for Inactive)
ROOT
ATOM      1  C4' PXY d   1      -2.057   0.375  -0.632  0.00  0.00     0.077 C 
ATOM      2  C1' PXY d   1       3.487  -0.386   0.817  0.00  0.00     0.077 C 
ATOM      3  C1  PXY d   1       2.034  -0.174   0.441  0.00  0.00    -0.082 A 
ATOM      4  C2  PXY d   1       1.218  -1.214   0.370  0.00  0.00     0.003 A 
ATOM      5  C3  PXY d   1      -0.091  -1.044   0.001  0.00  0.00     0.003 A 
ATOM      6  C4  PXY d   1      -0.585   0.209  -0.247  0.00  0.00    -0.082 A 
ATOM      7  C5  PXY d   1       0.239   1.276  -0.167  0.00  0.00     0.003 A 
ATOM      8  C6  PXY d   1       1.575   1.078   0.170  0.00  0.00     0.003 A 
ENDROOT
TORSDOF 0
ENDMDL
