MODEL 1
REMARK minimizedAffinity 0.738926709
REMARK minimizedRMSD -1
REMARK  0 active torsions:
REMARK  status: ('A' for Active; 'I' for Inactive)
ROOT
ATOM      1  C4' PXY d   1       0.409   0.621   0.165  0.00  0.00     0.077 C 
ATOM      2  C1' PXY d   1      -3.988  -0.410  -3.443  0.00  0.00     0.077 C 
ATOM      3  C1  PXY d   1      -2.843  -0.133  -2.489  0.00  0.00    -0.082 A 
ATOM      4  C2  PXY d   1      -1.598  -0.152  -2.938  0.00  0.00     0.003 A 
ATOM      5  C3  PXY d   1      -0.549   0.065  -2.082  0.00  0.00     0.003 A 
ATOM      6  C4  PXY d   1      -0.779   0.356  -0.764  0.00  0.00    -0.082 A 
ATOM      7  C5  PXY d   1      -2.046   0.388  -0.301  0.00  0.00     0.003 A 
ATOM      8  C6  PXY d   1      -3.095   0.124  -1.177  0.00  0.00     0.003 A 
ENDROOT
TORSDOF 0
ENDMDL
