MODEL 1
REMARK minimizedAffinity -5.30481386
REMARK minimizedRMSD -1
REMARK  0 active torsions:
REMARK  status: ('A' for Active; 'I' for Inactive)
ROOT
ATOM      1  C4' PXY d   1      -2.161   0.373  -0.757  0.00  0.00     0.077 C 
ATOM      2  C1' PXY d   1       3.322  -0.186   0.985  0.00  0.00     0.077 C 
ATOM      3  C1  PXY d   1       1.884  -0.052   0.524  0.00  0.00    -0.082 A 
ATOM      4  C2  PXY d   1       1.394   1.146   0.250  0.00  0.00     0.003 A 
ATOM      5  C3  PXY d   1       0.087   1.289  -0.138  0.00  0.00     0.003 A 
ATOM      6  C4  PXY d   1      -0.712   0.189  -0.298  0.00  0.00    -0.082 A 
ATOM      7  C5  PXY d   1      -0.217  -1.038  -0.031  0.00  0.00     0.003 A 
ATOM      8  C6  PXY d   1       1.101  -1.158   0.401  0.00  0.00     0.003 A 
ENDROOT
TORSDOF 0
ENDMDL
