MODEL 1
REMARK minimizedAffinity -5.34641886
REMARK minimizedRMSD -1
REMARK  0 active torsions:
REMARK  status: ('A' for Active; 'I' for Inactive)
ROOT
ATOM      1  C4' PXY d   1       2.600   2.505   1.881  0.00  0.00     0.077 C 
ATOM      2  C1' PXY d   1      -0.633  -1.124  -1.249  0.00  0.00     0.077 C 
ATOM      3  C1  PXY d   1       0.220  -0.182  -0.421  0.00  0.00    -0.082 A 
ATOM      4  C2  PXY d   1      -0.129   1.089  -0.311  0.00  0.00     0.003 A 
ATOM      5  C3  PXY d   1       0.648   1.962   0.407  0.00  0.00     0.003 A 
ATOM      6  C4  PXY d   1       1.764   1.516   1.063  0.00  0.00    -0.082 A 
ATOM      7  C5  PXY d   1       2.121   0.218   0.965  0.00  0.00     0.003 A 
ATOM      8  C6  PXY d   1       1.341  -0.642   0.197  0.00  0.00     0.003 A 
ENDROOT
TORSDOF 0
ENDMDL
