MODEL 1
REMARK minimizedAffinity -4.77965164
REMARK minimizedRMSD -1
REMARK  0 active torsions:
REMARK  status: ('A' for Active; 'I' for Inactive)
ROOT
ATOM      1  C4' PXY d   1      -1.743   0.124  -0.775  0.00  0.00     0.077 C 
ATOM      2  C1' PXY d   1       3.707  -0.404   1.079  0.00  0.00     0.077 C 
ATOM      3  C1  PXY d   1       2.278  -0.253   0.595  0.00  0.00    -0.082 A 
ATOM      4  C2  PXY d   1       1.462  -1.294   0.630  0.00  0.00     0.003 A 
ATOM      5  C3  PXY d   1       0.176  -1.183   0.167  0.00  0.00     0.003 A 
ATOM      6  C4  PXY d   1      -0.295   0.020  -0.288  0.00  0.00    -0.082 A 
ATOM      7  C5  PXY d   1       0.528   1.089  -0.316  0.00  0.00     0.003 A 
ATOM      8  C6  PXY d   1       1.842   0.945   0.120  0.00  0.00     0.003 A 
ENDROOT
TORSDOF 0
ENDMDL
