MODEL 1
REMARK minimizedAffinity 2.27615786
REMARK minimizedRMSD -1
REMARK  0 active torsions:
REMARK  status: ('A' for Active; 'I' for Inactive)
ROOT
ATOM      1  C4' PXY d   1       1.011  -2.305   2.143  0.00  0.00     0.077 C 
ATOM      2  C1' PXY d   1       3.669   2.017  -0.626  0.00  0.00     0.077 C 
ATOM      3  C1  PXY d   1       2.978   0.875   0.092  0.00  0.00    -0.082 A 
ATOM      4  C2  PXY d   1       1.865   1.106   0.770  0.00  0.00     0.003 A 
ATOM      5  C3  PXY d   1       1.244   0.091   1.452  0.00  0.00     0.003 A 
ATOM      6  C4  PXY d   1       1.738  -1.184   1.395  0.00  0.00    -0.082 A 
ATOM      7  C5  PXY d   1       2.867  -1.431   0.697  0.00  0.00     0.003 A 
ATOM      8  C6  PXY d   1       3.504  -0.379   0.046  0.00  0.00     0.003 A 
ENDROOT
TORSDOF 0
ENDMDL
