MODEL 1
REMARK minimizedAffinity -4.70926189
REMARK minimizedRMSD -1
REMARK  0 active torsions:
REMARK  status: ('A' for Active; 'I' for Inactive)
ROOT
ATOM      1  C4' PXY d   1      -1.930   0.079  -1.466  0.00  0.00     0.077 C 
ATOM      2  C1' PXY d   1       3.001  -0.347   1.521  0.00  0.00     0.077 C 
ATOM      3  C1  PXY d   1       1.707  -0.223   0.740  0.00  0.00    -0.082 A 
ATOM      4  C2  PXY d   1       0.911  -1.273   0.621  0.00  0.00     0.003 A 
ATOM      5  C3  PXY d   1      -0.246  -1.186  -0.109  0.00  0.00     0.003 A 
ATOM      6  C4  PXY d   1      -0.619   0.001  -0.679  0.00  0.00    -0.082 A 
ATOM      7  C5  PXY d   1       0.183   1.080  -0.553  0.00  0.00     0.003 A 
ATOM      8  C6  PXY d   1       1.374   0.961   0.157  0.00  0.00     0.003 A 
ENDROOT
TORSDOF 0
ENDMDL
