MODEL 1
REMARK minimizedAffinity -2.48459339
REMARK minimizedRMSD -1
REMARK  0 active torsions:
REMARK  status: ('A' for Active; 'I' for Inactive)
ROOT
ATOM      1  C4' PXY d   1      -3.143   0.613  -3.319  0.00  0.00     0.077 C 
ATOM      2  C1' PXY d   1       0.133  -1.464   0.966  0.00  0.00     0.077 C 
ATOM      3  C1  PXY d   1      -0.722  -0.929  -0.165  0.00  0.00    -0.082 A 
ATOM      4  C2  PXY d   1      -1.050   0.352  -0.188  0.00  0.00     0.003 A 
ATOM      5  C3  PXY d   1      -1.849   0.846  -1.187  0.00  0.00     0.003 A 
ATOM      6  C4  PXY d   1      -2.274   0.031  -2.201  0.00  0.00    -0.082 A 
ATOM      7  C5  PXY d   1      -1.935  -1.275  -2.191  0.00  0.00     0.003 A 
ATOM      8  C6  PXY d   1      -1.157  -1.766  -1.146  0.00  0.00     0.003 A 
ENDROOT
TORSDOF 0
ENDMDL
