MODEL 1
REMARK minimizedAffinity -3.22118831
REMARK minimizedRMSD -1
REMARK  0 active torsions:
REMARK  status: ('A' for Active; 'I' for Inactive)
ROOT
ATOM      1  C4' PXY d   1      -2.567   0.012  -0.784  0.00  0.00     0.077 C 
ATOM      2  C1' PXY d   1       2.769   0.797   1.297  0.00  0.00     0.077 C 
ATOM      3  C1  PXY d   1       1.373   0.579   0.748  0.00  0.00    -0.082 A 
ATOM      4  C2  PXY d   1       0.660   1.617   0.343  0.00  0.00     0.003 A 
ATOM      5  C3  PXY d   1      -0.617   1.442  -0.126  0.00  0.00     0.003 A 
ATOM      6  C4  PXY d   1      -1.149   0.184  -0.231  0.00  0.00    -0.082 A 
ATOM      7  C5  PXY d   1      -0.424  -0.881   0.170  0.00  0.00     0.003 A 
ATOM      8  C6  PXY d   1       0.854  -0.677   0.682  0.00  0.00     0.003 A 
ENDROOT
TORSDOF 0
ENDMDL
