MODEL 1
REMARK minimizedAffinity -5.11458921
REMARK minimizedRMSD -1
REMARK  0 active torsions:
REMARK  status: ('A' for Active; 'I' for Inactive)
ROOT
ATOM      1  C4' PXY d   1       0.915   3.653   0.228  0.00  0.00     0.077 C 
ATOM      2  C1' PXY d   1       1.685  -2.056   0.704  0.00  0.00     0.077 C 
ATOM      3  C1  PXY d   1       1.491  -0.557   0.589  0.00  0.00    -0.082 A 
ATOM      4  C2  PXY d   1       0.377  -0.080   0.058  0.00  0.00     0.003 A 
ATOM      5  C3  PXY d   1       0.200   1.272  -0.083  0.00  0.00     0.003 A 
ATOM      6  C4  PXY d   1       1.149   2.147   0.373  0.00  0.00    -0.082 A 
ATOM      7  C5  PXY d   1       2.283   1.669   0.926  0.00  0.00     0.003 A 
ATOM      8  C6  PXY d   1       2.463   0.292   1.023  0.00  0.00     0.003 A 
ENDROOT
TORSDOF 0
ENDMDL
