MODEL 1
REMARK minimizedAffinity -3.36029339
REMARK minimizedRMSD -1
REMARK  0 active torsions:
REMARK  status: ('A' for Active; 'I' for Inactive)
ROOT
ATOM      1  C4' PXY d   1      -2.381   0.385  -1.015  0.00  0.00     0.077 C 
ATOM      2  C1' PXY d   1       2.972  -0.408   1.016  0.00  0.00     0.077 C 
ATOM      3  C1  PXY d   1       1.568  -0.189   0.490  0.00  0.00    -0.082 A 
ATOM      4  C2  PXY d   1       0.835  -1.229   0.127  0.00  0.00     0.003 A 
ATOM      5  C3  PXY d   1      -0.425  -1.046  -0.381  0.00  0.00     0.003 A 
ATOM      6  C4  PXY d   1      -0.961   0.210  -0.469  0.00  0.00    -0.082 A 
ATOM      7  C5  PXY d   1      -0.224   1.276  -0.091  0.00  0.00     0.003 A 
ATOM      8  C6  PXY d   1       1.068   1.073   0.384  0.00  0.00     0.003 A 
ENDROOT
TORSDOF 0
ENDMDL
