MODEL 1
REMARK minimizedAffinity 2.9352088
REMARK minimizedRMSD -1
REMARK  0 active torsions:
REMARK  status: ('A' for Active; 'I' for Inactive)
ROOT
ATOM      1  C4' PXY d   1       2.138   5.591  -0.185  0.00  0.00     0.077 C 
ATOM      2  C1' PXY d   1      -0.032   0.305   0.686  0.00  0.00     0.077 C 
ATOM      3  C1  PXY d   1       0.525   1.696   0.458  0.00  0.00    -0.082 A 
ATOM      4  C2  PXY d   1       1.711   1.841  -0.110  0.00  0.00     0.003 A 
ATOM      5  C3  PXY d   1       2.244   3.090  -0.295  0.00  0.00     0.003 A 
ATOM      6  C4  PXY d   1       1.532   4.206   0.057  0.00  0.00    -0.082 A 
ATOM      7  C5  PXY d   1       0.316   4.067   0.627  0.00  0.00     0.003 A 
ATOM      8  C6  PXY d   1      -0.189   2.788   0.843  0.00  0.00     0.003 A 
ENDROOT
TORSDOF 0
ENDMDL
