MODEL 1
REMARK minimizedAffinity 8.96930885
REMARK minimizedRMSD -1
REMARK  2 active torsions:
REMARK  status: ('A' for Active; 'I' for Inactive)
REMARK    1  A    between atoms: C1_2  and  C2_3 
REMARK    2  A    between atoms: C2_3  and  C3_4 
ROOT
ATOM      1  C3  UNL d   1       1.351  -2.955   0.402  0.00  0.00    -0.075 A 
ATOM      2  C4  UNL d   1       0.240  -2.581  -0.367  0.00  0.00     0.002 A 
ATOM      3  C5  UNL d   1       0.391  -1.736  -1.467  0.00  0.00     0.002 A 
ATOM      4  C6  UNL d   1       1.651  -1.247  -1.805  0.00  0.00    -0.004 A 
ATOM      5  C7  UNL d   1       2.760  -1.599  -1.038  0.00  0.00     0.002 A 
ATOM      6  C8  UNL d   1       2.612  -2.448   0.060  0.00  0.00     0.002 A 
ENDROOT
BRANCH   1   7
ATOM      7  C2  UNL d   1       1.198  -3.893   1.575  0.00  0.00     0.056 C 
BRANCH   7   8
ATOM      8  C1  UNL d   1       2.033  -5.174   1.464  0.00  0.00     0.007 C 
ATOM      9  C   UNL d   1       2.775  -5.521   2.748  0.00  0.00     0.009 C 
ENDBRANCH   7   8
ENDBRANCH   1   7
TORSDOF 2
ENDMDL
