MODEL 1
REMARK minimizedAffinity 3.93193913
REMARK minimizedRMSD -1
REMARK  2 active torsions:
REMARK  status: ('A' for Active; 'I' for Inactive)
REMARK    1  A    between atoms: C1_2  and  C2_3 
REMARK    2  A    between atoms: C2_3  and  C3_4 
ROOT
ATOM      1  C3  UNL d   1       1.190   1.650  -0.963  0.00  0.00    -0.075 A 
ATOM      2  C4  UNL d   1      -0.183   1.657  -0.678  0.00  0.00     0.002 A 
ATOM      3  C5  UNL d   1      -0.641   2.005   0.593  0.00  0.00     0.002 A 
ATOM      4  C6  UNL d   1       0.266   2.340   1.596  0.00  0.00    -0.004 A 
ATOM      5  C7  UNL d   1       1.633   2.321   1.329  0.00  0.00     0.002 A 
ATOM      6  C8  UNL d   1       2.094   1.977   0.057  0.00  0.00     0.002 A 
ENDROOT
BRANCH   1   7
ATOM      7  C2  UNL d   1       1.690   1.303  -2.344  0.00  0.00     0.056 C 
BRANCH   7   8
ATOM      8  C1  UNL d   1       2.907   0.372  -2.351  0.00  0.00     0.007 C 
ATOM      9  C   UNL d   1       2.588  -1.037  -1.869  0.00  0.00     0.009 C 
ENDBRANCH   7   8
ENDBRANCH   1   7
TORSDOF 2
ENDMDL
