MODEL 1
REMARK minimizedAffinity 9.58375835
REMARK minimizedRMSD -1
REMARK  2 active torsions:
REMARK  status: ('A' for Active; 'I' for Inactive)
REMARK    1  A    between atoms: C1_2  and  C2_3 
REMARK    2  A    between atoms: C2_3  and  C3_4 
ROOT
ATOM      1  C3  UNL d   1       1.820   0.207  -1.709  0.00  0.00    -0.075 A 
ATOM      2  C4  UNL d   1       2.500   0.692  -2.835  0.00  0.00     0.002 A 
ATOM      3  C5  UNL d   1       2.178   1.939  -3.374  0.00  0.00     0.002 A 
ATOM      4  C6  UNL d   1       1.169   2.709  -2.800  0.00  0.00    -0.004 A 
ATOM      5  C7  UNL d   1       0.476   2.229  -1.691  0.00  0.00     0.002 A 
ATOM      6  C8  UNL d   1       0.799   0.984  -1.148  0.00  0.00     0.002 A 
ENDROOT
BRANCH   1   7
ATOM      7  C2  UNL d   1       2.183  -1.128  -1.104  0.00  0.00     0.056 C 
BRANCH   7   8
ATOM      8  C1  UNL d   1       1.022  -2.127  -1.053  0.00  0.00     0.007 C 
ATOM      9  C   UNL d   1       0.231  -2.193  -2.353  0.00  0.00     0.009 C 
ENDBRANCH   7   8
ENDBRANCH   1   7
TORSDOF 2
ENDMDL
