MODEL 1
REMARK minimizedAffinity -1.09933221
REMARK minimizedRMSD -1
REMARK  2 active torsions:
REMARK  status: ('A' for Active; 'I' for Inactive)
REMARK    1  A    between atoms: C1_2  and  C2_3 
REMARK    2  A    between atoms: C2_3  and  C3_4 
ROOT
ATOM      1  C3  UNL d   1      -3.799   0.874   4.887  0.00  0.00    -0.075 A 
ATOM      2  C4  UNL d   1      -4.816   0.127   4.276  0.00  0.00     0.002 A 
ATOM      3  C5  UNL d   1      -4.505  -0.871   3.353  0.00  0.00     0.002 A 
ATOM      4  C6  UNL d   1      -3.176  -1.128   3.021  0.00  0.00    -0.004 A 
ATOM      5  C7  UNL d   1      -2.159  -0.380   3.609  0.00  0.00     0.002 A 
ATOM      6  C8  UNL d   1      -2.467   0.616   4.537  0.00  0.00     0.002 A 
ENDROOT
BRANCH   1   7
ATOM      7  C2  UNL d   1      -4.128   1.936   5.910  0.00  0.00     0.056 C 
BRANCH   7   8
ATOM      8  C1  UNL d   1      -3.376   3.255   5.703  0.00  0.00     0.007 C 
ATOM      9  C   UNL d   1      -4.226   4.483   6.000  0.00  0.00     0.009 C 
ENDBRANCH   7   8
ENDBRANCH   1   7
TORSDOF 2
ENDMDL
