MODEL 1
REMARK minimizedAffinity 5.16555786
REMARK minimizedRMSD -1
REMARK  2 active torsions:
REMARK  status: ('A' for Active; 'I' for Inactive)
REMARK    1  A    between atoms: C1_2  and  C2_3 
REMARK    2  A    between atoms: C2_3  and  C3_4 
ROOT
ATOM      1  C3  UNL d   1       2.154   0.199  -3.811  0.00  0.00    -0.075 A 
ATOM      2  C4  UNL d   1       1.321   1.267  -3.449  0.00  0.00     0.002 A 
ATOM      3  C5  UNL d   1       0.399   1.126  -2.411  0.00  0.00     0.002 A 
ATOM      4  C6  UNL d   1       0.293  -0.085  -1.730  0.00  0.00    -0.004 A 
ATOM      5  C7  UNL d   1       1.104  -1.158  -2.092  0.00  0.00     0.002 A 
ATOM      6  C8  UNL d   1       2.030  -1.018  -3.128  0.00  0.00     0.002 A 
ENDROOT
BRANCH   1   7
ATOM      7  C2  UNL d   1       3.174   0.354  -4.914  0.00  0.00     0.056 C 
BRANCH   7   8
ATOM      8  C1  UNL d   1       4.627   0.301  -4.432  0.00  0.00     0.007 C 
ATOM      9  C   UNL d   1       5.640   0.372  -5.567  0.00  0.00     0.009 C 
ENDBRANCH   7   8
ENDBRANCH   1   7
TORSDOF 2
ENDMDL
