MODEL 1
REMARK minimizedAffinity 4.6038518
REMARK minimizedRMSD -1
REMARK  2 active torsions:
REMARK  status: ('A' for Active; 'I' for Inactive)
REMARK    1  A    between atoms: C1_2  and  C2_3 
REMARK    2  A    between atoms: C2_3  and  C3_4 
ROOT
ATOM      1  C3  UNL d   1       1.731  -0.954  -2.386  0.00  0.00    -0.075 A 
ATOM      2  C4  UNL d   1       1.226  -0.195  -3.452  0.00  0.00     0.002 A 
ATOM      3  C5  UNL d   1       1.577   1.148  -3.594  0.00  0.00     0.002 A 
ATOM      4  C6  UNL d   1       2.426   1.751  -2.669  0.00  0.00    -0.004 A 
ATOM      5  C7  UNL d   1       2.921   1.011  -1.598  0.00  0.00     0.002 A 
ATOM      6  C8  UNL d   1       2.575  -0.334  -1.455  0.00  0.00     0.002 A 
ENDROOT
BRANCH   1   7
ATOM      7  C2  UNL d   1       1.379  -2.415  -2.243  0.00  0.00     0.056 C 
BRANCH   7   8
ATOM      8  C1  UNL d   1       0.046  -2.802  -2.892  0.00  0.00     0.007 C 
ATOM      9  C   UNL d   1      -1.146  -2.639  -1.958  0.00  0.00     0.009 C 
ENDBRANCH   7   8
ENDBRANCH   1   7
TORSDOF 2
ENDMDL
