MODEL 1
REMARK minimizedAffinity 3.89997077
REMARK minimizedRMSD -1
REMARK  2 active torsions:
REMARK  status: ('A' for Active; 'I' for Inactive)
REMARK    1  A    between atoms: C1_2  and  C2_3 
REMARK    2  A    between atoms: C2_3  and  C3_4 
ROOT
ATOM      1  C3  UNL d   1       2.403  -0.882  -1.903  0.00  0.00    -0.075 A 
ATOM      2  C4  UNL d   1       1.386  -1.747  -2.333  0.00  0.00     0.002 A 
ATOM      3  C5  UNL d   1       1.113  -2.922  -1.632  0.00  0.00     0.002 A 
ATOM      4  C6  UNL d   1       1.857  -3.252  -0.501  0.00  0.00    -0.004 A 
ATOM      5  C7  UNL d   1       2.880  -2.408  -0.074  0.00  0.00     0.002 A 
ATOM      6  C8  UNL d   1       3.153  -1.230  -0.771  0.00  0.00     0.002 A 
ENDROOT
BRANCH   1   7
ATOM      7  C2  UNL d   1       2.685   0.405  -2.640  0.00  0.00     0.056 C 
BRANCH   7   8
ATOM      8  C1  UNL d   1       1.698   1.534  -2.322  0.00  0.00     0.007 C 
ATOM      9  C   UNL d   1       1.081   2.159  -3.566  0.00  0.00     0.009 C 
ENDBRANCH   7   8
ENDBRANCH   1   7
TORSDOF 2
ENDMDL
