MODEL 1
REMARK minimizedAffinity 3.0599134
REMARK minimizedRMSD -1
REMARK  2 active torsions:
REMARK  status: ('A' for Active; 'I' for Inactive)
REMARK    1  A    between atoms: C1_2  and  C2_3 
REMARK    2  A    between atoms: C2_3  and  C3_4 
ROOT
ATOM      1  C3  UNL d   1       1.779   1.819  -3.158  0.00  0.00    -0.075 A 
ATOM      2  C4  UNL d   1       1.839   3.193  -2.884  0.00  0.00     0.002 A 
ATOM      3  C5  UNL d   1       1.563   4.127  -3.882  0.00  0.00     0.002 A 
ATOM      4  C6  UNL d   1       1.234   3.702  -5.167  0.00  0.00    -0.004 A 
ATOM      5  C7  UNL d   1       1.187   2.340  -5.455  0.00  0.00     0.002 A 
ATOM      6  C8  UNL d   1       1.458   1.402  -4.457  0.00  0.00     0.002 A 
ENDROOT
BRANCH   1   7
ATOM      7  C2  UNL d   1       2.048   0.802  -2.075  0.00  0.00     0.056 C 
BRANCH   7   8
ATOM      8  C1  UNL d   1       1.480  -0.590  -2.372  0.00  0.00     0.007 C 
ATOM      9  C   UNL d   1       1.909  -1.642  -1.358  0.00  0.00     0.009 C 
ENDBRANCH   7   8
ENDBRANCH   1   7
TORSDOF 2
ENDMDL
