MODEL 1
REMARK minimizedAffinity -1.77592504
REMARK minimizedRMSD -1
REMARK  2 active torsions:
REMARK  status: ('A' for Active; 'I' for Inactive)
REMARK    1  A    between atoms: C1_2  and  C2_3 
REMARK    2  A    between atoms: C2_3  and  C3_4 
ROOT
ATOM      1  C3  UNL d   1       1.413   1.930  -1.373  0.00  0.00    -0.075 A 
ATOM      2  C4  UNL d   1       2.221   2.172  -0.253  0.00  0.00     0.002 A 
ATOM      3  C5  UNL d   1       1.651   2.352   1.007  0.00  0.00     0.002 A 
ATOM      4  C6  UNL d   1       0.267   2.303   1.162  0.00  0.00    -0.004 A 
ATOM      5  C7  UNL d   1      -0.547   2.080   0.054  0.00  0.00     0.002 A 
ATOM      6  C8  UNL d   1       0.022   1.895  -1.207  0.00  0.00     0.002 A 
ENDROOT
BRANCH   1   7
ATOM      7  C2  UNL d   1       2.026   1.705  -2.734  0.00  0.00     0.056 C 
BRANCH   7   8
ATOM      8  C1  UNL d   1       1.480   2.633  -3.825  0.00  0.00     0.007 C 
ATOM      9  C   UNL d   1       1.188   1.913  -5.135  0.00  0.00     0.009 C 
ENDBRANCH   7   8
ENDBRANCH   1   7
TORSDOF 2
ENDMDL
