MODEL 1
REMARK minimizedAffinity 4.24813175
REMARK minimizedRMSD -1
REMARK  2 active torsions:
REMARK  status: ('A' for Active; 'I' for Inactive)
REMARK    1  A    between atoms: C1_2  and  C2_3 
REMARK    2  A    between atoms: C2_3  and  C3_4 
ROOT
ATOM      1  C3  UNL d   1       0.515   1.578  -1.264  0.00  0.00    -0.075 A 
ATOM      2  C4  UNL d   1      -0.852   1.845  -1.094  0.00  0.00     0.002 A 
ATOM      3  C5  UNL d   1      -1.331   2.347   0.116  0.00  0.00     0.002 A 
ATOM      4  C6  UNL d   1      -0.454   2.578   1.174  0.00  0.00    -0.004 A 
ATOM      5  C7  UNL d   1       0.903   2.301   1.022  0.00  0.00     0.002 A 
ATOM      6  C8  UNL d   1       1.386   1.803  -0.189  0.00  0.00     0.002 A 
ENDROOT
BRANCH   1   7
ATOM      7  C2  UNL d   1       1.044   1.063  -2.581  0.00  0.00     0.056 C 
BRANCH   7   8
ATOM      8  C1  UNL d   1       2.262   0.144  -2.447  0.00  0.00     0.007 C 
ATOM      9  C   UNL d   1       1.893  -1.308  -2.172  0.00  0.00     0.009 C 
ENDBRANCH   7   8
ENDBRANCH   1   7
TORSDOF 2
ENDMDL
