MODEL 1
REMARK minimizedAffinity 3.85672998
REMARK minimizedRMSD -1
REMARK  2 active torsions:
REMARK  status: ('A' for Active; 'I' for Inactive)
REMARK    1  A    between atoms: C1_2  and  C2_3 
REMARK    2  A    between atoms: C2_3  and  C3_4 
ROOT
ATOM      1  C3  UNL d   1       0.865   1.475  -1.688  0.00  0.00    -0.075 A 
ATOM      2  C4  UNL d   1      -0.381   1.687  -1.082  0.00  0.00     0.002 A 
ATOM      3  C5  UNL d   1      -0.462   2.053   0.262  0.00  0.00     0.002 A 
ATOM      4  C6  UNL d   1       0.699   2.200   1.018  0.00  0.00    -0.004 A 
ATOM      5  C7  UNL d   1       1.942   1.975   0.430  0.00  0.00     0.002 A 
ATOM      6  C8  UNL d   1       2.026   1.613  -0.915  0.00  0.00     0.002 A 
ENDROOT
BRANCH   1   7
ATOM      7  C2  UNL d   1       0.961   1.108  -3.150  0.00  0.00     0.056 C 
BRANCH   7   8
ATOM      8  C1  UNL d   1       0.695   2.276  -4.105  0.00  0.00     0.007 C 
ATOM      9  C   UNL d   1       0.966   1.933  -5.564  0.00  0.00     0.009 C 
ENDBRANCH   7   8
ENDBRANCH   1   7
TORSDOF 2
ENDMDL
