MODEL 1
REMARK minimizedAffinity 6.44826889
REMARK minimizedRMSD -1
REMARK  2 active torsions:
REMARK  status: ('A' for Active; 'I' for Inactive)
REMARK    1  A    between atoms: C1_2  and  C2_3 
REMARK    2  A    between atoms: C2_3  and  C3_4 
ROOT
ATOM      1  C3  UNL d   1       1.718   0.800  -2.089  0.00  0.00    -0.075 A 
ATOM      2  C4  UNL d   1       2.239  -0.484  -1.871  0.00  0.00     0.002 A 
ATOM      3  C5  UNL d   1       1.429  -1.500  -1.364  0.00  0.00     0.002 A 
ATOM      4  C6  UNL d   1       0.094  -1.245  -1.060  0.00  0.00    -0.004 A 
ATOM      5  C7  UNL d   1      -0.430   0.031  -1.256  0.00  0.00     0.002 A 
ATOM      6  C8  UNL d   1       0.377   1.049  -1.768  0.00  0.00     0.002 A 
ENDROOT
BRANCH   1   7
ATOM      7  C2  UNL d   1       2.581   1.897  -2.665  0.00  0.00     0.056 C 
BRANCH   7   8
ATOM      8  C1  UNL d   1       2.462   3.236  -1.929  0.00  0.00     0.007 C 
ATOM      9  C   UNL d   1       3.811   3.851  -1.581  0.00  0.00     0.009 C 
ENDBRANCH   7   8
ENDBRANCH   1   7
TORSDOF 2
ENDMDL
