MODEL 1
REMARK minimizedAffinity 1.55140674
REMARK minimizedRMSD -1
REMARK  2 active torsions:
REMARK  status: ('A' for Active; 'I' for Inactive)
REMARK    1  A    between atoms: C1_2  and  C2_3 
REMARK    2  A    between atoms: C2_3  and  C3_4 
ROOT
ATOM      1  C3  UNL d   1       2.345  -0.213  -1.728  0.00  0.00    -0.075 A 
ATOM      2  C4  UNL d   1       3.182   0.259  -2.748  0.00  0.00     0.002 A 
ATOM      3  C5  UNL d   1       2.961   1.511  -3.323  0.00  0.00     0.002 A 
ATOM      4  C6  UNL d   1       1.897   2.300  -2.893  0.00  0.00    -0.004 A 
ATOM      5  C7  UNL d   1       1.049   1.834  -1.891  0.00  0.00     0.002 A 
ATOM      6  C8  UNL d   1       1.270   0.583  -1.311  0.00  0.00     0.002 A 
ENDROOT
BRANCH   1   7
ATOM      7  C2  UNL d   1       2.597  -1.555  -1.081  0.00  0.00     0.056 C 
BRANCH   7   8
ATOM      8  C1  UNL d   1       1.430  -2.539  -1.213  0.00  0.00     0.007 C 
ATOM      9  C   UNL d   1       1.232  -3.405   0.024  0.00  0.00     0.009 C 
ENDBRANCH   7   8
ENDBRANCH   1   7
TORSDOF 2
ENDMDL
