MODEL 1
REMARK minimizedAffinity 2.83663964
REMARK minimizedRMSD -1
REMARK  2 active torsions:
REMARK  status: ('A' for Active; 'I' for Inactive)
REMARK    1  A    between atoms: C1_2  and  C2_3 
REMARK    2  A    between atoms: C2_3  and  C3_4 
ROOT
ATOM      1  C3  UNL d   1       0.313   1.614  -1.011  0.00  0.00    -0.075 A 
ATOM      2  C4  UNL d   1       1.117   0.502  -1.299  0.00  0.00     0.002 A 
ATOM      3  C5  UNL d   1       1.849   0.447  -2.486  0.00  0.00     0.002 A 
ATOM      4  C6  UNL d   1       1.778   1.494  -3.402  0.00  0.00    -0.004 A 
ATOM      5  C7  UNL d   1       0.969   2.596  -3.133  0.00  0.00     0.002 A 
ATOM      6  C8  UNL d   1       0.239   2.657  -1.944  0.00  0.00     0.002 A 
ENDROOT
BRANCH   1   7
ATOM      7  C2  UNL d   1      -0.459   1.694   0.285  0.00  0.00     0.056 C 
BRANCH   7   8
ATOM      8  C1  UNL d   1       0.098   2.718   1.280  0.00  0.00     0.007 C 
ATOM      9  C   UNL d   1       1.446   2.317   1.864  0.00  0.00     0.009 C 
ENDBRANCH   7   8
ENDBRANCH   1   7
TORSDOF 2
ENDMDL
