MODEL 1
REMARK minimizedAffinity -2.27130151
REMARK minimizedRMSD -1
REMARK  1 active torsions:
REMARK  status: ('A' for Active; 'I' for Inactive)
REMARK    1  A    between atoms: C1_2  and  C2_3 
ROOT
ATOM      1  C2  UNL d   1       1.265   0.234   0.863  0.00  0.00    -0.076 A 
ATOM      2  C3  UNL d   1       0.953  -1.135   0.777  0.00  0.00     0.004 A 
ATOM      3  C4  UNL d   1      -0.323  -1.558   0.412  0.00  0.00    -0.003 A 
ATOM      4  C5  UNL d   1      -1.310  -0.620   0.126  0.00  0.00     0.000 A 
ATOM      5  C6  UNL d   1      -1.014   0.741   0.189  0.00  0.00     0.000 A 
ATOM      6  C7  UNL d   1       0.273   1.185   0.540  0.00  0.00    -0.073 A 
ATOM      7  C8  UNL d   1       0.535   2.665   0.599  0.00  0.00     0.078 C 
ENDROOT
BRANCH   1   8
ATOM      8  C1  UNL d   1       2.659   0.634   1.290  0.00  0.00     0.053 C 
ATOM      9  C   UNL d   1       3.683  -0.460   1.033  0.00  0.00     0.018 C 
ENDBRANCH   1   8
TORSDOF 1
ENDMDL
