MODEL 1
REMARK minimizedAffinity -2.67305422
REMARK minimizedRMSD -1
REMARK  1 active torsions:
REMARK  status: ('A' for Active; 'I' for Inactive)
REMARK    1  A    between atoms: C1_2  and  C2_3 
ROOT
ATOM      1  C2  UNL d   1       1.472  -0.731   0.473  0.00  0.00    -0.076 A 
ATOM      2  C3  UNL d   1       0.939  -1.883   1.075  0.00  0.00     0.004 A 
ATOM      3  C4  UNL d   1      -0.410  -2.207   0.936  0.00  0.00    -0.003 A 
ATOM      4  C5  UNL d   1      -1.247  -1.383   0.191  0.00  0.00     0.000 A 
ATOM      5  C6  UNL d   1      -0.731  -0.245  -0.427  0.00  0.00     0.000 A 
ATOM      6  C7  UNL d   1       0.630   0.087  -0.310  0.00  0.00    -0.073 A 
ATOM      7  C8  UNL d   1       1.132   1.329  -0.994  0.00  0.00     0.078 C 
ENDROOT
BRANCH   1   8
ATOM      8  C1  UNL d   1       2.936  -0.416   0.682  0.00  0.00     0.053 C 
ATOM      9  C   UNL d   1       3.161   0.618   1.773  0.00  0.00     0.018 C 
ENDBRANCH   1   8
TORSDOF 1
ENDMDL
