MODEL 1
REMARK minimizedAffinity -2.49212956
REMARK minimizedRMSD -1
REMARK  1 active torsions:
REMARK  status: ('A' for Active; 'I' for Inactive)
REMARK    1  A    between atoms: C1_2  and  C2_3 
ROOT
ATOM      1  C2  UNL d   1       0.574   0.140   0.713  0.00  0.00    -0.076 A 
ATOM      2  C3  UNL d   1       0.310   1.193  -0.180  0.00  0.00     0.004 A 
ATOM      3  C4  UNL d   1      -0.772   1.136  -1.056  0.00  0.00    -0.003 A 
ATOM      4  C5  UNL d   1      -1.608   0.024  -1.054  0.00  0.00     0.000 A 
ATOM      5  C6  UNL d   1      -1.370  -1.022  -0.163  0.00  0.00     0.000 A 
ATOM      6  C7  UNL d   1      -0.294  -0.973   0.738  0.00  0.00    -0.073 A 
ATOM      7  C8  UNL d   1      -0.081  -2.132   1.673  0.00  0.00     0.078 C 
ENDROOT
BRANCH   1   8
ATOM      8  C1  UNL d   1       1.778   0.246   1.622  0.00  0.00     0.053 C 
ATOM      9  C   UNL d   1       3.048  -0.280   0.971  0.00  0.00     0.018 C 
ENDBRANCH   1   8
TORSDOF 1
ENDMDL
