MODEL 1
REMARK minimizedAffinity -4.5434823
REMARK minimizedRMSD -1
REMARK  1 active torsions:
REMARK  status: ('A' for Active; 'I' for Inactive)
REMARK    1  A    between atoms: C1_2  and  C2_3 
ROOT
ATOM      1  C2  UNL d   1       0.286  -0.510   0.405  0.00  0.00    -0.076 A 
ATOM      2  C3  UNL d   1       0.648   0.772   0.855  0.00  0.00     0.004 A 
ATOM      3  C4  UNL d   1       1.976   1.084   1.139  0.00  0.00    -0.003 A 
ATOM      4  C5  UNL d   1       2.965   0.121   0.976  0.00  0.00     0.000 A 
ATOM      5  C6  UNL d   1       2.627  -1.151   0.513  0.00  0.00     0.000 A 
ATOM      6  C7  UNL d   1       1.295  -1.477   0.207  0.00  0.00    -0.073 A 
ATOM      7  C8  UNL d   1       0.986  -2.866  -0.282  0.00  0.00     0.078 C 
ENDROOT
BRANCH   1   8
ATOM      8  C1  UNL d   1      -1.174  -0.799   0.140  0.00  0.00     0.053 C 
ATOM      9  C   UNL d   1      -1.577  -0.496  -1.295  0.00  0.00     0.018 C 
ENDBRANCH   1   8
TORSDOF 1
ENDMDL
