MODEL 1
REMARK minimizedAffinity -3.2492547
REMARK minimizedRMSD -1
REMARK  1 active torsions:
REMARK  status: ('A' for Active; 'I' for Inactive)
REMARK    1  A    between atoms: C1_2  and  C2_3 
ROOT
ATOM      1  C2  UNL d   1       1.492  -0.159   0.249  0.00  0.00    -0.076 A 
ATOM      2  C3  UNL d   1       0.640  -1.268   0.395  0.00  0.00     0.004 A 
ATOM      3  C4  UNL d   1      -0.728  -1.099   0.601  0.00  0.00    -0.003 A 
ATOM      4  C5  UNL d   1      -1.267   0.181   0.664  0.00  0.00     0.000 A 
ATOM      5  C6  UNL d   1      -0.439   1.292   0.503  0.00  0.00     0.000 A 
ATOM      6  C7  UNL d   1       0.939   1.139   0.279  0.00  0.00    -0.073 A 
ATOM      7  C8  UNL d   1       1.786   2.372   0.118  0.00  0.00     0.078 C 
ENDROOT
BRANCH   1   8
ATOM      8  C1  UNL d   1       2.971  -0.403   0.055  0.00  0.00     0.053 C 
ATOM      9  C   UNL d   1       3.728  -0.477   1.372  0.00  0.00     0.018 C 
ENDBRANCH   1   8
TORSDOF 1
ENDMDL
