MODEL 1
REMARK minimizedAffinity 3.94390655
REMARK minimizedRMSD -1
REMARK  1 active torsions:
REMARK  status: ('A' for Active; 'I' for Inactive)
REMARK    1  A    between atoms: C1_2  and  C2_3 
ROOT
ATOM      1  C2  UNL d   1       5.274   4.690  -4.773  0.00  0.00    -0.073 A 
ATOM      2  C3  UNL d   1       4.086   5.422  -4.873  0.00  0.00    -0.002 A 
ATOM      3  C4  UNL d   1       3.516   5.999  -3.737  0.00  0.00     0.004 A 
ATOM      4  C5  UNL d   1       4.131   5.855  -2.493  0.00  0.00    -0.004 A 
ATOM      5  C6  UNL d   1       5.325   5.137  -2.375  0.00  0.00    -0.075 A 
ATOM      6  C7  UNL d   1       5.998   4.972  -1.044  0.00  0.00     0.076 C 
ATOM      7  C8  UNL d   1       5.890   4.559  -3.520  0.00  0.00     0.001 A 
ENDROOT
BRANCH   1   8
ATOM      8  C1  UNL d   1       5.897   4.072  -5.998  0.00  0.00     0.053 C 
ATOM      9  C   UNL d   1       5.768   2.557  -6.000  0.00  0.00     0.018 C 
ENDBRANCH   1   8
TORSDOF 1
ENDMDL
