MODEL 1
REMARK minimizedAffinity 7.4069705
REMARK minimizedRMSD -1
REMARK  1 active torsions:
REMARK  status: ('A' for Active; 'I' for Inactive)
REMARK    1  A    between atoms: C1_2  and  C2_3 
ROOT
ATOM      1  C2  UNL d   1       3.250  -2.183   3.318  0.00  0.00    -0.073 A 
ATOM      2  C3  UNL d   1       3.379  -1.126   4.226  0.00  0.00    -0.002 A 
ATOM      3  C4  UNL d   1       3.696  -1.379   5.562  0.00  0.00     0.004 A 
ATOM      4  C5  UNL d   1       3.895  -2.688   6.000  0.00  0.00    -0.004 A 
ATOM      5  C6  UNL d   1       3.782  -3.757   5.105  0.00  0.00    -0.075 A 
ATOM      6  C7  UNL d   1       3.990  -5.171   5.561  0.00  0.00     0.076 C 
ATOM      7  C8  UNL d   1       3.461  -3.495   3.766  0.00  0.00     0.001 A 
ENDROOT
BRANCH   1   8
ATOM      8  C1  UNL d   1       2.914  -1.914   1.874  0.00  0.00     0.053 C 
ATOM      9  C   UNL d   1       4.150  -1.930   0.988  0.00  0.00     0.018 C 
ENDBRANCH   1   8
TORSDOF 1
ENDMDL
