MODEL 1
REMARK minimizedAffinity 2.94167447
REMARK minimizedRMSD -1
REMARK  1 active torsions:
REMARK  status: ('A' for Active; 'I' for Inactive)
REMARK    1  A    between atoms: C1_2  and  C2_3 
ROOT
ATOM      1  C2  UNL d   1       3.721  -2.158   5.153  0.00  0.00    -0.073 A 
ATOM      2  C3  UNL d   1       4.863  -2.733   5.721  0.00  0.00    -0.002 A 
ATOM      3  C4  UNL d   1       5.989  -2.987   4.937  0.00  0.00     0.004 A 
ATOM      4  C5  UNL d   1       5.988  -2.662   3.581  0.00  0.00    -0.004 A 
ATOM      5  C6  UNL d   1       4.860  -2.076   2.997  0.00  0.00    -0.075 A 
ATOM      6  C7  UNL d   1       4.842  -1.723   1.539  0.00  0.00     0.076 C 
ATOM      7  C8  UNL d   1       3.732  -1.827   3.791  0.00  0.00     0.001 A 
ENDROOT
BRANCH   1   8
ATOM      8  C1  UNL d   1       2.505  -1.877   5.997  0.00  0.00     0.053 C 
ATOM      9  C   UNL d   1       2.134  -0.402   5.989  0.00  0.00     0.018 C 
ENDBRANCH   1   8
TORSDOF 1
ENDMDL
