MODEL 1
REMARK minimizedAffinity 1.54274511
REMARK minimizedRMSD -1
REMARK  1 active torsions:
REMARK  status: ('A' for Active; 'I' for Inactive)
REMARK    1  A    between atoms: C1_2  and  C2_3 
ROOT
ATOM      1  C2  UNL d   1      -0.384  -4.400  -3.639  0.00  0.00    -0.073 A 
ATOM      2  C3  UNL d   1       0.007  -3.931  -2.380  0.00  0.00    -0.002 A 
ATOM      3  C4  UNL d   1       0.649  -2.698  -2.256  0.00  0.00     0.004 A 
ATOM      4  C5  UNL d   1       0.900  -1.920  -3.386  0.00  0.00    -0.004 A 
ATOM      5  C6  UNL d   1       0.507  -2.367  -4.652  0.00  0.00    -0.075 A 
ATOM      6  C7  UNL d   1       0.771  -1.543  -5.878  0.00  0.00     0.076 C 
ATOM      7  C8  UNL d   1      -0.135  -3.607  -4.769  0.00  0.00     0.001 A 
ENDROOT
BRANCH   1   8
ATOM      8  C1  UNL d   1      -1.083  -5.728  -3.778  0.00  0.00     0.053 C 
ATOM      9  C   UNL d   1      -1.511  -6.000  -5.211  0.00  0.00     0.018 C 
ENDBRANCH   1   8
TORSDOF 1
ENDMDL
