MODEL 1
REMARK minimizedAffinity 11.8974171
REMARK minimizedRMSD -1
REMARK  1 active torsions:
REMARK  status: ('A' for Active; 'I' for Inactive)
REMARK    1  A    between atoms: C1_2  and  C2_3 
ROOT
ATOM      1  C2  UNL d   1       0.889  -1.507  -1.936  0.00  0.00    -0.073 A 
ATOM      2  C3  UNL d   1       0.956  -0.693  -3.073  0.00  0.00    -0.002 A 
ATOM      3  C4  UNL d   1       2.146  -0.586  -3.794  0.00  0.00     0.004 A 
ATOM      4  C5  UNL d   1       3.277  -1.294  -3.390  0.00  0.00    -0.004 A 
ATOM      5  C6  UNL d   1       3.227  -2.122  -2.264  0.00  0.00    -0.075 A 
ATOM      6  C7  UNL d   1       4.436  -2.889  -1.815  0.00  0.00     0.076 C 
ATOM      7  C8  UNL d   1       2.029  -2.222  -1.544  0.00  0.00     0.001 A 
ENDROOT
BRANCH   1   8
ATOM      8  C1  UNL d   1      -0.396  -1.631  -1.158  0.00  0.00     0.053 C 
ATOM      9  C   UNL d   1      -0.177  -2.266   0.206  0.00  0.00     0.018 C 
ENDBRANCH   1   8
TORSDOF 1
ENDMDL
