MODEL 1
REMARK minimizedAffinity 2.22894597
REMARK minimizedRMSD -1
REMARK  1 active torsions:
REMARK  status: ('A' for Active; 'I' for Inactive)
REMARK    1  A    between atoms: C1_2  and  C2_3 
ROOT
ATOM      1  C2  UNL d   1       4.874  -1.923   2.605  0.00  0.00    -0.073 A 
ATOM      2  C3  UNL d   1       5.943  -2.708   2.156  0.00  0.00    -0.002 A 
ATOM      3  C4  UNL d   1       5.996  -3.132   0.827  0.00  0.00     0.004 A 
ATOM      4  C5  UNL d   1       4.987  -2.771  -0.066  0.00  0.00    -0.004 A 
ATOM      5  C6  UNL d   1       3.918  -1.977   0.361  0.00  0.00    -0.075 A 
ATOM      6  C7  UNL d   1       2.824  -1.582  -0.587  0.00  0.00     0.076 C 
ATOM      7  C8  UNL d   1       3.870  -1.557   1.697  0.00  0.00     0.001 A 
ENDROOT
BRANCH   1   8
ATOM      8  C1  UNL d   1       4.816  -1.457   4.037  0.00  0.00     0.053 C 
ATOM      9  C   UNL d   1       5.706  -2.291   4.944  0.00  0.00     0.018 C 
ENDBRANCH   1   8
TORSDOF 1
ENDMDL
