MODEL 1
REMARK minimizedAffinity 8.01506996
REMARK minimizedRMSD -1
REMARK  1 active torsions:
REMARK  status: ('A' for Active; 'I' for Inactive)
REMARK    1  A    between atoms: C1_2  and  C2_3 
ROOT
ATOM      1  C2  UNL d   1      -0.166  -2.826  -2.375  0.00  0.00    -0.073 A 
ATOM      2  C3  UNL d   1      -1.397  -2.178  -2.226  0.00  0.00    -0.002 A 
ATOM      3  C4  UNL d   1      -2.010  -2.106  -0.975  0.00  0.00     0.004 A 
ATOM      4  C5  UNL d   1      -1.396  -2.674   0.141  0.00  0.00    -0.004 A 
ATOM      5  C6  UNL d   1      -0.159  -3.316   0.016  0.00  0.00    -0.075 A 
ATOM      6  C7  UNL d   1       0.513  -3.934   1.206  0.00  0.00     0.076 C 
ATOM      7  C8  UNL d   1       0.448  -3.386  -1.245  0.00  0.00     0.001 A 
ENDROOT
BRANCH   1   8
ATOM      8  C1  UNL d   1       0.503  -2.901  -3.723  0.00  0.00     0.053 C 
ATOM      9  C   UNL d   1      -0.382  -2.347  -4.829  0.00  0.00     0.018 C 
ENDBRANCH   1   8
TORSDOF 1
ENDMDL
