MODEL 1
REMARK minimizedAffinity 5.35811615
REMARK minimizedRMSD -1
REMARK  1 active torsions:
REMARK  status: ('A' for Active; 'I' for Inactive)
REMARK    1  A    between atoms: C1_2  and  C2_3 
ROOT
ATOM      1  C2  UNL d   1       3.611   5.374  -3.478  0.00  0.00    -0.073 A 
ATOM      2  C3  UNL d   1       4.232   5.988  -2.383  0.00  0.00    -0.002 A 
ATOM      3  C4  UNL d   1       5.414   5.464  -1.859  0.00  0.00     0.004 A 
ATOM      4  C5  UNL d   1       5.991   4.328  -2.426  0.00  0.00    -0.004 A 
ATOM      5  C6  UNL d   1       5.393   3.708  -3.527  0.00  0.00    -0.075 A 
ATOM      6  C7  UNL d   1       5.999   2.484  -4.148  0.00  0.00     0.076 C 
ATOM      7  C8  UNL d   1       4.204   4.238  -4.047  0.00  0.00     0.001 A 
ENDROOT
BRANCH   1   8
ATOM      8  C1  UNL d   1       2.338   5.940  -4.051  0.00  0.00     0.053 C 
ATOM      9  C   UNL d   1       1.154   5.740  -3.118  0.00  0.00     0.018 C 
ENDBRANCH   1   8
TORSDOF 1
ENDMDL
