MODEL 1
REMARK minimizedAffinity 6.03437757
REMARK minimizedRMSD -1
REMARK  1 active torsions:
REMARK  status: ('A' for Active; 'I' for Inactive)
REMARK    1  A    between atoms: C1_2  and  C2_3 
ROOT
ATOM      1  C2  UNL d   1      -0.605  -2.196  -0.927  0.00  0.00    -0.073 A 
ATOM      2  C3  UNL d   1      -1.408  -3.024  -1.721  0.00  0.00    -0.002 A 
ATOM      3  C4  UNL d   1      -1.019  -3.345  -3.022  0.00  0.00     0.004 A 
ATOM      4  C5  UNL d   1       0.178  -2.849  -3.540  0.00  0.00    -0.004 A 
ATOM      5  C6  UNL d   1       0.999  -2.030  -2.758  0.00  0.00    -0.075 A 
ATOM      6  C7  UNL d   1       2.288  -1.486  -3.301  0.00  0.00     0.076 C 
ATOM      7  C8  UNL d   1       0.600  -1.709  -1.453  0.00  0.00     0.001 A 
ENDROOT
BRANCH   1   8
ATOM      8  C1  UNL d   1      -1.018  -1.851   0.480  0.00  0.00     0.053 C 
ATOM      9  C   UNL d   1      -1.898  -2.928   1.096  0.00  0.00     0.018 C 
ENDBRANCH   1   8
TORSDOF 1
ENDMDL
