MODEL 1
REMARK minimizedAffinity 2.65561843
REMARK minimizedRMSD -1
REMARK  1 active torsions:
REMARK  status: ('A' for Active; 'I' for Inactive)
REMARK    1  A    between atoms: C1_2  and  C2_3 
ROOT
ATOM      1  C2  UNL d   1      -0.774  -3.978  -3.740  0.00  0.00    -0.073 A 
ATOM      2  C3  UNL d   1       0.213  -3.138  -4.269  0.00  0.00    -0.002 A 
ATOM      3  C4  UNL d   1       0.726  -2.087  -3.508  0.00  0.00     0.004 A 
ATOM      4  C5  UNL d   1       0.264  -1.869  -2.210  0.00  0.00    -0.004 A 
ATOM      5  C6  UNL d   1      -0.713  -2.705  -1.660  0.00  0.00    -0.075 A 
ATOM      6  C7  UNL d   1      -1.223  -2.483  -0.266  0.00  0.00     0.076 C 
ATOM      7  C8  UNL d   1      -1.226  -3.757  -2.431  0.00  0.00     0.001 A 
ENDROOT
BRANCH   1   8
ATOM      8  C1  UNL d   1      -1.326  -5.118  -4.556  0.00  0.00     0.053 C 
ATOM      9  C   UNL d   1      -0.852  -5.068  -6.000  0.00  0.00     0.018 C 
ENDBRANCH   1   8
TORSDOF 1
ENDMDL
