MODEL 1
REMARK minimizedAffinity 9.69700718
REMARK minimizedRMSD -1
REMARK  1 active torsions:
REMARK  status: ('A' for Active; 'I' for Inactive)
REMARK    1  A    between atoms: C1_2  and  C2_3 
ROOT
ATOM      1  C2  UNL d   1      -0.747  -2.329  -1.045  0.00  0.00    -0.073 A 
ATOM      2  C3  UNL d   1      -0.186  -3.579  -0.761  0.00  0.00    -0.002 A 
ATOM      3  C4  UNL d   1       0.521  -4.274  -1.743  0.00  0.00     0.004 A 
ATOM      4  C5  UNL d   1       0.682  -3.724  -3.014  0.00  0.00    -0.004 A 
ATOM      5  C6  UNL d   1       0.140  -2.470  -3.314  0.00  0.00    -0.075 A 
ATOM      6  C7  UNL d   1       0.302  -1.865  -4.677  0.00  0.00     0.076 C 
ATOM      7  C8  UNL d   1      -0.572  -1.780  -2.323  0.00  0.00     0.001 A 
ENDROOT
BRANCH   1   8
ATOM      8  C1  UNL d   1      -1.506  -1.572   0.014  0.00  0.00     0.053 C 
ATOM      9  C   UNL d   1      -1.863  -2.454   1.200  0.00  0.00     0.018 C 
ENDBRANCH   1   8
TORSDOF 1
ENDMDL
