MODEL 1
REMARK minimizedAffinity 3.25875068
REMARK minimizedRMSD -1
REMARK  1 active torsions:
REMARK  status: ('A' for Active; 'I' for Inactive)
REMARK    1  A    between atoms: C1_2  and  C2_3 
ROOT
ATOM      1  C2  UNL d   1       1.256  -2.021  -2.575  0.00  0.00    -0.073 A 
ATOM      2  C3  UNL d   1       0.480  -2.758  -3.477  0.00  0.00    -0.002 A 
ATOM      3  C4  UNL d   1      -0.572  -3.552  -3.018  0.00  0.00     0.004 A 
ATOM      4  C5  UNL d   1      -0.863  -3.612  -1.656  0.00  0.00    -0.004 A 
ATOM      5  C6  UNL d   1      -0.106  -2.874  -0.739  0.00  0.00    -0.075 A 
ATOM      6  C7  UNL d   1      -0.405  -2.930   0.730  0.00  0.00     0.076 C 
ATOM      7  C8  UNL d   1       0.950  -2.081  -1.208  0.00  0.00     0.001 A 
ENDROOT
BRANCH   1   8
ATOM      8  C1  UNL d   1       2.389  -1.158  -3.067  0.00  0.00     0.053 C 
ATOM      9  C   UNL d   1       3.721  -1.888  -3.027  0.00  0.00     0.018 C 
ENDBRANCH   1   8
TORSDOF 1
ENDMDL
