MODEL 1
REMARK minimizedAffinity 0.677271128
REMARK minimizedRMSD -1
REMARK  1 active torsions:
REMARK  status: ('A' for Active; 'I' for Inactive)
REMARK    1  A    between atoms: C1_2  and  C2_3 
ROOT
ATOM      1  C2  UNL d   1       4.727   4.645  -4.803  0.00  0.00    -0.073 A 
ATOM      2  C3  UNL d   1       3.371   4.993  -4.773  0.00  0.00    -0.002 A 
ATOM      3  C4  UNL d   1       2.838   5.656  -3.667  0.00  0.00     0.004 A 
ATOM      4  C5  UNL d   1       3.654   5.984  -2.584  0.00  0.00    -0.004 A 
ATOM      5  C6  UNL d   1       5.014   5.656  -2.601  0.00  0.00    -0.075 A 
ATOM      6  C7  UNL d   1       5.905   5.999  -1.443  0.00  0.00     0.076 C 
ATOM      7  C8  UNL d   1       5.541   4.987  -3.714  0.00  0.00     0.001 A 
ENDROOT
BRANCH   1   8
ATOM      8  C1  UNL d   1       5.308   3.934  -5.998  0.00  0.00     0.053 C 
ATOM      9  C   UNL d   1       5.075   2.433  -5.937  0.00  0.00     0.018 C 
ENDBRANCH   1   8
TORSDOF 1
ENDMDL
