MODEL 1
REMARK minimizedAffinity 2.12446499
REMARK minimizedRMSD -1
REMARK  1 active torsions:
REMARK  status: ('A' for Active; 'I' for Inactive)
REMARK    1  A    between atoms: C1_2  and  C2_3 
ROOT
ATOM      1  C2  UNL d   1       5.314  -1.378   3.487  0.00  0.00    -0.073 A 
ATOM      2  C3  UNL d   1       5.240  -0.142   4.139  0.00  0.00    -0.002 A 
ATOM      3  C4  UNL d   1       4.614  -0.037   5.382  0.00  0.00     0.004 A 
ATOM      4  C5  UNL d   1       4.063  -1.166   5.988  0.00  0.00    -0.004 A 
ATOM      5  C6  UNL d   1       4.137  -2.412   5.358  0.00  0.00    -0.075 A 
ATOM      6  C7  UNL d   1       3.547  -3.636   5.996  0.00  0.00     0.076 C 
ATOM      7  C8  UNL d   1       4.764  -2.509   4.109  0.00  0.00     0.001 A 
ENDROOT
BRANCH   1   8
ATOM      8  C1  UNL d   1       5.994  -1.498   2.148  0.00  0.00     0.053 C 
ATOM      9  C   UNL d   1       5.020  -1.883   1.046  0.00  0.00     0.018 C 
ENDBRANCH   1   8
TORSDOF 1
ENDMDL
