MODEL 1
REMARK minimizedAffinity -1.46856678
REMARK minimizedRMSD -1
REMARK  0 active torsions:
REMARK  status: ('A' for Active; 'I' for Inactive)
ROOT
ATOM      1  C1  BNZ d   1       3.091  -5.982  -6.000  0.00  0.00     0.000 A 
ATOM      2  C2  BNZ d   1       2.402  -6.000  -4.816  0.00  0.00     0.000 A 
ATOM      3  C3  BNZ d   1       3.063  -5.954  -3.621  0.00  0.00     0.000 A 
ATOM      4  C4  BNZ d   1       4.412  -5.931  -3.610  0.00  0.00     0.000 A 
ATOM      5  C5  BNZ d   1       5.121  -5.923  -4.795  0.00  0.00     0.000 A 
ATOM      6  C6  BNZ d   1       4.451  -5.930  -5.996  0.00  0.00     0.000 A 
ENDROOT
TORSDOF 0
ENDMDL
