MODEL 1
REMARK minimizedAffinity 4.06169367
REMARK minimizedRMSD -1
REMARK  0 active torsions:
REMARK  status: ('A' for Active; 'I' for Inactive)
ROOT
ATOM      1  C1  BNZ d   1       5.999   5.960  -3.839  0.00  0.00     0.000 A 
ATOM      2  C2  BNZ d   1       5.997   5.999  -2.471  0.00  0.00     0.000 A 
ATOM      3  C3  BNZ d   1       4.830   5.880  -1.769  0.00  0.00     0.000 A 
ATOM      4  C4  BNZ d   1       3.664   5.762  -2.436  0.00  0.00     0.000 A 
ATOM      5  C5  BNZ d   1       3.649   5.730  -3.816  0.00  0.00     0.000 A 
ATOM      6  C6  BNZ d   1       4.830   5.811  -4.519  0.00  0.00     0.000 A 
ENDROOT
TORSDOF 0
ENDMDL
