MODEL 1
REMARK minimizedAffinity 0.931568623
REMARK minimizedRMSD -1
REMARK  0 active torsions:
REMARK  status: ('A' for Active; 'I' for Inactive)
ROOT
ATOM      1  C1  BNZ d   1       1.686  -5.814   0.832  0.00  0.00     0.000 A 
ATOM      2  C2  BNZ d   1       1.231  -5.998  -0.446  0.00  0.00     0.000 A 
ATOM      3  C3  BNZ d   1       2.097  -5.999  -1.504  0.00  0.00     0.000 A 
ATOM      4  C4  BNZ d   1       3.409  -5.777  -1.287  0.00  0.00     0.000 A 
ATOM      5  C5  BNZ d   1       3.882  -5.580  -0.005  0.00  0.00     0.000 A 
ATOM      6  C6  BNZ d   1       3.013  -5.618   1.062  0.00  0.00     0.000 A 
ENDROOT
TORSDOF 0
ENDMDL
