MODEL 1
REMARK minimizedAffinity 0.559733748
REMARK minimizedRMSD -1
REMARK  0 active torsions:
REMARK  status: ('A' for Active; 'I' for Inactive)
ROOT
ATOM      1  C1  BNZ d   1       3.352  -6.000   0.608  0.00  0.00     0.000 A 
ATOM      2  C2  BNZ d   1       4.153  -6.000  -0.502  0.00  0.00     0.000 A 
ATOM      3  C3  BNZ d   1       3.628  -5.768  -1.743  0.00  0.00     0.000 A 
ATOM      4  C4  BNZ d   1       2.300  -5.576  -1.877  0.00  0.00     0.000 A 
ATOM      5  C5  BNZ d   1       1.478  -5.582  -0.767  0.00  0.00     0.000 A 
ATOM      6  C6  BNZ d   1       2.015  -5.777   0.485  0.00  0.00     0.000 A 
ENDROOT
TORSDOF 0
ENDMDL
