MODEL 1
REMARK minimizedAffinity -1.26961505
REMARK minimizedRMSD -1
REMARK  0 active torsions:
REMARK  status: ('A' for Active; 'I' for Inactive)
ROOT
ATOM      1  C1  BNZ d   1       4.586  -5.661  -2.599  0.00  0.00     0.000 A 
ATOM      2  C2  BNZ d   1       3.539  -5.297  -3.403  0.00  0.00     0.000 A 
ATOM      3  C3  BNZ d   1       2.263  -5.257  -2.914  0.00  0.00     0.000 A 
ATOM      4  C4  BNZ d   1       2.030  -5.620  -1.636  0.00  0.00     0.000 A 
ATOM      5  C5  BNZ d   1       3.074  -5.999  -0.816  0.00  0.00     0.000 A 
ATOM      6  C6  BNZ d   1       4.363  -6.000  -1.300  0.00  0.00     0.000 A 
ENDROOT
TORSDOF 0
ENDMDL
