MODEL 1
REMARK minimizedAffinity -2.58901381
REMARK minimizedRMSD -1
REMARK  0 active torsions:
REMARK  status: ('A' for Active; 'I' for Inactive)
ROOT
ATOM      1  C1  BNZ d   1       5.994  -1.638  -5.141  0.00  0.00     0.000 A 
ATOM      2  C2  BNZ d   1       5.999  -3.007  -5.158  0.00  0.00     0.000 A 
ATOM      3  C3  BNZ d   1       4.914  -3.706  -5.606  0.00  0.00     0.000 A 
ATOM      4  C4  BNZ d   1       3.811  -3.037  -6.000  0.00  0.00     0.000 A 
ATOM      5  C5  BNZ d   1       3.786  -1.657  -5.981  0.00  0.00     0.000 A 
ATOM      6  C6  BNZ d   1       4.895  -0.956  -5.565  0.00  0.00     0.000 A 
ENDROOT
TORSDOF 0
ENDMDL
