MODEL 1
REMARK minimizedAffinity -3.12457061
REMARK minimizedRMSD -1
REMARK  0 active torsions:
REMARK  status: ('A' for Active; 'I' for Inactive)
ROOT
ATOM      1  C1  BNZ d   1       5.222   0.884  -4.508  0.00  0.00     0.000 A 
ATOM      2  C2  BNZ d   1       5.662   0.497  -5.746  0.00  0.00     0.000 A 
ATOM      3  C3  BNZ d   1       5.984  -0.807  -5.998  0.00  0.00     0.000 A 
ATOM      4  C4  BNZ d   1       5.903  -1.714  -5.004  0.00  0.00     0.000 A 
ATOM      5  C5  BNZ d   1       5.470  -1.338  -3.748  0.00  0.00     0.000 A 
ATOM      6  C6  BNZ d   1       5.110  -0.032  -3.508  0.00  0.00     0.000 A 
ENDROOT
TORSDOF 0
ENDMDL
