MODEL 1
REMARK minimizedAffinity 3.42372012
REMARK minimizedRMSD -1
REMARK  0 active torsions:
REMARK  status: ('A' for Active; 'I' for Inactive)
ROOT
ATOM      1  C1  BNZ d   1       0.412   2.214   0.697  0.00  0.00     0.000 A 
ATOM      2  C2  BNZ d   1      -0.334   1.085   0.911  0.00  0.00     0.000 A 
ATOM      3  C3  BNZ d   1       0.026  -0.108   0.351  0.00  0.00     0.000 A 
ATOM      4  C4  BNZ d   1       1.107  -0.164  -0.454  0.00  0.00     0.000 A 
ATOM      5  C5  BNZ d   1       1.864   0.967  -0.687  0.00  0.00     0.000 A 
ATOM      6  C6  BNZ d   1       1.521   2.158  -0.090  0.00  0.00     0.000 A 
ENDROOT
TORSDOF 0
ENDMDL
