MODEL 1
REMARK minimizedAffinity -0.540803611
REMARK minimizedRMSD -1
REMARK  0 active torsions:
REMARK  status: ('A' for Active; 'I' for Inactive)
ROOT
ATOM      1  C1  BNZ d   1       0.082   1.122  -0.927  0.00  0.00     0.000 A 
ATOM      2  C2  BNZ d   1       0.530  -0.056  -1.463  0.00  0.00     0.000 A 
ATOM      3  C3  BNZ d   1       1.334  -0.892  -0.740  0.00  0.00     0.000 A 
ATOM      4  C4  BNZ d   1       1.722  -0.531   0.501  0.00  0.00     0.000 A 
ATOM      5  C5  BNZ d   1       1.286   0.658   1.051  0.00  0.00     0.000 A 
ATOM      6  C6  BNZ d   1       0.445   1.479   0.335  0.00  0.00     0.000 A 
ENDROOT
TORSDOF 0
ENDMDL
