MODEL 1
REMARK minimizedAffinity 3.24678373
REMARK minimizedRMSD -1
REMARK  1 active torsions:
REMARK  status: ('A' for Active; 'I' for Inactive)
REMARK    1  A    between atoms: C3_4  and  O_7 
ROOT
ATOM      1  C   UNL d   1       1.842   0.041  -0.623  0.00  0.00    -0.033 A 
ATOM      2  C1  UNL d   1       2.576   1.054  -1.244  0.00  0.00     0.039 A 
ATOM      3  C2  UNL d   1       2.739   1.050  -2.631  0.00  0.00    -0.080 A 
ATOM      4  C3  UNL d   1       2.163   0.031  -3.384  0.00  0.00     0.150 A 
ATOM      5  C4  UNL d   1       1.426  -0.978  -2.773  0.00  0.00    -0.007 A 
ATOM      6  C5  UNL d   1       1.266  -0.974  -1.388  0.00  0.00     0.039 A 
ENDROOT
BRANCH   4   7
ATOM      7  O   UNL d   1       2.298  -0.017  -4.740  0.00  0.00    -0.526 OA
ATOM      8  H5  UNL d   1       2.855   0.728  -5.020  0.00  0.00     0.418 HD
ENDBRANCH   4   7
TORSDOF 1
ENDMDL
