MODEL 1
REMARK minimizedAffinity 6.19349194
REMARK minimizedRMSD -1
REMARK  1 active torsions:
REMARK  status: ('A' for Active; 'I' for Inactive)
REMARK    1  A    between atoms: C3_4  and  O_7 
ROOT
ATOM      1  C   UNL d   1      -0.751  -4.672  -2.194  0.00  0.00    -0.033 A 
ATOM      2  C1  UNL d   1      -0.091  -4.165  -3.315  0.00  0.00     0.039 A 
ATOM      3  C2  UNL d   1      -0.824  -3.738  -4.424  0.00  0.00    -0.080 A 
ATOM      4  C3  UNL d   1      -2.214  -3.823  -4.399  0.00  0.00     0.150 A 
ATOM      5  C4  UNL d   1      -2.877  -4.323  -3.284  0.00  0.00    -0.007 A 
ATOM      6  C5  UNL d   1      -2.143  -4.750  -2.177  0.00  0.00     0.039 A 
ENDROOT
BRANCH   4   7
ATOM      7  O   UNL d   1      -2.972  -3.423  -5.459  0.00  0.00    -0.526 OA
ATOM      8  H5  UNL d   1      -2.377  -3.127  -6.168  0.00  0.00     0.418 HD
ENDBRANCH   4   7
TORSDOF 1
ENDMDL
