MODEL 1
REMARK minimizedAffinity 1.72623181
REMARK minimizedRMSD -1
REMARK  1 active torsions:
REMARK  status: ('A' for Active; 'I' for Inactive)
REMARK    1  A    between atoms: C3_4  and  O_7 
ROOT
ATOM      1  C   UNL d   1      -0.510  -5.370  -2.456  0.00  0.00    -0.033 A 
ATOM      2  C1  UNL d   1       0.073  -4.607  -3.470  0.00  0.00     0.039 A 
ATOM      3  C2  UNL d   1      -0.733  -3.916  -4.377  0.00  0.00    -0.080 A 
ATOM      4  C3  UNL d   1      -2.118  -3.996  -4.259  0.00  0.00     0.150 A 
ATOM      5  C4  UNL d   1      -2.705  -4.751  -3.249  0.00  0.00    -0.007 A 
ATOM      6  C5  UNL d   1      -1.899  -5.441  -2.345  0.00  0.00     0.039 A 
ENDROOT
BRANCH   4   7
ATOM      7  O   UNL d   1      -2.946  -3.343  -5.124  0.00  0.00    -0.526 OA
ATOM      8  H5  UNL d   1      -2.400  -2.885  -5.786  0.00  0.00     0.418 HD
ENDBRANCH   4   7
TORSDOF 1
ENDMDL
