MODEL 1
REMARK minimizedAffinity 8.24252224
REMARK minimizedRMSD -1
REMARK  1 active torsions:
REMARK  status: ('A' for Active; 'I' for Inactive)
REMARK    1  A    between atoms: C3_4  and  O_7 
ROOT
ATOM      1  C   UNL d   1       1.305   1.444   4.194  0.00  0.00    -0.033 A 
ATOM      2  C1  UNL d   1       1.186   0.605   3.085  0.00  0.00     0.039 A 
ATOM      3  C2  UNL d   1       0.018   0.617   2.320  0.00  0.00    -0.080 A 
ATOM      4  C3  UNL d   1      -1.022   1.471   2.675  0.00  0.00     0.150 A 
ATOM      5  C4  UNL d   1      -0.909   2.312   3.777  0.00  0.00    -0.007 A 
ATOM      6  C5  UNL d   1       0.258   2.299   4.540  0.00  0.00     0.039 A 
ENDROOT
BRANCH   4   7
ATOM      7  O   UNL d   1      -2.183   1.514   1.962  0.00  0.00    -0.526 OA
ATOM      8  H5  UNL d   1      -2.130   0.859   1.247  0.00  0.00     0.418 HD
ENDBRANCH   4   7
TORSDOF 1
ENDMDL
