MODEL 1
REMARK minimizedAffinity 5.7928834
REMARK minimizedRMSD -1
REMARK  1 active torsions:
REMARK  status: ('A' for Active; 'I' for Inactive)
REMARK    1  A    between atoms: C3_4  and  O_7 
ROOT
ATOM      1  C   UNL d   1       1.900   0.055  -2.372  0.00  0.00    -0.033 A 
ATOM      2  C1  UNL d   1       1.441  -1.159  -2.885  0.00  0.00     0.039 A 
ATOM      3  C2  UNL d   1       1.765  -2.357  -2.245  0.00  0.00    -0.080 A 
ATOM      4  C3  UNL d   1       2.546  -2.327  -1.093  0.00  0.00     0.150 A 
ATOM      5  C4  UNL d   1       3.004  -1.120  -0.574  0.00  0.00    -0.007 A 
ATOM      6  C5  UNL d   1       2.681   0.075  -1.215  0.00  0.00     0.039 A 
ENDROOT
BRANCH   4   7
ATOM      7  O   UNL d   1       2.892  -3.470  -0.436  0.00  0.00    -0.526 OA
ATOM      8  H5  UNL d   1       2.530  -4.228  -0.925  0.00  0.00     0.418 HD
ENDBRANCH   4   7
TORSDOF 1
ENDMDL
