MODEL 1
REMARK minimizedAffinity 4.48623276
REMARK minimizedRMSD -1
REMARK  1 active torsions:
REMARK  status: ('A' for Active; 'I' for Inactive)
REMARK    1  A    between atoms: C3_4  and  O_7 
ROOT
ATOM      1  C   UNL d   1       1.051  -1.628  -2.442  0.00  0.00    -0.033 A 
ATOM      2  C1  UNL d   1       0.545  -2.926  -2.526  0.00  0.00     0.039 A 
ATOM      3  C2  UNL d   1       1.147  -3.960  -1.807  0.00  0.00    -0.080 A 
ATOM      4  C3  UNL d   1       2.252  -3.683  -1.008  0.00  0.00     0.150 A 
ATOM      5  C4  UNL d   1       2.760  -2.391  -0.916  0.00  0.00    -0.007 A 
ATOM      6  C5  UNL d   1       2.158  -1.360  -1.635  0.00  0.00     0.039 A 
ENDROOT
BRANCH   4   7
ATOM      7  O   UNL d   1       2.876  -4.661  -0.291  0.00  0.00    -0.526 OA
ATOM      8  H5  UNL d   1       2.434  -5.506  -0.474  0.00  0.00     0.418 HD
ENDBRANCH   4   7
TORSDOF 1
ENDMDL
