MODEL 1
REMARK minimizedAffinity 11.3160162
REMARK minimizedRMSD -1
REMARK  1 active torsions:
REMARK  status: ('A' for Active; 'I' for Inactive)
REMARK    1  A    between atoms: C3_4  and  O_7 
ROOT
ATOM      1  C   UNL d   1      -3.231  -0.222   3.877  0.00  0.00    -0.033 A 
ATOM      2  C1  UNL d   1      -3.585  -1.431   4.480  0.00  0.00     0.039 A 
ATOM      3  C2  UNL d   1      -4.514  -2.274   3.866  0.00  0.00    -0.080 A 
ATOM      4  C3  UNL d   1      -5.081  -1.896   2.652  0.00  0.00     0.150 A 
ATOM      5  C4  UNL d   1      -4.731  -0.695   2.044  0.00  0.00    -0.007 A 
ATOM      6  C5  UNL d   1      -3.803   0.145   2.659  0.00  0.00     0.039 A 
ENDROOT
BRANCH   4   7
ATOM      7  O   UNL d   1      -5.996  -2.683   2.018  0.00  0.00    -0.526 OA
ATOM      8  H5  UNL d   1      -6.162  -3.467   2.568  0.00  0.00     0.418 HD
ENDBRANCH   4   7
TORSDOF 1
ENDMDL
