MODEL 1
REMARK minimizedAffinity 11.9842749
REMARK minimizedRMSD -1
REMARK  1 active torsions:
REMARK  status: ('A' for Active; 'I' for Inactive)
REMARK    1  A    between atoms: C3_4  and  O_7 
ROOT
ATOM      1  C   UNL d   1      -0.382  -3.773  -2.145  0.00  0.00    -0.033 A 
ATOM      2  C1  UNL d   1      -1.393  -4.697  -1.876  0.00  0.00     0.039 A 
ATOM      3  C2  UNL d   1      -2.615  -4.612  -2.546  0.00  0.00    -0.080 A 
ATOM      4  C3  UNL d   1      -2.812  -3.601  -3.482  0.00  0.00     0.150 A 
ATOM      5  C4  UNL d   1      -1.808  -2.679  -3.758  0.00  0.00    -0.007 A 
ATOM      6  C5  UNL d   1      -0.588  -2.765  -3.087  0.00  0.00     0.039 A 
ENDROOT
BRANCH   4   7
ATOM      7  O   UNL d   1      -3.990  -3.475  -4.158  0.00  0.00    -0.526 OA
ATOM      8  H5  UNL d   1      -4.600  -4.163  -3.844  0.00  0.00     0.418 HD
ENDBRANCH   4   7
TORSDOF 1
ENDMDL
