MODEL 1
REMARK minimizedAffinity 7.36541367
REMARK minimizedRMSD -1
REMARK  1 active torsions:
REMARK  status: ('A' for Active; 'I' for Inactive)
REMARK    1  A    between atoms: C3_4  and  O_7 
ROOT
ATOM      1  C   UNL d   1       2.937  -1.355  -0.446  0.00  0.00    -0.033 A 
ATOM      2  C1  UNL d   1       3.229   0.005  -0.559  0.00  0.00     0.039 A 
ATOM      3  C2  UNL d   1       2.839   0.712  -1.698  0.00  0.00    -0.080 A 
ATOM      4  C3  UNL d   1       2.157   0.048  -2.714  0.00  0.00     0.150 A 
ATOM      5  C4  UNL d   1       1.858  -1.306  -2.606  0.00  0.00    -0.007 A 
ATOM      6  C5  UNL d   1       2.250  -2.011  -1.468  0.00  0.00     0.039 A 
ENDROOT
BRANCH   4   7
ATOM      7  O   UNL d   1       1.759   0.695  -3.847  0.00  0.00    -0.526 OA
ATOM      8  H5  UNL d   1       2.059   1.618  -3.795  0.00  0.00     0.418 HD
ENDBRANCH   4   7
TORSDOF 1
ENDMDL
