MODEL 1
REMARK minimizedAffinity 9.81712723
REMARK minimizedRMSD -1
REMARK  1 active torsions:
REMARK  status: ('A' for Active; 'I' for Inactive)
REMARK    1  A    between atoms: C3_4  and  O_7 
ROOT
ATOM      1  C   UNL d   1      -4.509   3.005   5.972  0.00  0.00    -0.033 A 
ATOM      2  C1  UNL d   1      -3.329   2.260   5.996  0.00  0.00     0.039 A 
ATOM      3  C2  UNL d   1      -2.934   1.538   4.868  0.00  0.00    -0.080 A 
ATOM      4  C3  UNL d   1      -3.727   1.569   3.725  0.00  0.00     0.150 A 
ATOM      5  C4  UNL d   1      -4.903   2.312   3.693  0.00  0.00    -0.007 A 
ATOM      6  C5  UNL d   1      -5.296   3.032   4.820  0.00  0.00     0.039 A 
ENDROOT
BRANCH   4   7
ATOM      7  O   UNL d   1      -3.386   0.876   2.601  0.00  0.00    -0.526 OA
ATOM      8  H5  UNL d   1      -2.566   0.386   2.779  0.00  0.00     0.418 HD
ENDBRANCH   4   7
TORSDOF 1
ENDMDL
