MODEL 1
REMARK minimizedAffinity 6.1705327
REMARK minimizedRMSD -1
REMARK  1 active torsions:
REMARK  status: ('A' for Active; 'I' for Inactive)
REMARK    1  A    between atoms: C3_4  and  O_7 
ROOT
ATOM      1  C   UNL d   1      -0.485  -2.498  -2.441  0.00  0.00    -0.033 A 
ATOM      2  C1  UNL d   1      -0.513  -3.893  -2.389  0.00  0.00     0.039 A 
ATOM      3  C2  UNL d   1      -1.683  -4.582  -2.715  0.00  0.00    -0.080 A 
ATOM      4  C3  UNL d   1      -2.816  -3.865  -3.090  0.00  0.00     0.150 A 
ATOM      5  C4  UNL d   1      -2.794  -2.475  -3.147  0.00  0.00    -0.007 A 
ATOM      6  C5  UNL d   1      -1.625  -1.789  -2.821  0.00  0.00     0.039 A 
ENDROOT
BRANCH   4   7
ATOM      7  O   UNL d   1      -3.982  -4.493  -3.412  0.00  0.00    -0.526 OA
ATOM      8  H5  UNL d   1      -3.858  -5.450  -3.300  0.00  0.00     0.418 HD
ENDBRANCH   4   7
TORSDOF 1
ENDMDL
