MODEL 1
REMARK minimizedAffinity 15.8711624
REMARK minimizedRMSD -1
REMARK  1 active torsions:
REMARK  status: ('A' for Active; 'I' for Inactive)
REMARK    1  A    between atoms: C3_4  and  O_7 
ROOT
ATOM      1  C   UNL d   1      -3.005   0.582   5.125  0.00  0.00    -0.033 A 
ATOM      2  C1  UNL d   1      -3.349   0.585   3.772  0.00  0.00     0.039 A 
ATOM      3  C2  UNL d   1      -4.292   1.496   3.292  0.00  0.00    -0.080 A 
ATOM      4  C3  UNL d   1      -4.881   2.398   4.173  0.00  0.00     0.150 A 
ATOM      5  C4  UNL d   1      -4.541   2.403   5.522  0.00  0.00    -0.007 A 
ATOM      6  C5  UNL d   1      -3.600   1.492   6.000  0.00  0.00     0.039 A 
ENDROOT
BRANCH   4   7
ATOM      7  O   UNL d   1      -5.810   3.303   3.752  0.00  0.00    -0.526 OA
ATOM      8  H5  UNL d   1      -5.967   3.164   2.803  0.00  0.00     0.418 HD
ENDBRANCH   4   7
TORSDOF 1
ENDMDL
