MODEL 1
REMARK minimizedAffinity 15.1834564
REMARK minimizedRMSD -1
REMARK  1 active torsions:
REMARK  status: ('A' for Active; 'I' for Inactive)
REMARK    1  A    between atoms: C3_4  and  O_7 
ROOT
ATOM      1  C   UNL d   1      -1.107   1.054   2.188  0.00  0.00    -0.033 A 
ATOM      2  C1  UNL d   1      -1.761   1.266   3.403  0.00  0.00     0.039 A 
ATOM      3  C2  UNL d   1      -1.037   1.268   4.597  0.00  0.00    -0.080 A 
ATOM      4  C3  UNL d   1       0.339   1.059   4.562  0.00  0.00     0.150 A 
ATOM      5  C4  UNL d   1       0.998   0.851   3.355  0.00  0.00    -0.007 A 
ATOM      6  C5  UNL d   1       0.273   0.848   2.164  0.00  0.00     0.039 A 
ENDROOT
BRANCH   4   7
ATOM      7  O   UNL d   1       1.087   1.048   5.702  0.00  0.00    -0.526 OA
ATOM      8  H5  UNL d   1       0.493   1.176   6.461  0.00  0.00     0.418 HD
ENDBRANCH   4   7
TORSDOF 1
ENDMDL
