MODEL 1
REMARK minimizedAffinity 3.98637962
REMARK minimizedRMSD -1
REMARK  1 active torsions:
REMARK  status: ('A' for Active; 'I' for Inactive)
REMARK    1  A    between atoms: C3_4  and  O_7 
ROOT
ATOM      1  C   UNL d   1       2.382  -1.914  -0.324  0.00  0.00    -0.033 A 
ATOM      2  C1  UNL d   1       2.132  -3.288  -0.341  0.00  0.00     0.039 A 
ATOM      3  C2  UNL d   1       1.804  -3.924  -1.540  0.00  0.00    -0.080 A 
ATOM      4  C3  UNL d   1       1.731  -3.177  -2.712  0.00  0.00     0.150 A 
ATOM      5  C4  UNL d   1       1.983  -1.809  -2.703  0.00  0.00    -0.007 A 
ATOM      6  C5  UNL d   1       2.310  -1.175  -1.505  0.00  0.00     0.039 A 
ENDROOT
BRANCH   4   7
ATOM      7  O   UNL d   1       1.410  -3.753  -3.906  0.00  0.00    -0.526 OA
ATOM      8  H5  UNL d   1       1.234  -4.696  -3.754  0.00  0.00     0.418 HD
ENDBRANCH   4   7
TORSDOF 1
ENDMDL
