MODEL 1
REMARK minimizedAffinity -4.22284555
REMARK minimizedRMSD -1
REMARK  1 active torsions:
REMARK  status: ('A' for Active; 'I' for Inactive)
REMARK    1  A    between atoms: C3_4  and  O_7 
ROOT
ATOM      1  C   UNL d   1       2.004  -1.346  -2.599  0.00  0.00    -0.033 A 
ATOM      2  C1  UNL d   1       2.054  -1.314  -1.204  0.00  0.00     0.039 A 
ATOM      3  C2  UNL d   1       2.386  -2.467  -0.489  0.00  0.00    -0.080 A 
ATOM      4  C3  UNL d   1       2.667  -3.643  -1.180  0.00  0.00     0.150 A 
ATOM      5  C4  UNL d   1       2.623  -3.680  -2.570  0.00  0.00    -0.007 A 
ATOM      6  C5  UNL d   1       2.290  -2.529  -3.282  0.00  0.00     0.039 A 
ENDROOT
BRANCH   4   7
ATOM      7  O   UNL d   1       2.991  -4.794  -0.526  0.00  0.00    -0.526 OA
ATOM      8  H5  UNL d   1       2.954  -4.625   0.430  0.00  0.00     0.418 HD
ENDBRANCH   4   7
TORSDOF 1
ENDMDL
