MODEL 1
REMARK minimizedAffinity -2.75366807
REMARK minimizedRMSD -1
REMARK  1 active torsions:
REMARK  status: ('A' for Active; 'I' for Inactive)
REMARK    1  A    between atoms: C1_2  and  C2_3 
ROOT
ATOM      1  C2  UNL d   1       2.725  -2.957  -5.702  0.00  0.00    -0.081 A 
ATOM      2  C3  UNL d   1       2.475  -4.333  -5.763  0.00  0.00     0.006 A 
ATOM      3  C4  UNL d   1       3.532  -5.241  -5.868  0.00  0.00     0.002 A 
ATOM      4  C5  UNL d   1       4.855  -4.789  -5.907  0.00  0.00    -0.080 A 
ATOM      5  C6  UNL d   1       6.000  -5.754  -5.990  0.00  0.00     0.076 C 
ATOM      6  C7  UNL d   1       5.104  -3.413  -5.864  0.00  0.00     0.002 A 
ATOM      7  C8  UNL d   1       4.048  -2.505  -5.759  0.00  0.00     0.006 A 
ENDROOT
BRANCH   1   8
ATOM      8  C1  UNL d   1       1.592  -1.979  -5.523  0.00  0.00     0.054 C 
ATOM      9  C   UNL d   1       0.746  -2.329  -4.307  0.00  0.00     0.018 C 
ENDBRANCH   1   8
TORSDOF 1
ENDMDL
