MODEL 1
REMARK minimizedAffinity 7.77828312
REMARK minimizedRMSD -1
REMARK  1 active torsions:
REMARK  status: ('A' for Active; 'I' for Inactive)
REMARK    1  A    between atoms: C1_2  and  C2_3 
ROOT
ATOM      1  C2  UNL d   1       0.938   2.622  -2.813  0.00  0.00    -0.081 A 
ATOM      2  C3  UNL d   1       0.458   3.535  -1.866  0.00  0.00     0.006 A 
ATOM      3  C4  UNL d   1       1.240   4.622  -1.470  0.00  0.00     0.002 A 
ATOM      4  C5  UNL d   1       2.511   4.820  -2.019  0.00  0.00    -0.080 A 
ATOM      5  C6  UNL d   1       3.349   6.000  -1.625  0.00  0.00     0.076 C 
ATOM      6  C7  UNL d   1       2.998   3.898  -2.953  0.00  0.00     0.002 A 
ATOM      7  C8  UNL d   1       2.217   2.811  -3.348  0.00  0.00     0.006 A 
ENDROOT
BRANCH   1   8
ATOM      8  C1  UNL d   1       0.071   1.485  -3.290  0.00  0.00     0.054 C 
ATOM      9  C   UNL d   1      -1.404   1.778  -3.056  0.00  0.00     0.018 C 
ENDBRANCH   1   8
TORSDOF 1
ENDMDL
