MODEL 1
REMARK minimizedAffinity 7.56989717
REMARK minimizedRMSD -1
REMARK  1 active torsions:
REMARK  status: ('A' for Active; 'I' for Inactive)
REMARK    1  A    between atoms: C1_2  and  C2_3 
ROOT
ATOM      1  C2  UNL d   1      -3.494   2.027  -2.884  0.00  0.00    -0.081 A 
ATOM      2  C3  UNL d   1      -2.209   2.400  -2.471  0.00  0.00     0.006 A 
ATOM      3  C4  UNL d   1      -1.174   1.462  -2.443  0.00  0.00     0.002 A 
ATOM      4  C5  UNL d   1      -1.404   0.139  -2.834  0.00  0.00    -0.080 A 
ATOM      5  C6  UNL d   1      -0.295  -0.870  -2.837  0.00  0.00     0.076 C 
ATOM      6  C7  UNL d   1      -2.692  -0.238  -3.230  0.00  0.00     0.002 A 
ATOM      7  C8  UNL d   1      -3.727   0.699  -3.258  0.00  0.00     0.006 A 
ENDROOT
BRANCH   1   8
ATOM      8  C1  UNL d   1      -4.596   3.051  -2.977  0.00  0.00     0.054 C 
ATOM      9  C   UNL d   1      -4.154   4.269  -3.775  0.00  0.00     0.018 C 
ENDBRANCH   1   8
TORSDOF 1
ENDMDL
