MODEL 1
REMARK minimizedAffinity 2.5731101
REMARK minimizedRMSD -1
REMARK  1 active torsions:
REMARK  status: ('A' for Active; 'I' for Inactive)
REMARK    1  A    between atoms: C1_2  and  C2_3 
ROOT
ATOM      1  C2  UNL d   1       3.711  -3.508  -5.633  0.00  0.00    -0.081 A 
ATOM      2  C3  UNL d   1       4.048  -2.354  -4.916  0.00  0.00     0.006 A 
ATOM      3  C4  UNL d   1       3.063  -1.430  -4.557  0.00  0.00     0.002 A 
ATOM      4  C5  UNL d   1       1.725  -1.649  -4.903  0.00  0.00    -0.080 A 
ATOM      5  C6  UNL d   1       0.654  -0.681  -4.498  0.00  0.00     0.076 C 
ATOM      6  C7  UNL d   1       1.391  -2.793  -5.635  0.00  0.00     0.002 A 
ATOM      7  C8  UNL d   1       2.375  -3.717  -5.994  0.00  0.00     0.006 A 
ENDROOT
BRANCH   1   8
ATOM      8  C1  UNL d   1       4.760  -4.538  -5.965  0.00  0.00     0.054 C 
ATOM      9  C   UNL d   1       4.170  -5.940  -5.996  0.00  0.00     0.018 C 
ENDBRANCH   1   8
TORSDOF 1
ENDMDL
