MODEL 1
REMARK minimizedAffinity 2.31640458
REMARK minimizedRMSD -1
REMARK  1 active torsions:
REMARK  status: ('A' for Active; 'I' for Inactive)
REMARK    1  A    between atoms: C1_2  and  C2_3 
ROOT
ATOM      1  C2  UNL d   1       3.374  -2.950  -4.327  0.00  0.00    -0.081 A 
ATOM      2  C3  UNL d   1       3.170  -4.295  -3.995  0.00  0.00     0.006 A 
ATOM      3  C4  UNL d   1       4.010  -5.286  -4.508  0.00  0.00     0.002 A 
ATOM      4  C5  UNL d   1       5.072  -4.949  -5.354  0.00  0.00    -0.080 A 
ATOM      5  C6  UNL d   1       6.000  -6.000  -5.887  0.00  0.00     0.076 C 
ATOM      6  C7  UNL d   1       5.265  -3.607  -5.700  0.00  0.00     0.002 A 
ATOM      7  C8  UNL d   1       4.425  -2.616  -5.188  0.00  0.00     0.006 A 
ENDROOT
BRANCH   1   8
ATOM      8  C1  UNL d   1       2.509  -1.873  -3.724  0.00  0.00     0.054 C 
ATOM      9  C   UNL d   1       1.150  -2.420  -3.311  0.00  0.00     0.018 C 
ENDBRANCH   1   8
TORSDOF 1
ENDMDL
