MODEL 1
REMARK minimizedAffinity -3.91124535
REMARK minimizedRMSD -1
REMARK  1 active torsions:
REMARK  status: ('A' for Active; 'I' for Inactive)
REMARK    1  A    between atoms: N_2  and  C1_3 
ROOT
ATOM      1  C1  UNL d   1      -1.017   0.621   0.950  0.00  0.00     0.143 A 
ATOM      2  C2  UNL d   1      -1.111   1.393  -0.212  0.00  0.00    -0.057 A 
ATOM      3  C3  UNL d   1      -0.431   1.031  -1.382  0.00  0.00     0.033 A 
ATOM      4  C4  UNL d   1       0.380  -0.100  -1.400  0.00  0.00    -0.042 A 
ATOM      5  C5  UNL d   1       0.507  -0.868  -0.249  0.00  0.00     0.033 A 
ATOM      6  C6  UNL d   1      -0.179  -0.505   0.914  0.00  0.00    -0.057 A 
ENDROOT
BRANCH   1   7
ATOM      7  N   UNL d   1      -1.589   0.982   2.172  0.00  0.00    -0.732 N 
ATOM      8  C   UNL d   1      -0.875   0.770   3.413  0.00  0.00     0.284 C 
ATOM      9  H3  UNL d   1      -2.081   1.872   2.123  0.00  0.00     0.395 HD
ENDBRANCH   1   7
TORSDOF 1
ENDMDL
