MODEL 1
REMARK minimizedAffinity -5.23240995
REMARK minimizedRMSD -1
REMARK  1 active torsions:
REMARK  status: ('A' for Active; 'I' for Inactive)
REMARK    1  A    between atoms: N_2  and  C1_3 
ROOT
ATOM      1  C1  UNL d   1       0.258   0.576   0.862  0.00  0.00     0.143 A 
ATOM      2  C2  UNL d   1       1.229   0.311   1.834  0.00  0.00    -0.057 A 
ATOM      3  C3  UNL d   1       0.969   0.514   3.195  0.00  0.00     0.033 A 
ATOM      4  C4  UNL d   1      -0.262   1.015   3.607  0.00  0.00    -0.042 A 
ATOM      5  C5  UNL d   1      -1.233   1.309   2.656  0.00  0.00     0.033 A 
ATOM      6  C6  UNL d   1      -0.970   1.097   1.300  0.00  0.00    -0.057 A 
ENDROOT
BRANCH   1   7
ATOM      7  N   UNL d   1       0.489   0.488  -0.513  0.00  0.00    -0.732 N 
ATOM      8  C   UNL d   1       0.681  -0.799  -1.147  0.00  0.00     0.284 C 
ATOM      9  H3  UNL d   1      -0.091   1.132  -1.046  0.00  0.00     0.395 HD
ENDBRANCH   1   7
TORSDOF 1
ENDMDL
