MODEL 1
REMARK minimizedAffinity -1.61527598
REMARK minimizedRMSD -1
REMARK  1 active torsions:
REMARK  status: ('A' for Active; 'I' for Inactive)
REMARK    1  A    between atoms: N_2  and  C1_3 
ROOT
ATOM      1  C1  UNL d   1       0.053  -0.401  -0.046  0.00  0.00     0.143 A 
ATOM      2  C2  UNL d   1       0.091   0.067   1.272  0.00  0.00    -0.057 A 
ATOM      3  C3  UNL d   1      -1.085   0.284   2.000  0.00  0.00     0.033 A 
ATOM      4  C4  UNL d   1      -2.325   0.061   1.412  0.00  0.00    -0.042 A 
ATOM      5  C5  UNL d   1      -2.388  -0.381   0.095  0.00  0.00     0.033 A 
ATOM      6  C6  UNL d   1      -1.210  -0.601  -0.625  0.00  0.00    -0.057 A 
ENDROOT
BRANCH   1   7
ATOM      7  N   UNL d   1       1.183  -0.542  -0.855  0.00  0.00    -0.732 N 
ATOM      8  C   UNL d   1       1.443   0.395  -1.927  0.00  0.00     0.284 C 
ATOM      9  H3  UNL d   1       2.010  -0.807  -0.324  0.00  0.00     0.395 HD
ENDBRANCH   1   7
TORSDOF 1
ENDMDL
