MODEL 1
REMARK minimizedAffinity -1.22073901
REMARK minimizedRMSD -1
REMARK  0 active torsions:
REMARK  status: ('A' for Active; 'I' for Inactive)
ROOT
ATOM      1  O1  BZF d   1       0.460  -0.049   0.947  0.00  0.00    -0.204 OA
ATOM      2  C2  BZF d   1      -0.734  -0.311   1.590  0.00  0.00     0.174 A 
ATOM      3  C3  BZF d   1      -1.764   0.267   0.938  0.00  0.00    -0.012 A 
ATOM      4  C3A BZF d   1      -1.188   0.854  -0.232  0.00  0.00    -0.107 A 
ATOM      5  C4  BZF d   1      -1.705   1.556  -1.283  0.00  0.00     0.055 A 
ATOM      6  C5  BZF d   1      -0.861   2.052  -2.226  0.00  0.00    -0.016 A 
ATOM      7  C6  BZF d   1       0.504   1.869  -2.147  0.00  0.00     0.022 A 
ATOM      8  C7  BZF d   1       1.063   1.176  -1.126  0.00  0.00     0.029 A 
ATOM      9  C7A BZF d   1       0.210   0.645  -0.189  0.00  0.00     0.058 A 
ENDROOT
TORSDOF 0
ENDMDL
