MODEL 1
REMARK minimizedAffinity -0.704672635
REMARK minimizedRMSD -1
REMARK  0 active torsions:
REMARK  status: ('A' for Active; 'I' for Inactive)
ROOT
ATOM      1  O1  BZF d   1       0.718  -0.787  -1.409  0.00  0.00    -0.204 OA
ATOM      2  C2  BZF d   1      -0.210  -0.088  -2.156  0.00  0.00     0.174 A 
ATOM      3  C3  BZF d   1      -1.161   0.444  -1.361  0.00  0.00    -0.012 A 
ATOM      4  C3A BZF d   1      -0.754   0.131  -0.026  0.00  0.00    -0.107 A 
ATOM      5  C4  BZF d   1      -1.281   0.403   1.204  0.00  0.00     0.055 A 
ATOM      6  C5  BZF d   1      -0.679  -0.110   2.309  0.00  0.00    -0.016 A 
ATOM      7  C6  BZF d   1       0.448  -0.902   2.220  0.00  0.00     0.022 A 
ATOM      8  C7  BZF d   1       1.010  -1.194   1.022  0.00  0.00     0.029 A 
ATOM      9  C7A BZF d   1       0.422  -0.651  -0.094  0.00  0.00     0.058 A 
ENDROOT
TORSDOF 0
ENDMDL
