MODEL 1
REMARK minimizedAffinity -2.91912532
REMARK minimizedRMSD -1
REMARK  0 active torsions:
REMARK  status: ('A' for Active; 'I' for Inactive)
ROOT
ATOM      1  O1  BZF d   1      -1.268   0.097  -0.019  0.00  0.00    -0.204 OA
ATOM      2  C2  BZF d   1      -0.672   0.094  -1.265  0.00  0.00     0.174 A 
ATOM      3  C3  BZF d   1       0.661  -0.083  -1.158  0.00  0.00    -0.012 A 
ATOM      4  C3A BZF d   1       0.901  -0.289   0.238  0.00  0.00    -0.107 A 
ATOM      5  C4  BZF d   1       2.027  -0.535   0.970  0.00  0.00     0.055 A 
ATOM      6  C5  BZF d   1       1.931  -0.614   2.323  0.00  0.00    -0.016 A 
ATOM      7  C6  BZF d   1       0.728  -0.448   2.976  0.00  0.00     0.022 A 
ATOM      8  C7  BZF d   1      -0.418  -0.207   2.292  0.00  0.00     0.029 A 
ATOM      9  C7A BZF d   1      -0.329  -0.160   0.923  0.00  0.00     0.058 A 
ENDROOT
TORSDOF 0
ENDMDL
