MODEL 1
REMARK minimizedAffinity -2.15296459
REMARK minimizedRMSD -1
REMARK  0 active torsions:
REMARK  status: ('A' for Active; 'I' for Inactive)
ROOT
ATOM      1  O1  BZF d   1       1.163   0.479  -1.190  0.00  0.00    -0.204 OA
ATOM      2  C2  BZF d   1       0.078   0.799  -1.983  0.00  0.00     0.174 A 
ATOM      3  C3  BZF d   1      -1.078   0.562  -1.330  0.00  0.00    -0.012 A 
ATOM      4  C3A BZF d   1      -0.690   0.149  -0.016  0.00  0.00    -0.107 A 
ATOM      5  C4  BZF d   1      -1.390  -0.210   1.100  0.00  0.00     0.055 A 
ATOM      6  C5  BZF d   1      -0.711  -0.630   2.199  0.00  0.00    -0.016 A 
ATOM      7  C6  BZF d   1       0.666  -0.708   2.216  0.00  0.00     0.022 A 
ATOM      8  C7  BZF d   1       1.404  -0.358   1.134  0.00  0.00     0.029 A 
ATOM      9  C7A BZF d   1       0.722   0.099   0.033  0.00  0.00     0.058 A 
ENDROOT
TORSDOF 0
ENDMDL
