MODEL 1
REMARK minimizedAffinity -2.54208326
REMARK minimizedRMSD -1
REMARK  0 active torsions:
REMARK  status: ('A' for Active; 'I' for Inactive)
ROOT
ATOM      1  O1  BZF d   1      -1.612  -0.441  -0.239  0.00  0.00    -0.204 OA
ATOM      2  C2  BZF d   1      -2.393  -0.202   0.875  0.00  0.00     0.174 A 
ATOM      3  C3  BZF d   1      -1.624   0.054   1.953  0.00  0.00    -0.012 A 
ATOM      4  C3A BZF d   1      -0.280   0.061   1.463  0.00  0.00    -0.107 A 
ATOM      5  C4  BZF d   1       0.934   0.273   2.052  0.00  0.00     0.055 A 
ATOM      6  C5  BZF d   1       2.063   0.136   1.309  0.00  0.00    -0.016 A 
ATOM      7  C6  BZF d   1       2.015  -0.218  -0.024  0.00  0.00     0.022 A 
ATOM      8  C7  BZF d   1       0.835  -0.434  -0.654  0.00  0.00     0.029 A 
ATOM      9  C7A BZF d   1      -0.309  -0.264   0.087  0.00  0.00     0.058 A 
ENDROOT
TORSDOF 0
ENDMDL
