MODEL 1
REMARK minimizedAffinity -1.42105329
REMARK minimizedRMSD -1
REMARK  0 active torsions:
REMARK  status: ('A' for Active; 'I' for Inactive)
ROOT
ATOM      1  O1  BZF d   1      -0.260  -1.000   2.940  0.00  0.00    -0.204 OA
ATOM      2  C2  BZF d   1      -1.608  -0.912   2.653  0.00  0.00     0.174 A 
ATOM      3  C3  BZF d   1      -1.805  -0.330   1.452  0.00  0.00    -0.012 A 
ATOM      4  C3A BZF d   1      -0.495  -0.120   0.916  0.00  0.00    -0.107 A 
ATOM      5  C4  BZF d   1      -0.033   0.408  -0.255  0.00  0.00     0.055 A 
ATOM      6  C5  BZF d   1       1.307   0.537  -0.439  0.00  0.00    -0.016 A 
ATOM      7  C6  BZF d   1       2.213   0.153   0.529  0.00  0.00     0.022 A 
ATOM      8  C7  BZF d   1       1.803  -0.380   1.705  0.00  0.00     0.029 A 
ATOM      9  C7A BZF d   1       0.450  -0.542   1.880  0.00  0.00     0.058 A 
ENDROOT
TORSDOF 0
ENDMDL
