MODEL 1
REMARK minimizedAffinity -4.1576519
REMARK minimizedRMSD -1
REMARK  0 active torsions:
REMARK  status: ('A' for Active; 'I' for Inactive)
ROOT
ATOM      1  O1  BZF d   1       0.040  -0.716   3.518  0.00  0.00    -0.204 OA
ATOM      2  C2  BZF d   1       1.399  -0.954   3.577  0.00  0.00     0.174 A 
ATOM      3  C3  BZF d   1       1.987  -0.666   2.399  0.00  0.00    -0.012 A 
ATOM      4  C3A BZF d   1       0.944  -0.132   1.578  0.00  0.00    -0.107 A 
ATOM      5  C4  BZF d   1       0.907   0.350   0.301  0.00  0.00     0.055 A 
ATOM      6  C5  BZF d   1      -0.286   0.728  -0.229  0.00  0.00    -0.016 A 
ATOM      7  C6  BZF d   1      -1.461   0.631   0.487  0.00  0.00     0.022 A 
ATOM      8  C7  BZF d   1      -1.475   0.163   1.759  0.00  0.00     0.029 A 
ATOM      9  C7A BZF d   1      -0.266  -0.188   2.309  0.00  0.00     0.058 A 
ENDROOT
TORSDOF 0
ENDMDL
