MODEL 1
REMARK minimizedAffinity 4.5527482
REMARK minimizedRMSD -1
REMARK  0 active torsions:
REMARK  status: ('A' for Active; 'I' for Inactive)
ROOT
ATOM      1  C4' PXY d   1      -4.921   0.220   4.390  0.00  0.00     0.077 C 
ATOM      2  C1' PXY d   1       0.071   1.144   1.626  0.00  0.00     0.077 C 
ATOM      3  C1  PXY d   1      -1.238   0.913   2.356  0.00  0.00    -0.082 A 
ATOM      4  C2  PXY d   1      -1.647  -0.323   2.590  0.00  0.00     0.003 A 
ATOM      5  C3  PXY d   1      -2.843  -0.550   3.221  0.00  0.00     0.003 A 
ATOM      6  C4  PXY d   1      -3.603   0.500   3.664  0.00  0.00    -0.082 A 
ATOM      7  C5  PXY d   1      -3.186   1.764   3.439  0.00  0.00     0.003 A 
ATOM      8  C6  PXY d   1      -1.989   1.973   2.761  0.00  0.00     0.003 A 
ENDROOT
TORSDOF 0
ENDMDL
