MODEL 1
REMARK minimizedAffinity 10.2366781
REMARK minimizedRMSD -1
REMARK  0 active torsions:
REMARK  status: ('A' for Active; 'I' for Inactive)
ROOT
ATOM      1  C4' PXY d   1       1.519   1.968  -0.635  0.00  0.00     0.077 C 
ATOM      2  C1' PXY d   1      -2.201  -0.814   2.807  0.00  0.00     0.077 C 
ATOM      3  C1  PXY d   1      -1.222  -0.096   1.899  0.00  0.00    -0.082 A 
ATOM      4  C2  PXY d   1      -0.724   1.074   2.268  0.00  0.00     0.003 A 
ATOM      5  C3  PXY d   1       0.137   1.752   1.444  0.00  0.00     0.003 A 
ATOM      6  C4  PXY d   1       0.535   1.203   0.255  0.00  0.00    -0.082 A 
ATOM      7  C5  PXY d   1       0.040   0.005  -0.124  0.00  0.00     0.003 A 
ATOM      8  C6  PXY d   1      -0.866  -0.648   0.707  0.00  0.00     0.003 A 
ENDROOT
TORSDOF 0
ENDMDL
