MODEL 1
REMARK minimizedAffinity 2.50328708
REMARK minimizedRMSD -1
REMARK  0 active torsions:
REMARK  status: ('A' for Active; 'I' for Inactive)
ROOT
ATOM      1  C4' PXY d   1      -1.628  -1.511   2.022  0.00  0.00     0.077 C 
ATOM      2  C1' PXY d   1       3.158   1.695   1.545  0.00  0.00     0.077 C 
ATOM      3  C1  PXY d   1       1.897   0.864   1.676  0.00  0.00    -0.082 A 
ATOM      4  C2  PXY d   1       1.979  -0.456   1.666  0.00  0.00     0.003 A 
ATOM      5  C3  PXY d   1       0.846  -1.223   1.751  0.00  0.00     0.003 A 
ATOM      6  C4  PXY d   1      -0.380  -0.632   1.902  0.00  0.00    -0.082 A 
ATOM      7  C5  PXY d   1      -0.472   0.714   1.924  0.00  0.00     0.003 A 
ATOM      8  C6  PXY d   1       0.686   1.475   1.795  0.00  0.00     0.003 A 
ENDROOT
TORSDOF 0
ENDMDL
