MODEL 1
REMARK minimizedAffinity 4.20825338
REMARK minimizedRMSD -1
REMARK  0 active torsions:
REMARK  status: ('A' for Active; 'I' for Inactive)
ROOT
ATOM      1  C4' PXY d   1      -2.479  -0.479   4.088  0.00  0.00     0.077 C 
ATOM      2  C1' PXY d   1       1.345   1.028   0.024  0.00  0.00     0.077 C 
ATOM      3  C1  PXY d   1       0.338   0.623   1.082  0.00  0.00    -0.082 A 
ATOM      4  C2  PXY d   1      -0.084   1.518   1.960  0.00  0.00     0.003 A 
ATOM      5  C3  PXY d   1      -0.970   1.161   2.943  0.00  0.00     0.003 A 
ATOM      6  C4  PXY d   1      -1.470  -0.112   2.996  0.00  0.00    -0.082 A 
ATOM      7  C5  PXY d   1      -1.052  -1.029   2.098  0.00  0.00     0.003 A 
ATOM      8  C6  PXY d   1      -0.121  -0.657   1.133  0.00  0.00     0.003 A 
ENDROOT
TORSDOF 0
ENDMDL
