MODEL 1
REMARK minimizedAffinity 10.399231
REMARK minimizedRMSD -1
REMARK  0 active torsions:
REMARK  status: ('A' for Active; 'I' for Inactive)
ROOT
ATOM      1  C4' PXY d   1       6.000   2.698  -6.000  0.00  0.00     0.077 C 
ATOM      2  C1' PXY d   1       2.288  -0.764  -3.233  0.00  0.00     0.077 C 
ATOM      3  C1  PXY d   1       3.268   0.146  -3.947  0.00  0.00    -0.082 A 
ATOM      4  C2  PXY d   1       2.917   0.719  -5.087  0.00  0.00     0.003 A 
ATOM      5  C3  PXY d   1       3.802   1.519  -5.763  0.00  0.00     0.003 A 
ATOM      6  C4  PXY d   1       5.040   1.779  -5.239  0.00  0.00    -0.082 A 
ATOM      7  C5  PXY d   1       5.402   1.207  -4.071  0.00  0.00     0.003 A 
ATOM      8  C6  PXY d   1       4.504   0.364  -3.422  0.00  0.00     0.003 A 
ENDROOT
TORSDOF 0
ENDMDL
