MODEL 1
REMARK minimizedAffinity 8.15427113
REMARK minimizedRMSD -1
REMARK  0 active torsions:
REMARK  status: ('A' for Active; 'I' for Inactive)
ROOT
ATOM      1  C4' PXY d   1      -4.159  -2.089  -2.304  0.00  0.00     0.077 C 
ATOM      2  C1' PXY d   1       0.465  -2.623  -5.731  0.00  0.00     0.077 C 
ATOM      3  C1  PXY d   1      -0.754  -2.491  -4.840  0.00  0.00    -0.082 A 
ATOM      4  C2  PXY d   1      -0.896  -1.418  -4.079  0.00  0.00     0.003 A 
ATOM      5  C3  PXY d   1      -1.976  -1.297  -3.244  0.00  0.00     0.003 A 
ATOM      6  C4  PXY d   1      -2.949  -2.260  -3.226  0.00  0.00    -0.082 A 
ATOM      7  C5  PXY d   1      -2.818  -3.353  -4.007  0.00  0.00     0.003 A 
ATOM      8  C6  PXY d   1      -1.693  -3.476  -4.818  0.00  0.00     0.003 A 
ENDROOT
TORSDOF 0
ENDMDL
