MODEL 1
REMARK minimizedAffinity 3.74853754
REMARK minimizedRMSD -1
REMARK  0 active torsions:
REMARK  status: ('A' for Active; 'I' for Inactive)
ROOT
ATOM      1  C4' PXY d   1      -1.925  -5.992   2.032  0.00  0.00     0.077 C 
ATOM      2  C1' PXY d   1       3.713  -5.988   3.307  0.00  0.00     0.077 C 
ATOM      3  C1  PXY d   1       2.232  -5.994   2.984  0.00  0.00    -0.082 A 
ATOM      4  C2  PXY d   1       1.838  -6.000   1.721  0.00  0.00     0.003 A 
ATOM      5  C3  PXY d   1       0.502  -5.973   1.411  0.00  0.00     0.003 A 
ATOM      6  C4  PXY d   1      -0.440  -5.995   2.404  0.00  0.00    -0.082 A 
ATOM      7  C5  PXY d   1      -0.046  -6.000   3.695  0.00  0.00     0.003 A 
ATOM      8  C6  PXY d   1       1.315  -5.985   3.989  0.00  0.00     0.003 A 
ENDROOT
TORSDOF 0
ENDMDL
