MODEL 1
REMARK minimizedAffinity -2.00731945
REMARK minimizedRMSD -1
REMARK  0 active torsions:
REMARK  status: ('A' for Active; 'I' for Inactive)
ROOT
ATOM      1  C4' PXY d   1      -1.339  -5.985   0.954  0.00  0.00     0.077 C 
ATOM      2  C1' PXY d   1       2.185  -5.992   5.537  0.00  0.00     0.077 C 
ATOM      3  C1  PXY d   1       1.270  -5.985   4.328  0.00  0.00    -0.082 A 
ATOM      4  C2  PXY d   1      -0.041  -5.974   4.500  0.00  0.00     0.003 A 
ATOM      5  C3  PXY d   1      -0.883  -5.999   3.418  0.00  0.00     0.003 A 
ATOM      6  C4  PXY d   1      -0.377  -5.983   2.146  0.00  0.00    -0.082 A 
ATOM      7  C5  PXY d   1       0.960  -5.984   1.962  0.00  0.00     0.003 A 
ATOM      8  C6  PXY d   1       1.798  -6.000   3.074  0.00  0.00     0.003 A 
ENDROOT
TORSDOF 0
ENDMDL
