MODEL 1
REMARK minimizedAffinity 7.89607048
REMARK minimizedRMSD -1
REMARK  0 active torsions:
REMARK  status: ('A' for Active; 'I' for Inactive)
ROOT
ATOM      1  C4' PXY d   1       0.477  -2.433  -4.843  0.00  0.00     0.077 C 
ATOM      2  C1' PXY d   1       4.521   1.132  -2.758  0.00  0.00     0.077 C 
ATOM      3  C1  PXY d   1       3.460   0.192  -3.293  0.00  0.00    -0.082 A 
ATOM      4  C2  PXY d   1       3.418  -0.078  -4.587  0.00  0.00     0.003 A 
ATOM      5  C3  PXY d   1       2.444  -0.901  -5.093  0.00  0.00     0.003 A 
ATOM      6  C4  PXY d   1       1.537  -1.496  -4.257  0.00  0.00    -0.082 A 
ATOM      7  C5  PXY d   1       1.580  -1.234  -2.934  0.00  0.00     0.003 A 
ATOM      8  C6  PXY d   1       2.551  -0.363  -2.446  0.00  0.00     0.003 A 
ENDROOT
TORSDOF 0
ENDMDL
