MODEL 1
REMARK minimizedAffinity 2.91537261
REMARK minimizedRMSD -1
REMARK  0 active torsions:
REMARK  status: ('A' for Active; 'I' for Inactive)
ROOT
ATOM      1  C4' PXY d   1       3.463  -5.975   2.987  0.00  0.00     0.077 C 
ATOM      2  C1' PXY d   1      -2.317  -5.997   2.889  0.00  0.00     0.077 C 
ATOM      3  C1  PXY d   1      -0.801  -5.986   2.927  0.00  0.00    -0.082 A 
ATOM      4  C2  PXY d   1      -0.119  -5.977   1.793  0.00  0.00     0.003 A 
ATOM      5  C3  PXY d   1       1.252  -5.999   1.809  0.00  0.00     0.003 A 
ATOM      6  C4  PXY d   1       1.932  -5.977   2.997  0.00  0.00    -0.082 A 
ATOM      7  C5  PXY d   1       1.243  -5.976   4.158  0.00  0.00     0.003 A 
ATOM      8  C6  PXY d   1      -0.148  -5.995   4.120  0.00  0.00     0.003 A 
ENDROOT
TORSDOF 0
ENDMDL
