MODEL 1
REMARK minimizedAffinity 5.91100216
REMARK minimizedRMSD -1
REMARK  0 active torsions:
REMARK  status: ('A' for Active; 'I' for Inactive)
ROOT
ATOM      1  C4' PXY d   1       2.518  -5.926   5.390  0.00  0.00     0.077 C 
ATOM      2  C1' PXY d   1      -1.476  -5.988   1.212  0.00  0.00     0.077 C 
ATOM      3  C1  PXY d   1      -0.438  -5.967   2.316  0.00  0.00    -0.082 A 
ATOM      4  C2  PXY d   1       0.848  -5.927   2.004  0.00  0.00     0.003 A 
ATOM      5  C3  PXY d   1       1.801  -5.940   2.989  0.00  0.00     0.003 A 
ATOM      6  C4  PXY d   1       1.434  -5.939   4.308  0.00  0.00    -0.082 A 
ATOM      7  C5  PXY d   1       0.125  -5.969   4.635  0.00  0.00     0.003 A 
ATOM      8  C6  PXY d   1      -0.827  -5.998   3.619  0.00  0.00     0.003 A 
ENDROOT
TORSDOF 0
ENDMDL
