MODEL 1
REMARK minimizedAffinity 8.51822376
REMARK minimizedRMSD -1
REMARK  0 active torsions:
REMARK  status: ('A' for Active; 'I' for Inactive)
ROOT
ATOM      1  C4' PXY d   1       0.983   1.797  -0.931  0.00  0.00     0.077 C 
ATOM      2  C1' PXY d   1      -1.666  -1.104   3.310  0.00  0.00     0.077 C 
ATOM      3  C1  PXY d   1      -0.969  -0.354   2.191  0.00  0.00    -0.082 A 
ATOM      4  C2  PXY d   1      -0.416   0.822   2.438  0.00  0.00     0.003 A 
ATOM      5  C3  PXY d   1       0.190   1.528   1.431  0.00  0.00     0.003 A 
ATOM      6  C4  PXY d   1       0.278   1.001   0.170  0.00  0.00    -0.082 A 
ATOM      7  C5  PXY d   1      -0.275  -0.204  -0.087  0.00  0.00     0.003 A 
ATOM      8  C6  PXY d   1      -0.922  -0.886   0.940  0.00  0.00     0.003 A 
ENDROOT
TORSDOF 0
ENDMDL
