MODEL 1
REMARK minimizedAffinity 8.45802307
REMARK minimizedRMSD -1
REMARK  0 active torsions:
REMARK  status: ('A' for Active; 'I' for Inactive)
ROOT
ATOM      1  C4' PXY d   1      -4.372  -1.316  -2.289  0.00  0.00     0.077 C 
ATOM      2  C1' PXY d   1       0.222  -3.040  -5.344  0.00  0.00     0.077 C 
ATOM      3  C1  PXY d   1      -0.975  -2.579  -4.537  0.00  0.00    -0.082 A 
ATOM      4  C2  PXY d   1      -1.995  -3.401  -4.352  0.00  0.00     0.003 A 
ATOM      5  C3  PXY d   1      -3.099  -2.990  -3.651  0.00  0.00     0.003 A 
ATOM      6  C4  PXY d   1      -3.138  -1.742  -3.089  0.00  0.00    -0.082 A 
ATOM      7  C5  PXY d   1      -2.097  -0.900  -3.265  0.00  0.00     0.003 A 
ATOM      8  C6  PXY d   1      -1.003  -1.323  -4.014  0.00  0.00     0.003 A 
ENDROOT
TORSDOF 0
ENDMDL
