MODEL 1
REMARK minimizedAffinity 7.74960566
REMARK minimizedRMSD -1
REMARK  0 active torsions:
REMARK  status: ('A' for Active; 'I' for Inactive)
ROOT
ATOM      1  C4' PXY d   1       1.024  -3.013  -4.589  0.00  0.00     0.077 C 
ATOM      2  C1' PXY d   1      -3.668  -1.337  -1.658  0.00  0.00     0.077 C 
ATOM      3  C1  PXY d   1      -2.441  -1.789  -2.426  0.00  0.00    -0.082 A 
ATOM      4  C2  PXY d   1      -1.361  -1.025  -2.441  0.00  0.00     0.003 A 
ATOM      5  C3  PXY d   1      -0.254  -1.404  -3.156  0.00  0.00     0.003 A 
ATOM      6  C4  PXY d   1      -0.234  -2.601  -3.820  0.00  0.00    -0.082 A 
ATOM      7  C5  PXY d   1      -1.329  -3.391  -3.800  0.00  0.00     0.003 A 
ATOM      8  C6  PXY d   1      -2.457  -2.970  -3.102  0.00  0.00     0.003 A 
ENDROOT
TORSDOF 0
ENDMDL
