MODEL 1
REMARK minimizedAffinity 1.37237394
REMARK minimizedRMSD -1
REMARK  0 active torsions:
REMARK  status: ('A' for Active; 'I' for Inactive)
ROOT
ATOM      1  C4' PXY d   1      -4.502  -1.510  -3.352  0.00  0.00     0.077 C 
ATOM      2  C1' PXY d   1       1.207  -1.874  -4.186  0.00  0.00     0.077 C 
ATOM      3  C1  PXY d   1      -0.292  -1.790  -3.974  0.00  0.00    -0.082 A 
ATOM      4  C2  PXY d   1      -0.854  -0.616  -3.739  0.00  0.00     0.003 A 
ATOM      5  C3  PXY d   1      -2.204  -0.525  -3.513  0.00  0.00     0.003 A 
ATOM      6  C4  PXY d   1      -2.994  -1.642  -3.581  0.00  0.00    -0.082 A 
ATOM      7  C5  PXY d   1      -2.429  -2.842  -3.831  0.00  0.00     0.003 A 
ATOM      8  C6  PXY d   1      -1.052  -2.918  -4.017  0.00  0.00     0.003 A 
ENDROOT
TORSDOF 0
ENDMDL
