MODEL 1
REMARK minimizedAffinity 1.10001516
REMARK minimizedRMSD -1
REMARK  0 active torsions:
REMARK  status: ('A' for Active; 'I' for Inactive)
ROOT
ATOM      1  C4' PXY d   1      -4.384  -5.995   3.027  0.00  0.00     0.077 C 
ATOM      2  C1' PXY d   1       1.303  -5.984   1.994  0.00  0.00     0.077 C 
ATOM      3  C1  PXY d   1      -0.186  -5.993   2.276  0.00  0.00    -0.082 A 
ATOM      4  C2  PXY d   1      -1.043  -6.000   1.268  0.00  0.00     0.003 A 
ATOM      5  C3  PXY d   1      -2.393  -5.975   1.506  0.00  0.00     0.003 A 
ATOM      6  C4  PXY d   1      -2.871  -5.996   2.789  0.00  0.00    -0.082 A 
ATOM      7  C5  PXY d   1      -2.003  -6.000   3.822  0.00  0.00     0.003 A 
ATOM      8  C6  PXY d   1      -0.637  -5.983   3.560  0.00  0.00     0.003 A 
ENDROOT
TORSDOF 0
ENDMDL
