MODEL 1
REMARK minimizedAffinity 9.33848
REMARK minimizedRMSD -1
REMARK  0 active torsions:
REMARK  status: ('A' for Active; 'I' for Inactive)
ROOT
ATOM      1  C4' PXY d   1       1.011   1.416  -0.813  0.00  0.00     0.077 C 
ATOM      2  C1' PXY d   1      -1.496  -0.953   3.825  0.00  0.00     0.077 C 
ATOM      3  C1  PXY d   1      -0.834  -0.344   2.605  0.00  0.00    -0.082 A 
ATOM      4  C2  PXY d   1      -0.487   0.933   2.618  0.00  0.00     0.003 A 
ATOM      5  C3  PXY d   1       0.083   1.509   1.512  0.00  0.00     0.003 A 
ATOM      6  C4  PXY d   1       0.349   0.756   0.399  0.00  0.00    -0.082 A 
ATOM      7  C5  PXY d   1       0.007  -0.549   0.382  0.00  0.00     0.003 A 
ATOM      8  C6  PXY d   1      -0.608  -1.105   1.500  0.00  0.00     0.003 A 
ENDROOT
TORSDOF 0
ENDMDL
