MODEL 1
REMARK minimizedAffinity 2.80227256
REMARK minimizedRMSD -1
REMARK  0 active torsions:
REMARK  status: ('A' for Active; 'I' for Inactive)
ROOT
ATOM      1  C4' PXY d   1       1.139  -5.982   5.534  0.00  0.00     0.077 C 
ATOM      2  C1' PXY d   1      -1.442  -5.992   0.362  0.00  0.00     0.077 C 
ATOM      3  C1  PXY d   1      -0.776  -5.984   1.723  0.00  0.00    -0.082 A 
ATOM      4  C2  PXY d   1       0.545  -5.971   1.806  0.00  0.00     0.003 A 
ATOM      5  C3  PXY d   1       1.164  -5.996   3.029  0.00  0.00     0.003 A 
ATOM      6  C4  PXY d   1       0.423  -5.981   4.181  0.00  0.00    -0.082 A 
ATOM      7  C5  PXY d   1      -0.925  -5.984   4.105  0.00  0.00     0.003 A 
ATOM      8  C6  PXY d   1      -1.534  -6.000   2.853  0.00  0.00     0.003 A 
ENDROOT
TORSDOF 0
ENDMDL
