MODEL 1
REMARK minimizedAffinity -0.847275794
REMARK minimizedRMSD -1
REMARK  0 active torsions:
REMARK  status: ('A' for Active; 'I' for Inactive)
ROOT
ATOM      1  C4' PXY d   1       4.187  -5.986   5.839  0.00  0.00     0.077 C 
ATOM      2  C1' PXY d   1      -0.309  -5.986   2.205  0.00  0.00     0.077 C 
ATOM      3  C1  PXY d   1       0.878  -5.991   3.149  0.00  0.00    -0.082 A 
ATOM      4  C2  PXY d   1       0.674  -5.997   4.456  0.00  0.00     0.003 A 
ATOM      5  C3  PXY d   1       1.735  -5.970   5.324  0.00  0.00     0.003 A 
ATOM      6  C4  PXY d   1       3.019  -5.990   4.849  0.00  0.00    -0.082 A 
ATOM      7  C5  PXY d   1       3.235  -5.995   3.516  0.00  0.00     0.003 A 
ATOM      8  C6  PXY d   1       2.145  -5.981   2.652  0.00  0.00     0.003 A 
ENDROOT
TORSDOF 0
ENDMDL
