MODEL 1
REMARK minimizedAffinity 3.57910562
REMARK minimizedRMSD -1
REMARK  0 active torsions:
REMARK  status: ('A' for Active; 'I' for Inactive)
ROOT
ATOM      1  C4' PXY d   1       0.751  -5.961   5.334  0.00  0.00     0.077 C 
ATOM      2  C1' PXY d   1      -1.702  -6.000   0.100  0.00  0.00     0.077 C 
ATOM      3  C1  PXY d   1      -1.048  -5.995   1.467  0.00  0.00    -0.082 A 
ATOM      4  C2  PXY d   1      -1.803  -5.985   2.554  0.00  0.00     0.003 A 
ATOM      5  C3  PXY d   1      -1.228  -5.948   3.798  0.00  0.00     0.003 A 
ATOM      6  C4  PXY d   1       0.134  -5.976   3.933  0.00  0.00    -0.082 A 
ATOM      7  C5  PXY d   1       0.912  -5.997   2.829  0.00  0.00     0.003 A 
ATOM      8  C6  PXY d   1       0.309  -5.992   1.575  0.00  0.00     0.003 A 
ENDROOT
TORSDOF 0
ENDMDL
