MODEL 1
REMARK minimizedAffinity 10.2605228
REMARK minimizedRMSD -1
REMARK  0 active torsions:
REMARK  status: ('A' for Active; 'I' for Inactive)
ROOT
ATOM      1  O1  BZF d   1       3.277  -1.044  -1.513  0.00  0.00    -0.204 OA
ATOM      2  C2  BZF d   1       4.082   0.018  -1.148  0.00  0.00     0.174 A 
ATOM      3  C3  BZF d   1       3.345   1.129  -0.945  0.00  0.00    -0.012 A 
ATOM      4  C3A BZF d   1       1.986   0.715  -1.110  0.00  0.00    -0.107 A 
ATOM      5  C4  BZF d   1       0.788   1.365  -1.018  0.00  0.00     0.055 A 
ATOM      6  C5  BZF d   1      -0.354   0.689  -1.309  0.00  0.00    -0.016 A 
ATOM      7  C6  BZF d   1      -0.336  -0.634  -1.700  0.00  0.00     0.022 A 
ATOM      8  C7  BZF d   1       0.827  -1.322  -1.800  0.00  0.00     0.029 A 
ATOM      9  C7A BZF d   1       1.981  -0.651  -1.475  0.00  0.00     0.058 A 
ENDROOT
TORSDOF 0
ENDMDL
