MODEL 1
REMARK minimizedAffinity 8.3687048
REMARK minimizedRMSD -1
REMARK  0 active torsions:
REMARK  status: ('A' for Active; 'I' for Inactive)
ROOT
ATOM      1  O1  BZF d   1       4.894   2.560   0.118  0.00  0.00    -0.204 OA
ATOM      2  C2  BZF d   1       5.975   2.753  -0.720  0.00  0.00     0.174 A 
ATOM      3  C3  BZF d   1       5.935   1.893  -1.758  0.00  0.00    -0.012 A 
ATOM      4  C3A BZF d   1       4.705   1.177  -1.606  0.00  0.00    -0.107 A 
ATOM      5  C4  BZF d   1       4.093   0.197  -2.334  0.00  0.00     0.055 A 
ATOM      6  C5  BZF d   1       2.932  -0.340  -1.874  0.00  0.00    -0.016 A 
ATOM      7  C6  BZF d   1       2.360   0.074  -0.689  0.00  0.00     0.022 A 
ATOM      8  C7  BZF d   1       2.928   1.046   0.066  0.00  0.00     0.029 A 
ATOM      9  C7A BZF d   1       4.084   1.614  -0.413  0.00  0.00     0.058 A 
ENDROOT
TORSDOF 0
ENDMDL
