MODEL 1
REMARK minimizedAffinity 0.210627839
REMARK minimizedRMSD -1
REMARK  0 active torsions:
REMARK  status: ('A' for Active; 'I' for Inactive)
ROOT
ATOM      1  O1  BZF d   1       5.453   4.206   4.684  0.00  0.00    -0.204 OA
ATOM      2  C2  BZF d   1       5.702   5.177   5.635  0.00  0.00     0.174 A 
ATOM      3  C3  BZF d   1       4.637   5.992   5.777  0.00  0.00    -0.012 A 
ATOM      4  C3A BZF d   1       3.627   5.444   4.924  0.00  0.00    -0.107 A 
ATOM      5  C4  BZF d   1       2.339   5.800   4.644  0.00  0.00     0.055 A 
ATOM      6  C5  BZF d   1       1.647   5.098   3.709  0.00  0.00    -0.016 A 
ATOM      7  C6  BZF d   1       2.214   4.038   3.031  0.00  0.00     0.022 A 
ATOM      8  C7  BZF d   1       3.487   3.643   3.278  0.00  0.00     0.029 A 
ATOM      9  C7A BZF d   1       4.177   4.331   4.246  0.00  0.00     0.058 A 
ENDROOT
TORSDOF 0
ENDMDL
