MODEL 1
REMARK minimizedAffinity 9.81105709
REMARK minimizedRMSD -1
REMARK  0 active torsions:
REMARK  status: ('A' for Active; 'I' for Inactive)
ROOT
ATOM      1  O1  BZF d   1       3.757   3.754   5.908  0.00  0.00    -0.204 OA
ATOM      2  C2  BZF d   1       4.563   4.196   4.877  0.00  0.00     0.174 A 
ATOM      3  C3  BZF d   1       3.999   3.930   3.681  0.00  0.00    -0.012 A 
ATOM      4  C3A BZF d   1       2.721   3.364   3.986  0.00  0.00    -0.107 A 
ATOM      5  C4  BZF d   1       1.687   2.911   3.216  0.00  0.00     0.055 A 
ATOM      6  C5  BZF d   1       0.608   2.351   3.824  0.00  0.00    -0.016 A 
ATOM      7  C6  BZF d   1       0.532   2.223   5.195  0.00  0.00     0.022 A 
ATOM      8  C7  BZF d   1       1.530   2.662   6.000  0.00  0.00     0.029 A 
ATOM      9  C7A BZF d   1       2.607   3.259   5.391  0.00  0.00     0.058 A 
ENDROOT
TORSDOF 0
ENDMDL
