MODEL 1
REMARK minimizedAffinity 5.5577817
REMARK minimizedRMSD -1
REMARK  0 active torsions:
REMARK  status: ('A' for Active; 'I' for Inactive)
ROOT
ATOM      1  O1  BZF d   1       0.005   1.024  -1.024  0.00  0.00    -0.204 OA
ATOM      2  C2  BZF d   1      -0.855   0.128  -1.630  0.00  0.00     0.174 A 
ATOM      3  C3  BZF d   1      -2.137   0.419  -1.330  0.00  0.00    -0.012 A 
ATOM      4  C3A BZF d   1      -2.080   1.622  -0.559  0.00  0.00    -0.107 A 
ATOM      5  C4  BZF d   1      -3.032   2.414   0.018  0.00  0.00     0.055 A 
ATOM      6  C5  BZF d   1      -2.640   3.479   0.765  0.00  0.00    -0.016 A 
ATOM      7  C6  BZF d   1      -1.308   3.779   0.961  0.00  0.00     0.022 A 
ATOM      8  C7  BZF d   1      -0.328   3.026   0.405  0.00  0.00     0.029 A 
ATOM      9  C7A BZF d   1      -0.721   1.968  -0.378  0.00  0.00     0.058 A 
ENDROOT
TORSDOF 0
ENDMDL
