MODEL 1
REMARK minimizedAffinity 7.52181625
REMARK minimizedRMSD -1
REMARK  0 active torsions:
REMARK  status: ('A' for Active; 'I' for Inactive)
ROOT
ATOM      1  C   UNL d   1      -2.803   0.198   1.307  0.00  0.00     0.077 C 
ATOM      2  C1  UNL d   1      -1.692   1.033   0.741  0.00  0.00    -0.074 A 
ATOM      3  C2  UNL d   1      -1.903   2.372   0.397  0.00  0.00    -0.005 A 
ATOM      4  C3  UNL d   1      -0.858   3.138  -0.119  0.00  0.00     0.006 A 
ATOM      5  C4  UNL d   1       0.406   2.573  -0.297  0.00  0.00    -0.005 A 
ATOM      6  C5  UNL d   1       0.635   1.236   0.042  0.00  0.00    -0.074 A 
ATOM      7  C6  UNL d   1       1.990   0.617  -0.134  0.00  0.00     0.077 C 
ATOM      8  C7  UNL d   1      -0.418   0.475   0.567  0.00  0.00    -0.001 A 
ENDROOT
TORSDOF 0
ENDMDL
