MODEL 1
REMARK minimizedAffinity 7.17855358
REMARK minimizedRMSD -1
REMARK  0 active torsions:
REMARK  status: ('A' for Active; 'I' for Inactive)
ROOT
ATOM      1  C   UNL d   1      -2.523   0.713   1.452  0.00  0.00     0.077 C 
ATOM      2  C1  UNL d   1      -1.424   1.384   0.683  0.00  0.00    -0.074 A 
ATOM      3  C2  UNL d   1      -1.593   2.673   0.165  0.00  0.00    -0.005 A 
ATOM      4  C3  UNL d   1      -0.559   3.288  -0.541  0.00  0.00     0.006 A 
ATOM      5  C4  UNL d   1       0.652   2.623  -0.735  0.00  0.00    -0.005 A 
ATOM      6  C5  UNL d   1       0.839   1.335  -0.224  0.00  0.00    -0.074 A 
ATOM      7  C6  UNL d   1       2.138   0.610  -0.416  0.00  0.00     0.077 C 
ATOM      8  C7  UNL d   1      -0.202   0.726   0.490  0.00  0.00    -0.001 A 
ENDROOT
TORSDOF 0
ENDMDL
