MODEL 1
REMARK minimizedAffinity 12.4312944
REMARK minimizedRMSD -1
REMARK  0 active torsions:
REMARK  status: ('A' for Active; 'I' for Inactive)
ROOT
ATOM      1  C   UNL d   1       2.012   0.382  -0.577  0.00  0.00     0.077 C 
ATOM      2  C1  UNL d   1       0.749   1.171  -0.399  0.00  0.00    -0.074 A 
ATOM      3  C2  UNL d   1       0.596   2.427  -0.997  0.00  0.00    -0.005 A 
ATOM      4  C3  UNL d   1      -0.588   3.145  -0.831  0.00  0.00     0.006 A 
ATOM      5  C4  UNL d   1      -1.629   2.616  -0.067  0.00  0.00    -0.005 A 
ATOM      6  C5  UNL d   1      -1.495   1.362   0.537  0.00  0.00    -0.074 A 
ATOM      7  C6  UNL d   1      -2.608   0.775   1.352  0.00  0.00     0.077 C 
ATOM      8  C7  UNL d   1      -0.305   0.644   0.360  0.00  0.00    -0.001 A 
ENDROOT
TORSDOF 0
ENDMDL
