MODEL 1
REMARK minimizedAffinity 7.80823994
REMARK minimizedRMSD -1
REMARK  0 active torsions:
REMARK  status: ('A' for Active; 'I' for Inactive)
ROOT
ATOM      1  C   UNL d   1      -5.778   3.645  -5.995  0.00  0.00     0.077 C 
ATOM      2  C1  UNL d   1      -4.327   4.024  -5.995  0.00  0.00    -0.074 A 
ATOM      3  C2  UNL d   1      -3.934   5.366  -5.978  0.00  0.00    -0.005 A 
ATOM      4  C3  UNL d   1      -2.580   5.702  -5.969  0.00  0.00     0.006 A 
ATOM      5  C4  UNL d   1      -1.608   4.702  -5.976  0.00  0.00    -0.005 A 
ATOM      6  C5  UNL d   1      -1.981   3.355  -5.993  0.00  0.00    -0.074 A 
ATOM      7  C6  UNL d   1      -0.949   2.267  -5.991  0.00  0.00     0.077 C 
ATOM      8  C7  UNL d   1      -3.344   3.024  -5.995  0.00  0.00    -0.001 A 
ENDROOT
TORSDOF 0
ENDMDL
