MODEL 1
REMARK minimizedAffinity 5.22436571
REMARK minimizedRMSD -1
REMARK  0 active torsions:
REMARK  status: ('A' for Active; 'I' for Inactive)
ROOT
ATOM      1  C   UNL d   1      -5.594   3.406  -5.998  0.00  0.00     0.077 C 
ATOM      2  C1  UNL d   1      -4.221   4.011  -6.000  0.00  0.00    -0.074 A 
ATOM      3  C2  UNL d   1      -4.047   5.398  -5.986  0.00  0.00    -0.005 A 
ATOM      4  C3  UNL d   1      -2.764   5.946  -5.978  0.00  0.00     0.006 A 
ATOM      5  C4  UNL d   1      -1.645   5.113  -5.985  0.00  0.00    -0.005 A 
ATOM      6  C5  UNL d   1      -1.799   3.723  -5.998  0.00  0.00    -0.074 A 
ATOM      7  C6  UNL d   1      -0.606   2.814  -5.995  0.00  0.00     0.077 C 
ATOM      8  C7  UNL d   1      -3.091   3.181  -5.999  0.00  0.00    -0.001 A 
ENDROOT
TORSDOF 0
ENDMDL
