MODEL 1
REMARK minimizedAffinity 9.91615105
REMARK minimizedRMSD -1
REMARK  0 active torsions:
REMARK  status: ('A' for Active; 'I' for Inactive)
ROOT
ATOM      1  C   UNL d   1       3.044   2.946   2.346  0.00  0.00     0.077 C 
ATOM      2  C1  UNL d   1       1.580   2.686   2.151  0.00  0.00    -0.074 A 
ATOM      3  C2  UNL d   1       1.119   1.960   1.048  0.00  0.00    -0.005 A 
ATOM      4  C3  UNL d   1      -0.245   1.719   0.885  0.00  0.00     0.006 A 
ATOM      5  C4  UNL d   1      -1.161   2.201   1.822  0.00  0.00    -0.005 A 
ATOM      6  C5  UNL d   1      -0.719   2.928   2.931  0.00  0.00    -0.074 A 
ATOM      7  C6  UNL d   1      -1.688   3.445   3.952  0.00  0.00     0.077 C 
ATOM      8  C7  UNL d   1       0.654   3.161   3.092  0.00  0.00    -0.001 A 
ENDROOT
TORSDOF 0
ENDMDL
