MODEL 1
REMARK minimizedAffinity 1.76850414
REMARK minimizedRMSD -1
REMARK  0 active torsions:
REMARK  status: ('A' for Active; 'I' for Inactive)
ROOT
ATOM      1  C   UNL d   1      -3.173   5.997  -3.745  0.00  0.00     0.077 C 
ATOM      2  C1  UNL d   1      -2.637   4.834  -4.526  0.00  0.00    -0.074 A 
ATOM      3  C2  UNL d   1      -3.474   3.782  -4.914  0.00  0.00    -0.005 A 
ATOM      4  C3  UNL d   1      -2.963   2.711  -5.648  0.00  0.00     0.006 A 
ATOM      5  C4  UNL d   1      -1.614   2.681  -6.000  0.00  0.00    -0.005 A 
ATOM      6  C5  UNL d   1      -0.762   3.724  -5.621  0.00  0.00    -0.074 A 
ATOM      7  C6  UNL d   1       0.689   3.711  -5.999  0.00  0.00     0.077 C 
ATOM      8  C7  UNL d   1      -1.284   4.799  -4.890  0.00  0.00    -0.001 A 
ENDROOT
TORSDOF 0
ENDMDL
