MODEL 1
REMARK minimizedAffinity 1.02066541
REMARK minimizedRMSD -1
REMARK  0 active torsions:
REMARK  status: ('A' for Active; 'I' for Inactive)
ROOT
ATOM      1  C   UNL d   1      -4.630   3.397  -6.000  0.00  0.00     0.077 C 
ATOM      2  C1  UNL d   1      -3.273   3.659  -5.416  0.00  0.00    -0.074 A 
ATOM      3  C2  UNL d   1      -3.113   4.529  -4.333  0.00  0.00    -0.005 A 
ATOM      4  C3  UNL d   1      -1.846   4.755  -3.794  0.00  0.00     0.006 A 
ATOM      5  C4  UNL d   1      -0.729   4.115  -4.333  0.00  0.00    -0.005 A 
ATOM      6  C5  UNL d   1      -0.870   3.242  -5.415  0.00  0.00    -0.074 A 
ATOM      7  C6  UNL d   1       0.319   2.538  -5.999  0.00  0.00     0.077 C 
ATOM      8  C7  UNL d   1      -2.147   3.014  -5.946  0.00  0.00    -0.001 A 
ENDROOT
TORSDOF 0
ENDMDL
