MODEL 1
REMARK minimizedAffinity 7.09606552
REMARK minimizedRMSD -1
REMARK  0 active torsions:
REMARK  status: ('A' for Active; 'I' for Inactive)
ROOT
ATOM      1  C   UNL d   1       0.042   2.286  -6.000  0.00  0.00     0.077 C 
ATOM      2  C1  UNL d   1      -0.976   3.388  -5.986  0.00  0.00    -0.074 A 
ATOM      3  C2  UNL d   1      -0.583   4.730  -6.000  0.00  0.00    -0.005 A 
ATOM      4  C3  UNL d   1      -1.541   5.743  -5.996  0.00  0.00     0.006 A 
ATOM      5  C4  UNL d   1      -2.900   5.426  -5.978  0.00  0.00    -0.005 A 
ATOM      6  C5  UNL d   1      -3.311   4.090  -5.965  0.00  0.00    -0.074 A 
ATOM      7  C6  UNL d   1      -4.768   3.731  -5.955  0.00  0.00     0.077 C 
ATOM      8  C7  UNL d   1      -2.343   3.077  -5.976  0.00  0.00    -0.001 A 
ENDROOT
TORSDOF 0
ENDMDL
