MODEL 1
REMARK minimizedAffinity -0.637539089
REMARK minimizedRMSD -1
REMARK  0 active torsions:
REMARK  status: ('A' for Active; 'I' for Inactive)
ROOT
ATOM      1  C   UNL d   1      -0.969   2.890  -5.939  0.00  0.00     0.077 C 
ATOM      2  C1  UNL d   1      -2.179   3.775  -5.949  0.00  0.00    -0.074 A 
ATOM      3  C2  UNL d   1      -2.051   5.168  -5.962  0.00  0.00    -0.005 A 
ATOM      4  C3  UNL d   1      -3.186   5.979  -5.982  0.00  0.00     0.006 A 
ATOM      5  C4  UNL d   1      -4.458   5.406  -5.988  0.00  0.00    -0.005 A 
ATOM      6  C5  UNL d   1      -4.606   4.016  -5.976  0.00  0.00    -0.074 A 
ATOM      7  C6  UNL d   1      -5.967   3.384  -5.992  0.00  0.00     0.077 C 
ATOM      8  C7  UNL d   1      -3.461   3.208  -5.963  0.00  0.00    -0.001 A 
ENDROOT
TORSDOF 0
ENDMDL
