MODEL 1
REMARK minimizedAffinity 2.41417527
REMARK minimizedRMSD -1
REMARK  0 active torsions:
REMARK  status: ('A' for Active; 'I' for Inactive)
ROOT
ATOM      1  C   UNL d   1      -4.657   3.415  -5.990  0.00  0.00     0.077 C 
ATOM      2  C1  UNL d   1      -3.223   3.855  -6.000  0.00  0.00    -0.074 A 
ATOM      3  C2  UNL d   1      -2.888   5.213  -6.000  0.00  0.00    -0.005 A 
ATOM      4  C3  UNL d   1      -1.550   5.608  -6.000  0.00  0.00     0.006 A 
ATOM      5  C4  UNL d   1      -0.535   4.650  -6.000  0.00  0.00    -0.005 A 
ATOM      6  C5  UNL d   1      -0.851   3.288  -5.999  0.00  0.00    -0.074 A 
ATOM      7  C6  UNL d   1       0.228   2.245  -5.988  0.00  0.00     0.077 C 
ATOM      8  C7  UNL d   1      -2.198   2.899  -5.992  0.00  0.00    -0.001 A 
ENDROOT
TORSDOF 0
ENDMDL
