MODEL 1
REMARK minimizedAffinity 5.69888306
REMARK minimizedRMSD -1
REMARK  0 active torsions:
REMARK  status: ('A' for Active; 'I' for Inactive)
ROOT
ATOM      1  C   UNL d   1       2.102   0.904  -0.423  0.00  0.00     0.077 C 
ATOM      2  C1  UNL d   1       0.808   0.540   0.243  0.00  0.00    -0.074 A 
ATOM      3  C2  UNL d   1       0.615  -0.732   0.792  0.00  0.00    -0.005 A 
ATOM      4  C3  UNL d   1      -0.590  -1.053   1.416  0.00  0.00     0.006 A 
ATOM      5  C4  UNL d   1      -1.612  -0.107   1.498  0.00  0.00    -0.005 A 
ATOM      6  C5  UNL d   1      -1.437   1.170   0.956  0.00  0.00    -0.074 A 
ATOM      7  C6  UNL d   1      -2.523   2.201   1.044  0.00  0.00     0.077 C 
ATOM      8  C7  UNL d   1      -0.221   1.487   0.336  0.00  0.00    -0.001 A 
ENDROOT
TORSDOF 0
ENDMDL
