MODEL 1
REMARK minimizedAffinity -0.519299924
REMARK minimizedRMSD -1
REMARK  0 active torsions:
REMARK  status: ('A' for Active; 'I' for Inactive)
ROOT
ATOM      1  C   UNL d   1      -1.011   2.780  -5.998  0.00  0.00     0.077 C 
ATOM      2  C1  UNL d   1      -2.206   3.686  -5.982  0.00  0.00    -0.074 A 
ATOM      3  C2  UNL d   1      -2.054   5.076  -5.971  0.00  0.00    -0.005 A 
ATOM      4  C3  UNL d   1      -3.175   5.906  -5.965  0.00  0.00     0.006 A 
ATOM      5  C4  UNL d   1      -4.457   5.355  -5.970  0.00  0.00    -0.005 A 
ATOM      6  C5  UNL d   1      -4.628   3.967  -5.982  0.00  0.00    -0.074 A 
ATOM      7  C6  UNL d   1      -5.999   3.359  -5.997  0.00  0.00     0.077 C 
ATOM      8  C7  UNL d   1      -3.497   3.140  -5.995  0.00  0.00    -0.001 A 
ENDROOT
TORSDOF 0
ENDMDL
