MODEL 1
REMARK minimizedAffinity 10.6657372
REMARK minimizedRMSD -1
REMARK  0 active torsions:
REMARK  status: ('A' for Active; 'I' for Inactive)
ROOT
ATOM      1  C   UNL d   1      -5.230  -1.476   4.380  0.00  0.00     0.077 C 
ATOM      2  C1  UNL d   1      -4.290  -0.499   3.740  0.00  0.00    -0.074 A 
ATOM      3  C2  UNL d   1      -3.589  -0.832   2.576  0.00  0.00    -0.005 A 
ATOM      4  C3  UNL d   1      -2.725   0.090   1.986  0.00  0.00     0.006 A 
ATOM      5  C4  UNL d   1      -2.553   1.354   2.553  0.00  0.00    -0.005 A 
ATOM      6  C5  UNL d   1      -3.246   1.705   3.716  0.00  0.00    -0.074 A 
ATOM      7  C6  UNL d   1      -3.080   3.063   4.332  0.00  0.00     0.077 C 
ATOM      8  C7  UNL d   1      -4.118   0.775   4.299  0.00  0.00    -0.001 A 
ENDROOT
TORSDOF 0
ENDMDL
