MODEL 1
REMARK minimizedAffinity 4.38238955
REMARK minimizedRMSD -1
REMARK  0 active torsions:
REMARK  status: ('A' for Active; 'I' for Inactive)
ROOT
ATOM      1  C   UNL d   1       2.370   0.242  -0.536  0.00  0.00     0.077 C 
ATOM      2  C1  UNL d   1       1.079   0.878  -0.113  0.00  0.00    -0.074 A 
ATOM      3  C2  UNL d   1       0.858   2.247  -0.298  0.00  0.00    -0.005 A 
ATOM      4  C3  UNL d   1      -0.352   2.822   0.092  0.00  0.00     0.006 A 
ATOM      5  C4  UNL d   1      -1.350   2.037   0.669  0.00  0.00    -0.005 A 
ATOM      6  C5  UNL d   1      -1.147   0.667   0.861  0.00  0.00    -0.074 A 
ATOM      7  C6  UNL d   1      -2.213  -0.194   1.471  0.00  0.00     0.077 C 
ATOM      8  C7  UNL d   1       0.068   0.094   0.460  0.00  0.00    -0.001 A 
ENDROOT
TORSDOF 0
ENDMDL
