MODEL 1
REMARK minimizedAffinity 4.55381107
REMARK minimizedRMSD -1
REMARK  0 active torsions:
REMARK  status: ('A' for Active; 'I' for Inactive)
ROOT
ATOM      1  C   UNL d   1      -3.078   4.120  -5.950  0.00  0.00     0.077 C 
ATOM      2  C1  UNL d   1      -1.742   3.439  -5.961  0.00  0.00    -0.074 A 
ATOM      3  C2  UNL d   1      -1.646   2.044  -5.979  0.00  0.00    -0.005 A 
ATOM      4  C3  UNL d   1      -0.396   1.425  -5.999  0.00  0.00     0.006 A 
ATOM      5  C4  UNL d   1       0.769   2.193  -6.000  0.00  0.00    -0.005 A 
ATOM      6  C5  UNL d   1       0.692   3.590  -5.982  0.00  0.00    -0.074 A 
ATOM      7  C6  UNL d   1       1.934   4.431  -5.993  0.00  0.00     0.077 C 
ATOM      8  C7  UNL d   1      -0.567   4.204  -5.970  0.00  0.00    -0.001 A 
ENDROOT
TORSDOF 0
ENDMDL
