MODEL 1
REMARK minimizedAffinity -0.856713653
REMARK minimizedRMSD -1
REMARK  0 active torsions:
REMARK  status: ('A' for Active; 'I' for Inactive)
ROOT
ATOM      1  C   UNL d   1       0.963   3.753  -5.929  0.00  0.00     0.077 C 
ATOM      2  C1  UNL d   1      -0.533   3.649  -5.960  0.00  0.00    -0.074 A 
ATOM      3  C2  UNL d   1      -1.166   2.402  -5.972  0.00  0.00    -0.005 A 
ATOM      4  C3  UNL d   1      -2.559   2.320  -5.992  0.00  0.00     0.006 A 
ATOM      5  C4  UNL d   1      -3.331   3.482  -5.999  0.00  0.00    -0.005 A 
ATOM      6  C5  UNL d   1      -2.715   4.738  -5.987  0.00  0.00    -0.074 A 
ATOM      7  C6  UNL d   1      -3.530   5.997  -5.985  0.00  0.00     0.077 C 
ATOM      8  C7  UNL d   1      -1.316   4.812  -5.960  0.00  0.00    -0.001 A 
ENDROOT
TORSDOF 0
ENDMDL
