MODEL 1
REMARK minimizedAffinity 7.7273078
REMARK minimizedRMSD -1
REMARK  0 active torsions:
REMARK  status: ('A' for Active; 'I' for Inactive)
ROOT
ATOM      1  C   UNL d   1      -1.910  -2.273  -1.125  0.00  0.00     0.077 C 
ATOM      2  C1  UNL d   1      -2.601  -3.577  -0.857  0.00  0.00    -0.074 A 
ATOM      3  C2  UNL d   1      -1.975  -4.794  -1.146  0.00  0.00    -0.005 A 
ATOM      4  C3  UNL d   1      -2.627  -5.999  -0.882  0.00  0.00     0.006 A 
ATOM      5  C4  UNL d   1      -3.907  -5.999  -0.328  0.00  0.00    -0.005 A 
ATOM      6  C5  UNL d   1      -4.548  -4.792  -0.032  0.00  0.00    -0.074 A 
ATOM      7  C6  UNL d   1      -5.920  -4.774   0.573  0.00  0.00     0.077 C 
ATOM      8  C7  UNL d   1      -3.884  -3.585  -0.293  0.00  0.00    -0.001 A 
ENDROOT
TORSDOF 0
ENDMDL
