MODEL 1
REMARK minimizedAffinity 1.97839093
REMARK minimizedRMSD -1
REMARK  0 active torsions:
REMARK  status: ('A' for Active; 'I' for Inactive)
ROOT
ATOM      1  C   UNL d   1       1.390  -5.221   6.000  0.00  0.00     0.172 C 
ATOM      2  N   UNL d   1       1.531  -4.046   5.172  0.00  0.00    -0.070 N 
ATOM      3  C1  UNL d   1       1.046  -3.903   3.900  0.00  0.00    -0.004 A 
ATOM      4  C2  UNL d   1       1.387  -2.643   3.457  0.00  0.00    -0.047 A 
ATOM      5  C3  UNL d   1       2.102  -2.007   4.500  0.00  0.00    -0.047 A 
ATOM      6  C4  UNL d   1       2.176  -2.898   5.550  0.00  0.00    -0.004 A 
ENDROOT
TORSDOF 0
ENDMDL
