MODEL 1
REMARK minimizedAffinity 0.619080782
REMARK minimizedRMSD -1
REMARK  0 active torsions:
REMARK  status: ('A' for Active; 'I' for Inactive)
ROOT
ATOM      1  C   UNL d   1       1.473  -1.301   2.669  0.00  0.00     0.172 C 
ATOM      2  N   UNL d   1       2.087  -2.490   3.213  0.00  0.00    -0.070 N 
ATOM      3  C1  UNL d   1       1.828  -3.775   2.816  0.00  0.00    -0.004 A 
ATOM      4  C2  UNL d   1       2.613  -4.616   3.574  0.00  0.00    -0.047 A 
ATOM      5  C3  UNL d   1       3.369  -3.810   4.457  0.00  0.00    -0.047 A 
ATOM      6  C4  UNL d   1       3.024  -2.497   4.212  0.00  0.00    -0.004 A 
ENDROOT
TORSDOF 0
ENDMDL
