MODEL 1
REMARK minimizedAffinity 3.69919538
REMARK minimizedRMSD -1
REMARK  0 active torsions:
REMARK  status: ('A' for Active; 'I' for Inactive)
ROOT
ATOM      1  C   UNL d   1       3.765  -5.890  -1.403  0.00  0.00     0.172 C 
ATOM      2  N   UNL d   1       3.613  -5.931  -2.839  0.00  0.00    -0.070 N 
ATOM      3  C1  UNL d   1       4.635  -5.951  -3.749  0.00  0.00    -0.004 A 
ATOM      4  C2  UNL d   1       4.077  -5.990  -5.009  0.00  0.00    -0.047 A 
ATOM      5  C3  UNL d   1       2.671  -5.993  -4.850  0.00  0.00    -0.047 A 
ATOM      6  C4  UNL d   1       2.411  -5.956  -3.496  0.00  0.00    -0.004 A 
ENDROOT
TORSDOF 0
ENDMDL
