MODEL 1
REMARK minimizedAffinity 3.04547381
REMARK minimizedRMSD -1
REMARK  0 active torsions:
REMARK  status: ('A' for Active; 'I' for Inactive)
ROOT
ATOM      1  C   UNL d   1      -2.476   3.565  -1.037  0.00  0.00     0.172 C 
ATOM      2  N   UNL d   1      -3.478   3.241  -0.049  0.00  0.00    -0.070 N 
ATOM      3  C1  UNL d   1      -4.778   3.668  -0.061  0.00  0.00    -0.004 A 
ATOM      4  C2  UNL d   1      -5.406   3.143   1.048  0.00  0.00    -0.047 A 
ATOM      5  C3  UNL d   1      -4.449   2.373   1.751  0.00  0.00    -0.047 A 
ATOM      6  C4  UNL d   1      -3.264   2.451   1.050  0.00  0.00    -0.004 A 
ENDROOT
TORSDOF 0
ENDMDL
