MODEL 1
REMARK minimizedAffinity 5.45849705
REMARK minimizedRMSD -1
REMARK  0 active torsions:
REMARK  status: ('A' for Active; 'I' for Inactive)
ROOT
ATOM      1  C   UNL d   1       3.888  -3.341   4.490  0.00  0.00     0.172 C 
ATOM      2  N   UNL d   1       2.830  -2.764   3.695  0.00  0.00    -0.070 N 
ATOM      3  C1  UNL d   1       1.594  -3.316   3.490  0.00  0.00    -0.004 A 
ATOM      4  C2  UNL d   1       0.879  -2.461   2.679  0.00  0.00    -0.047 A 
ATOM      5  C3  UNL d   1       1.715  -1.358   2.386  0.00  0.00    -0.047 A 
ATOM      6  C4  UNL d   1       2.917  -1.571   3.027  0.00  0.00    -0.004 A 
ENDROOT
TORSDOF 0
ENDMDL
