MODEL 1
REMARK minimizedAffinity 6.30161333
REMARK minimizedRMSD -1
REMARK  0 active torsions:
REMARK  status: ('A' for Active; 'I' for Inactive)
ROOT
ATOM      1  C   UNL d   1      -4.846   1.692  -4.959  0.00  0.00     0.172 C 
ATOM      2  N   UNL d   1      -4.146   0.627  -4.280  0.00  0.00    -0.070 N 
ATOM      3  C1  UNL d   1      -4.362  -0.713  -4.460  0.00  0.00    -0.004 A 
ATOM      4  C2  UNL d   1      -3.497  -1.396  -3.633  0.00  0.00    -0.047 A 
ATOM      5  C3  UNL d   1      -2.734  -0.432  -2.931  0.00  0.00    -0.047 A 
ATOM      6  C4  UNL d   1      -3.157   0.811  -3.350  0.00  0.00    -0.004 A 
ENDROOT
TORSDOF 0
ENDMDL
