MODEL 1
REMARK minimizedAffinity 1.01520038
REMARK minimizedRMSD -1
REMARK  0 active torsions:
REMARK  status: ('A' for Active; 'I' for Inactive)
ROOT
ATOM      1  C   UNL d   1       2.062  -6.000  -4.697  0.00  0.00     0.172 C 
ATOM      2  N   UNL d   1       3.184  -5.997  -3.789  0.00  0.00    -0.070 N 
ATOM      3  C1  UNL d   1       4.505  -6.000  -4.152  0.00  0.00    -0.004 A 
ATOM      4  C2  UNL d   1       5.260  -5.995  -2.999  0.00  0.00    -0.047 A 
ATOM      5  C3  UNL d   1       4.362  -5.990  -1.905  0.00  0.00    -0.047 A 
ATOM      6  C4  UNL d   1       3.084  -5.992  -2.422  0.00  0.00    -0.004 A 
ENDROOT
TORSDOF 0
ENDMDL
