MODEL 1
REMARK minimizedAffinity 3.39156294
REMARK minimizedRMSD -1
REMARK  0 active torsions:
REMARK  status: ('A' for Active; 'I' for Inactive)
ROOT
ATOM      1  C   UNL d   1      -2.488   1.415   0.737  0.00  0.00     0.172 C 
ATOM      2  N   UNL d   1      -3.839   1.888   0.925  0.00  0.00    -0.070 N 
ATOM      3  C1  UNL d   1      -4.885   1.147   1.406  0.00  0.00    -0.004 A 
ATOM      4  C2  UNL d   1      -5.999   1.957   1.434  0.00  0.00    -0.047 A 
ATOM      5  C3  UNL d   1      -5.610   3.229   0.952  0.00  0.00    -0.047 A 
ATOM      6  C4  UNL d   1      -4.268   3.159   0.644  0.00  0.00    -0.004 A 
ENDROOT
TORSDOF 0
ENDMDL
