MODEL 1
REMARK minimizedAffinity 1.42041898
REMARK minimizedRMSD -1
REMARK  0 active torsions:
REMARK  status: ('A' for Active; 'I' for Inactive)
ROOT
ATOM      1  C   UNL d   1       2.908  -5.962  -5.336  0.00  0.00     0.172 C 
ATOM      2  N   UNL d   1       3.611  -5.975  -4.075  0.00  0.00    -0.070 N 
ATOM      3  C1  UNL d   1       4.972  -5.976  -3.919  0.00  0.00    -0.004 A 
ATOM      4  C2  UNL d   1       5.242  -5.990  -2.567  0.00  0.00    -0.047 A 
ATOM      5  C3  UNL d   1       4.000  -5.998  -1.888  0.00  0.00    -0.047 A 
ATOM      6  C4  UNL d   1       3.008  -5.989  -2.845  0.00  0.00    -0.004 A 
ENDROOT
TORSDOF 0
ENDMDL
