MODEL 1
REMARK minimizedAffinity 0.86680311
REMARK minimizedRMSD -1
REMARK  0 active torsions:
REMARK  status: ('A' for Active; 'I' for Inactive)
ROOT
ATOM      1  C   UNL d   1       1.856  -0.791   2.278  0.00  0.00     0.172 C 
ATOM      2  N   UNL d   1       1.905  -2.072   2.942  0.00  0.00    -0.070 N 
ATOM      3  C1  UNL d   1       0.837  -2.903   3.152  0.00  0.00    -0.004 A 
ATOM      4  C2  UNL d   1       1.297  -4.021   3.814  0.00  0.00    -0.047 A 
ATOM      5  C3  UNL d   1       2.688  -3.855   4.009  0.00  0.00    -0.047 A 
ATOM      6  C4  UNL d   1       3.038  -2.640   3.460  0.00  0.00    -0.004 A 
ENDROOT
TORSDOF 0
ENDMDL
