MODEL 1
REMARK minimizedAffinity 4.26351261
REMARK minimizedRMSD -1
REMARK  0 active torsions:
REMARK  status: ('A' for Active; 'I' for Inactive)
ROOT
ATOM      1  C   UNL d   1       1.821  -1.099   2.626  0.00  0.00     0.172 C 
ATOM      2  N   UNL d   1       1.975  -2.508   2.901  0.00  0.00    -0.070 N 
ATOM      3  C1  UNL d   1       0.981  -3.448   2.837  0.00  0.00    -0.004 A 
ATOM      4  C2  UNL d   1       1.530  -4.667   3.168  0.00  0.00    -0.047 A 
ATOM      5  C3  UNL d   1       2.902  -4.453   3.442  0.00  0.00    -0.047 A 
ATOM      6  C4  UNL d   1       3.151  -3.108   3.269  0.00  0.00    -0.004 A 
ENDROOT
TORSDOF 0
ENDMDL
