MODEL 1
REMARK minimizedAffinity -1.69565368
REMARK minimizedRMSD -1
REMARK  0 active torsions:
REMARK  status: ('A' for Active; 'I' for Inactive)
ROOT
ATOM      1  C   UNL d   1       4.115  -5.997  -2.270  0.00  0.00     0.172 C 
ATOM      2  N   UNL d   1       3.930  -5.996  -3.702  0.00  0.00    -0.070 N 
ATOM      3  C1  UNL d   1       2.724  -5.995  -4.351  0.00  0.00    -0.004 A 
ATOM      4  C2  UNL d   1       2.974  -5.994  -5.706  0.00  0.00    -0.047 A 
ATOM      5  C3  UNL d   1       4.379  -5.997  -5.878  0.00  0.00    -0.047 A 
ATOM      6  C4  UNL d   1       4.946  -5.998  -4.621  0.00  0.00    -0.004 A 
ENDROOT
TORSDOF 0
ENDMDL
