MODEL 1
REMARK minimizedAffinity 7.79779577
REMARK minimizedRMSD -1
REMARK  1 active torsions:
REMARK  status: ('A' for Active; 'I' for Inactive)
REMARK    1  A    between atoms: N_2  and  C1_3 
ROOT
ATOM      1  C1  UNL d   1       1.129  -0.723   3.503  0.00  0.00     0.143 A 
ATOM      2  C2  UNL d   1       0.513  -0.760   2.248  0.00  0.00    -0.057 A 
ATOM      3  C3  UNL d   1      -0.213   0.334   1.763  0.00  0.00     0.033 A 
ATOM      4  C4  UNL d   1      -0.360   1.479   2.539  0.00  0.00    -0.042 A 
ATOM      5  C5  UNL d   1       0.223   1.529   3.801  0.00  0.00     0.033 A 
ATOM      6  C6  UNL d   1       0.952   0.435   4.277  0.00  0.00    -0.057 A 
ENDROOT
BRANCH   1   7
ATOM      7  N   UNL d   1       1.781  -1.814   4.083  0.00  0.00    -0.732 N 
ATOM      8  C   UNL d   1       2.241  -1.756   5.453  0.00  0.00     0.284 C 
ATOM      9  H3  UNL d   1       1.356  -2.702   3.825  0.00  0.00     0.395 HD
ENDBRANCH   1   7
TORSDOF 1
ENDMDL
