MODEL 1
REMARK minimizedAffinity 7.48065186
REMARK minimizedRMSD -1
REMARK  1 active torsions:
REMARK  status: ('A' for Active; 'I' for Inactive)
REMARK    1  A    between atoms: N_2  and  C1_3 
ROOT
ATOM      1  C1  UNL d   1      -1.201   0.348   3.095  0.00  0.00     0.143 A 
ATOM      2  C2  UNL d   1      -2.080   1.168   2.380  0.00  0.00    -0.057 A 
ATOM      3  C3  UNL d   1      -3.408   0.787   2.154  0.00  0.00     0.033 A 
ATOM      4  C4  UNL d   1      -3.875  -0.439   2.617  0.00  0.00    -0.042 A 
ATOM      5  C5  UNL d   1      -3.012  -1.281   3.309  0.00  0.00     0.033 A 
ATOM      6  C6  UNL d   1      -1.689  -0.892   3.537  0.00  0.00    -0.057 A 
ENDROOT
BRANCH   1   7
ATOM      7  N   UNL d   1       0.157   0.626   3.268  0.00  0.00    -0.732 N 
ATOM      8  C   UNL d   1       1.165  -0.260   2.727  0.00  0.00     0.284 C 
ATOM      9  H3  UNL d   1       0.368   1.615   3.155  0.00  0.00     0.395 HD
ENDBRANCH   1   7
TORSDOF 1
ENDMDL
