MODEL 1
REMARK minimizedAffinity 12.2456141
REMARK minimizedRMSD -1
REMARK  1 active torsions:
REMARK  status: ('A' for Active; 'I' for Inactive)
REMARK    1  A    between atoms: N_2  and  C1_3 
ROOT
ATOM      1  C1  UNL d   1      -0.972  -3.000  -5.345  0.00  0.00     0.143 A 
ATOM      2  C2  UNL d   1      -1.350  -2.768  -4.019  0.00  0.00    -0.057 A 
ATOM      3  C3  UNL d   1      -1.063  -1.553  -3.384  0.00  0.00     0.033 A 
ATOM      4  C4  UNL d   1      -0.365  -0.557  -4.058  0.00  0.00    -0.042 A 
ATOM      5  C5  UNL d   1       0.042  -0.775  -5.369  0.00  0.00     0.033 A 
ATOM      6  C6  UNL d   1      -0.253  -1.987  -6.000  0.00  0.00    -0.057 A 
ENDROOT
BRANCH   1   7
ATOM      7  N   UNL d   1      -1.142  -4.222  -6.000  0.00  0.00    -0.732 N 
ATOM      8  C   UNL d   1      -0.773  -5.462  -5.352  0.00  0.00     0.284 C 
ATOM      9  H3  UNL d   1      -2.016  -4.268  -6.518  0.00  0.00     0.395 HD
ENDBRANCH   1   7
TORSDOF 1
ENDMDL
