MODEL 1
REMARK minimizedAffinity 8.92554569
REMARK minimizedRMSD -1
REMARK  1 active torsions:
REMARK  status: ('A' for Active; 'I' for Inactive)
REMARK    1  A    between atoms: N_2  and  C1_3 
ROOT
ATOM      1  C1  UNL d   1       2.034   0.235   3.777  0.00  0.00     0.143 A 
ATOM      2  C2  UNL d   1       1.611  -1.092   3.650  0.00  0.00    -0.057 A 
ATOM      3  C3  UNL d   1       0.303  -1.403   3.257  0.00  0.00     0.033 A 
ATOM      4  C4  UNL d   1      -0.616  -0.388   3.013  0.00  0.00    -0.042 A 
ATOM      5  C5  UNL d   1      -0.225   0.938   3.158  0.00  0.00     0.033 A 
ATOM      6  C6  UNL d   1       1.084   1.242   3.544  0.00  0.00    -0.057 A 
ENDROOT
BRANCH   1   7
ATOM      7  N   UNL d   1       3.291   0.608   4.259  0.00  0.00    -0.732 N 
ATOM      8  C   UNL d   1       4.107   1.557   3.532  0.00  0.00     0.284 C 
ATOM      9  H3  UNL d   1       3.296   0.742   5.268  0.00  0.00     0.395 HD
ENDBRANCH   1   7
TORSDOF 1
ENDMDL
