MODEL 1
REMARK minimizedAffinity 8.59605503
REMARK minimizedRMSD -1
REMARK  1 active torsions:
REMARK  status: ('A' for Active; 'I' for Inactive)
REMARK    1  A    between atoms: N_2  and  C1_3 
ROOT
ATOM      1  C1  UNL d   1       2.883   0.148  -5.584  0.00  0.00     0.143 A 
ATOM      2  C2  UNL d   1       3.456  -1.103  -5.334  0.00  0.00    -0.057 A 
ATOM      3  C3  UNL d   1       2.666  -2.252  -5.209  0.00  0.00     0.033 A 
ATOM      4  C4  UNL d   1       1.281  -2.164  -5.304  0.00  0.00    -0.042 A 
ATOM      5  C5  UNL d   1       0.688  -0.927  -5.527  0.00  0.00     0.033 A 
ATOM      6  C6  UNL d   1       1.483   0.216  -5.657  0.00  0.00    -0.057 A 
ENDROOT
BRANCH   1   7
ATOM      7  N   UNL d   1       3.607   1.343  -5.620  0.00  0.00    -0.732 N 
ATOM      8  C   UNL d   1       5.004   1.347  -6.000  0.00  0.00     0.284 C 
ATOM      9  H3  UNL d   1       3.068   2.112  -6.010  0.00  0.00     0.395 HD
ENDBRANCH   1   7
TORSDOF 1
ENDMDL
