MODEL 1
REMARK minimizedAffinity 1.28057837
REMARK minimizedRMSD -1
REMARK  1 active torsions:
REMARK  status: ('A' for Active; 'I' for Inactive)
REMARK    1  A    between atoms: N_2  and  C1_3 
ROOT
ATOM      1  C1  UNL d   1       1.724  -0.901   3.744  0.00  0.00     0.143 A 
ATOM      2  C2  UNL d   1       2.521   0.204   3.429  0.00  0.00    -0.057 A 
ATOM      3  C3  UNL d   1       1.958   1.389   2.937  0.00  0.00     0.033 A 
ATOM      4  C4  UNL d   1       0.587   1.478   2.725  0.00  0.00    -0.042 A 
ATOM      5  C5  UNL d   1      -0.222   0.384   3.008  0.00  0.00     0.033 A 
ATOM      6  C6  UNL d   1       0.345  -0.794   3.505  0.00  0.00    -0.057 A 
ENDROOT
BRANCH   1   7
ATOM      7  N   UNL d   1       2.233  -2.139   4.143  0.00  0.00    -0.732 N 
ATOM      8  C   UNL d   1       3.211  -2.226   5.207  0.00  0.00     0.284 C 
ATOM      9  H3  UNL d   1       1.517  -2.861   4.176  0.00  0.00     0.395 HD
ENDBRANCH   1   7
TORSDOF 1
ENDMDL
