MODEL 1
REMARK minimizedAffinity 10.3063364
REMARK minimizedRMSD -1
REMARK  1 active torsions:
REMARK  status: ('A' for Active; 'I' for Inactive)
REMARK    1  A    between atoms: N_2  and  C1_3 
ROOT
ATOM      1  C1  UNL d   1       0.765  -1.752  -5.758  0.00  0.00     0.143 A 
ATOM      2  C2  UNL d   1       0.623  -0.427  -5.332  0.00  0.00    -0.057 A 
ATOM      3  C3  UNL d   1       1.739   0.355  -5.010  0.00  0.00     0.033 A 
ATOM      4  C4  UNL d   1       3.019  -0.185  -5.081  0.00  0.00    -0.042 A 
ATOM      5  C5  UNL d   1       3.182  -1.507  -5.479  0.00  0.00     0.033 A 
ATOM      6  C6  UNL d   1       2.064  -2.281  -5.805  0.00  0.00    -0.057 A 
ENDROOT
BRANCH   1   7
ATOM      7  N   UNL d   1      -0.310  -2.611  -5.998  0.00  0.00    -0.732 N 
ATOM      8  C   UNL d   1      -0.121  -4.046  -6.000  0.00  0.00     0.284 C 
ATOM      9  H3  UNL d   1      -1.163  -2.304  -5.535  0.00  0.00     0.395 HD
ENDBRANCH   1   7
TORSDOF 1
ENDMDL
