MODEL 1
REMARK minimizedAffinity -4.11926937
REMARK minimizedRMSD -1
REMARK  1 active torsions:
REMARK  status: ('A' for Active; 'I' for Inactive)
REMARK    1  A    between atoms: C1_2  and  C2_3 
ROOT
ATOM      1  C2  UNL d   1       0.625  -0.331   1.287  0.00  0.00    -0.077 A 
ATOM      2  C3  UNL d   1      -0.775  -0.380   1.244  0.00  0.00     0.002 A 
ATOM      3  C4  UNL d   1      -1.461   0.026   0.097  0.00  0.00     0.002 A 
ATOM      4  C5  UNL d   1      -0.755   0.479  -1.015  0.00  0.00    -0.004 A 
ATOM      5  C6  UNL d   1       0.638   0.533  -0.982  0.00  0.00     0.002 A 
ATOM      6  C7  UNL d   1       1.325   0.129   0.164  0.00  0.00     0.002 A 
ENDROOT
BRANCH   1   7
ATOM      7  C1  UNL d   1       1.369  -0.814   2.505  0.00  0.00     0.055 C 
ATOM      8  C   UNL d   1       2.297  -1.971   2.164  0.00  0.00     0.019 C 
ENDBRANCH   1   7
TORSDOF 1
ENDMDL
