MODEL 1
REMARK minimizedAffinity -3.44713402
REMARK minimizedRMSD -1
REMARK  1 active torsions:
REMARK  status: ('A' for Active; 'I' for Inactive)
REMARK    1  A    between atoms: C1_2  and  C2_3 
ROOT
ATOM      1  C2  UNL d   1       3.945   5.995   3.768  0.00  0.00    -0.077 A 
ATOM      2  C3  UNL d   1       4.067   5.996   5.164  0.00  0.00     0.002 A 
ATOM      3  C4  UNL d   1       2.929   5.999   5.973  0.00  0.00     0.002 A 
ATOM      4  C5  UNL d   1       1.661   5.997   5.394  0.00  0.00    -0.004 A 
ATOM      5  C6  UNL d   1       1.529   5.998   4.006  0.00  0.00     0.002 A 
ATOM      6  C7  UNL d   1       2.666   5.996   3.197  0.00  0.00     0.002 A 
ENDROOT
BRANCH   1   7
ATOM      7  C1  UNL d   1       5.171   5.942   2.894  0.00  0.00     0.055 C 
ATOM      8  C   UNL d   1       5.342   4.567   2.264  0.00  0.00     0.019 C 
ENDBRANCH   1   7
TORSDOF 1
ENDMDL
