MODEL 1
REMARK minimizedAffinity 2.00500536
REMARK minimizedRMSD -1
REMARK  1 active torsions:
REMARK  status: ('A' for Active; 'I' for Inactive)
REMARK    1  A    between atoms: C1_2  and  C2_3 
ROOT
ATOM      1  C2  UNL d   1       2.129  -0.409  -0.751  0.00  0.00    -0.077 A 
ATOM      2  C3  UNL d   1       3.387  -0.263  -0.149  0.00  0.00     0.002 A 
ATOM      3  C4  UNL d   1       4.329   0.617  -0.685  0.00  0.00     0.002 A 
ATOM      4  C5  UNL d   1       4.022   1.361  -1.822  0.00  0.00    -0.004 A 
ATOM      5  C6  UNL d   1       2.775   1.222  -2.429  0.00  0.00     0.002 A 
ATOM      6  C7  UNL d   1       1.832   0.342  -1.896  0.00  0.00     0.002 A 
ENDROOT
BRANCH   1   7
ATOM      7  C1  UNL d   1       1.094  -1.320  -0.146  0.00  0.00     0.055 C 
ATOM      8  C   UNL d   1       0.021  -0.529   0.588  0.00  0.00     0.019 C 
ENDBRANCH   1   7
TORSDOF 1
ENDMDL
