MODEL 1
REMARK minimizedAffinity 2.78039455
REMARK minimizedRMSD -1
REMARK  1 active torsions:
REMARK  status: ('A' for Active; 'I' for Inactive)
REMARK    1  A    between atoms: C1_2  and  C2_3 
ROOT
ATOM      1  C2  UNL d   1      -0.369  -0.682   1.335  0.00  0.00    -0.077 A 
ATOM      2  C3  UNL d   1       0.130  -1.145   0.110  0.00  0.00     0.002 A 
ATOM      3  C4  UNL d   1       1.505  -1.301  -0.080  0.00  0.00     0.002 A 
ATOM      4  C5  UNL d   1       2.390  -1.000   0.953  0.00  0.00    -0.004 A 
ATOM      5  C6  UNL d   1       1.904  -0.537   2.175  0.00  0.00     0.002 A 
ATOM      6  C7  UNL d   1       0.531  -0.379   2.365  0.00  0.00     0.002 A 
ENDROOT
BRANCH   1   7
ATOM      7  C1  UNL d   1      -1.854  -0.560   1.558  0.00  0.00     0.055 C 
ATOM      8  C   UNL d   1      -2.220  -0.831   3.010  0.00  0.00     0.019 C 
ENDBRANCH   1   7
TORSDOF 1
ENDMDL
