MODEL 1
REMARK minimizedAffinity 1.71192348
REMARK minimizedRMSD -1
REMARK  1 active torsions:
REMARK  status: ('A' for Active; 'I' for Inactive)
REMARK    1  A    between atoms: C1_2  and  C2_3 
ROOT
ATOM      1  C2  UNL d   1      -1.159  -0.482   0.390  0.00  0.00    -0.077 A 
ATOM      2  C3  UNL d   1      -0.219  -0.858  -0.580  0.00  0.00     0.002 A 
ATOM      3  C4  UNL d   1       1.095  -1.154  -0.211  0.00  0.00     0.002 A 
ATOM      4  C5  UNL d   1       1.479  -1.082   1.126  0.00  0.00    -0.004 A 
ATOM      5  C6  UNL d   1       0.551  -0.707   2.097  0.00  0.00     0.002 A 
ATOM      6  C7  UNL d   1      -0.762  -0.410   1.731  0.00  0.00     0.002 A 
ENDROOT
BRANCH   1   7
ATOM      7  C1  UNL d   1      -2.589  -0.210   0.001  0.00  0.00     0.055 C 
ATOM      8  C   UNL d   1      -3.556  -0.692   1.073  0.00  0.00     0.019 C 
ENDBRANCH   1   7
TORSDOF 1
ENDMDL
