MODEL 1
REMARK minimizedAffinity -2.42334509
REMARK minimizedRMSD -1
REMARK  1 active torsions:
REMARK  status: ('A' for Active; 'I' for Inactive)
REMARK    1  A    between atoms: C1_2  and  C2_3 
ROOT
ATOM      1  C2  UNL d   1       2.820   5.961   3.483  0.00  0.00    -0.077 A 
ATOM      2  C3  UNL d   1       3.586   5.993   4.657  0.00  0.00     0.002 A 
ATOM      3  C4  UNL d   1       2.963   6.000   5.906  0.00  0.00     0.002 A 
ATOM      4  C5  UNL d   1       1.572   5.971   5.994  0.00  0.00    -0.004 A 
ATOM      5  C6  UNL d   1       0.802   5.941   4.832  0.00  0.00     0.002 A 
ATOM      6  C7  UNL d   1       1.423   5.935   3.582  0.00  0.00     0.002 A 
ENDROOT
BRANCH   1   7
ATOM      7  C1  UNL d   1       3.491   5.904   2.135  0.00  0.00     0.055 C 
ATOM      8  C   UNL d   1       5.005   5.991   2.267  0.00  0.00     0.019 C 
ENDBRANCH   1   7
TORSDOF 1
ENDMDL
