MODEL 1
REMARK minimizedAffinity 0.609392524
REMARK minimizedRMSD -1
REMARK  1 active torsions:
REMARK  status: ('A' for Active; 'I' for Inactive)
REMARK    1  A    between atoms: C1_2  and  C2_3 
ROOT
ATOM      1  C2  UNL d   1       2.663   5.597   3.563  0.00  0.00    -0.077 A 
ATOM      2  C3  UNL d   1       3.373   5.605   4.772  0.00  0.00     0.002 A 
ATOM      3  C4  UNL d   1       2.705   5.806   5.981  0.00  0.00     0.002 A 
ATOM      4  C5  UNL d   1       1.324   5.995   5.994  0.00  0.00    -0.004 A 
ATOM      5  C6  UNL d   1       0.610   5.991   4.796  0.00  0.00     0.002 A 
ATOM      6  C7  UNL d   1       1.276   5.792   3.586  0.00  0.00     0.002 A 
ENDROOT
BRANCH   1   7
ATOM      7  C1  UNL d   1       3.375   5.332   2.262  0.00  0.00     0.055 C 
ATOM      8  C   UNL d   1       4.222   4.071   2.341  0.00  0.00     0.019 C 
ENDBRANCH   1   7
TORSDOF 1
ENDMDL
