MODEL 1
REMARK minimizedAffinity -0.725268245
REMARK minimizedRMSD -1
REMARK  1 active torsions:
REMARK  status: ('A' for Active; 'I' for Inactive)
REMARK    1  A    between atoms: C1_2  and  C2_3 
ROOT
ATOM      1  C2  UNL d   1       1.724  -2.727   0.904  0.00  0.00    -0.077 A 
ATOM      2  C3  UNL d   1       0.778  -2.286   1.840  0.00  0.00     0.002 A 
ATOM      3  C4  UNL d   1      -0.020  -1.173   1.568  0.00  0.00     0.002 A 
ATOM      4  C5  UNL d   1       0.116  -0.495   0.358  0.00  0.00    -0.004 A 
ATOM      5  C6  UNL d   1       1.055  -0.925  -0.579  0.00  0.00     0.002 A 
ATOM      6  C7  UNL d   1       1.855  -2.036  -0.307  0.00  0.00     0.002 A 
ENDROOT
BRANCH   1   7
ATOM      7  C1  UNL d   1       2.551  -3.956   1.176  0.00  0.00     0.055 C 
ATOM      8  C   UNL d   1       3.568  -4.195   0.069  0.00  0.00     0.019 C 
ENDBRANCH   1   7
TORSDOF 1
ENDMDL
