MODEL 1
REMARK minimizedAffinity -0.280239522
REMARK minimizedRMSD -1
REMARK  1 active torsions:
REMARK  status: ('A' for Active; 'I' for Inactive)
REMARK    1  A    between atoms: C1_2  and  C2_3 
ROOT
ATOM      1  C2  UNL d   1       2.645   5.921   3.435  0.00  0.00    -0.077 A 
ATOM      2  C3  UNL d   1       1.254   5.997   3.596  0.00  0.00     0.002 A 
ATOM      3  C4  UNL d   1       0.691   5.997   4.874  0.00  0.00     0.002 A 
ATOM      4  C5  UNL d   1       1.510   5.926   5.999  0.00  0.00    -0.004 A 
ATOM      5  C6  UNL d   1       2.894   5.849   5.848  0.00  0.00     0.002 A 
ATOM      6  C7  UNL d   1       3.459   5.847   4.572  0.00  0.00     0.002 A 
ENDROOT
BRANCH   1   7
ATOM      7  C1  UNL d   1       3.258   5.971   2.060  0.00  0.00     0.055 C 
ATOM      8  C   UNL d   1       4.777   5.928   2.129  0.00  0.00     0.019 C 
ENDBRANCH   1   7
TORSDOF 1
ENDMDL
