MODEL 1
REMARK minimizedAffinity 5.63373184
REMARK minimizedRMSD -1
REMARK  1 active torsions:
REMARK  status: ('A' for Active; 'I' for Inactive)
REMARK    1  A    between atoms: C1_2  and  C2_3 
ROOT
ATOM      1  C2  UNL d   1      -0.017   2.026   1.129  0.00  0.00    -0.077 A 
ATOM      2  C3  UNL d   1       1.132   1.331   1.532  0.00  0.00     0.002 A 
ATOM      3  C4  UNL d   1       1.121   0.567   2.700  0.00  0.00     0.002 A 
ATOM      4  C5  UNL d   1      -0.036   0.487   3.472  0.00  0.00    -0.004 A 
ATOM      5  C6  UNL d   1      -1.183   1.176   3.081  0.00  0.00     0.002 A 
ATOM      6  C7  UNL d   1      -1.174   1.942   1.914  0.00  0.00     0.002 A 
ENDROOT
BRANCH   1   7
ATOM      7  C1  UNL d   1      -0.023   2.812  -0.157  0.00  0.00     0.055 C 
ATOM      8  C   UNL d   1      -0.079   1.891  -1.367  0.00  0.00     0.019 C 
ENDBRANCH   1   7
TORSDOF 1
ENDMDL
