MODEL 1
REMARK minimizedAffinity 1.53573298
REMARK minimizedRMSD -1
REMARK  1 active torsions:
REMARK  status: ('A' for Active; 'I' for Inactive)
REMARK    1  A    between atoms: C1_2  and  C2_3 
ROOT
ATOM      1  C2  UNL d   1       0.403   1.497   2.267  0.00  0.00    -0.077 A 
ATOM      2  C3  UNL d   1      -0.947   1.500   2.643  0.00  0.00     0.002 A 
ATOM      3  C4  UNL d   1      -1.739   2.629   2.425  0.00  0.00     0.002 A 
ATOM      4  C5  UNL d   1      -1.190   3.762   1.829  0.00  0.00    -0.004 A 
ATOM      5  C6  UNL d   1       0.153   3.770   1.454  0.00  0.00     0.002 A 
ATOM      6  C7  UNL d   1       0.946   2.643   1.671  0.00  0.00     0.002 A 
ENDROOT
BRANCH   1   7
ATOM      7  C1  UNL d   1       1.246   0.263   2.456  0.00  0.00     0.055 C 
ATOM      8  C   UNL d   1       0.678  -0.634   3.547  0.00  0.00     0.019 C 
ENDBRANCH   1   7
TORSDOF 1
ENDMDL
