MODEL 1
REMARK minimizedAffinity 4.6206665
REMARK minimizedRMSD -1
REMARK  1 active torsions:
REMARK  status: ('A' for Active; 'I' for Inactive)
REMARK    1  A    between atoms: C1_2  and  C2_3 
ROOT
ATOM      1  C2  UNL d   1       0.152   0.047  -0.074  0.00  0.00    -0.077 A 
ATOM      2  C3  UNL d   1       1.164  -0.886   0.190  0.00  0.00     0.002 A 
ATOM      3  C4  UNL d   1       1.613  -1.091   1.496  0.00  0.00     0.002 A 
ATOM      4  C5  UNL d   1       1.052  -0.370   2.548  0.00  0.00    -0.004 A 
ATOM      5  C6  UNL d   1       0.047   0.562   2.296  0.00  0.00     0.002 A 
ATOM      6  C7  UNL d   1      -0.402   0.769   0.991  0.00  0.00     0.002 A 
ENDROOT
BRANCH   1   7
ATOM      7  C1  UNL d   1      -0.367   0.234  -1.476  0.00  0.00     0.055 C 
ATOM      8  C   UNL d   1      -1.869  -0.002  -1.546  0.00  0.00     0.019 C 
ENDBRANCH   1   7
TORSDOF 1
ENDMDL
