MODEL 1
REMARK minimizedAffinity 0.820146024
REMARK minimizedRMSD -1
REMARK  1 active torsions:
REMARK  status: ('A' for Active; 'I' for Inactive)
REMARK    1  A    between atoms: C1_2  and  C2_3 
ROOT
ATOM      1  C2  UNL d   1       0.414   0.538   0.777  0.00  0.00    -0.077 A 
ATOM      2  C3  UNL d   1       0.009  -0.585   1.512  0.00  0.00     0.002 A 
ATOM      3  C4  UNL d   1       0.025  -0.560   2.908  0.00  0.00     0.002 A 
ATOM      4  C5  UNL d   1       0.442   0.587   3.580  0.00  0.00    -0.004 A 
ATOM      5  C6  UNL d   1       0.849   1.708   2.859  0.00  0.00     0.002 A 
ATOM      6  C7  UNL d   1       0.835   1.684   1.464  0.00  0.00     0.002 A 
ENDROOT
BRANCH   1   7
ATOM      7  C1  UNL d   1       0.351   0.530  -0.728  0.00  0.00     0.055 C 
ATOM      8  C   UNL d   1      -1.089   0.493  -1.221  0.00  0.00     0.019 C 
ENDBRANCH   1   7
TORSDOF 1
ENDMDL
