MODEL 1
REMARK minimizedAffinity 4.68078184
REMARK minimizedRMSD -1
REMARK  1 active torsions:
REMARK  status: ('A' for Active; 'I' for Inactive)
REMARK    1  A    between atoms: C1_2  and  C2_3 
ROOT
ATOM      1  C2  UNL d   1      -1.609   0.237   2.274  0.00  0.00    -0.073 A 
ATOM      2  C3  UNL d   1      -2.541   1.268   2.440  0.00  0.00    -0.002 A 
ATOM      3  C4  UNL d   1      -2.237   2.565   2.025  0.00  0.00     0.004 A 
ATOM      4  C5  UNL d   1      -1.005   2.843   1.435  0.00  0.00    -0.004 A 
ATOM      5  C6  UNL d   1      -0.065   1.824   1.249  0.00  0.00    -0.075 A 
ATOM      6  C7  UNL d   1       1.266   2.107   0.618  0.00  0.00     0.076 C 
ATOM      7  C8  UNL d   1      -0.376   0.524   1.671  0.00  0.00     0.001 A 
ENDROOT
BRANCH   1   8
ATOM      8  C1  UNL d   1      -1.935  -1.167   2.715  0.00  0.00     0.053 C 
ATOM      9  C   UNL d   1      -0.725  -2.085   2.633  0.00  0.00     0.018 C 
ENDBRANCH   1   8
TORSDOF 1
ENDMDL
