MODEL 1
REMARK minimizedAffinity 1.36905408
REMARK minimizedRMSD -1
REMARK  1 active torsions:
REMARK  status: ('A' for Active; 'I' for Inactive)
REMARK    1  A    between atoms: C1_2  and  C2_3 
ROOT
ATOM      1  C2  UNL d   1      -4.513   2.384   4.310  0.00  0.00    -0.073 A 
ATOM      2  C3  UNL d   1      -5.247   2.245   5.493  0.00  0.00    -0.002 A 
ATOM      3  C4  UNL d   1      -5.983   3.318   5.997  0.00  0.00     0.004 A 
ATOM      4  C5  UNL d   1      -5.998   4.538   5.320  0.00  0.00    -0.004 A 
ATOM      5  C6  UNL d   1      -5.280   4.694   4.130  0.00  0.00    -0.075 A 
ATOM      6  C7  UNL d   1      -5.283   6.000   3.392  0.00  0.00     0.076 C 
ATOM      7  C8  UNL d   1      -4.541   3.612   3.633  0.00  0.00     0.001 A 
ENDROOT
BRANCH   1   8
ATOM      8  C1  UNL d   1      -3.722   1.226   3.759  0.00  0.00     0.053 C 
ATOM      9  C   UNL d   1      -2.651   1.681   2.781  0.00  0.00     0.018 C 
ENDBRANCH   1   8
TORSDOF 1
ENDMDL
