MODEL 1
REMARK minimizedAffinity 8.75790119
REMARK minimizedRMSD -1
REMARK  1 active torsions:
REMARK  status: ('A' for Active; 'I' for Inactive)
REMARK    1  A    between atoms: C1_2  and  C2_3 
ROOT
ATOM      1  C2  UNL d   1      -0.673  -0.225   2.212  0.00  0.00    -0.073 A 
ATOM      2  C3  UNL d   1       0.613  -0.425   1.698  0.00  0.00    -0.002 A 
ATOM      3  C4  UNL d   1       1.306   0.631   1.104  0.00  0.00     0.004 A 
ATOM      4  C5  UNL d   1       0.725   1.896   1.025  0.00  0.00    -0.004 A 
ATOM      5  C6  UNL d   1      -0.555   2.118   1.543  0.00  0.00    -0.075 A 
ATOM      6  C7  UNL d   1      -1.195   3.473   1.464  0.00  0.00     0.076 C 
ATOM      7  C8  UNL d   1      -1.246   1.053   2.136  0.00  0.00     0.001 A 
ENDROOT
BRANCH   1   8
ATOM      8  C1  UNL d   1      -1.423  -1.360   2.860  0.00  0.00     0.053 C 
ATOM      9  C   UNL d   1      -0.780  -2.707   2.570  0.00  0.00     0.018 C 
ENDBRANCH   1   8
TORSDOF 1
ENDMDL
