MODEL 1
REMARK minimizedAffinity 4.48215961
REMARK minimizedRMSD -1
REMARK  1 active torsions:
REMARK  status: ('A' for Active; 'I' for Inactive)
REMARK    1  A    between atoms: C1_2  and  C2_3 
ROOT
ATOM      1  C2  UNL d   1      -2.521  -2.328  -0.448  0.00  0.00    -0.073 A 
ATOM      2  C3  UNL d   1      -1.823  -3.469  -0.861  0.00  0.00    -0.002 A 
ATOM      3  C4  UNL d   1      -0.755  -3.953  -0.105  0.00  0.00     0.004 A 
ATOM      4  C5  UNL d   1      -0.378  -3.308   1.072  0.00  0.00    -0.004 A 
ATOM      5  C6  UNL d   1      -1.070  -2.173   1.507  0.00  0.00    -0.075 A 
ATOM      6  C7  UNL d   1      -0.676  -1.466   2.771  0.00  0.00     0.076 C 
ATOM      7  C8  UNL d   1      -2.141  -1.691   0.742  0.00  0.00     0.001 A 
ENDROOT
BRANCH   1   8
ATOM      8  C1  UNL d   1      -3.680  -1.805  -1.257  0.00  0.00     0.053 C 
ATOM      9  C   UNL d   1      -3.242  -0.761  -2.272  0.00  0.00     0.018 C 
ENDBRANCH   1   8
TORSDOF 1
ENDMDL
