MODEL 1
REMARK minimizedAffinity 5.45959854
REMARK minimizedRMSD -1
REMARK  1 active torsions:
REMARK  status: ('A' for Active; 'I' for Inactive)
REMARK    1  A    between atoms: C1_2  and  C2_3 
ROOT
ATOM      1  C2  UNL d   1      -2.436  -4.183  -0.606  0.00  0.00    -0.073 A 
ATOM      2  C3  UNL d   1      -3.683  -3.947  -0.018  0.00  0.00    -0.002 A 
ATOM      3  C4  UNL d   1      -4.551  -2.998  -0.561  0.00  0.00     0.004 A 
ATOM      4  C5  UNL d   1      -4.183  -2.283  -1.701  0.00  0.00    -0.004 A 
ATOM      5  C6  UNL d   1      -2.946  -2.514  -2.310  0.00  0.00    -0.075 A 
ATOM      6  C7  UNL d   1      -2.534  -1.751  -3.535  0.00  0.00     0.076 C 
ATOM      7  C8  UNL d   1      -2.079  -3.466  -1.756  0.00  0.00     0.001 A 
ENDROOT
BRANCH   1   8
ATOM      8  C1  UNL d   1      -1.499  -5.211  -0.026  0.00  0.00     0.053 C 
ATOM      9  C   UNL d   1      -0.089  -4.666   0.144  0.00  0.00     0.018 C 
ENDBRANCH   1   8
TORSDOF 1
ENDMDL
