MODEL 1
REMARK minimizedAffinity 7.95666552
REMARK minimizedRMSD -1
REMARK  1 active torsions:
REMARK  status: ('A' for Active; 'I' for Inactive)
REMARK    1  A    between atoms: C1_2  and  C2_3 
ROOT
ATOM      1  C2  UNL d   1       0.816   0.663   1.741  0.00  0.00    -0.073 A 
ATOM      2  C3  UNL d   1       1.512   1.640   1.020  0.00  0.00    -0.002 A 
ATOM      3  C4  UNL d   1       0.920   2.874   0.751  0.00  0.00     0.004 A 
ATOM      4  C5  UNL d   1      -0.370   3.147   1.206  0.00  0.00    -0.004 A 
ATOM      5  C6  UNL d   1      -1.077   2.189   1.939  0.00  0.00    -0.075 A 
ATOM      6  C7  UNL d   1      -2.466   2.467   2.434  0.00  0.00     0.076 C 
ATOM      7  C8  UNL d   1      -0.476   0.951   2.203  0.00  0.00     0.001 A 
ENDROOT
BRANCH   1   8
ATOM      8  C1  UNL d   1       1.455  -0.668   2.040  0.00  0.00     0.053 C 
ATOM      9  C   UNL d   1       1.335  -1.042   3.509  0.00  0.00     0.018 C 
ENDBRANCH   1   8
TORSDOF 1
ENDMDL
