MODEL 1
REMARK minimizedAffinity 4.13768387
REMARK minimizedRMSD -1
REMARK  1 active torsions:
REMARK  status: ('A' for Active; 'I' for Inactive)
REMARK    1  A    between atoms: C1_2  and  C2_3 
ROOT
ATOM      1  C2  UNL d   1      -2.297   1.633   2.466  0.00  0.00    -0.073 A 
ATOM      2  C3  UNL d   1      -2.141   2.769   1.664  0.00  0.00    -0.002 A 
ATOM      3  C4  UNL d   1      -0.916   3.038   1.052  0.00  0.00     0.004 A 
ATOM      4  C5  UNL d   1       0.162   2.170   1.228  0.00  0.00    -0.004 A 
ATOM      5  C6  UNL d   1       0.022   1.023   2.016  0.00  0.00    -0.075 A 
ATOM      6  C7  UNL d   1       1.173   0.080   2.217  0.00  0.00     0.076 C 
ATOM      7  C8  UNL d   1      -1.210   0.762   2.630  0.00  0.00     0.001 A 
ENDROOT
BRANCH   1   8
ATOM      8  C1  UNL d   1      -3.620   1.336   3.124  0.00  0.00     0.053 C 
ATOM      9  C   UNL d   1      -4.092   2.486   3.998  0.00  0.00     0.018 C 
ENDBRANCH   1   8
TORSDOF 1
ENDMDL
