MODEL 1
REMARK minimizedAffinity 5.38763571
REMARK minimizedRMSD -1
REMARK  1 active torsions:
REMARK  status: ('A' for Active; 'I' for Inactive)
REMARK    1  A    between atoms: C1_2  and  C2_3 
ROOT
ATOM      1  C2  UNL d   1      -1.855   0.222   2.251  0.00  0.00    -0.073 A 
ATOM      2  C3  UNL d   1      -2.710   1.325   2.355  0.00  0.00    -0.002 A 
ATOM      3  C4  UNL d   1      -2.261   2.601   2.012  0.00  0.00     0.004 A 
ATOM      4  C5  UNL d   1      -0.956   2.786   1.555  0.00  0.00    -0.004 A 
ATOM      5  C6  UNL d   1      -0.090   1.694   1.432  0.00  0.00    -0.075 A 
ATOM      6  C7  UNL d   1       1.317   1.877   0.945  0.00  0.00     0.076 C 
ATOM      7  C8  UNL d   1      -0.548   0.417   1.782  0.00  0.00     0.001 A 
ENDROOT
BRANCH   1   8
ATOM      8  C1  UNL d   1      -2.338  -1.158   2.614  0.00  0.00     0.053 C 
ATOM      9  C   UNL d   1      -1.257  -1.979   3.299  0.00  0.00     0.018 C 
ENDBRANCH   1   8
TORSDOF 1
ENDMDL
