MODEL 1
REMARK minimizedAffinity 13.6027184
REMARK minimizedRMSD -1
REMARK  1 active torsions:
REMARK  status: ('A' for Active; 'I' for Inactive)
REMARK    1  A    between atoms: C1_2  and  C2_3 
ROOT
ATOM      1  C2  UNL d   1       3.589   5.546  -2.537  0.00  0.00    -0.073 A 
ATOM      2  C3  UNL d   1       2.531   4.691  -2.867  0.00  0.00    -0.002 A 
ATOM      3  C4  UNL d   1       2.351   4.269  -4.185  0.00  0.00     0.004 A 
ATOM      4  C5  UNL d   1       3.230   4.691  -5.183  0.00  0.00    -0.004 A 
ATOM      5  C6  UNL d   1       4.300   5.535  -4.871  0.00  0.00    -0.075 A 
ATOM      6  C7  UNL d   1       5.252   5.999  -5.933  0.00  0.00     0.076 C 
ATOM      7  C8  UNL d   1       4.472   5.957  -3.545  0.00  0.00     0.001 A 
ENDROOT
BRANCH   1   8
ATOM      8  C1  UNL d   1       3.791   5.999  -1.114  0.00  0.00     0.053 C 
ATOM      9  C   UNL d   1       3.196   5.020  -0.114  0.00  0.00     0.018 C 
ENDBRANCH   1   8
TORSDOF 1
ENDMDL
