MODEL 1
REMARK minimizedAffinity -0.162878558
REMARK minimizedRMSD -1
REMARK  1 active torsions:
REMARK  status: ('A' for Active; 'I' for Inactive)
REMARK    1  A    between atoms: C1_2  and  C2_3 
ROOT
ATOM      1  C2  UNL d   1       0.117   2.331   1.190  0.00  0.00    -0.073 A 
ATOM      2  C3  UNL d   1       0.975   1.271   0.877  0.00  0.00    -0.002 A 
ATOM      3  C4  UNL d   1       0.552  -0.049   1.040  0.00  0.00     0.004 A 
ATOM      4  C5  UNL d   1      -0.732  -0.322   1.511  0.00  0.00    -0.004 A 
ATOM      5  C6  UNL d   1      -1.608   0.724   1.818  0.00  0.00    -0.075 A 
ATOM      6  C7  UNL d   1      -2.992   0.447   2.327  0.00  0.00     0.076 C 
ATOM      7  C8  UNL d   1      -1.175   2.047   1.654  0.00  0.00     0.001 A 
ENDROOT
BRANCH   1   8
ATOM      8  C1  UNL d   1       0.566   3.758   1.009  0.00  0.00     0.053 C 
ATOM      9  C   UNL d   1       2.049   3.852   0.684  0.00  0.00     0.018 C 
ENDBRANCH   1   8
TORSDOF 1
ENDMDL
