MODEL 1
REMARK minimizedAffinity -1.25658846
REMARK minimizedRMSD -1
REMARK  1 active torsions:
REMARK  status: ('A' for Active; 'I' for Inactive)
REMARK    1  A    between atoms: C1_2  and  C2_3 
ROOT
ATOM      1  C2  UNL d   1      -0.865  -0.656   2.850  0.00  0.00    -0.073 A 
ATOM      2  C3  UNL d   1       0.135  -1.170   3.684  0.00  0.00    -0.002 A 
ATOM      3  C4  UNL d   1       1.447  -0.706   3.580  0.00  0.00     0.004 A 
ATOM      4  C5  UNL d   1       1.771   0.279   2.647  0.00  0.00    -0.004 A 
ATOM      5  C6  UNL d   1       0.784   0.814   1.814  0.00  0.00    -0.075 A 
ATOM      6  C7  UNL d   1       1.117   1.873   0.804  0.00  0.00     0.076 C 
ATOM      7  C8  UNL d   1      -0.531   0.341   1.922  0.00  0.00     0.001 A 
ENDROOT
BRANCH   1   8
ATOM      8  C1  UNL d   1      -2.285  -1.149   2.964  0.00  0.00     0.053 C 
ATOM      9  C   UNL d   1      -2.650  -1.509   4.395  0.00  0.00     0.018 C 
ENDBRANCH   1   8
TORSDOF 1
ENDMDL
