MODEL 1
REMARK minimizedAffinity -5.59809303
REMARK minimizedRMSD -1
REMARK  0 active torsions:
REMARK  status: ('A' for Active; 'I' for Inactive)
ROOT
ATOM      1  C4' PXY d   1       4.117   0.152  -3.546  0.00  0.00     0.077 C 
ATOM      2  C1' PXY d   1      -0.979   0.591  -0.853  0.00  0.00     0.077 C 
ATOM      3  C1  PXY d   1       0.353   0.484  -1.569  0.00  0.00    -0.082 A 
ATOM      4  C2  PXY d   1       1.131  -0.564  -1.349  0.00  0.00     0.003 A 
ATOM      5  C3  PXY d   1       2.353  -0.661  -1.963  0.00  0.00     0.003 A 
ATOM      6  C4  PXY d   1       2.760   0.297  -2.853  0.00  0.00    -0.082 A 
ATOM      7  C5  PXY d   1       1.967   1.364  -3.091  0.00  0.00     0.003 A 
ATOM      8  C6  PXY d   1       0.748   1.464  -2.426  0.00  0.00     0.003 A 
ENDROOT
TORSDOF 0
ENDMDL
