MODEL 1
REMARK minimizedAffinity -2.38077331
REMARK minimizedRMSD -1
REMARK  0 active torsions:
REMARK  status: ('A' for Active; 'I' for Inactive)
ROOT
ATOM      1  C4' PXY d   1       0.857   2.610  -2.147  0.00  0.00     0.077 C 
ATOM      2  C1' PXY d   1      -0.700  -2.334   0.411  0.00  0.00     0.077 C 
ATOM      3  C1  PXY d   1      -0.304  -1.034  -0.259  0.00  0.00    -0.082 A 
ATOM      4  C2  PXY d   1       0.779  -0.992  -1.018  0.00  0.00     0.003 A 
ATOM      5  C3  PXY d   1       1.170   0.184  -1.606  0.00  0.00     0.003 A 
ATOM      6  C4  PXY d   1       0.414   1.316  -1.459  0.00  0.00    -0.082 A 
ATOM      7  C5  PXY d   1      -0.698   1.279  -0.695  0.00  0.00     0.003 A 
ATOM      8  C6  PXY d   1      -1.055   0.086  -0.073  0.00  0.00     0.003 A 
ENDROOT
TORSDOF 0
ENDMDL
