MODEL 1
REMARK minimizedAffinity -5.2755518
REMARK minimizedRMSD -1
REMARK  0 active torsions:
REMARK  status: ('A' for Active; 'I' for Inactive)
ROOT
ATOM      1  C4' PXY d   1       2.234   2.434  -2.565  0.00  0.00     0.077 C 
ATOM      2  C1' PXY d   1       0.042  -2.036   0.373  0.00  0.00     0.077 C 
ATOM      3  C1  PXY d   1       0.629  -0.869  -0.397  0.00  0.00    -0.082 A 
ATOM      4  C2  PXY d   1      -0.018   0.285  -0.430  0.00  0.00     0.003 A 
ATOM      5  C3  PXY d   1       0.482   1.341  -1.147  0.00  0.00     0.003 A 
ATOM      6  C4  PXY d   1       1.684   1.232  -1.793  0.00  0.00    -0.082 A 
ATOM      7  C5  PXY d   1       2.356   0.061  -1.756  0.00  0.00     0.003 A 
ATOM      8  C6  PXY d   1       1.811  -1.011  -1.056  0.00  0.00     0.003 A 
ENDROOT
TORSDOF 0
ENDMDL
