MODEL 1
REMARK minimizedAffinity -4.74665689
REMARK minimizedRMSD -1
REMARK  0 active torsions:
REMARK  status: ('A' for Active; 'I' for Inactive)
ROOT
ATOM      1  C4' PXY d   1      -2.065   1.249   2.943  0.00  0.00     0.077 C 
ATOM      2  C1' PXY d   1       1.300  -1.334  -0.984  0.00  0.00     0.077 C 
ATOM      3  C1  PXY d   1       0.410  -0.652   0.037  0.00  0.00    -0.082 A 
ATOM      4  C2  PXY d   1       0.906  -0.316   1.216  0.00  0.00     0.003 A 
ATOM      5  C3  PXY d   1       0.106   0.272   2.162  0.00  0.00     0.003 A 
ATOM      6  C4  PXY d   1      -1.200   0.568   1.879  0.00  0.00    -0.082 A 
ATOM      7  C5  PXY d   1      -1.711   0.237   0.674  0.00  0.00     0.003 A 
ATOM      8  C6  PXY d   1      -0.894  -0.397  -0.258  0.00  0.00     0.003 A 
ENDROOT
TORSDOF 0
ENDMDL
