MODEL 1
REMARK minimizedAffinity -0.124384426
REMARK minimizedRMSD -1
REMARK  0 active torsions:
REMARK  status: ('A' for Active; 'I' for Inactive)
ROOT
ATOM      1  C4' PXY d   1      -0.000  -1.166  -0.124  0.00  0.00     0.077 C 
ATOM      2  C1' PXY d   1      -2.509   2.002   4.009  0.00  0.00     0.077 C 
ATOM      3  C1  PXY d   1      -1.851   1.182   2.918  0.00  0.00    -0.082 A 
ATOM      4  C2  PXY d   1      -2.008  -0.132   2.902  0.00  0.00     0.003 A 
ATOM      5  C3  PXY d   1      -1.393  -0.892   1.940  0.00  0.00     0.003 A 
ATOM      6  C4  PXY d   1      -0.654  -0.297   0.954  0.00  0.00    -0.082 A 
ATOM      7  C5  PXY d   1      -0.498   1.044   0.957  0.00  0.00     0.003 A 
ATOM      8  C6  PXY d   1      -1.097   1.794   1.965  0.00  0.00     0.003 A 
ENDROOT
TORSDOF 0
ENDMDL
