MODEL 1
REMARK minimizedAffinity -3.76879597
REMARK minimizedRMSD -1
REMARK  0 active torsions:
REMARK  status: ('A' for Active; 'I' for Inactive)
ROOT
ATOM      1  C4' PXY d   1      -2.298   1.322   3.185  0.00  0.00     0.077 C 
ATOM      2  C1' PXY d   1       1.219  -1.121  -0.697  0.00  0.00     0.077 C 
ATOM      3  C1  PXY d   1       0.290  -0.475   0.311  0.00  0.00    -0.082 A 
ATOM      4  C2  PXY d   1       0.718  -0.246   1.542  0.00  0.00     0.003 A 
ATOM      5  C3  PXY d   1      -0.120   0.309   2.476  0.00  0.00     0.003 A 
ATOM      6  C4  PXY d   1      -1.392   0.680   2.131  0.00  0.00    -0.082 A 
ATOM      7  C5  PXY d   1      -1.833   0.459   0.875  0.00  0.00     0.003 A 
ATOM      8  C6  PXY d   1      -0.980  -0.142  -0.047  0.00  0.00     0.003 A 
ENDROOT
TORSDOF 0
ENDMDL
