MODEL 1
REMARK minimizedAffinity -4.30263424
REMARK minimizedRMSD -1
REMARK  0 active torsions:
REMARK  status: ('A' for Active; 'I' for Inactive)
ROOT
ATOM      1  C4' PXY d   1       1.484  -1.137   0.387  0.00  0.00     0.077 C 
ATOM      2  C1' PXY d   1       2.139   2.089  -4.365  0.00  0.00     0.077 C 
ATOM      3  C1  PXY d   1       1.972   1.232  -3.126  0.00  0.00    -0.082 A 
ATOM      4  C2  PXY d   1       1.118   1.603  -2.185  0.00  0.00     0.003 A 
ATOM      5  C3  PXY d   1       0.978   0.857  -1.043  0.00  0.00     0.003 A 
ATOM      6  C4  PXY d   1       1.679  -0.309  -0.886  0.00  0.00    -0.082 A 
ATOM      7  C5  PXY d   1       2.544  -0.699  -1.846  0.00  0.00     0.003 A 
ATOM      8  C6  PXY d   1       2.703   0.094  -2.979  0.00  0.00     0.003 A 
ENDROOT
TORSDOF 0
ENDMDL
