MODEL 1
REMARK minimizedAffinity -6.08435535
REMARK minimizedRMSD -1
REMARK  0 active torsions:
REMARK  status: ('A' for Active; 'I' for Inactive)
ROOT
ATOM      1  C4' PXY d   1      -0.840  -0.237   0.616  0.00  0.00     0.077 C 
ATOM      2  C1' PXY d   1       3.516   1.005  -2.975  0.00  0.00     0.077 C 
ATOM      3  C1  PXY d   1       2.377   0.667  -2.033  0.00  0.00    -0.082 A 
ATOM      4  C2  PXY d   1       1.322   1.463  -1.970  0.00  0.00     0.003 A 
ATOM      5  C3  PXY d   1       0.297   1.189  -1.101  0.00  0.00     0.003 A 
ATOM      6  C4  PXY d   1       0.329   0.060  -0.327  0.00  0.00    -0.082 A 
ATOM      7  C5  PXY d   1       1.397  -0.762  -0.393  0.00  0.00     0.003 A 
ATOM      8  C6  PXY d   1       2.446  -0.445  -1.251  0.00  0.00     0.003 A 
ENDROOT
TORSDOF 0
ENDMDL
