MODEL 1
REMARK minimizedAffinity -5.37905693
REMARK minimizedRMSD -1
REMARK  0 active torsions:
REMARK  status: ('A' for Active; 'I' for Inactive)
ROOT
ATOM      1  C4' PXY d   1      -0.508  -0.332   0.731  0.00  0.00     0.077 C 
ATOM      2  C1' PXY d   1       3.834   1.231  -2.750  0.00  0.00     0.077 C 
ATOM      3  C1  PXY d   1       2.702   0.811  -1.833  0.00  0.00    -0.082 A 
ATOM      4  C2  PXY d   1       1.463   1.183  -2.110  0.00  0.00     0.003 A 
ATOM      5  C3  PXY d   1       0.432   0.839  -1.275  0.00  0.00     0.003 A 
ATOM      6  C4  PXY d   1       0.664   0.061  -0.172  0.00  0.00    -0.082 A 
ATOM      7  C5  PXY d   1       1.924  -0.331   0.112  0.00  0.00     0.003 A 
ATOM      8  C6  PXY d   1       2.963   0.063  -0.727  0.00  0.00     0.003 A 
ENDROOT
TORSDOF 0
ENDMDL
