MODEL 1
REMARK minimizedAffinity -4.47743702
REMARK minimizedRMSD -1
REMARK  0 active torsions:
REMARK  status: ('A' for Active; 'I' for Inactive)
ROOT
ATOM      1  C4' PXY d   1       1.216   1.923  -3.340  0.00  0.00     0.077 C 
ATOM      2  C1' PXY d   1       0.462  -2.414   0.406  0.00  0.00     0.077 C 
ATOM      3  C1  PXY d   1       0.648  -1.273  -0.574  0.00  0.00    -0.082 A 
ATOM      4  C2  PXY d   1       1.537  -1.385  -1.547  0.00  0.00     0.003 A 
ATOM      5  C3  PXY d   1       1.740  -0.349  -2.423  0.00  0.00     0.003 A 
ATOM      6  C4  PXY d   1       0.989   0.792  -2.333  0.00  0.00    -0.082 A 
ATOM      7  C5  PXY d   1       0.072   0.909  -1.349  0.00  0.00     0.003 A 
ATOM      8  C6  PXY d   1      -0.090  -0.137  -0.445  0.00  0.00     0.003 A 
ENDROOT
TORSDOF 0
ENDMDL
