MODEL 1
REMARK minimizedAffinity -4.22230053
REMARK minimizedRMSD -1
REMARK  0 active torsions:
REMARK  status: ('A' for Active; 'I' for Inactive)
ROOT
ATOM      1  C4' PXY d   1       1.973  -1.108  -1.820  0.00  0.00     0.077 C 
ATOM      2  C1' PXY d   1      -2.306   0.480   1.728  0.00  0.00     0.077 C 
ATOM      3  C1  PXY d   1      -1.181   0.053   0.805  0.00  0.00    -0.082 A 
ATOM      4  C2  PXY d   1      -0.633   0.939  -0.011  0.00  0.00     0.003 A 
ATOM      5  C3  PXY d   1       0.364   0.563  -0.874  0.00  0.00     0.003 A 
ATOM      6  C4  PXY d   1       0.841  -0.720  -0.865  0.00  0.00    -0.082 A 
ATOM      7  C5  PXY d   1       0.294  -1.627  -0.028  0.00  0.00     0.003 A 
ATOM      8  C6  PXY d   1      -0.744  -1.235   0.812  0.00  0.00     0.003 A 
ENDROOT
TORSDOF 0
ENDMDL
