MODEL 1
REMARK minimizedAffinity -4.21736145
REMARK minimizedRMSD -1
REMARK  0 active torsions:
REMARK  status: ('A' for Active; 'I' for Inactive)
ROOT
ATOM      1  C4' PXY d   1      -2.023   0.853   1.625  0.00  0.00     0.077 C 
ATOM      2  C1' PXY d   1       2.219  -1.554  -1.477  0.00  0.00     0.077 C 
ATOM      3  C1  PXY d   1       1.114  -0.912  -0.662  0.00  0.00    -0.082 A 
ATOM      4  C2  PXY d   1       0.231  -1.677  -0.040  0.00  0.00     0.003 A 
ATOM      5  C3  PXY d   1      -0.794  -1.112   0.675  0.00  0.00     0.003 A 
ATOM      6  C4  PXY d   1      -0.885   0.248   0.799  0.00  0.00    -0.082 A 
ATOM      7  C5  PXY d   1       0.018   1.035   0.176  0.00  0.00     0.003 A 
ATOM      8  C6  PXY d   1       1.027   0.443  -0.578  0.00  0.00     0.003 A 
ENDROOT
TORSDOF 0
ENDMDL
