MODEL 1
REMARK minimizedAffinity -3.92098927
REMARK minimizedRMSD -1
REMARK  0 active torsions:
REMARK  status: ('A' for Active; 'I' for Inactive)
ROOT
ATOM      1  C4' PXY d   1       1.894  -1.197  -1.501  0.00  0.00     0.077 C 
ATOM      2  C1' PXY d   1      -2.600   0.396   1.768  0.00  0.00     0.077 C 
ATOM      3  C1  PXY d   1      -1.417  -0.009   0.910  0.00  0.00    -0.082 A 
ATOM      4  C2  PXY d   1      -1.482  -1.116   0.188  0.00  0.00     0.003 A 
ATOM      5  C3  PXY d   1      -0.410  -1.514  -0.569  0.00  0.00     0.003 A 
ATOM      6  C4  PXY d   1       0.721  -0.744  -0.628  0.00  0.00    -0.082 A 
ATOM      7  C5  PXY d   1       0.790   0.392   0.098  0.00  0.00     0.003 A 
ATOM      8  C6  PXY d   1      -0.293   0.757   0.892  0.00  0.00     0.003 A 
ENDROOT
TORSDOF 0
ENDMDL
