MODEL 1
REMARK minimizedAffinity -2.13863635
REMARK minimizedRMSD -1
REMARK  0 active torsions:
REMARK  status: ('A' for Active; 'I' for Inactive)
ROOT
ATOM      1  C4' PXY d   1      -2.269   0.352   5.114  0.00  0.00     0.077 C 
ATOM      2  C1' PXY d   1      -1.721   1.839  -0.445  0.00  0.00     0.077 C 
ATOM      3  C1  PXY d   1      -1.852   1.451   1.015  0.00  0.00    -0.082 A 
ATOM      4  C2  PXY d   1      -2.839   0.655   1.394  0.00  0.00     0.003 A 
ATOM      5  C3  PXY d   1      -2.991   0.320   2.715  0.00  0.00     0.003 A 
ATOM      6  C4  PXY d   1      -2.093   0.762   3.650  0.00  0.00    -0.082 A 
ATOM      7  C5  PXY d   1      -1.077   1.565   3.269  0.00  0.00     0.003 A 
ATOM      8  C6  PXY d   1      -0.964   1.927   1.930  0.00  0.00     0.003 A 
ENDROOT
TORSDOF 0
ENDMDL
