MODEL 1
REMARK minimizedAffinity -5.0688858
REMARK minimizedRMSD -1
REMARK  0 active torsions:
REMARK  status: ('A' for Active; 'I' for Inactive)
ROOT
ATOM      1  C4' PXY d   1      -0.599  -3.256   0.418  0.00  0.00     0.077 C 
ATOM      2  C1' PXY d   1       0.852   1.699  -2.182  0.00  0.00     0.077 C 
ATOM      3  C1  PXY d   1       0.465   0.406  -1.491  0.00  0.00    -0.082 A 
ATOM      4  C2  PXY d   1       1.223  -0.668  -1.641  0.00  0.00     0.003 A 
ATOM      5  C3  PXY d   1       0.870  -1.854  -1.049  0.00  0.00     0.003 A 
ATOM      6  C4  PXY d   1      -0.241  -1.927  -0.253  0.00  0.00    -0.082 A 
ATOM      7  C5  PXY d   1      -1.014  -0.833  -0.087  0.00  0.00     0.003 A 
ATOM      8  C6  PXY d   1      -0.661   0.351  -0.730  0.00  0.00     0.003 A 
ENDROOT
TORSDOF 0
ENDMDL
