MODEL 1
REMARK minimizedAffinity -1.45494032
REMARK minimizedRMSD -1
REMARK  0 active torsions:
REMARK  status: ('A' for Active; 'I' for Inactive)
ROOT
ATOM      1  C4' PXY d   1      -2.180   0.498   2.283  0.00  0.00     0.077 C 
ATOM      2  C1' PXY d   1       1.776  -1.319  -1.520  0.00  0.00     0.077 C 
ATOM      3  C1  PXY d   1       0.742  -0.830  -0.526  0.00  0.00    -0.082 A 
ATOM      4  C2  PXY d   1       0.394  -1.603   0.490  0.00  0.00     0.003 A 
ATOM      5  C3  PXY d   1      -0.564  -1.190   1.380  0.00  0.00     0.003 A 
ATOM      6  C4  PXY d   1      -1.133   0.049   1.260  0.00  0.00    -0.082 A 
ATOM      7  C5  PXY d   1      -0.775   0.849   0.232  0.00  0.00     0.003 A 
ATOM      8  C6  PXY d   1       0.168   0.394  -0.684  0.00  0.00     0.003 A 
ENDROOT
TORSDOF 0
ENDMDL
