MODEL 1
REMARK minimizedAffinity -4.45460224
REMARK minimizedRMSD -1
REMARK  0 active torsions:
REMARK  status: ('A' for Active; 'I' for Inactive)
ROOT
ATOM      1  C4' PXY d   1      -0.400   0.148  -0.148  0.00  0.00     0.077 C 
ATOM      2  C1' PXY d   1       4.714  -0.265  -2.811  0.00  0.00     0.077 C 
ATOM      3  C1  PXY d   1       3.374  -0.144  -2.112  0.00  0.00    -0.082 A 
ATOM      4  C2  PXY d   1       2.889  -1.177  -1.442  0.00  0.00     0.003 A 
ATOM      5  C3  PXY d   1       1.665  -1.095  -0.831  0.00  0.00     0.003 A 
ATOM      6  C4  PXY d   1       0.953   0.074  -0.861  0.00  0.00    -0.082 A 
ATOM      7  C5  PXY d   1       1.445   1.136  -1.533  0.00  0.00     0.003 A 
ATOM      8  C6  PXY d   1       2.671   1.019  -2.181  0.00  0.00     0.003 A 
ENDROOT
TORSDOF 0
ENDMDL
