MODEL 1
REMARK minimizedAffinity -5.87905884
REMARK minimizedRMSD -1
REMARK  0 active torsions:
REMARK  status: ('A' for Active; 'I' for Inactive)
ROOT
ATOM      1  C4' PXY d   1       4.725   0.191  -2.929  0.00  0.00     0.077 C 
ATOM      2  C1' PXY d   1      -0.178   0.414   0.124  0.00  0.00     0.077 C 
ATOM      3  C1  PXY d   1       1.102   0.363  -0.686  0.00  0.00    -0.082 A 
ATOM      4  C2  PXY d   1       1.946  -0.641  -0.513  0.00  0.00     0.003 A 
ATOM      5  C3  PXY d   1       3.123  -0.687  -1.214  0.00  0.00     0.003 A 
ATOM      6  C4  PXY d   1       3.416   0.279  -2.140  0.00  0.00    -0.082 A 
ATOM      7  C5  PXY d   1       2.555   1.301  -2.330  0.00  0.00     0.003 A 
ATOM      8  C6  PXY d   1       1.384   1.350  -1.579  0.00  0.00     0.003 A 
ENDROOT
TORSDOF 0
ENDMDL
