MODEL 1
REMARK minimizedAffinity -5.61605453
REMARK minimizedRMSD -1
REMARK  0 active torsions:
REMARK  status: ('A' for Active; 'I' for Inactive)
ROOT
ATOM      1  C4' PXY d   1       2.278   2.253  -2.640  0.00  0.00     0.077 C 
ATOM      2  C1' PXY d   1      -0.420  -1.944   0.279  0.00  0.00     0.077 C 
ATOM      3  C1  PXY d   1       0.299  -0.848  -0.483  0.00  0.00    -0.082 A 
ATOM      4  C2  PXY d   1      -0.296   0.319  -0.669  0.00  0.00     0.003 A 
ATOM      5  C3  PXY d   1       0.327   1.309  -1.384  0.00  0.00     0.003 A 
ATOM      6  C4  PXY d   1       1.593   1.122  -1.868  0.00  0.00    -0.082 A 
ATOM      7  C5  PXY d   1       2.212  -0.062  -1.674  0.00  0.00     0.003 A 
ATOM      8  C6  PXY d   1       1.546  -1.069  -0.981  0.00  0.00     0.003 A 
ENDROOT
TORSDOF 0
ENDMDL
