MODEL 1
REMARK minimizedAffinity -6.07828808
REMARK minimizedRMSD -1
REMARK  0 active torsions:
REMARK  status: ('A' for Active; 'I' for Inactive)
ROOT
ATOM      1  C4' PXY d   1       0.303  -2.784   0.441  0.00  0.00     0.077 C 
ATOM      2  C1' PXY d   1       2.083   1.882  -2.471  0.00  0.00     0.077 C 
ATOM      3  C1  PXY d   1       1.608   0.666  -1.700  0.00  0.00    -0.082 A 
ATOM      4  C2  PXY d   1       2.374  -0.411  -1.641  0.00  0.00     0.003 A 
ATOM      5  C3  PXY d   1       1.947  -1.531  -0.975  0.00  0.00     0.003 A 
ATOM      6  C4  PXY d   1       0.745  -1.530  -0.318  0.00  0.00    -0.082 A 
ATOM      7  C5  PXY d   1      -0.037  -0.431  -0.365  0.00  0.00     0.003 A 
ATOM      8  C6  PXY d   1       0.397   0.681  -1.080  0.00  0.00     0.003 A 
ENDROOT
TORSDOF 0
ENDMDL
