MODEL 1
REMARK minimizedAffinity 1.54497182
REMARK minimizedRMSD -1
REMARK  2 active torsions:
REMARK  status: ('A' for Active; 'I' for Inactive)
REMARK    1  A    between atoms: C1_2  and  C2_3 
REMARK    2  A    between atoms: C2_3  and  C3_4 
ROOT
ATOM      1  C3  UNL d   1      -0.882  -5.951  -3.305  0.00  0.00    -0.075 A 
ATOM      2  C4  UNL d   1      -1.808  -5.984  -4.358  0.00  0.00     0.002 A 
ATOM      3  C5  UNL d   1      -1.373  -5.985  -5.683  0.00  0.00     0.002 A 
ATOM      4  C6  UNL d   1      -0.011  -5.942  -5.973  0.00  0.00    -0.004 A 
ATOM      5  C7  UNL d   1       0.917  -5.893  -4.935  0.00  0.00     0.002 A 
ATOM      6  C8  UNL d   1       0.485  -5.896  -3.608  0.00  0.00     0.002 A 
ENDROOT
BRANCH   1   7
ATOM      7  C2  UNL d   1      -1.345  -5.980  -1.868  0.00  0.00     0.056 C 
BRANCH   7   8
ATOM      8  C1  UNL d   1      -2.868  -5.993  -1.703  0.00  0.00     0.007 C 
ATOM      9  C   UNL d   1      -3.315  -6.000  -0.247  0.00  0.00     0.009 C 
ENDBRANCH   7   8
ENDBRANCH   1   7
TORSDOF 2
ENDMDL
