MODEL 1
REMARK minimizedAffinity -0.461678863
REMARK minimizedRMSD -1
REMARK  2 active torsions:
REMARK  status: ('A' for Active; 'I' for Inactive)
REMARK    1  A    between atoms: C1_2  and  C2_3 
REMARK    2  A    between atoms: C2_3  and  C3_4 
ROOT
ATOM      1  C3  UNL d   1      -0.189  -6.000  -3.591  0.00  0.00    -0.075 A 
ATOM      2  C4  UNL d   1       1.203  -5.999  -3.416  0.00  0.00     0.002 A 
ATOM      3  C5  UNL d   1       2.056  -5.977  -4.520  0.00  0.00     0.002 A 
ATOM      4  C6  UNL d   1       1.530  -5.964  -5.810  0.00  0.00    -0.004 A 
ATOM      5  C7  UNL d   1       0.150  -5.982  -5.996  0.00  0.00     0.002 A 
ATOM      6  C8  UNL d   1      -0.706  -6.000  -4.894  0.00  0.00     0.002 A 
ENDROOT
BRANCH   1   7
ATOM      7  C2  UNL d   1      -1.117  -5.995  -2.401  0.00  0.00     0.056 C 
BRANCH   7   8
ATOM      8  C1  UNL d   1      -2.469  -5.324  -2.667  0.00  0.00     0.007 C 
ATOM      9  C   UNL d   1      -3.627  -6.000  -1.945  0.00  0.00     0.009 C 
ENDBRANCH   7   8
ENDBRANCH   1   7
TORSDOF 2
ENDMDL
