MODEL 1
REMARK minimizedAffinity 4.93816805
REMARK minimizedRMSD -1
REMARK  2 active torsions:
REMARK  status: ('A' for Active; 'I' for Inactive)
REMARK    1  A    between atoms: C1_2  and  C2_3 
REMARK    2  A    between atoms: C2_3  and  C3_4 
ROOT
ATOM      1  C3  UNL d   1       5.268   2.577  -1.343  0.00  0.00    -0.075 A 
ATOM      2  C4  UNL d   1       5.999   3.633  -0.779  0.00  0.00     0.002 A 
ATOM      3  C5  UNL d   1       5.366   4.586   0.020  0.00  0.00     0.002 A 
ATOM      4  C6  UNL d   1       3.996   4.501   0.257  0.00  0.00    -0.004 A 
ATOM      5  C7  UNL d   1       3.257   3.466  -0.311  0.00  0.00     0.002 A 
ATOM      6  C8  UNL d   1       3.888   2.509  -1.108  0.00  0.00     0.002 A 
ENDROOT
BRANCH   1   7
ATOM      7  C2  UNL d   1       5.952   1.527  -2.184  0.00  0.00     0.056 C 
BRANCH   7   8
ATOM      8  C1  UNL d   1       5.304   0.141  -2.101  0.00  0.00     0.007 C 
ATOM      9  C   UNL d   1       6.000  -0.901  -2.966  0.00  0.00     0.009 C 
ENDBRANCH   7   8
ENDBRANCH   1   7
TORSDOF 2
ENDMDL
