MODEL 1
REMARK minimizedAffinity -0.555711448
REMARK minimizedRMSD -1
REMARK  2 active torsions:
REMARK  status: ('A' for Active; 'I' for Inactive)
REMARK    1  A    between atoms: C1_2  and  C2_3 
REMARK    2  A    between atoms: C2_3  and  C3_4 
ROOT
ATOM      1  C3  UNL d   1      -0.109  -5.895  -3.462  0.00  0.00    -0.075 A 
ATOM      2  C4  UNL d   1      -0.893  -5.699  -4.609  0.00  0.00     0.002 A 
ATOM      3  C5  UNL d   1      -0.300  -5.631  -5.870  0.00  0.00     0.002 A 
ATOM      4  C6  UNL d   1       1.082  -5.748  -5.999  0.00  0.00    -0.004 A 
ATOM      5  C7  UNL d   1       1.872  -5.927  -4.866  0.00  0.00     0.002 A 
ATOM      6  C8  UNL d   1       1.281  -5.999  -3.603  0.00  0.00     0.002 A 
ENDROOT
BRANCH   1   7
ATOM      7  C2  UNL d   1      -0.748  -5.998  -2.098  0.00  0.00     0.056 C 
BRANCH   7   8
ATOM      8  C1  UNL d   1      -2.077  -5.245  -1.973  0.00  0.00     0.007 C 
ATOM      9  C   UNL d   1      -3.254  -6.000  -2.576  0.00  0.00     0.009 C 
ENDBRANCH   7   8
ENDBRANCH   1   7
TORSDOF 2
ENDMDL
