MODEL 1
REMARK minimizedAffinity 4.0274725
REMARK minimizedRMSD -1
REMARK  2 active torsions:
REMARK  status: ('A' for Active; 'I' for Inactive)
REMARK    1  A    between atoms: C1_2  and  C2_3 
REMARK    2  A    between atoms: C2_3  and  C3_4 
ROOT
ATOM      1  C3  UNL d   1      -2.550   0.442  -1.762  0.00  0.00    -0.075 A 
ATOM      2  C4  UNL d   1      -3.249   1.046  -2.818  0.00  0.00     0.002 A 
ATOM      3  C5  UNL d   1      -4.642   1.124  -2.792  0.00  0.00     0.002 A 
ATOM      4  C6  UNL d   1      -5.353   0.592  -1.719  0.00  0.00    -0.004 A 
ATOM      5  C7  UNL d   1      -4.670  -0.025  -0.673  0.00  0.00     0.002 A 
ATOM      6  C8  UNL d   1      -3.276  -0.101  -0.694  0.00  0.00     0.002 A 
ENDROOT
BRANCH   1   7
ATOM      7  C2  UNL d   1      -1.042   0.380  -1.770  0.00  0.00     0.056 C 
BRANCH   7   8
ATOM      8  C1  UNL d   1      -0.449  -0.520  -0.680  0.00  0.00     0.007 C 
ATOM      9  C   UNL d   1       0.502   0.215   0.254  0.00  0.00     0.009 C 
ENDBRANCH   7   8
ENDBRANCH   1   7
TORSDOF 2
ENDMDL
