MODEL 1
REMARK minimizedAffinity 1.78873122
REMARK minimizedRMSD -1
REMARK  2 active torsions:
REMARK  status: ('A' for Active; 'I' for Inactive)
REMARK    1  A    between atoms: C1_2  and  C2_3 
REMARK    2  A    between atoms: C2_3  and  C3_4 
ROOT
ATOM      1  C3  UNL d   1       1.520  -1.166   2.466  0.00  0.00    -0.075 A 
ATOM      2  C4  UNL d   1       0.606  -0.777   1.476  0.00  0.00     0.002 A 
ATOM      3  C5  UNL d   1       0.976   0.138   0.490  0.00  0.00     0.002 A 
ATOM      4  C6  UNL d   1       2.259   0.681   0.486  0.00  0.00    -0.004 A 
ATOM      5  C7  UNL d   1       3.170   0.313   1.474  0.00  0.00     0.002 A 
ATOM      6  C8  UNL d   1       2.804  -0.605   2.459  0.00  0.00     0.002 A 
ENDROOT
BRANCH   1   7
ATOM      7  C2  UNL d   1       1.135  -2.178   3.519  0.00  0.00     0.056 C 
BRANCH   7   8
ATOM      8  C1  UNL d   1       1.543  -1.783   4.942  0.00  0.00     0.007 C 
ATOM      9  C   UNL d   1       1.229  -2.856   5.976  0.00  0.00     0.009 C 
ENDBRANCH   7   8
ENDBRANCH   1   7
TORSDOF 2
ENDMDL
