MODEL 1
REMARK minimizedAffinity -0.408496648
REMARK minimizedRMSD -1
REMARK  2 active torsions:
REMARK  status: ('A' for Active; 'I' for Inactive)
REMARK    1  A    between atoms: C1_2  and  C2_3 
REMARK    2  A    between atoms: C2_3  and  C3_4 
ROOT
ATOM      1  C3  UNL d   1      -1.321  -5.999  -3.193  0.00  0.00    -0.075 A 
ATOM      2  C4  UNL d   1      -0.142  -5.997  -3.953  0.00  0.00     0.002 A 
ATOM      3  C5  UNL d   1      -0.198  -5.969  -5.346  0.00  0.00     0.002 A 
ATOM      4  C6  UNL d   1      -1.429  -5.954  -5.997  0.00  0.00    -0.004 A 
ATOM      5  C7  UNL d   1      -2.607  -5.973  -5.253  0.00  0.00     0.002 A 
ATOM      6  C8  UNL d   1      -2.554  -5.997  -3.858  0.00  0.00     0.002 A 
ENDROOT
BRANCH   1   7
ATOM      7  C2  UNL d   1      -1.268  -6.000  -1.684  0.00  0.00     0.056 C 
BRANCH   7   8
ATOM      8  C1  UNL d   1      -1.533  -4.630  -1.050  0.00  0.00     0.007 C 
ATOM      9  C   UNL d   1      -0.316  -3.714  -1.069  0.00  0.00     0.009 C 
ENDBRANCH   7   8
ENDBRANCH   1   7
TORSDOF 2
ENDMDL
