MODEL 1
REMARK minimizedAffinity 0.199808225
REMARK minimizedRMSD -1
REMARK  2 active torsions:
REMARK  status: ('A' for Active; 'I' for Inactive)
REMARK    1  A    between atoms: C1_2  and  C2_3 
REMARK    2  A    between atoms: C2_3  and  C3_4 
ROOT
ATOM      1  C3  UNL d   1      -3.821  -5.997  -1.153  0.00  0.00    -0.075 A 
ATOM      2  C4  UNL d   1      -5.224  -5.992  -1.143  0.00  0.00     0.002 A 
ATOM      3  C5  UNL d   1      -5.923  -5.966   0.064  0.00  0.00     0.002 A 
ATOM      4  C6  UNL d   1      -5.232  -5.955   1.274  0.00  0.00    -0.004 A 
ATOM      5  C7  UNL d   1      -3.839  -5.977   1.276  0.00  0.00     0.002 A 
ATOM      6  C8  UNL d   1      -3.136  -5.998   0.070  0.00  0.00     0.002 A 
ENDROOT
BRANCH   1   7
ATOM      7  C2  UNL d   1      -3.058  -5.995  -2.456  0.00  0.00     0.056 C 
BRANCH   7   8
ATOM      8  C1  UNL d   1      -1.556  -5.736  -2.299  0.00  0.00     0.007 C 
ATOM      9  C   UNL d   1      -0.778  -5.905  -3.597  0.00  0.00     0.009 C 
ENDBRANCH   7   8
ENDBRANCH   1   7
TORSDOF 2
ENDMDL
