MODEL 1
REMARK minimizedAffinity 2.60734105
REMARK minimizedRMSD -1
REMARK  2 active torsions:
REMARK  status: ('A' for Active; 'I' for Inactive)
REMARK    1  A    between atoms: C1_2  and  C2_3 
REMARK    2  A    between atoms: C2_3  and  C3_4 
ROOT
ATOM      1  C3  UNL d   1      -2.093  -5.889  -2.835  0.00  0.00    -0.075 A 
ATOM      2  C4  UNL d   1      -2.205  -5.938  -1.438  0.00  0.00     0.002 A 
ATOM      3  C5  UNL d   1      -3.459  -5.996  -0.830  0.00  0.00     0.002 A 
ATOM      4  C6  UNL d   1      -4.615  -5.994  -1.608  0.00  0.00    -0.004 A 
ATOM      5  C7  UNL d   1      -4.516  -5.929  -2.996  0.00  0.00     0.002 A 
ATOM      6  C8  UNL d   1      -3.262  -5.876  -3.608  0.00  0.00     0.002 A 
ENDROOT
BRANCH   1   7
ATOM      7  C2  UNL d   1      -0.738  -5.856  -3.501  0.00  0.00     0.056 C 
BRANCH   7   8
ATOM      8  C1  UNL d   1      -0.679  -4.977  -4.754  0.00  0.00     0.007 C 
ATOM      9  C   UNL d   1      -0.206  -5.726  -5.992  0.00  0.00     0.009 C 
ENDBRANCH   7   8
ENDBRANCH   1   7
TORSDOF 2
ENDMDL
