MODEL 1
REMARK minimizedAffinity -1.3054831
REMARK minimizedRMSD -1
REMARK  2 active torsions:
REMARK  status: ('A' for Active; 'I' for Inactive)
REMARK    1  A    between atoms: C1_2  and  C2_3 
REMARK    2  A    between atoms: C2_3  and  C3_4 
ROOT
ATOM      1  C3  UNL d   1      -2.267  -5.995  -4.035  0.00  0.00    -0.075 A 
ATOM      2  C4  UNL d   1      -3.662  -6.000  -3.888  0.00  0.00     0.002 A 
ATOM      3  C5  UNL d   1      -4.241  -5.985  -2.619  0.00  0.00     0.002 A 
ATOM      4  C6  UNL d   1      -3.434  -5.976  -1.483  0.00  0.00    -0.004 A 
ATOM      5  C7  UNL d   1      -2.048  -5.988  -1.617  0.00  0.00     0.002 A 
ATOM      6  C8  UNL d   1      -1.466  -5.998  -2.886  0.00  0.00     0.002 A 
ENDROOT
BRANCH   1   7
ATOM      7  C2  UNL d   1      -1.635  -5.981  -5.407  0.00  0.00     0.056 C 
BRANCH   7   8
ATOM      8  C1  UNL d   1      -0.364  -5.131  -5.499  0.00  0.00     0.007 C 
ATOM      9  C   UNL d   1       0.889  -5.952  -5.772  0.00  0.00     0.009 C 
ENDBRANCH   7   8
ENDBRANCH   1   7
TORSDOF 2
ENDMDL
