MODEL 1
REMARK minimizedAffinity 1.07740653
REMARK minimizedRMSD -1
REMARK  2 active torsions:
REMARK  status: ('A' for Active; 'I' for Inactive)
REMARK    1  A    between atoms: C1_2  and  C2_3 
REMARK    2  A    between atoms: C2_3  and  C3_4 
ROOT
ATOM      1  C3  UNL d   1      -1.198  -5.478  -3.810  0.00  0.00    -0.075 A 
ATOM      2  C4  UNL d   1      -2.530  -5.358  -4.232  0.00  0.00     0.002 A 
ATOM      3  C5  UNL d   1      -3.578  -5.543  -3.330  0.00  0.00     0.002 A 
ATOM      4  C6  UNL d   1      -3.309  -5.861  -2.001  0.00  0.00    -0.004 A 
ATOM      5  C7  UNL d   1      -1.990  -6.000  -1.575  0.00  0.00     0.002 A 
ATOM      6  C8  UNL d   1      -0.939  -5.810  -2.474  0.00  0.00     0.002 A 
ENDROOT
BRANCH   1   7
ATOM      7  C2  UNL d   1      -0.058  -5.249  -4.774  0.00  0.00     0.056 C 
BRANCH   7   8
ATOM      8  C1  UNL d   1       1.228  -5.996  -4.408  0.00  0.00     0.007 C 
ATOM      9  C   UNL d   1       2.261  -5.999  -5.528  0.00  0.00     0.009 C 
ENDBRANCH   7   8
ENDBRANCH   1   7
TORSDOF 2
ENDMDL
