MODEL 1
REMARK minimizedAffinity 0.510575473
REMARK minimizedRMSD -1
REMARK  2 active torsions:
REMARK  status: ('A' for Active; 'I' for Inactive)
REMARK    1  A    between atoms: C1_2  and  C2_3 
REMARK    2  A    between atoms: C2_3  and  C3_4 
ROOT
ATOM      1  C3  UNL d   1      -1.371  -5.976  -4.869  0.00  0.00    -0.075 A 
ATOM      2  C4  UNL d   1      -0.788  -5.924  -3.594  0.00  0.00     0.002 A 
ATOM      3  C5  UNL d   1       0.599  -5.874  -3.451  0.00  0.00     0.002 A 
ATOM      4  C6  UNL d   1       1.419  -5.886  -4.577  0.00  0.00    -0.004 A 
ATOM      5  C7  UNL d   1       0.852  -5.954  -5.847  0.00  0.00     0.002 A 
ATOM      6  C8  UNL d   1      -0.536  -5.999  -5.994  0.00  0.00     0.002 A 
ENDROOT
BRANCH   1   7
ATOM      7  C2  UNL d   1      -2.872  -6.000  -5.032  0.00  0.00     0.056 C 
BRANCH   7   8
ATOM      8  C1  UNL d   1      -3.644  -5.818  -3.721  0.00  0.00     0.007 C 
ATOM      9  C   UNL d   1      -5.148  -5.998  -3.880  0.00  0.00     0.009 C 
ENDBRANCH   7   8
ENDBRANCH   1   7
TORSDOF 2
ENDMDL
