MODEL 1
REMARK minimizedAffinity -2.2937026
REMARK minimizedRMSD -1
REMARK  2 active torsions:
REMARK  status: ('A' for Active; 'I' for Inactive)
REMARK    1  A    between atoms: C1_2  and  C2_3 
REMARK    2  A    between atoms: C2_3  and  C3_4 
ROOT
ATOM      1  C3  UNL d   1      -1.178  -5.994  -3.515  0.00  0.00    -0.075 A 
ATOM      2  C4  UNL d   1       0.223  -5.979  -3.577  0.00  0.00     0.002 A 
ATOM      3  C5  UNL d   1       0.877  -5.946  -4.809  0.00  0.00     0.002 A 
ATOM      4  C6  UNL d   1       0.141  -5.940  -5.992  0.00  0.00    -0.004 A 
ATOM      5  C7  UNL d   1      -1.251  -5.972  -5.943  0.00  0.00     0.002 A 
ATOM      6  C8  UNL d   1      -1.908  -6.000  -4.712  0.00  0.00     0.002 A 
ENDROOT
BRANCH   1   7
ATOM      7  C2  UNL d   1      -1.893  -6.000  -2.185  0.00  0.00     0.056 C 
BRANCH   7   8
ATOM      8  C1  UNL d   1      -3.421  -5.975  -2.298  0.00  0.00     0.007 C 
ATOM      9  C   UNL d   1      -4.123  -5.999  -0.947  0.00  0.00     0.009 C 
ENDBRANCH   7   8
ENDBRANCH   1   7
TORSDOF 2
ENDMDL
