MODEL 1
REMARK minimizedAffinity 10.4914818
REMARK minimizedRMSD -1
REMARK  0 active torsions:
REMARK  status: ('A' for Active; 'I' for Inactive)
ROOT
ATOM      1  C   UNL d   1      -2.668   3.375  -4.495  0.00  0.00    -0.002 A 
ATOM      2  C1  UNL d   1      -2.960   4.675  -4.885  0.00  0.00     0.010 A 
ATOM      3  C2  UNL d   1      -1.938   5.554  -5.250  0.00  0.00     0.041 A 
ATOM      4  C3  UNL d   1      -0.605   5.100  -5.217  0.00  0.00    -0.075 A 
ATOM      5  S   UNL d   1       0.809   5.999  -5.622  0.00  0.00     0.015 SA
ATOM      6  C4  UNL d   1       1.835   4.680  -5.288  0.00  0.00     0.022 A 
ATOM      7  C5  UNL d   1       1.132   3.572  -4.876  0.00  0.00     0.026 A 
ATOM      8  C6  UNL d   1      -0.285   3.796  -4.829  0.00  0.00    -0.082 A 
ATOM      9  C7  UNL d   1      -1.344   2.929  -4.464  0.00  0.00     0.045 A 
ENDROOT
TORSDOF 0
ENDMDL
