MODEL 1
REMARK minimizedAffinity 13.9021349
REMARK minimizedRMSD -1
REMARK  0 active torsions:
REMARK  status: ('A' for Active; 'I' for Inactive)
ROOT
ATOM      1  C   UNL d   1       2.227  -1.309   1.243  0.00  0.00    -0.002 A 
ATOM      2  C1  UNL d   1       0.844  -1.369   1.148  0.00  0.00     0.010 A 
ATOM      3  C2  UNL d   1       0.201  -2.584   0.902  0.00  0.00     0.041 A 
ATOM      4  C3  UNL d   1       0.978  -3.748   0.752  0.00  0.00    -0.075 A 
ATOM      5  S   UNL d   1       0.409  -5.347   0.445  0.00  0.00     0.015 SA
ATOM      6  C4  UNL d   1       1.988  -5.987   0.433  0.00  0.00     0.022 A 
ATOM      7  C5  UNL d   1       2.939  -5.020   0.656  0.00  0.00     0.026 A 
ATOM      8  C6  UNL d   1       2.373  -3.714   0.843  0.00  0.00    -0.082 A 
ATOM      9  C7  UNL d   1       2.995  -2.467   1.093  0.00  0.00     0.045 A 
ENDROOT
TORSDOF 0
ENDMDL
