MODEL 1
REMARK minimizedAffinity 17.2181587
REMARK minimizedRMSD -1
REMARK  0 active torsions:
REMARK  status: ('A' for Active; 'I' for Inactive)
ROOT
ATOM      1  C   UNL d   1      -3.340  -0.313  -0.928  0.00  0.00    -0.002 A 
ATOM      2  C1  UNL d   1      -1.975  -0.561  -0.919  0.00  0.00     0.010 A 
ATOM      3  C2  UNL d   1      -1.110   0.196  -1.713  0.00  0.00     0.041 A 
ATOM      4  C3  UNL d   1      -1.646   1.217  -2.522  0.00  0.00    -0.075 A 
ATOM      5  S   UNL d   1      -0.779   2.272  -3.575  0.00  0.00     0.015 SA
ATOM      6  C4  UNL d   1      -2.201   3.077  -4.061  0.00  0.00     0.022 A 
ATOM      7  C5  UNL d   1      -3.319   2.566  -3.445  0.00  0.00     0.026 A 
ATOM      8  C6  UNL d   1      -3.018   1.486  -2.547  0.00  0.00    -0.082 A 
ATOM      9  C7  UNL d   1      -3.868   0.700  -1.733  0.00  0.00     0.045 A 
ENDROOT
TORSDOF 0
ENDMDL
