MODEL 1
REMARK minimizedAffinity 6.89419746
REMARK minimizedRMSD -1
REMARK  0 active torsions:
REMARK  status: ('A' for Active; 'I' for Inactive)
ROOT
ATOM      1  C   UNL d   1      -5.213   1.505   6.000  0.00  0.00    -0.002 A 
ATOM      2  C1  UNL d   1      -3.849   1.270   5.897  0.00  0.00     0.010 A 
ATOM      3  C2  UNL d   1      -3.242   1.146   4.646  0.00  0.00     0.041 A 
ATOM      4  C3  UNL d   1      -4.036   1.264   3.488  0.00  0.00    -0.075 A 
ATOM      5  S   UNL d   1      -3.510   1.149   1.850  0.00  0.00     0.015 SA
ATOM      6  C4  UNL d   1      -5.083   1.409   1.249  0.00  0.00     0.022 A 
ATOM      7  C5  UNL d   1      -6.000   1.582   2.259  0.00  0.00     0.026 A 
ATOM      8  C6  UNL d   1      -5.412   1.502   3.566  0.00  0.00    -0.082 A 
ATOM      9  C7  UNL d   1      -5.997   1.622   4.849  0.00  0.00     0.045 A 
ENDROOT
TORSDOF 0
ENDMDL
