MODEL 1
REMARK minimizedAffinity 19.5953045
REMARK minimizedRMSD -1
REMARK  0 active torsions:
REMARK  status: ('A' for Active; 'I' for Inactive)
ROOT
ATOM      1  C   UNL d   1       4.162  -1.193   5.072  0.00  0.00    -0.002 A 
ATOM      2  C1  UNL d   1       3.653  -1.441   3.805  0.00  0.00     0.010 A 
ATOM      3  C2  UNL d   1       3.605  -2.743   3.302  0.00  0.00     0.041 A 
ATOM      4  C3  UNL d   1       4.079  -3.801   4.102  0.00  0.00    -0.075 A 
ATOM      5  S   UNL d   1       4.117  -5.476   3.695  0.00  0.00     0.015 SA
ATOM      6  C4  UNL d   1       4.809  -5.901   5.193  0.00  0.00     0.022 A 
ATOM      7  C5  UNL d   1       5.012  -4.805   5.997  0.00  0.00     0.026 A 
ATOM      8  C6  UNL d   1       4.594  -3.576   5.382  0.00  0.00    -0.082 A 
ATOM      9  C7  UNL d   1       4.631  -2.245   5.863  0.00  0.00     0.045 A 
ENDROOT
TORSDOF 0
ENDMDL
