MODEL 1
REMARK minimizedAffinity 12.577898
REMARK minimizedRMSD -1
REMARK  0 active torsions:
REMARK  status: ('A' for Active; 'I' for Inactive)
ROOT
ATOM      1  C   UNL d   1       5.306  -2.265   3.511  0.00  0.00    -0.002 A 
ATOM      2  C1  UNL d   1       6.000  -1.905   2.364  0.00  0.00     0.010 A 
ATOM      3  C2  UNL d   1       5.371  -1.926   1.118  0.00  0.00     0.041 A 
ATOM      4  C3  UNL d   1       4.020  -2.316   1.043  0.00  0.00    -0.075 A 
ATOM      5  S   UNL d   1       3.044  -2.416  -0.375  0.00  0.00     0.015 SA
ATOM      6  C4  UNL d   1       1.683  -2.938   0.508  0.00  0.00     0.022 A 
ATOM      7  C5  UNL d   1       1.948  -3.039   1.853  0.00  0.00     0.026 A 
ATOM      8  C6  UNL d   1       3.299  -2.682   2.183  0.00  0.00    -0.082 A 
ATOM      9  C7  UNL d   1       3.965  -2.651   3.432  0.00  0.00     0.045 A 
ENDROOT
TORSDOF 0
ENDMDL
