MODEL 1
REMARK minimizedAffinity 12.2586098
REMARK minimizedRMSD -1
REMARK  0 active torsions:
REMARK  status: ('A' for Active; 'I' for Inactive)
ROOT
ATOM      1  C   UNL d   1      -3.595  -0.071  -1.809  0.00  0.00    -0.002 A 
ATOM      2  C1  UNL d   1      -4.375  -1.082  -1.266  0.00  0.00     0.010 A 
ATOM      3  C2  UNL d   1      -3.912  -1.830  -0.181  0.00  0.00     0.041 A 
ATOM      4  C3  UNL d   1      -2.642  -1.541   0.354  0.00  0.00    -0.075 A 
ATOM      5  S   UNL d   1      -1.870  -2.325   1.681  0.00  0.00     0.015 SA
ATOM      6  C4  UNL d   1      -0.488  -1.335   1.559  0.00  0.00     0.022 A 
ATOM      7  C5  UNL d   1      -0.595  -0.424   0.536  0.00  0.00     0.026 A 
ATOM      8  C6  UNL d   1      -1.839  -0.527  -0.175  0.00  0.00    -0.082 A 
ATOM      9  C7  UNL d   1      -2.335   0.213  -1.275  0.00  0.00     0.045 A 
ENDROOT
TORSDOF 0
ENDMDL
