MODEL 1
REMARK minimizedAffinity 12.0952301
REMARK minimizedRMSD -1
REMARK  0 active torsions:
REMARK  status: ('A' for Active; 'I' for Inactive)
ROOT
ATOM      1  C   UNL d   1      -2.962  -0.002  -1.520  0.00  0.00    -0.002 A 
ATOM      2  C1  UNL d   1      -3.344   1.227  -2.038  0.00  0.00     0.010 A 
ATOM      3  C2  UNL d   1      -4.275   1.302  -3.076  0.00  0.00     0.041 A 
ATOM      4  C3  UNL d   1      -4.822   0.109  -3.588  0.00  0.00    -0.075 A 
ATOM      5  S   UNL d   1      -5.979  -0.043  -4.857  0.00  0.00     0.015 SA
ATOM      6  C4  UNL d   1      -5.994  -1.743  -4.741  0.00  0.00     0.022 A 
ATOM      7  C5  UNL d   1      -5.142  -2.201  -3.764  0.00  0.00     0.026 A 
ATOM      8  C6  UNL d   1      -4.453  -1.141  -3.083  0.00  0.00    -0.082 A 
ATOM      9  C7  UNL d   1      -3.506  -1.183  -2.031  0.00  0.00     0.045 A 
ENDROOT
TORSDOF 0
ENDMDL
