MODEL 1
REMARK minimizedAffinity 14.8708611
REMARK minimizedRMSD -1
REMARK  0 active torsions:
REMARK  status: ('A' for Active; 'I' for Inactive)
ROOT
ATOM      1  C   UNL d   1       3.974  -5.954   5.992  0.00  0.00    -0.002 A 
ATOM      2  C1  UNL d   1       5.336  -5.919   5.727  0.00  0.00     0.010 A 
ATOM      3  C2  UNL d   1       5.975  -4.708   5.453  0.00  0.00     0.041 A 
ATOM      4  C3  UNL d   1       5.215  -3.522   5.453  0.00  0.00    -0.075 A 
ATOM      5  S   UNL d   1       5.785  -1.924   5.145  0.00  0.00     0.015 SA
ATOM      6  C4  UNL d   1       4.234  -1.250   5.360  0.00  0.00     0.022 A 
ATOM      7  C5  UNL d   1       3.293  -2.206   5.660  0.00  0.00     0.026 A 
ATOM      8  C6  UNL d   1       3.843  -3.532   5.718  0.00  0.00    -0.082 A 
ATOM      9  C7  UNL d   1       3.224  -4.775   5.991  0.00  0.00     0.045 A 
ENDROOT
TORSDOF 0
ENDMDL
