MODEL 1
REMARK minimizedAffinity 12.4436941
REMARK minimizedRMSD -1
REMARK  0 active torsions:
REMARK  status: ('A' for Active; 'I' for Inactive)
ROOT
ATOM      1  C   UNL d   1       2.489  -3.326  -0.266  0.00  0.00    -0.002 A 
ATOM      2  C1  UNL d   1       2.005  -4.627  -0.249  0.00  0.00     0.010 A 
ATOM      3  C2  UNL d   1       0.780  -4.922   0.353  0.00  0.00     0.041 A 
ATOM      4  C3  UNL d   1       0.041  -3.876   0.940  0.00  0.00    -0.075 A 
ATOM      5  S   UNL d   1      -1.485  -4.000   1.733  0.00  0.00     0.015 SA
ATOM      6  C4  UNL d   1      -1.532  -2.330   2.066  0.00  0.00     0.022 A 
ATOM      7  C5  UNL d   1      -0.418  -1.678   1.592  0.00  0.00     0.026 A 
ATOM      8  C6  UNL d   1       0.506  -2.558   0.935  0.00  0.00    -0.082 A 
ATOM      9  C7  UNL d   1       1.753  -2.292   0.318  0.00  0.00     0.045 A 
ENDROOT
TORSDOF 0
ENDMDL
