MODEL 1
REMARK minimizedAffinity 6.0804534
REMARK minimizedRMSD -1
REMARK  1 active torsions:
REMARK  status: ('A' for Active; 'I' for Inactive)
REMARK    1  A    between atoms: N_2  and  C1_3 
ROOT
ATOM      1  C1  UNL d   1      -4.805   1.504   1.828  0.00  0.00     0.143 A 
ATOM      2  C2  UNL d   1      -3.606   0.920   2.248  0.00  0.00    -0.057 A 
ATOM      3  C3  UNL d   1      -3.599  -0.204   3.084  0.00  0.00     0.033 A 
ATOM      4  C4  UNL d   1      -4.796  -0.746   3.539  0.00  0.00    -0.042 A 
ATOM      5  C5  UNL d   1      -6.000  -0.166   3.155  0.00  0.00     0.033 A 
ATOM      6  C6  UNL d   1      -6.000   0.951   2.314  0.00  0.00    -0.057 A 
ENDROOT
BRANCH   1   7
ATOM      7  N   UNL d   1      -4.876   2.681   1.077  0.00  0.00    -0.732 N 
ATOM      8  C   UNL d   1      -5.927   3.646   1.317  0.00  0.00     0.284 C 
ATOM      9  H3  UNL d   1      -3.960   3.094   0.916  0.00  0.00     0.395 HD
ENDBRANCH   1   7
TORSDOF 1
ENDMDL
