MODEL 1
REMARK minimizedAffinity 4.90182257
REMARK minimizedRMSD -1
REMARK  1 active torsions:
REMARK  status: ('A' for Active; 'I' for Inactive)
REMARK    1  A    between atoms: N_2  and  C1_3 
ROOT
ATOM      1  C1  UNL d   1      -4.625   3.583  -5.408  0.00  0.00     0.143 A 
ATOM      2  C2  UNL d   1      -5.208   4.855  -5.398  0.00  0.00    -0.057 A 
ATOM      3  C3  UNL d   1      -4.461   5.999  -5.705  0.00  0.00     0.033 A 
ATOM      4  C4  UNL d   1      -3.106   5.893  -6.000  0.00  0.00    -0.042 A 
ATOM      5  C5  UNL d   1      -2.499   4.642  -5.991  0.00  0.00     0.033 A 
ATOM      6  C6  UNL d   1      -3.252   3.503  -5.690  0.00  0.00    -0.057 A 
ENDROOT
BRANCH   1   7
ATOM      7  N   UNL d   1      -5.291   2.420  -5.016  0.00  0.00    -0.732 N 
ATOM      8  C   UNL d   1      -5.730   2.247  -3.648  0.00  0.00     0.284 C 
ATOM      9  H3  UNL d   1      -5.963   2.103  -5.711  0.00  0.00     0.395 HD
ENDBRANCH   1   7
TORSDOF 1
ENDMDL
