MODEL 1
REMARK minimizedAffinity 7.24637032
REMARK minimizedRMSD -1
REMARK  1 active torsions:
REMARK  status: ('A' for Active; 'I' for Inactive)
REMARK    1  A    between atoms: N_2  and  C1_3 
ROOT
ATOM      1  C1  UNL d   1       1.694   0.602  -2.280  0.00  0.00     0.143 A 
ATOM      2  C2  UNL d   1       0.743   0.832  -1.280  0.00  0.00    -0.057 A 
ATOM      3  C3  UNL d   1       0.937   0.369   0.027  0.00  0.00     0.033 A 
ATOM      4  C4  UNL d   1       2.076  -0.360   0.351  0.00  0.00    -0.042 A 
ATOM      5  C5  UNL d   1       3.023  -0.622  -0.633  0.00  0.00     0.033 A 
ATOM      6  C6  UNL d   1       2.827  -0.151  -1.935  0.00  0.00    -0.057 A 
ENDROOT
BRANCH   1   7
ATOM      7  N   UNL d   1       1.513   0.951  -3.621  0.00  0.00    -0.732 N 
ATOM      8  C   UNL d   1       1.020  -0.019  -4.575  0.00  0.00     0.284 C 
ATOM      9  H3  UNL d   1       1.114   1.881  -3.730  0.00  0.00     0.395 HD
ENDBRANCH   1   7
TORSDOF 1
ENDMDL
