MODEL 1
REMARK minimizedAffinity 15.9529247
REMARK minimizedRMSD -1
REMARK  1 active torsions:
REMARK  status: ('A' for Active; 'I' for Inactive)
REMARK    1  A    between atoms: N_2  and  C1_3 
ROOT
ATOM      1  C1  UNL d   1       5.288   2.946   3.555  0.00  0.00     0.143 A 
ATOM      2  C2  UNL d   1       5.949   3.312   2.377  0.00  0.00    -0.057 A 
ATOM      3  C3  UNL d   1       5.269   3.382   1.155  0.00  0.00     0.033 A 
ATOM      4  C4  UNL d   1       3.918   3.059   1.084  0.00  0.00    -0.042 A 
ATOM      5  C5  UNL d   1       3.247   2.668   2.238  0.00  0.00     0.033 A 
ATOM      6  C6  UNL d   1       3.929   2.607   3.456  0.00  0.00    -0.057 A 
ENDROOT
BRANCH   1   7
ATOM      7  N   UNL d   1       5.930   2.763   4.782  0.00  0.00    -0.732 N 
ATOM      8  C   UNL d   1       5.999   3.840   5.746  0.00  0.00     0.284 C 
ATOM      9  H3  UNL d   1       5.734   1.852   5.190  0.00  0.00     0.395 HD
ENDBRANCH   1   7
TORSDOF 1
ENDMDL
