MODEL 1
REMARK minimizedAffinity -0.206335068
REMARK minimizedRMSD -1
REMARK  1 active torsions:
REMARK  status: ('A' for Active; 'I' for Inactive)
REMARK    1  A    between atoms: N_2  and  C1_3 
ROOT
ATOM      1  C1  UNL d   1       3.551  -5.926  -4.458  0.00  0.00     0.143 A 
ATOM      2  C2  UNL d   1       2.638  -5.902  -3.398  0.00  0.00    -0.057 A 
ATOM      3  C3  UNL d   1       1.257  -5.953  -3.628  0.00  0.00     0.033 A 
ATOM      4  C4  UNL d   1       0.764  -6.000  -4.927  0.00  0.00    -0.042 A 
ATOM      5  C5  UNL d   1       1.652  -5.999  -5.997  0.00  0.00     0.033 A 
ATOM      6  C6  UNL d   1       3.029  -5.955  -5.761  0.00  0.00    -0.057 A 
ENDROOT
BRANCH   1   7
ATOM      7  N   UNL d   1       4.931  -5.779  -4.299  0.00  0.00    -0.732 N 
ATOM      8  C   UNL d   1       5.828  -5.987  -5.415  0.00  0.00     0.284 C 
ATOM      9  H3  UNL d   1       5.172  -4.981  -3.715  0.00  0.00     0.395 HD
ENDBRANCH   1   7
TORSDOF 1
ENDMDL
