MODEL 1
REMARK minimizedAffinity 11.0677118
REMARK minimizedRMSD -1
REMARK  1 active torsions:
REMARK  status: ('A' for Active; 'I' for Inactive)
REMARK    1  A    between atoms: N_2  and  C1_3 
ROOT
ATOM      1  C1  UNL d   1       4.127   4.698   4.630  0.00  0.00     0.143 A 
ATOM      2  C2  UNL d   1       4.169   3.488   3.928  0.00  0.00    -0.057 A 
ATOM      3  C3  UNL d   1       5.086   2.485   4.265  0.00  0.00     0.033 A 
ATOM      4  C4  UNL d   1       6.000   2.687   5.294  0.00  0.00    -0.042 A 
ATOM      5  C5  UNL d   1       5.993   3.892   5.988  0.00  0.00     0.033 A 
ATOM      6  C6  UNL d   1       5.070   4.887   5.652  0.00  0.00    -0.057 A 
ENDROOT
BRANCH   1   7
ATOM      7  N   UNL d   1       3.304   5.772   4.280  0.00  0.00    -0.732 N 
ATOM      8  C   UNL d   1       2.003   5.934   4.891  0.00  0.00     0.284 C 
ATOM      9  H3  UNL d   1       3.824   6.640   4.172  0.00  0.00     0.395 HD
ENDBRANCH   1   7
TORSDOF 1
ENDMDL
