MODEL 1
REMARK minimizedAffinity 2.83163786
REMARK minimizedRMSD -1
REMARK  1 active torsions:
REMARK  status: ('A' for Active; 'I' for Inactive)
REMARK    1  A    between atoms: N_2  and  C1_3 
ROOT
ATOM      1  C1  UNL d   1       0.337   3.082  -5.846  0.00  0.00     0.143 A 
ATOM      2  C2  UNL d   1      -0.019   1.735  -5.715  0.00  0.00    -0.057 A 
ATOM      3  C3  UNL d   1       0.953   0.727  -5.692  0.00  0.00     0.033 A 
ATOM      4  C4  UNL d   1       2.299   1.047  -5.828  0.00  0.00    -0.042 A 
ATOM      5  C5  UNL d   1       2.674   2.377  -5.984  0.00  0.00     0.033 A 
ATOM      6  C6  UNL d   1       1.700   3.380  -6.000  0.00  0.00    -0.057 A 
ENDROOT
BRANCH   1   7
ATOM      7  N   UNL d   1      -0.588   4.122  -5.975  0.00  0.00    -0.732 N 
ATOM      8  C   UNL d   1      -2.008   3.846  -6.000  0.00  0.00     0.284 C 
ATOM      9  H3  UNL d   1      -0.333   4.939  -5.426  0.00  0.00     0.395 HD
ENDBRANCH   1   7
TORSDOF 1
ENDMDL
