MODEL 1
REMARK minimizedAffinity 0.452253908
REMARK minimizedRMSD -1
REMARK  1 active torsions:
REMARK  status: ('A' for Active; 'I' for Inactive)
REMARK    1  A    between atoms: N_2  and  C1_3 
ROOT
ATOM      1  C1  UNL d   1       3.485   4.591   4.441  0.00  0.00     0.143 A 
ATOM      2  C2  UNL d   1       3.414   3.439   3.651  0.00  0.00    -0.057 A 
ATOM      3  C3  UNL d   1       4.547   2.655   3.405  0.00  0.00     0.033 A 
ATOM      4  C4  UNL d   1       5.783   3.027   3.924  0.00  0.00    -0.042 A 
ATOM      5  C5  UNL d   1       5.883   4.182   4.692  0.00  0.00     0.033 A 
ATOM      6  C6  UNL d   1       4.746   4.957   4.939  0.00  0.00    -0.057 A 
ENDROOT
BRANCH   1   7
ATOM      7  N   UNL d   1       2.414   5.466   4.641  0.00  0.00    -0.732 N 
ATOM      8  C   UNL d   1       2.123   5.986   5.959  0.00  0.00     0.284 C 
ATOM      9  H3  UNL d   1       2.330   6.153   3.895  0.00  0.00     0.395 HD
ENDBRANCH   1   7
TORSDOF 1
ENDMDL
