MODEL 1
REMARK minimizedAffinity 10.6645489
REMARK minimizedRMSD -1
REMARK  1 active torsions:
REMARK  status: ('A' for Active; 'I' for Inactive)
REMARK    1  A    between atoms: N_2  and  C1_3 
ROOT
ATOM      1  C1  UNL d   1       3.698   3.925   3.697  0.00  0.00     0.143 A 
ATOM      2  C2  UNL d   1       4.869   3.889   4.461  0.00  0.00    -0.057 A 
ATOM      3  C3  UNL d   1       5.141   4.870   5.422  0.00  0.00     0.033 A 
ATOM      4  C4  UNL d   1       4.256   5.926   5.615  0.00  0.00    -0.042 A 
ATOM      5  C5  UNL d   1       3.098   5.997   4.849  0.00  0.00     0.033 A 
ATOM      6  C6  UNL d   1       2.829   5.010   3.896  0.00  0.00    -0.057 A 
ENDROOT
BRANCH   1   7
ATOM      7  N   UNL d   1       3.419   3.034   2.658  0.00  0.00    -0.732 N 
ATOM      8  C   UNL d   1       2.488   1.943   2.853  0.00  0.00     0.284 C 
ATOM      9  H3  UNL d   1       3.329   3.501   1.759  0.00  0.00     0.395 HD
ENDBRANCH   1   7
TORSDOF 1
ENDMDL
