MODEL 1
REMARK minimizedAffinity 15.2693405
REMARK minimizedRMSD -1
REMARK  1 active torsions:
REMARK  status: ('A' for Active; 'I' for Inactive)
REMARK    1  A    between atoms: N_2  and  C1_3 
ROOT
ATOM      1  C1  UNL d   1      -2.727   3.532  -6.000  0.00  0.00     0.143 A 
ATOM      2  C2  UNL d   1      -4.122   3.427  -5.992  0.00  0.00    -0.057 A 
ATOM      3  C3  UNL d   1      -4.936   4.566  -5.999  0.00  0.00     0.033 A 
ATOM      4  C4  UNL d   1      -4.366   5.835  -5.984  0.00  0.00    -0.042 A 
ATOM      5  C5  UNL d   1      -2.982   5.964  -5.966  0.00  0.00     0.033 A 
ATOM      6  C6  UNL d   1      -2.175   4.822  -5.966  0.00  0.00    -0.057 A 
ENDROOT
BRANCH   1   7
ATOM      7  N   UNL d   1      -1.864   2.439  -5.894  0.00  0.00    -0.732 N 
ATOM      8  C   UNL d   1      -0.442   2.637  -5.710  0.00  0.00     0.284 C 
ATOM      9  H3  UNL d   1      -2.255   1.688  -5.329  0.00  0.00     0.395 HD
ENDBRANCH   1   7
TORSDOF 1
ENDMDL
