MODEL 1
REMARK minimizedAffinity 14.6151876
REMARK minimizedRMSD -1
REMARK  1 active torsions:
REMARK  status: ('A' for Active; 'I' for Inactive)
REMARK    1  A    between atoms: N_2  and  C1_3 
ROOT
ATOM      1  C1  UNL d   1       2.786   1.879  -5.626  0.00  0.00     0.143 A 
ATOM      2  C2  UNL d   1       2.526   0.797  -4.777  0.00  0.00    -0.057 A 
ATOM      3  C3  UNL d   1       1.223   0.501  -4.357  0.00  0.00     0.033 A 
ATOM      4  C4  UNL d   1       0.158   1.303  -4.755  0.00  0.00    -0.042 A 
ATOM      5  C5  UNL d   1       0.397   2.398  -5.577  0.00  0.00     0.033 A 
ATOM      6  C6  UNL d   1       1.699   2.684  -6.000  0.00  0.00    -0.057 A 
ENDROOT
BRANCH   1   7
ATOM      7  N   UNL d   1       4.070   2.283  -5.999  0.00  0.00    -0.732 N 
ATOM      8  C   UNL d   1       4.431   3.684  -6.000  0.00  0.00     0.284 C 
ATOM      9  H3  UNL d   1       4.793   1.667  -5.632  0.00  0.00     0.395 HD
ENDBRANCH   1   7
TORSDOF 1
ENDMDL
