MODEL 1
REMARK minimizedAffinity 16.9822006
REMARK minimizedRMSD -1
REMARK  1 active torsions:
REMARK  status: ('A' for Active; 'I' for Inactive)
REMARK    1  A    between atoms: N_2  and  C1_3 
ROOT
ATOM      1  C1  UNL d   1      -3.613  -1.139   2.962  0.00  0.00     0.143 A 
ATOM      2  C2  UNL d   1      -4.927  -0.671   2.849  0.00  0.00    -0.057 A 
ATOM      3  C3  UNL d   1      -5.994  -1.355   3.445  0.00  0.00     0.033 A 
ATOM      4  C4  UNL d   1      -5.769  -2.538   4.141  0.00  0.00    -0.042 A 
ATOM      5  C5  UNL d   1      -4.474  -3.034   4.244  0.00  0.00     0.033 A 
ATOM      6  C6  UNL d   1      -3.412  -2.344   3.653  0.00  0.00    -0.057 A 
ENDROOT
BRANCH   1   7
ATOM      7  N   UNL d   1      -2.523  -0.558   2.310  0.00  0.00    -0.732 N 
ATOM      8  C   UNL d   1      -2.671   0.008   0.986  0.00  0.00     0.284 C 
ATOM      9  H3  UNL d   1      -1.946  -0.002   2.938  0.00  0.00     0.395 HD
ENDBRANCH   1   7
TORSDOF 1
ENDMDL
