MODEL 1
REMARK minimizedAffinity -1.82543445
REMARK minimizedRMSD -1
REMARK  0 active torsions:
REMARK  status: ('A' for Active; 'I' for Inactive)
ROOT
ATOM      1  O1  BZF d   1      -1.842   2.547   3.907  0.00  0.00    -0.204 OA
ATOM      2  C2  BZF d   1      -3.066   3.151   4.124  0.00  0.00     0.174 A 
ATOM      3  C3  BZF d   1      -4.034   2.542   3.410  0.00  0.00    -0.012 A 
ATOM      4  C3A BZF d   1      -3.391   1.433   2.774  0.00  0.00    -0.107 A 
ATOM      5  C4  BZF d   1      -3.832   0.442   1.944  0.00  0.00     0.055 A 
ATOM      6  C5  BZF d   1      -2.934  -0.445   1.440  0.00  0.00    -0.016 A 
ATOM      7  C6  BZF d   1      -1.590  -0.367   1.740  0.00  0.00     0.022 A 
ATOM      8  C7  BZF d   1      -1.106   0.595   2.562  0.00  0.00     0.029 A 
ATOM      9  C7A BZF d   1      -2.015   1.473   3.100  0.00  0.00     0.058 A 
ENDROOT
TORSDOF 0
ENDMDL
