MODEL 1
REMARK minimizedAffinity -2.41486931
REMARK minimizedRMSD -1
REMARK  0 active torsions:
REMARK  status: ('A' for Active; 'I' for Inactive)
ROOT
ATOM      1  O1  BZF d   1       2.393   0.471  -1.557  0.00  0.00    -0.204 OA
ATOM      2  C2  BZF d   1       2.042  -0.244  -2.686  0.00  0.00     0.174 A 
ATOM      3  C3  BZF d   1       0.877  -0.896  -2.496  0.00  0.00    -0.012 A 
ATOM      4  C3A BZF d   1       0.429  -0.495  -1.198  0.00  0.00    -0.107 A 
ATOM      5  C4  BZF d   1      -0.676  -0.794  -0.453  0.00  0.00     0.055 A 
ATOM      6  C5  BZF d   1      -0.778  -0.293   0.806  0.00  0.00    -0.016 A 
ATOM      7  C6  BZF d   1       0.206   0.504   1.353  0.00  0.00     0.022 A 
ATOM      8  C7  BZF d   1       1.318   0.832   0.651  0.00  0.00     0.029 A 
ATOM      9  C7A BZF d   1       1.409   0.354  -0.634  0.00  0.00     0.058 A 
ENDROOT
TORSDOF 0
ENDMDL
