MODEL 1
REMARK minimizedAffinity -4.12406206
REMARK minimizedRMSD -1
REMARK  0 active torsions:
REMARK  status: ('A' for Active; 'I' for Inactive)
ROOT
ATOM      1  O1  BZF d   1       0.555   1.040  -1.501  0.00  0.00    -0.204 OA
ATOM      2  C2  BZF d   1       1.147   0.529  -2.640  0.00  0.00     0.174 A 
ATOM      3  C3  BZF d   1       1.246  -0.814  -2.566  0.00  0.00    -0.012 A 
ATOM      4  C3A BZF d   1       0.595  -1.172  -1.343  0.00  0.00    -0.107 A 
ATOM      5  C4  BZF d   1       0.353  -2.365  -0.723  0.00  0.00     0.055 A 
ATOM      6  C5  BZF d   1      -0.242  -2.365   0.498  0.00  0.00    -0.016 A 
ATOM      7  C6  BZF d   1      -0.603  -1.193   1.130  0.00  0.00     0.022 A 
ATOM      8  C7  BZF d   1      -0.388   0.013   0.553  0.00  0.00     0.029 A 
ATOM      9  C7A BZF d   1       0.183   0.016  -0.696  0.00  0.00     0.058 A 
ENDROOT
TORSDOF 0
ENDMDL
