MODEL 1
REMARK minimizedAffinity -0.635277927
REMARK minimizedRMSD -1
REMARK  0 active torsions:
REMARK  status: ('A' for Active; 'I' for Inactive)
ROOT
ATOM      1  O1  BZF d   1      -4.500   1.868   3.722  0.00  0.00    -0.204 OA
ATOM      2  C2  BZF d   1      -3.422   2.489   4.323  0.00  0.00     0.174 A 
ATOM      3  C3  BZF d   1      -2.268   2.127   3.727  0.00  0.00    -0.012 A 
ATOM      4  C3A BZF d   1      -2.656   1.295   2.629  0.00  0.00    -0.107 A 
ATOM      5  C4  BZF d   1      -1.959   0.642   1.653  0.00  0.00     0.055 A 
ATOM      6  C5  BZF d   1      -2.633  -0.147   0.775  0.00  0.00    -0.016 A 
ATOM      7  C6  BZF d   1      -4.001  -0.309   0.847  0.00  0.00     0.022 A 
ATOM      8  C7  BZF d   1      -4.736   0.323   1.794  0.00  0.00     0.029 A 
ATOM      9  C7A BZF d   1      -4.062   1.146   2.663  0.00  0.00     0.058 A 
ENDROOT
TORSDOF 0
ENDMDL
