MODEL 1
REMARK minimizedAffinity 0.119959511
REMARK minimizedRMSD -1
REMARK  0 active torsions:
REMARK  status: ('A' for Active; 'I' for Inactive)
ROOT
ATOM      1  O1  BZF d   1       3.037   1.184  -1.623  0.00  0.00    -0.204 OA
ATOM      2  C2  BZF d   1       3.100   1.887  -0.435  0.00  0.00     0.174 A 
ATOM      3  C3  BZF d   1       2.021   1.629   0.332  0.00  0.00    -0.012 A 
ATOM      4  C3A BZF d   1       1.280   0.636  -0.384  0.00  0.00    -0.107 A 
ATOM      5  C4  BZF d   1       0.119  -0.035  -0.127  0.00  0.00     0.055 A 
ATOM      6  C5  BZF d   1      -0.373  -0.887  -1.064  0.00  0.00    -0.016 A 
ATOM      7  C6  BZF d   1       0.267  -1.088  -2.270  0.00  0.00     0.022 A 
ATOM      8  C7  BZF d   1       1.424  -0.448  -2.568  0.00  0.00     0.029 A 
ATOM      9  C7A BZF d   1       1.941   0.388  -1.609  0.00  0.00     0.058 A 
ENDROOT
TORSDOF 0
ENDMDL
