MODEL 1
REMARK minimizedAffinity 6.910151
REMARK minimizedRMSD -1
REMARK  0 active torsions:
REMARK  status: ('A' for Active; 'I' for Inactive)
ROOT
ATOM      1  O1  BZF d   1      -3.573  -1.016   0.788  0.00  0.00    -0.204 OA
ATOM      2  C2  BZF d   1      -4.061   0.153   1.339  0.00  0.00     0.174 A 
ATOM      3  C3  BZF d   1      -3.094   1.091   1.406  0.00  0.00    -0.012 A 
ATOM      4  C3A BZF d   1      -1.953   0.500   0.778  0.00  0.00    -0.107 A 
ATOM      5  C4  BZF d   1      -0.686   0.943   0.522  0.00  0.00     0.055 A 
ATOM      6  C5  BZF d   1       0.210   0.092  -0.041  0.00  0.00    -0.016 A 
ATOM      7  C6  BZF d   1      -0.123  -1.209  -0.358  0.00  0.00     0.022 A 
ATOM      8  C7  BZF d   1      -1.368  -1.693  -0.128  0.00  0.00     0.029 A 
ATOM      9  C7A BZF d   1      -2.286  -0.825   0.412  0.00  0.00     0.058 A 
ENDROOT
TORSDOF 0
ENDMDL
