MODEL 1
REMARK minimizedAffinity -3.4276731
REMARK minimizedRMSD -1
REMARK  0 active torsions:
REMARK  status: ('A' for Active; 'I' for Inactive)
ROOT
ATOM      1  O1  BZF d   1       0.835   0.767   0.831  0.00  0.00    -0.204 OA
ATOM      2  C2  BZF d   1      -0.491   0.442   1.040  0.00  0.00     0.174 A 
ATOM      3  C3  BZF d   1      -1.052  -0.030  -0.091  0.00  0.00    -0.012 A 
ATOM      4  C3A BZF d   1       0.013  -0.084  -1.045  0.00  0.00    -0.107 A 
ATOM      5  C4  BZF d   1       0.085  -0.483  -2.350  0.00  0.00     0.055 A 
ATOM      6  C5  BZF d   1       1.259  -0.340  -3.019  0.00  0.00    -0.016 A 
ATOM      7  C6  BZF d   1       2.377   0.200  -2.418  0.00  0.00     0.022 A 
ATOM      8  C7  BZF d   1       2.355   0.605  -1.125  0.00  0.00     0.029 A 
ATOM      9  C7A BZF d   1       1.179   0.432  -0.436  0.00  0.00     0.058 A 
ENDROOT
TORSDOF 0
ENDMDL
