MODEL 1
REMARK minimizedAffinity -3.07953739
REMARK minimizedRMSD -1
REMARK  0 active torsions:
REMARK  status: ('A' for Active; 'I' for Inactive)
ROOT
ATOM      1  O1  BZF d   1       0.144   0.285   1.383  0.00  0.00    -0.204 OA
ATOM      2  C2  BZF d   1       0.482   0.787   0.141  0.00  0.00     0.174 A 
ATOM      3  C3  BZF d   1       1.374   1.792   0.258  0.00  0.00    -0.012 A 
ATOM      4  C3A BZF d   1       1.678   1.865   1.654  0.00  0.00    -0.107 A 
ATOM      5  C4  BZF d   1       2.511   2.655   2.394  0.00  0.00     0.055 A 
ATOM      6  C5  BZF d   1       2.521   2.520   3.746  0.00  0.00    -0.016 A 
ATOM      7  C6  BZF d   1       1.708   1.610   4.391  0.00  0.00     0.022 A 
ATOM      8  C7  BZF d   1       0.870   0.801   3.700  0.00  0.00     0.029 A 
ATOM      9  C7A BZF d   1       0.881   0.912   2.331  0.00  0.00     0.058 A 
ENDROOT
TORSDOF 0
ENDMDL
