MODEL 1
REMARK minimizedAffinity -1.08277118
REMARK minimizedRMSD -1
REMARK  0 active torsions:
REMARK  status: ('A' for Active; 'I' for Inactive)
ROOT
ATOM      1  O1  BZF d   1       0.033   0.633  -0.108  0.00  0.00    -0.204 OA
ATOM      2  C2  BZF d   1      -0.780  -0.381   0.361  0.00  0.00     0.174 A 
ATOM      3  C3  BZF d   1      -0.603  -0.563   1.685  0.00  0.00    -0.012 A 
ATOM      4  C3A BZF d   1       0.315   0.458   2.086  0.00  0.00    -0.107 A 
ATOM      5  C4  BZF d   1       0.868   0.806   3.285  0.00  0.00     0.055 A 
ATOM      6  C5  BZF d   1       1.786   1.807   3.324  0.00  0.00    -0.016 A 
ATOM      7  C6  BZF d   1       2.177   2.478   2.184  0.00  0.00     0.022 A 
ATOM      8  C7  BZF d   1       1.653   2.173   0.973  0.00  0.00     0.029 A 
ATOM      9  C7A BZF d   1       0.701   1.183   0.935  0.00  0.00     0.058 A 
ENDROOT
TORSDOF 0
ENDMDL
