MODEL 1
REMARK minimizedAffinity -1.44089806
REMARK minimizedRMSD -1
REMARK  0 active torsions:
REMARK  status: ('A' for Active; 'I' for Inactive)
ROOT
ATOM      1  O1  BZF d   1       0.783   0.814  -0.489  0.00  0.00    -0.204 OA
ATOM      2  C2  BZF d   1      -0.244  -0.101  -0.357  0.00  0.00     0.174 A 
ATOM      3  C3  BZF d   1      -0.432  -0.424   0.939  0.00  0.00    -0.012 A 
ATOM      4  C3A BZF d   1       0.475   0.406   1.670  0.00  0.00    -0.107 A 
ATOM      5  C4  BZF d   1       0.745   0.558   3.000  0.00  0.00     0.055 A 
ATOM      6  C5  BZF d   1       1.741   1.401   3.379  0.00  0.00    -0.016 A 
ATOM      7  C6  BZF d   1       2.490   2.102   2.457  0.00  0.00     0.022 A 
ATOM      8  C7  BZF d   1       2.256   1.988   1.127  0.00  0.00     0.029 A 
ATOM      9  C7A BZF d   1       1.228   1.162   0.742  0.00  0.00     0.058 A 
ENDROOT
TORSDOF 0
ENDMDL
