MODEL 1
REMARK minimizedAffinity 4.70992613
REMARK minimizedRMSD -1
REMARK  0 active torsions:
REMARK  status: ('A' for Active; 'I' for Inactive)
ROOT
ATOM      1  O1  BZF d   1      -0.162   0.745   0.237  0.00  0.00    -0.204 OA
ATOM      2  C2  BZF d   1      -1.066  -0.116   0.830  0.00  0.00     0.174 A 
ATOM      3  C3  BZF d   1      -0.828  -0.223   2.153  0.00  0.00    -0.012 A 
ATOM      4  C3A BZF d   1       0.236   0.696   2.419  0.00  0.00    -0.107 A 
ATOM      5  C4  BZF d   1       0.905   1.054   3.555  0.00  0.00     0.055 A 
ATOM      6  C5  BZF d   1       1.943   1.926   3.462  0.00  0.00    -0.016 A 
ATOM      7  C6  BZF d   1       2.342   2.454   2.252  0.00  0.00     0.022 A 
ATOM      8  C7  BZF d   1       1.706   2.133   1.099  0.00  0.00     0.029 A 
ATOM      9  C7A BZF d   1       0.636   1.277   1.194  0.00  0.00     0.058 A 
ENDROOT
TORSDOF 0
ENDMDL
