MODEL 1
REMARK minimizedAffinity -1.92398822
REMARK minimizedRMSD -1
REMARK  0 active torsions:
REMARK  status: ('A' for Active; 'I' for Inactive)
ROOT
ATOM      1  O1  BZF d   1      -1.125  -0.773  -0.531  0.00  0.00    -0.204 OA
ATOM      2  C2  BZF d   1      -1.337  -0.230   0.721  0.00  0.00     0.174 A 
ATOM      3  C3  BZF d   1      -0.273   0.501   1.112  0.00  0.00    -0.012 A 
ATOM      4  C3A BZF d   1       0.625   0.484  -0.002  0.00  0.00    -0.107 A 
ATOM      5  C4  BZF d   1       1.848   1.045  -0.230  0.00  0.00     0.055 A 
ATOM      6  C5  BZF d   1       2.492   0.776  -1.396  0.00  0.00    -0.016 A 
ATOM      7  C6  BZF d   1       1.943  -0.053  -2.353  0.00  0.00     0.022 A 
ATOM      8  C7  BZF d   1       0.730  -0.629  -2.174  0.00  0.00     0.029 A 
ATOM      9  C7A BZF d   1       0.063  -0.332  -1.011  0.00  0.00     0.058 A 
ENDROOT
TORSDOF 0
ENDMDL
