MODEL 1
REMARK minimizedAffinity -0.258196563
REMARK minimizedRMSD -1
REMARK  0 active torsions:
REMARK  status: ('A' for Active; 'I' for Inactive)
ROOT
ATOM      1  O1  BZF d   1      -1.494  -1.739   0.879  0.00  0.00    -0.204 OA
ATOM      2  C2  BZF d   1      -0.379  -0.953   0.664  0.00  0.00     0.174 A 
ATOM      3  C3  BZF d   1      -0.697   0.356   0.729  0.00  0.00    -0.012 A 
ATOM      4  C3A BZF d   1      -2.080   0.390   1.094  0.00  0.00    -0.107 A 
ATOM      5  C4  BZF d   1      -2.964   1.404   1.329  0.00  0.00     0.055 A 
ATOM      6  C5  BZF d   1      -4.262   1.100   1.593  0.00  0.00    -0.016 A 
ATOM      7  C6  BZF d   1      -4.710  -0.204   1.626  0.00  0.00     0.022 A 
ATOM      8  C7  BZF d   1      -3.869  -1.244   1.405  0.00  0.00     0.029 A 
ATOM      9  C7A BZF d   1      -2.550  -0.941   1.170  0.00  0.00     0.058 A 
ENDROOT
TORSDOF 0
ENDMDL
