MODEL 1
REMARK minimizedAffinity -1.00708067
REMARK minimizedRMSD -1
REMARK  0 active torsions:
REMARK  status: ('A' for Active; 'I' for Inactive)
ROOT
ATOM      1  O1  BZF d   1      -0.290  -0.524   1.634  0.00  0.00    -0.204 OA
ATOM      2  C2  BZF d   1       0.038   0.815   1.721  0.00  0.00     0.174 A 
ATOM      3  C3  BZF d   1       0.656   1.231   0.597  0.00  0.00    -0.012 A 
ATOM      4  C3A BZF d   1       0.635   0.103  -0.283  0.00  0.00    -0.107 A 
ATOM      5  C4  BZF d   1       1.084  -0.103  -1.556  0.00  0.00     0.055 A 
ATOM      6  C5  BZF d   1       0.975  -1.343  -2.103  0.00  0.00    -0.016 A 
ATOM      7  C6  BZF d   1       0.429  -2.399  -1.404  0.00  0.00     0.022 A 
ATOM      8  C7  BZF d   1      -0.034  -2.242  -0.140  0.00  0.00     0.029 A 
ATOM      9  C7A BZF d   1       0.044  -0.983   0.403  0.00  0.00     0.058 A 
ENDROOT
TORSDOF 0
ENDMDL
