MODEL 1
REMARK minimizedAffinity -2.72517371
REMARK minimizedRMSD -1
REMARK  0 active torsions:
REMARK  status: ('A' for Active; 'I' for Inactive)
ROOT
ATOM      1  O1  BZF d   1       0.135  -1.688  -1.187  0.00  0.00    -0.204 OA
ATOM      2  C2  BZF d   1       0.940  -2.097  -2.233  0.00  0.00     0.174 A 
ATOM      3  C3  BZF d   1       1.854  -1.152  -2.531  0.00  0.00    -0.012 A 
ATOM      4  C3A BZF d   1       1.665  -0.124  -1.553  0.00  0.00    -0.107 A 
ATOM      5  C4  BZF d   1       2.283   1.070  -1.315  0.00  0.00     0.055 A 
ATOM      6  C5  BZF d   1       1.810   1.873  -0.326  0.00  0.00    -0.016 A 
ATOM      7  C6  BZF d   1       0.718   1.516   0.439  0.00  0.00     0.022 A 
ATOM      8  C7  BZF d   1       0.075   0.340   0.243  0.00  0.00     0.029 A 
ATOM      9  C7A BZF d   1       0.572  -0.489  -0.734  0.00  0.00     0.058 A 
ENDROOT
TORSDOF 0
ENDMDL
