MODEL 1
REMARK minimizedAffinity -1.05097592
REMARK minimizedRMSD -1
REMARK  0 active torsions:
REMARK  status: ('A' for Active; 'I' for Inactive)
ROOT
ATOM      1  O1  BZF d   1      -0.051   0.482   1.942  0.00  0.00    -0.204 OA
ATOM      2  C2  BZF d   1       0.134  -0.315   0.829  0.00  0.00     0.174 A 
ATOM      3  C3  BZF d   1      -1.052  -0.694   0.309  0.00  0.00    -0.012 A 
ATOM      4  C3A BZF d   1      -2.039  -0.020   1.096  0.00  0.00    -0.107 A 
ATOM      5  C4  BZF d   1      -3.404   0.018   1.058  0.00  0.00     0.055 A 
ATOM      6  C5  BZF d   1      -4.072   0.715   2.014  0.00  0.00    -0.016 A 
ATOM      7  C6  BZF d   1      -3.409   1.381   3.023  0.00  0.00     0.022 A 
ATOM      8  C7  BZF d   1      -2.056   1.377   3.100  0.00  0.00     0.029 A 
ATOM      9  C7A BZF d   1      -1.377   0.700   2.116  0.00  0.00     0.058 A 
ENDROOT
TORSDOF 0
ENDMDL
