MODEL 1
REMARK minimizedAffinity -5.64629602
REMARK minimizedRMSD -1
REMARK  0 active torsions:
REMARK  status: ('A' for Active; 'I' for Inactive)
ROOT
ATOM      1  O1  BZF d   1      -0.352  -0.078   1.885  0.00  0.00    -0.204 OA
ATOM      2  C2  BZF d   1       0.590   0.484   2.725  0.00  0.00     0.174 A 
ATOM      3  C3  BZF d   1       0.020   1.390   3.545  0.00  0.00    -0.012 A 
ATOM      4  C3A BZF d   1      -1.381   1.326   3.260  0.00  0.00    -0.107 A 
ATOM      5  C4  BZF d   1      -2.472   1.976   3.762  0.00  0.00     0.055 A 
ATOM      6  C5  BZF d   1      -3.693   1.737   3.215  0.00  0.00    -0.016 A 
ATOM      7  C6  BZF d   1      -3.858   0.860   2.164  0.00  0.00     0.022 A 
ATOM      8  C7  BZF d   1      -2.807   0.188   1.635  0.00  0.00     0.029 A 
ATOM      9  C7A BZF d   1      -1.576   0.403   2.207  0.00  0.00     0.058 A 
ENDROOT
TORSDOF 0
ENDMDL
