MODEL 1
REMARK minimizedAffinity -5.0334115
REMARK minimizedRMSD -1
REMARK  0 active torsions:
REMARK  status: ('A' for Active; 'I' for Inactive)
ROOT
ATOM      1  O1  BZF d   1       0.395   1.054   0.889  0.00  0.00    -0.204 OA
ATOM      2  C2  BZF d   1      -0.500   0.087   1.305  0.00  0.00     0.174 A 
ATOM      3  C3  BZF d   1      -0.614  -0.889   0.381  0.00  0.00    -0.012 A 
ATOM      4  C3A BZF d   1       0.334  -0.555  -0.637  0.00  0.00    -0.107 A 
ATOM      5  C4  BZF d   1       0.700  -1.151  -1.810  0.00  0.00     0.055 A 
ATOM      6  C5  BZF d   1       1.605  -0.530  -2.612  0.00  0.00    -0.016 A 
ATOM      7  C6  BZF d   1       2.159   0.688  -2.274  0.00  0.00     0.022 A 
ATOM      8  C7  BZF d   1       1.831   1.315  -1.118  0.00  0.00     0.029 A 
ATOM      9  C7A BZF d   1       0.941   0.674  -0.291  0.00  0.00     0.058 A 
ENDROOT
TORSDOF 0
ENDMDL
