MODEL 1
REMARK minimizedAffinity 5.53183508
REMARK minimizedRMSD -1
REMARK  1 active torsions:
REMARK  status: ('A' for Active; 'I' for Inactive)
REMARK    1  A    between atoms: C3_4  and  O_7 
ROOT
ATOM      1  C   UNL d   1       4.357   2.926  -1.155  0.00  0.00    -0.033 A 
ATOM      2  C1  UNL d   1       3.614   2.877   0.026  0.00  0.00     0.039 A 
ATOM      3  C2  UNL d   1       2.982   1.692   0.406  0.00  0.00    -0.080 A 
ATOM      4  C3  UNL d   1       3.100   0.564  -0.402  0.00  0.00     0.150 A 
ATOM      5  C4  UNL d   1       3.841   0.605  -1.578  0.00  0.00    -0.007 A 
ATOM      6  C5  UNL d   1       4.471   1.790  -1.957  0.00  0.00     0.039 A 
ENDROOT
BRANCH   4   7
ATOM      7  O   UNL d   1       2.496  -0.613  -0.075  0.00  0.00    -0.526 OA
ATOM      8  H5  UNL d   1       1.996  -0.484   0.748  0.00  0.00     0.418 HD
ENDBRANCH   4   7
TORSDOF 1
ENDMDL
