MODEL 1
REMARK minimizedAffinity 2.35884333
REMARK minimizedRMSD -1
REMARK  1 active torsions:
REMARK  status: ('A' for Active; 'I' for Inactive)
REMARK    1  A    between atoms: C3_4  and  O_7 
ROOT
ATOM      1  C   UNL d   1       2.568  -0.113   0.530  0.00  0.00    -0.033 A 
ATOM      2  C1  UNL d   1       1.970  -0.068  -0.730  0.00  0.00     0.039 A 
ATOM      3  C2  UNL d   1       2.479   0.778  -1.717  0.00  0.00    -0.080 A 
ATOM      4  C3  UNL d   1       3.585   1.573  -1.431  0.00  0.00     0.150 A 
ATOM      5  C4  UNL d   1       4.189   1.531  -0.179  0.00  0.00    -0.007 A 
ATOM      6  C5  UNL d   1       3.679   0.686   0.806  0.00  0.00     0.039 A 
ENDROOT
BRANCH   4   7
ATOM      7  O   UNL d   1       4.115   2.418  -2.361  0.00  0.00    -0.526 OA
ATOM      8  H5  UNL d   1       3.577   2.362  -3.169  0.00  0.00     0.418 HD
ENDBRANCH   4   7
TORSDOF 1
ENDMDL
