MODEL 1
REMARK minimizedAffinity 3.28367472
REMARK minimizedRMSD -1
REMARK  1 active torsions:
REMARK  status: ('A' for Active; 'I' for Inactive)
REMARK    1  A    between atoms: C3_4  and  O_7 
ROOT
ATOM      1  C   UNL d   1      -5.999   3.994   2.697  0.00  0.00    -0.033 A 
ATOM      2  C1  UNL d   1      -5.782   3.298   3.887  0.00  0.00     0.039 A 
ATOM      3  C2  UNL d   1      -5.223   3.951   4.988  0.00  0.00    -0.080 A 
ATOM      4  C3  UNL d   1      -4.887   5.298   4.885  0.00  0.00     0.150 A 
ATOM      5  C4  UNL d   1      -5.104   5.999   3.703  0.00  0.00    -0.007 A 
ATOM      6  C5  UNL d   1      -5.662   5.345   2.605  0.00  0.00     0.039 A 
ENDROOT
BRANCH   4   7
ATOM      7  O   UNL d   1      -4.335   5.976   5.930  0.00  0.00    -0.526 OA
ATOM      8  H5  UNL d   1      -4.217   5.358   6.671  0.00  0.00     0.418 HD
ENDBRANCH   4   7
TORSDOF 1
ENDMDL
