MODEL 1
REMARK minimizedAffinity 19.721386
REMARK minimizedRMSD -1
REMARK  1 active torsions:
REMARK  status: ('A' for Active; 'I' for Inactive)
REMARK    1  A    between atoms: C3_4  and  O_7 
ROOT
ATOM      1  C   UNL d   1      -5.890   4.869   3.628  0.00  0.00    -0.033 A 
ATOM      2  C1  UNL d   1      -5.885   5.005   5.017  0.00  0.00     0.039 A 
ATOM      3  C2  UNL d   1      -5.921   3.872   5.832  0.00  0.00    -0.080 A 
ATOM      4  C3  UNL d   1      -5.960   2.610   5.246  0.00  0.00     0.150 A 
ATOM      5  C4  UNL d   1      -5.961   2.466   3.862  0.00  0.00    -0.007 A 
ATOM      6  C5  UNL d   1      -5.927   3.599   3.050  0.00  0.00     0.039 A 
ENDROOT
BRANCH   4   7
ATOM      7  O   UNL d   1      -6.000   1.475   6.000  0.00  0.00    -0.526 OA
ATOM      8  H5  UNL d   1      -6.023   1.729   6.937  0.00  0.00     0.418 HD
ENDBRANCH   4   7
TORSDOF 1
ENDMDL
