MODEL 1
REMARK minimizedAffinity 3.40266871
REMARK minimizedRMSD -1
REMARK  1 active torsions:
REMARK  status: ('A' for Active; 'I' for Inactive)
REMARK    1  A    between atoms: C3_4  and  O_7 
ROOT
ATOM      1  C   UNL d   1      -4.755   5.966   5.966  0.00  0.00    -0.033 A 
ATOM      2  C1  UNL d   1      -3.629   5.999   5.141  0.00  0.00     0.039 A 
ATOM      3  C2  UNL d   1      -3.686   5.452   3.858  0.00  0.00    -0.080 A 
ATOM      4  C3  UNL d   1      -4.873   4.878   3.411  0.00  0.00     0.150 A 
ATOM      5  C4  UNL d   1      -5.999   4.846   4.226  0.00  0.00    -0.007 A 
ATOM      6  C5  UNL d   1      -5.941   5.391   5.508  0.00  0.00     0.039 A 
ENDROOT
BRANCH   4   7
ATOM      7  O   UNL d   1      -4.975   4.328   2.168  0.00  0.00    -0.526 OA
ATOM      8  H5  UNL d   1      -4.110   4.397   1.729  0.00  0.00     0.418 HD
ENDBRANCH   4   7
TORSDOF 1
ENDMDL
