MODEL 1
REMARK minimizedAffinity 3.33723736
REMARK minimizedRMSD -1
REMARK  1 active torsions:
REMARK  status: ('A' for Active; 'I' for Inactive)
REMARK    1  A    between atoms: C3_4  and  O_7 
ROOT
ATOM      1  C   UNL d   1      -4.751   5.999   5.846  0.00  0.00    -0.033 A 
ATOM      2  C1  UNL d   1      -3.709   5.999   4.917  0.00  0.00     0.039 A 
ATOM      3  C2  UNL d   1      -3.809   5.236   3.753  0.00  0.00    -0.080 A 
ATOM      4  C3  UNL d   1      -4.955   4.478   3.529  0.00  0.00     0.150 A 
ATOM      5  C4  UNL d   1      -5.999   4.476   4.448  0.00  0.00    -0.007 A 
ATOM      6  C5  UNL d   1      -5.897   5.239   5.611  0.00  0.00     0.039 A 
ENDROOT
BRANCH   4   7
ATOM      7  O   UNL d   1      -5.096   3.713   2.409  0.00  0.00    -0.526 OA
ATOM      8  H5  UNL d   1      -4.285   3.790   1.880  0.00  0.00     0.418 HD
ENDBRANCH   4   7
TORSDOF 1
ENDMDL
