MODEL 1
REMARK minimizedAffinity 3.33054829
REMARK minimizedRMSD -1
REMARK  1 active torsions:
REMARK  status: ('A' for Active; 'I' for Inactive)
REMARK    1  A    between atoms: C3_4  and  O_7 
ROOT
ATOM      1  C   UNL d   1       2.190  -2.776  -2.201  0.00  0.00    -0.033 A 
ATOM      2  C1  UNL d   1       1.978  -2.012  -1.052  0.00  0.00     0.039 A 
ATOM      3  C2  UNL d   1       2.765  -0.885  -0.807  0.00  0.00    -0.080 A 
ATOM      4  C3  UNL d   1       3.758  -0.533  -1.717  0.00  0.00     0.150 A 
ATOM      5  C4  UNL d   1       3.972  -1.288  -2.865  0.00  0.00    -0.007 A 
ATOM      6  C5  UNL d   1       3.186  -2.414  -3.108  0.00  0.00     0.039 A 
ENDROOT
BRANCH   4   7
ATOM      7  O   UNL d   1       4.554   0.556  -1.517  0.00  0.00    -0.526 OA
ATOM      8  H5  UNL d   1       4.311   0.964  -0.670  0.00  0.00     0.418 HD
ENDBRANCH   4   7
TORSDOF 1
ENDMDL
