MODEL 1
REMARK minimizedAffinity 0.00344998832
REMARK minimizedRMSD -1
REMARK  1 active torsions:
REMARK  status: ('A' for Active; 'I' for Inactive)
REMARK    1  A    between atoms: C3_4  and  O_7 
ROOT
ATOM      1  C   UNL d   1       5.570   1.827  -1.457  0.00  0.00    -0.033 A 
ATOM      2  C1  UNL d   1       5.039   2.902  -0.741  0.00  0.00     0.039 A 
ATOM      3  C2  UNL d   1       3.739   2.832  -0.235  0.00  0.00    -0.080 A 
ATOM      4  C3  UNL d   1       2.983   1.683  -0.450  0.00  0.00     0.150 A 
ATOM      5  C4  UNL d   1       3.507   0.607  -1.159  0.00  0.00    -0.007 A 
ATOM      6  C5  UNL d   1       4.804   0.679  -1.664  0.00  0.00     0.039 A 
ENDROOT
BRANCH   4   7
ATOM      7  O   UNL d   1       1.708   1.571   0.020  0.00  0.00    -0.526 OA
ATOM      8  H5  UNL d   1       1.470   2.401   0.465  0.00  0.00     0.418 HD
ENDBRANCH   4   7
TORSDOF 1
ENDMDL
