MODEL 1
REMARK minimizedAffinity 0.973192334
REMARK minimizedRMSD -1
REMARK  1 active torsions:
REMARK  status: ('A' for Active; 'I' for Inactive)
REMARK    1  A    between atoms: C3_4  and  O_7 
ROOT
ATOM      1  C   UNL d   1       2.120  -2.265  -0.214  0.00  0.00    -0.033 A 
ATOM      2  C1  UNL d   1       2.168  -0.883  -0.021  0.00  0.00     0.039 A 
ATOM      3  C2  UNL d   1       1.052  -0.097  -0.314  0.00  0.00    -0.080 A 
ATOM      4  C3  UNL d   1      -0.104  -0.704  -0.797  0.00  0.00     0.150 A 
ATOM      5  C4  UNL d   1      -0.160  -2.081  -0.988  0.00  0.00    -0.007 A 
ATOM      6  C5  UNL d   1       0.956  -2.864  -0.696  0.00  0.00     0.039 A 
ENDROOT
BRANCH   4   7
ATOM      7  O   UNL d   1      -1.217   0.023  -1.102  0.00  0.00    -0.526 OA
ATOM      8  H5  UNL d   1      -1.022   0.962  -0.948  0.00  0.00     0.418 HD
ENDBRANCH   4   7
TORSDOF 1
ENDMDL
