MODEL 1
REMARK minimizedAffinity -2.80666423
REMARK minimizedRMSD -1
REMARK  1 active torsions:
REMARK  status: ('A' for Active; 'I' for Inactive)
REMARK    1  A    between atoms: C3_4  and  O_7 
ROOT
ATOM      1  C   UNL d   1       0.797  -1.584  -0.340  0.00  0.00    -0.033 A 
ATOM      2  C1  UNL d   1       0.303  -0.283  -0.231  0.00  0.00     0.039 A 
ATOM      3  C2  UNL d   1       1.181   0.803  -0.246  0.00  0.00    -0.080 A 
ATOM      4  C3  UNL d   1       2.548   0.574  -0.372  0.00  0.00     0.150 A 
ATOM      5  C4  UNL d   1       3.047  -0.719  -0.485  0.00  0.00    -0.007 A 
ATOM      6  C5  UNL d   1       2.169  -1.802  -0.469  0.00  0.00     0.039 A 
ENDROOT
BRANCH   4   7
ATOM      7  O   UNL d   1       3.444   1.602  -0.387  0.00  0.00    -0.526 OA
ATOM      8  H5  UNL d   1       2.958   2.435  -0.271  0.00  0.00     0.418 HD
ENDBRANCH   4   7
TORSDOF 1
ENDMDL
