MODEL 1
REMARK minimizedAffinity 5.28089285
REMARK minimizedRMSD -1
REMARK  1 active torsions:
REMARK  status: ('A' for Active; 'I' for Inactive)
REMARK    1  A    between atoms: C3_4  and  O_7 
ROOT
ATOM      1  C   UNL d   1      -0.801  -0.242  -1.141  0.00  0.00    -0.033 A 
ATOM      2  C1  UNL d   1       0.345   0.403  -0.671  0.00  0.00     0.039 A 
ATOM      3  C2  UNL d   1       1.549  -0.297  -0.564  0.00  0.00    -0.080 A 
ATOM      4  C3  UNL d   1       1.593  -1.640  -0.930  0.00  0.00     0.150 A 
ATOM      5  C4  UNL d   1       0.456  -2.287  -1.402  0.00  0.00    -0.007 A 
ATOM      6  C5  UNL d   1      -0.745  -1.587  -1.508  0.00  0.00     0.039 A 
ENDROOT
BRANCH   4   7
ATOM      7  O   UNL d   1       2.743  -2.366  -0.839  0.00  0.00    -0.526 OA
ATOM      8  H5  UNL d   1       3.438  -1.796  -0.470  0.00  0.00     0.418 HD
ENDBRANCH   4   7
TORSDOF 1
ENDMDL
