MODEL 1
REMARK minimizedAffinity -0.700628877
REMARK minimizedRMSD -1
REMARK  1 active torsions:
REMARK  status: ('A' for Active; 'I' for Inactive)
REMARK    1  A    between atoms: C3_4  and  O_7 
ROOT
ATOM      1  C   UNL d   1      -0.415  -2.905  -0.931  0.00  0.00    -0.033 A 
ATOM      2  C1  UNL d   1      -1.240  -1.845  -1.313  0.00  0.00     0.039 A 
ATOM      3  C2  UNL d   1      -0.771  -0.532  -1.242  0.00  0.00    -0.080 A 
ATOM      4  C3  UNL d   1       0.525  -0.293  -0.791  0.00  0.00     0.150 A 
ATOM      5  C4  UNL d   1       1.353  -1.344  -0.413  0.00  0.00    -0.007 A 
ATOM      6  C5  UNL d   1       0.882  -2.655  -0.483  0.00  0.00     0.039 A 
ENDROOT
BRANCH   4   7
ATOM      7  O   UNL d   1       1.026   0.972  -0.701  0.00  0.00    -0.526 OA
ATOM      8  H5  UNL d   1       0.332   1.598  -0.968  0.00  0.00     0.418 HD
ENDBRANCH   4   7
TORSDOF 1
ENDMDL
