MODEL 1
REMARK minimizedAffinity 1.48162222
REMARK minimizedRMSD -1
REMARK  1 active torsions:
REMARK  status: ('A' for Active; 'I' for Inactive)
REMARK    1  A    between atoms: C3_4  and  O_7 
ROOT
ATOM      1  C   UNL d   1      -1.104  -0.170  -1.882  0.00  0.00    -0.033 A 
ATOM      2  C1  UNL d   1      -0.545  -0.007  -0.614  0.00  0.00     0.039 A 
ATOM      3  C2  UNL d   1       0.361  -0.947  -0.121  0.00  0.00    -0.080 A 
ATOM      4  C3  UNL d   1       0.701  -2.045  -0.907  0.00  0.00     0.150 A 
ATOM      5  C4  UNL d   1       0.151  -2.213  -2.173  0.00  0.00    -0.007 A 
ATOM      6  C5  UNL d   1      -0.755  -1.273  -2.663  0.00  0.00     0.039 A 
ENDROOT
BRANCH   4   7
ATOM      7  O   UNL d   1       1.577  -2.992  -0.467  0.00  0.00    -0.526 OA
ATOM      8  H5  UNL d   1       1.854  -2.761   0.435  0.00  0.00     0.418 HD
ENDBRANCH   4   7
TORSDOF 1
ENDMDL
