MODEL 1
REMARK minimizedAffinity 1.23372328
REMARK minimizedRMSD -1
REMARK  1 active torsions:
REMARK  status: ('A' for Active; 'I' for Inactive)
REMARK    1  A    between atoms: C3_4  and  O_7 
ROOT
ATOM      1  C   UNL d   1      -0.468  -0.726  -1.641  0.00  0.00    -0.033 A 
ATOM      2  C1  UNL d   1      -0.605   0.663  -1.606  0.00  0.00     0.039 A 
ATOM      3  C2  UNL d   1      -0.043   1.395  -0.558  0.00  0.00    -0.080 A 
ATOM      4  C3  UNL d   1       0.652   0.727   0.446  0.00  0.00     0.150 A 
ATOM      5  C4  UNL d   1       0.795  -0.656   0.416  0.00  0.00    -0.007 A 
ATOM      6  C5  UNL d   1       0.233  -1.386  -0.631  0.00  0.00     0.039 A 
ENDROOT
BRANCH   4   7
ATOM      7  O   UNL d   1       1.213   1.398   1.492  0.00  0.00    -0.526 OA
ATOM      8  H5  UNL d   1       1.009   2.344   1.396  0.00  0.00     0.418 HD
ENDBRANCH   4   7
TORSDOF 1
ENDMDL
