MODEL 1
REMARK minimizedAffinity -4.83458757
REMARK minimizedRMSD -1
REMARK  0 active torsions:
REMARK  status: ('A' for Active; 'I' for Inactive)
ROOT
ATOM      1  C1  DEN d   1       2.013  -1.402   0.542  0.00  0.00     0.130 A 
ATOM      2  C2  DEN d   1       3.208  -0.614   0.834  0.00  0.00    -0.031 A 
ATOM      3  C3  DEN d   1       2.860   0.814   0.686  0.00  0.00     0.027 A 
ATOM      4  C4  DEN d   1       0.599   1.876   0.043  0.00  0.00     0.027 A 
ATOM      5  C5  DEN d   1      -0.705   1.611  -0.309  0.00  0.00    -0.003 A 
ATOM      6  C6  DEN d   1      -1.183   0.333  -0.434  0.00  0.00     0.001 A 
ATOM      7  C7  DEN d   1      -0.361  -0.729  -0.161  0.00  0.00     0.017 A 
ATOM      8  C8  DEN d   1       0.958  -0.469   0.187  0.00  0.00    -0.094 A 
ATOM      9  C9  DEN d   1       1.418   0.830   0.320  0.00  0.00    -0.072 A 
ENDROOT
TORSDOF 0
ENDMDL
