MODEL 1
REMARK minimizedAffinity -5.47361803
REMARK minimizedRMSD -1
REMARK  0 active torsions:
REMARK  status: ('A' for Active; 'I' for Inactive)
ROOT
ATOM      1  C1  DEN d   1       2.179  -1.306   0.878  0.00  0.00     0.130 A 
ATOM      2  C2  DEN d   1       3.307  -0.432   0.569  0.00  0.00    -0.031 A 
ATOM      3  C3  DEN d   1       2.768   0.862   0.105  0.00  0.00     0.027 A 
ATOM      4  C4  DEN d   1       0.309   1.595  -0.159  0.00  0.00     0.027 A 
ATOM      5  C5  DEN d   1      -1.002   1.193  -0.031  0.00  0.00    -0.003 A 
ATOM      6  C6  DEN d   1      -1.342  -0.071   0.373  0.00  0.00     0.001 A 
ATOM      7  C7  DEN d   1      -0.358  -0.965   0.707  0.00  0.00     0.017 A 
ATOM      8  C8  DEN d   1       0.966  -0.569   0.573  0.00  0.00    -0.094 A 
ATOM      9  C9  DEN d   1       1.289   0.717   0.175  0.00  0.00    -0.072 A 
ENDROOT
TORSDOF 0
ENDMDL
