MODEL 1
REMARK minimizedAffinity -3.06339288
REMARK minimizedRMSD -1
REMARK  0 active torsions:
REMARK  status: ('A' for Active; 'I' for Inactive)
ROOT
ATOM      1  C1  DEN d   1      -0.985  -0.411   0.245  0.00  0.00     0.130 A 
ATOM      2  C2  DEN d   1      -1.104   0.901  -0.386  0.00  0.00    -0.031 A 
ATOM      3  C3  DEN d   1       0.206   1.575  -0.288  0.00  0.00     0.027 A 
ATOM      4  C4  DEN d   1       2.397   0.717   0.769  0.00  0.00     0.027 A 
ATOM      5  C5  DEN d   1       2.985  -0.334   1.437  0.00  0.00    -0.003 A 
ATOM      6  C6  DEN d   1       2.287  -1.461   1.782  0.00  0.00     0.001 A 
ATOM      7  C7  DEN d   1       0.971  -1.583   1.420  0.00  0.00     0.017 A 
ATOM      8  C8  DEN d   1       0.370  -0.524   0.752  0.00  0.00    -0.094 A 
ATOM      9  C9  DEN d   1       1.096   0.602   0.402  0.00  0.00    -0.072 A 
ENDROOT
TORSDOF 0
ENDMDL
