MODEL 1
REMARK minimizedAffinity -5.37872982
REMARK minimizedRMSD -1
REMARK  0 active torsions:
REMARK  status: ('A' for Active; 'I' for Inactive)
ROOT
ATOM      1  C1  DEN d   1       1.798  -1.603   0.826  0.00  0.00     0.130 A 
ATOM      2  C2  DEN d   1       3.126  -1.001   0.903  0.00  0.00    -0.031 A 
ATOM      3  C3  DEN d   1       2.984   0.450   0.665  0.00  0.00     0.027 A 
ATOM      4  C4  DEN d   1       0.847   1.814   0.191  0.00  0.00     0.027 A 
ATOM      5  C5  DEN d   1      -0.517   1.740   0.018  0.00  0.00    -0.003 A 
ATOM      6  C6  DEN d   1      -1.196   0.551   0.068  0.00  0.00     0.001 A 
ATOM      7  C7  DEN d   1      -0.517  -0.607   0.341  0.00  0.00     0.017 A 
ATOM      8  C8  DEN d   1       0.860  -0.541   0.510  0.00  0.00    -0.094 A 
ATOM      9  C9  DEN d   1       1.526   0.672   0.468  0.00  0.00    -0.072 A 
ENDROOT
TORSDOF 0
ENDMDL
