MODEL 1
REMARK minimizedAffinity -5.61585188
REMARK minimizedRMSD -1
REMARK  2 active torsions:
REMARK  status: ('A' for Active; 'I' for Inactive)
REMARK    1  A    between atoms: C1_2  and  C2_3 
REMARK    2  A    between atoms: C2_3  and  C3_4 
ROOT
ATOM      1  C3  UNL d   1      -0.727   0.414   1.079  0.00  0.00    -0.075 A 
ATOM      2  C4  UNL d   1      -0.384   1.549   1.828  0.00  0.00     0.002 A 
ATOM      3  C5  UNL d   1      -1.103   1.886   2.975  0.00  0.00     0.002 A 
ATOM      4  C6  UNL d   1      -2.179   1.100   3.381  0.00  0.00    -0.004 A 
ATOM      5  C7  UNL d   1      -2.540  -0.020   2.636  0.00  0.00     0.002 A 
ATOM      6  C8  UNL d   1      -1.819  -0.362   1.490  0.00  0.00     0.002 A 
ENDROOT
BRANCH   1   7
ATOM      7  C2  UNL d   1       0.066   0.028  -0.146  0.00  0.00     0.056 C 
BRANCH   7   8
ATOM      8  C1  UNL d   1       0.835  -1.289  -0.002  0.00  0.00     0.007 C 
ATOM      9  C   UNL d   1       1.933  -1.461  -1.043  0.00  0.00     0.009 C 
ENDBRANCH   7   8
ENDBRANCH   1   7
TORSDOF 2
ENDMDL
