MODEL 1
REMARK minimizedAffinity -3.72028971
REMARK minimizedRMSD -1
REMARK  2 active torsions:
REMARK  status: ('A' for Active; 'I' for Inactive)
REMARK    1  A    between atoms: C1_2  and  C2_3 
REMARK    2  A    between atoms: C2_3  and  C3_4 
ROOT
ATOM      1  C3  UNL d   1       0.264  -0.196  -0.449  0.00  0.00    -0.075 A 
ATOM      2  C4  UNL d   1       1.222  -1.109  -0.914  0.00  0.00     0.002 A 
ATOM      3  C5  UNL d   1       1.982  -0.822  -2.048  0.00  0.00     0.002 A 
ATOM      4  C6  UNL d   1       1.787   0.373  -2.737  0.00  0.00    -0.004 A 
ATOM      5  C7  UNL d   1       0.827   1.280  -2.294  0.00  0.00     0.002 A 
ATOM      6  C8  UNL d   1       0.068   0.997  -1.157  0.00  0.00     0.002 A 
ENDROOT
BRANCH   1   7
ATOM      7  C2  UNL d   1      -0.541  -0.487   0.795  0.00  0.00     0.056 C 
BRANCH   7   8
ATOM      8  C1  UNL d   1      -1.522   0.626   1.178  0.00  0.00     0.007 C 
ATOM      9  C   UNL d   1      -1.735   0.747   2.681  0.00  0.00     0.009 C 
ENDBRANCH   7   8
ENDBRANCH   1   7
TORSDOF 2
ENDMDL
