MODEL 1
REMARK minimizedAffinity -5.13064814
REMARK minimizedRMSD -1
REMARK  2 active torsions:
REMARK  status: ('A' for Active; 'I' for Inactive)
REMARK    1  A    between atoms: C1_2  and  C2_3 
REMARK    2  A    between atoms: C2_3  and  C3_4 
ROOT
ATOM      1  C3  UNL d   1       0.848  -0.463  -0.530  0.00  0.00    -0.075 A 
ATOM      2  C4  UNL d   1       0.794   0.625  -1.413  0.00  0.00     0.002 A 
ATOM      3  C5  UNL d   1       1.604   0.657  -2.549  0.00  0.00     0.002 A 
ATOM      4  C6  UNL d   1       2.483  -0.392  -2.811  0.00  0.00    -0.004 A 
ATOM      5  C7  UNL d   1       2.557  -1.470  -1.932  0.00  0.00     0.002 A 
ATOM      6  C8  UNL d   1       1.744  -1.507  -0.797  0.00  0.00     0.002 A 
ENDROOT
BRANCH   1   7
ATOM      7  C2  UNL d   1      -0.047  -0.517   0.685  0.00  0.00     0.056 C 
BRANCH   7   8
ATOM      8  C1  UNL d   1      -1.380   0.217   0.511  0.00  0.00     0.007 C 
ATOM      9  C   UNL d   1      -2.062   0.546   1.832  0.00  0.00     0.009 C 
ENDBRANCH   7   8
ENDBRANCH   1   7
TORSDOF 2
ENDMDL
