MODEL 1
REMARK minimizedAffinity -2.33227277
REMARK minimizedRMSD -1
REMARK  2 active torsions:
REMARK  status: ('A' for Active; 'I' for Inactive)
REMARK    1  A    between atoms: C1_2  and  C2_3 
REMARK    2  A    between atoms: C2_3  and  C3_4 
ROOT
ATOM      1  C3  UNL d   1       0.249  -0.353   0.466  0.00  0.00    -0.075 A 
ATOM      2  C4  UNL d   1       0.848  -1.606   0.272  0.00  0.00     0.002 A 
ATOM      3  C5  UNL d   1       1.454  -1.922  -0.944  0.00  0.00     0.002 A 
ATOM      4  C6  UNL d   1       1.460  -0.995  -1.984  0.00  0.00    -0.004 A 
ATOM      5  C7  UNL d   1       0.854   0.247  -1.809  0.00  0.00     0.002 A 
ATOM      6  C8  UNL d   1       0.251   0.567  -0.591  0.00  0.00     0.002 A 
ENDROOT
BRANCH   1   7
ATOM      7  C2  UNL d   1      -0.382   0.006   1.790  0.00  0.00     0.056 C 
BRANCH   7   8
ATOM      8  C1  UNL d   1      -1.356   1.186   1.717  0.00  0.00     0.007 C 
ATOM      9  C   UNL d   1      -2.721   0.877   2.318  0.00  0.00     0.009 C 
ENDBRANCH   7   8
ENDBRANCH   1   7
TORSDOF 2
ENDMDL
