MODEL 1
REMARK minimizedAffinity -1.34065568
REMARK minimizedRMSD -1
REMARK  2 active torsions:
REMARK  status: ('A' for Active; 'I' for Inactive)
REMARK    1  A    between atoms: C1_2  and  C2_3 
REMARK    2  A    between atoms: C2_3  and  C3_4 
ROOT
ATOM      1  C3  UNL d   1      -0.785   0.529   1.161  0.00  0.00    -0.075 A 
ATOM      2  C4  UNL d   1      -1.274   0.334  -0.139  0.00  0.00     0.002 A 
ATOM      3  C5  UNL d   1      -0.844  -0.752  -0.902  0.00  0.00     0.002 A 
ATOM      4  C6  UNL d   1       0.085  -1.650  -0.381  0.00  0.00    -0.004 A 
ATOM      5  C7  UNL d   1       0.590  -1.456   0.903  0.00  0.00     0.002 A 
ATOM      6  C8  UNL d   1       0.158  -0.373   1.671  0.00  0.00     0.002 A 
ENDROOT
BRANCH   1   7
ATOM      7  C2  UNL d   1      -1.269   1.685   2.003  0.00  0.00     0.056 C 
BRANCH   7   8
ATOM      8  C1  UNL d   1      -2.032   1.264   3.263  0.00  0.00     0.007 C 
ATOM      9  C   UNL d   1      -1.226   1.446   4.542  0.00  0.00     0.009 C 
ENDBRANCH   7   8
ENDBRANCH   1   7
TORSDOF 2
ENDMDL
