MODEL 1
REMARK minimizedAffinity -3.66865158
REMARK minimizedRMSD -1
REMARK  2 active torsions:
REMARK  status: ('A' for Active; 'I' for Inactive)
REMARK    1  A    between atoms: C1_2  and  C2_3 
REMARK    2  A    between atoms: C2_3  and  C3_4 
ROOT
ATOM      1  C3  UNL d   1      -1.351   0.365   1.000  0.00  0.00    -0.075 A 
ATOM      2  C4  UNL d   1      -0.902   1.502   1.688  0.00  0.00     0.002 A 
ATOM      3  C5  UNL d   1      -1.501   1.886   2.888  0.00  0.00     0.002 A 
ATOM      4  C6  UNL d   1      -2.559   1.145   3.410  0.00  0.00    -0.004 A 
ATOM      5  C7  UNL d   1      -3.023   0.023   2.727  0.00  0.00     0.002 A 
ATOM      6  C8  UNL d   1      -2.424  -0.365   1.528  0.00  0.00     0.002 A 
ENDROOT
BRANCH   1   7
ATOM      7  C2  UNL d   1      -0.688  -0.073  -0.285  0.00  0.00     0.056 C 
BRANCH   7   8
ATOM      8  C1  UNL d   1       0.049  -1.412  -0.182  0.00  0.00     0.007 C 
ATOM      9  C   UNL d   1       1.490  -1.344  -0.669  0.00  0.00     0.009 C 
ENDBRANCH   7   8
ENDBRANCH   1   7
TORSDOF 2
ENDMDL
