MODEL 1
REMARK minimizedAffinity -0.21005702
REMARK minimizedRMSD -1
REMARK  2 active torsions:
REMARK  status: ('A' for Active; 'I' for Inactive)
REMARK    1  A    between atoms: C1_2  and  C2_3 
REMARK    2  A    between atoms: C2_3  and  C3_4 
ROOT
ATOM      1  C3  UNL d   1      -1.352   0.479   0.854  0.00  0.00    -0.075 A 
ATOM      2  C4  UNL d   1      -0.377  -0.526   0.785  0.00  0.00     0.002 A 
ATOM      3  C5  UNL d   1       0.668  -0.437  -0.135  0.00  0.00     0.002 A 
ATOM      4  C6  UNL d   1       0.746   0.650  -1.003  0.00  0.00    -0.004 A 
ATOM      5  C7  UNL d   1      -0.227   1.647  -0.954  0.00  0.00     0.002 A 
ATOM      6  C8  UNL d   1      -1.271   1.563  -0.031  0.00  0.00     0.002 A 
ENDROOT
BRANCH   1   7
ATOM      7  C2  UNL d   1      -2.469   0.404   1.868  0.00  0.00     0.056 C 
BRANCH   7   8
ATOM      8  C1  UNL d   1      -2.286   1.337   3.069  0.00  0.00     0.007 C 
ATOM      9  C   UNL d   1      -1.386   0.754   4.150  0.00  0.00     0.009 C 
ENDBRANCH   7   8
ENDBRANCH   1   7
TORSDOF 2
ENDMDL
