MODEL 1
REMARK minimizedAffinity -1.90650296
REMARK minimizedRMSD -1
REMARK  2 active torsions:
REMARK  status: ('A' for Active; 'I' for Inactive)
REMARK    1  A    between atoms: C1_2  and  C2_3 
REMARK    2  A    between atoms: C2_3  and  C3_4 
ROOT
ATOM      1  C3  UNL d   1      -0.082  -0.047   0.474  0.00  0.00    -0.075 A 
ATOM      2  C4  UNL d   1       0.353  -1.339   0.803  0.00  0.00     0.002 A 
ATOM      3  C5  UNL d   1       1.096  -2.090  -0.108  0.00  0.00     0.002 A 
ATOM      4  C6  UNL d   1       1.405  -1.564  -1.361  0.00  0.00    -0.004 A 
ATOM      5  C7  UNL d   1       0.964  -0.288  -1.705  0.00  0.00     0.002 A 
ATOM      6  C8  UNL d   1       0.224   0.467  -0.794  0.00  0.00     0.002 A 
ENDROOT
BRANCH   1   7
ATOM      7  C2  UNL d   1      -0.861   0.782   1.466  0.00  0.00     0.056 C 
BRANCH   7   8
ATOM      8  C1  UNL d   1      -1.021   0.123   2.840  0.00  0.00     0.007 C 
ATOM      9  C   UNL d   1      -1.962   0.884   3.765  0.00  0.00     0.009 C 
ENDBRANCH   7   8
ENDBRANCH   1   7
TORSDOF 2
ENDMDL
