MODEL 1
REMARK minimizedAffinity -4.55237389
REMARK minimizedRMSD -1
REMARK  2 active torsions:
REMARK  status: ('A' for Active; 'I' for Inactive)
REMARK    1  A    between atoms: C1_2  and  C2_3 
REMARK    2  A    between atoms: C2_3  and  C3_4 
ROOT
ATOM      1  C3  UNL d   1      -0.638   0.379   0.325  0.00  0.00    -0.075 A 
ATOM      2  C4  UNL d   1       0.295   1.258  -0.245  0.00  0.00     0.002 A 
ATOM      3  C5  UNL d   1       1.416   0.766  -0.913  0.00  0.00     0.002 A 
ATOM      4  C6  UNL d   1       1.625  -0.608  -1.011  0.00  0.00    -0.004 A 
ATOM      5  C7  UNL d   1       0.714  -1.490  -0.434  0.00  0.00     0.002 A 
ATOM      6  C8  UNL d   1      -0.411  -1.001   0.231  0.00  0.00     0.002 A 
ENDROOT
BRANCH   1   7
ATOM      7  C2  UNL d   1      -1.869   0.905   1.024  0.00  0.00     0.056 C 
BRANCH   7   8
ATOM      8  C1  UNL d   1      -1.603   1.447   2.432  0.00  0.00     0.007 C 
ATOM      9  C   UNL d   1      -1.683   0.377   3.513  0.00  0.00     0.009 C 
ENDBRANCH   7   8
ENDBRANCH   1   7
TORSDOF 2
ENDMDL
