MODEL 1
REMARK minimizedAffinity 2.5723393
REMARK minimizedRMSD -1
REMARK  3 active torsions:
REMARK  status: ('A' for Active; 'I' for Inactive)
REMARK    1  A    between atoms: C3'_2  and  C2'_3 
REMARK    2  A    between atoms: C2'_3  and  C1'_4 
REMARK    3  A    between atoms: C1'_4  and  C1_5 
ROOT
ATOM      1  C1  N4B d   1      -0.006   0.252   0.566  0.00  0.00    -0.075 A 
ATOM      2  C2  N4B d   1      -0.914   0.282  -0.515  0.00  0.00     0.002 A 
ATOM      3  C3  N4B d   1      -2.262   0.396  -0.276  0.00  0.00     0.002 A 
ATOM      4  C4  N4B d   1      -2.724   0.462   1.029  0.00  0.00    -0.004 A 
ATOM      5  C5  N4B d   1      -1.838   0.458   2.067  0.00  0.00     0.002 A 
ATOM      6  C6  N4B d   1      -0.481   0.348   1.842  0.00  0.00     0.002 A 
ENDROOT
BRANCH   1   7
ATOM      7  C1' N4B d   1       1.469   0.043   0.359  0.00  0.00     0.057 C 
BRANCH   7   8
ATOM      8  C2' N4B d   1       1.995   1.104  -0.603  0.00  0.00     0.009 C 
BRANCH   8   9
ATOM      9  C3' N4B d   1       3.114   1.926   0.014  0.00  0.00     0.004 C 
ATOM     10  C4' N4B d   1       2.637   2.814   1.124  0.00  0.00     0.003 C 
ENDBRANCH   8   9
ENDBRANCH   7   8
ENDBRANCH   1   7
TORSDOF 3
ENDMDL
