MODEL 1
REMARK minimizedAffinity 6.00846624
REMARK minimizedRMSD -1
REMARK  3 active torsions:
REMARK  status: ('A' for Active; 'I' for Inactive)
REMARK    1  A    between atoms: C3'_2  and  C2'_3 
REMARK    2  A    between atoms: C2'_3  and  C1'_4 
REMARK    3  A    between atoms: C1'_4  and  C1_5 
ROOT
ATOM      1  C1  N4B d   1      -2.198   0.183   2.492  0.00  0.00    -0.075 A 
ATOM      2  C2  N4B d   1      -3.382  -0.575   2.627  0.00  0.00     0.002 A 
ATOM      3  C3  N4B d   1      -3.422  -1.634   3.501  0.00  0.00     0.002 A 
ATOM      4  C4  N4B d   1      -2.291  -1.963   4.233  0.00  0.00    -0.004 A 
ATOM      5  C5  N4B d   1      -1.160  -1.210   4.116  0.00  0.00     0.002 A 
ATOM      6  C6  N4B d   1      -1.106  -0.141   3.244  0.00  0.00     0.002 A 
ENDROOT
BRANCH   1   7
ATOM      7  C1' N4B d   1      -2.079   1.296   1.488  0.00  0.00     0.057 C 
BRANCH   7   8
ATOM      8  C2' N4B d   1      -2.498   0.779   0.115  0.00  0.00     0.009 C 
BRANCH   8   9
ATOM      9  C3' N4B d   1      -1.577  -0.322  -0.383  0.00  0.00     0.004 C 
ATOM     10  C4' N4B d   1      -0.126  -0.003  -0.175  0.00  0.00     0.003 C 
ENDBRANCH   8   9
ENDBRANCH   7   8
ENDBRANCH   1   7
TORSDOF 3
ENDMDL
