MODEL 1
REMARK minimizedAffinity 0.49804759
REMARK minimizedRMSD -1
REMARK  3 active torsions:
REMARK  status: ('A' for Active; 'I' for Inactive)
REMARK    1  A    between atoms: C3'_2  and  C2'_3 
REMARK    2  A    between atoms: C2'_3  and  C1'_4 
REMARK    3  A    between atoms: C1'_4  and  C1_5 
ROOT
ATOM      1  C1  N4B d   1      -0.523  -0.009   2.346  0.00  0.00    -0.075 A 
ATOM      2  C2  N4B d   1       0.357  -0.348   1.295  0.00  0.00     0.002 A 
ATOM      3  C3  N4B d   1      -0.079  -0.300  -0.007  0.00  0.00     0.002 A 
ATOM      4  C4  N4B d   1      -1.389   0.064  -0.279  0.00  0.00    -0.004 A 
ATOM      5  C5  N4B d   1      -2.225   0.414   0.741  0.00  0.00     0.002 A 
ATOM      6  C6  N4B d   1      -1.799   0.375   2.054  0.00  0.00     0.002 A 
ENDROOT
BRANCH   1   7
ATOM      7  C1' N4B d   1      -0.117  -0.129   3.790  0.00  0.00     0.057 C 
BRANCH   7   8
ATOM      8  C2' N4B d   1       0.395  -1.542   4.051  0.00  0.00     0.009 C 
BRANCH   8   9
ATOM      9  C3' N4B d   1       1.595  -1.549   4.983  0.00  0.00     0.004 C 
ATOM     10  C4' N4B d   1       1.548  -0.445   5.997  0.00  0.00     0.003 C 
ENDBRANCH   8   9
ENDBRANCH   7   8
ENDBRANCH   1   7
TORSDOF 3
ENDMDL
