MODEL 1
REMARK minimizedAffinity 3.72331738
REMARK minimizedRMSD -1
REMARK  3 active torsions:
REMARK  status: ('A' for Active; 'I' for Inactive)
REMARK    1  A    between atoms: C3'_2  and  C2'_3 
REMARK    2  A    between atoms: C2'_3  and  C1'_4 
REMARK    3  A    between atoms: C1'_4  and  C1_5 
ROOT
ATOM      1  C1  N4B d   1      -1.436   0.409   2.384  0.00  0.00    -0.075 A 
ATOM      2  C2  N4B d   1      -2.586  -0.016   3.084  0.00  0.00     0.002 A 
ATOM      3  C3  N4B d   1      -2.461  -0.842   4.174  0.00  0.00     0.002 A 
ATOM      4  C4  N4B d   1      -1.202  -1.269   4.569  0.00  0.00    -0.004 A 
ATOM      5  C5  N4B d   1      -0.094  -0.833   3.904  0.00  0.00     0.002 A 
ATOM      6  C6  N4B d   1      -0.205   0.001   2.809  0.00  0.00     0.002 A 
ENDROOT
BRANCH   1   7
ATOM      7  C1' N4B d   1      -1.529   1.243   1.135  0.00  0.00     0.057 C 
BRANCH   7   8
ATOM      8  C2' N4B d   1      -1.649   0.321  -0.074  0.00  0.00     0.009 C 
BRANCH   8   9
ATOM      9  C3' N4B d   1      -3.036   0.370  -0.691  0.00  0.00     0.004 C 
ATOM     10  C4' N4B d   1      -3.583  -0.992  -0.999  0.00  0.00     0.003 C 
ENDBRANCH   8   9
ENDBRANCH   7   8
ENDBRANCH   1   7
TORSDOF 3
ENDMDL
