MODEL 1
REMARK minimizedAffinity -4.07353687
REMARK minimizedRMSD -1
REMARK  3 active torsions:
REMARK  status: ('A' for Active; 'I' for Inactive)
REMARK    1  A    between atoms: C3'_2  and  C2'_3 
REMARK    2  A    between atoms: C2'_3  and  C1'_4 
REMARK    3  A    between atoms: C1'_4  and  C1_5 
ROOT
ATOM      1  C1  N4B d   1       0.508  -0.222  -0.993  0.00  0.00    -0.075 A 
ATOM      2  C2  N4B d   1       0.140  -1.386  -1.703  0.00  0.00     0.002 A 
ATOM      3  C3  N4B d   1       0.403  -1.481  -3.048  0.00  0.00     0.002 A 
ATOM      4  C4  N4B d   1       1.013  -0.423  -3.704  0.00  0.00    -0.004 A 
ATOM      5  C5  N4B d   1       1.388   0.687  -3.006  0.00  0.00     0.002 A 
ATOM      6  C6  N4B d   1       1.134   0.796  -1.653  0.00  0.00     0.002 A 
ENDROOT
BRANCH   1   7
ATOM      7  C1' N4B d   1       0.164  -0.036   0.460  0.00  0.00     0.057 C 
BRANCH   7   8
ATOM      8  C2' N4B d   1      -1.286   0.423   0.576  0.00  0.00     0.009 C 
BRANCH   8   9
ATOM      9  C3' N4B d   1      -1.800   0.327   2.003  0.00  0.00     0.004 C 
ATOM     10  C4' N4B d   1      -1.216   1.375   2.902  0.00  0.00     0.003 C 
ENDBRANCH   8   9
ENDBRANCH   7   8
ENDBRANCH   1   7
TORSDOF 3
ENDMDL
