MODEL 1
REMARK minimizedAffinity -1.74994981
REMARK minimizedRMSD -1
REMARK  3 active torsions:
REMARK  status: ('A' for Active; 'I' for Inactive)
REMARK    1  A    between atoms: C3'_2  and  C2'_3 
REMARK    2  A    between atoms: C2'_3  and  C1'_4 
REMARK    3  A    between atoms: C1'_4  and  C1_5 
ROOT
ATOM      1  C1  N4B d   1       0.416   0.159  -0.619  0.00  0.00    -0.075 A 
ATOM      2  C2  N4B d   1       0.073   1.348   0.063  0.00  0.00     0.002 A 
ATOM      3  C3  N4B d   1      -0.895   1.325   1.037  0.00  0.00     0.002 A 
ATOM      4  C4  N4B d   1      -1.544   0.136   1.332  0.00  0.00    -0.004 A 
ATOM      5  C5  N4B d   1      -1.189  -1.012   0.686  0.00  0.00     0.002 A 
ATOM      6  C6  N4B d   1      -0.215  -1.006  -0.292  0.00  0.00     0.002 A 
ENDROOT
BRANCH   1   7
ATOM      7  C1' N4B d   1       1.407   0.151  -1.751  0.00  0.00     0.057 C 
BRANCH   7   8
ATOM      8  C2' N4B d   1       0.737  -0.417  -2.999  0.00  0.00     0.009 C 
BRANCH   8   9
ATOM      9  C3' N4B d   1       0.908   0.496  -4.200  0.00  0.00     0.004 C 
ATOM     10  C4' N4B d   1       2.252   1.161  -4.239  0.00  0.00     0.003 C 
ENDBRANCH   8   9
ENDBRANCH   7   8
ENDBRANCH   1   7
TORSDOF 3
ENDMDL
