MODEL 1
REMARK minimizedAffinity -1.14051497
REMARK minimizedRMSD -1
REMARK  3 active torsions:
REMARK  status: ('A' for Active; 'I' for Inactive)
REMARK    1  A    between atoms: C3'_2  and  C2'_3 
REMARK    2  A    between atoms: C2'_3  and  C1'_4 
REMARK    3  A    between atoms: C1'_4  and  C1_5 
ROOT
ATOM      1  C1  N4B d   1      -0.016   0.109   0.640  0.00  0.00    -0.075 A 
ATOM      2  C2  N4B d   1      -1.339   0.586   0.512  0.00  0.00     0.002 A 
ATOM      3  C3  N4B d   1      -2.036   0.983   1.627  0.00  0.00     0.002 A 
ATOM      4  C4  N4B d   1      -1.441   0.894   2.876  0.00  0.00    -0.004 A 
ATOM      5  C5  N4B d   1      -0.154   0.455   2.988  0.00  0.00     0.002 A 
ATOM      6  C6  N4B d   1       0.560   0.057   1.876  0.00  0.00     0.002 A 
ENDROOT
BRANCH   1   7
ATOM      7  C1' N4B d   1       0.756  -0.417  -0.540  0.00  0.00     0.057 C 
BRANCH   7   8
ATOM      8  C2' N4B d   1      -0.010  -0.101  -1.821  0.00  0.00     0.009 C 
BRANCH   8   9
ATOM      9  C3' N4B d   1       0.679  -0.668  -3.050  0.00  0.00     0.004 C 
ATOM     10  C4' N4B d   1       0.845   0.346  -4.142  0.00  0.00     0.003 C 
ENDBRANCH   8   9
ENDBRANCH   7   8
ENDBRANCH   1   7
TORSDOF 3
ENDMDL
