MODEL 1
REMARK minimizedAffinity -3.21681547
REMARK minimizedRMSD -1
REMARK  3 active torsions:
REMARK  status: ('A' for Active; 'I' for Inactive)
REMARK    1  A    between atoms: C3'_2  and  C2'_3 
REMARK    2  A    between atoms: C2'_3  and  C1'_4 
REMARK    3  A    between atoms: C1'_4  and  C1_5 
ROOT
ATOM      1  C1  N4B d   1       0.385   0.737   1.547  0.00  0.00    -0.075 A 
ATOM      2  C2  N4B d   1      -0.488   1.451   2.397  0.00  0.00     0.002 A 
ATOM      3  C3  N4B d   1      -0.382   1.315   3.760  0.00  0.00     0.002 A 
ATOM      4  C4  N4B d   1       0.571   0.461   4.292  0.00  0.00    -0.004 A 
ATOM      5  C5  N4B d   1       1.427  -0.206   3.465  0.00  0.00     0.002 A 
ATOM      6  C6  N4B d   1       1.335  -0.076   2.094  0.00  0.00     0.002 A 
ENDROOT
BRANCH   1   7
ATOM      7  C1' N4B d   1       0.252   0.787   0.049  0.00  0.00     0.057 C 
BRANCH   7   8
ATOM      8  C2' N4B d   1      -0.226  -0.570  -0.457  0.00  0.00     0.009 C 
BRANCH   8   9
ATOM      9  C3' N4B d   1      -1.618  -0.907   0.050  0.00  0.00     0.004 C 
ATOM     10  C4' N4B d   1      -2.625   0.159  -0.266  0.00  0.00     0.003 C 
ENDBRANCH   8   9
ENDBRANCH   7   8
ENDBRANCH   1   7
TORSDOF 3
ENDMDL
