MODEL 1
REMARK minimizedAffinity -0.38345921
REMARK minimizedRMSD -1
REMARK  2 active torsions:
REMARK  status: ('A' for Active; 'I' for Inactive)
REMARK    1  A    between atoms: C2'_3  and  C1'_4 
REMARK    2  A    between atoms: C1'_4  and  C1_5 
ROOT
ATOM      1  C1  I4B d   1       0.521  -0.688  -2.056  0.00  0.00    -0.075 A 
ATOM      2  C2  I4B d   1      -0.755  -0.362  -1.670  0.00  0.00     0.003 A 
ATOM      3  C3  I4B d   1      -1.053  -0.142  -0.304  0.00  0.00     0.002 A 
ATOM      4  C4  I4B d   1      -0.062  -0.307   0.643  0.00  0.00    -0.004 A 
ATOM      5  C5  I4B d   1       1.236  -0.616   0.248  0.00  0.00     0.002 A 
ATOM      6  C6  I4B d   1       1.533  -0.795  -1.111  0.00  0.00     0.003 A 
ENDROOT
BRANCH   1   7
ATOM      7  C1' I4B d   1       0.793  -0.945  -3.504  0.00  0.00     0.060 C 
BRANCH   7   8
ATOM      8  C2' I4B d   1       1.376   0.319  -4.101  0.00  0.00    -0.013 C 
ATOM      9  C4' I4B d   1       0.303   1.340  -4.373  0.00  0.00     0.013 C 
ATOM     10  C3' I4B d   1       2.401   0.853  -3.145  0.00  0.00     0.013 C 
ENDBRANCH   7   8
ENDBRANCH   1   7
TORSDOF 2
ENDMDL
