MODEL 1
REMARK minimizedAffinity -5.15469408
REMARK minimizedRMSD -1
REMARK  2 active torsions:
REMARK  status: ('A' for Active; 'I' for Inactive)
REMARK    1  A    between atoms: C2'_3  and  C1'_4 
REMARK    2  A    between atoms: C1'_4  and  C1_5 
ROOT
ATOM      1  C1  I4B d   1       0.192  -0.030  -0.158  0.00  0.00    -0.075 A 
ATOM      2  C2  I4B d   1      -1.178  -0.010  -0.076  0.00  0.00     0.003 A 
ATOM      3  C3  I4B d   1      -1.818   0.618   1.020  0.00  0.00     0.002 A 
ATOM      4  C4  I4B d   1      -1.054   1.167   2.030  0.00  0.00    -0.004 A 
ATOM      5  C5  I4B d   1       0.335   1.166   1.933  0.00  0.00     0.002 A 
ATOM      6  C6  I4B d   1       0.962   0.575   0.827  0.00  0.00     0.003 A 
ENDROOT
BRANCH   1   7
ATOM      7  C1' I4B d   1       0.835  -0.732  -1.312  0.00  0.00     0.060 C 
BRANCH   7   8
ATOM      8  C2' I4B d   1       0.727   0.170  -2.525  0.00  0.00    -0.013 C 
ATOM      9  C4' I4B d   1       2.049   0.818  -2.842  0.00  0.00     0.013 C 
ATOM     10  C3' I4B d   1       0.240  -0.659  -3.676  0.00  0.00     0.013 C 
ENDBRANCH   7   8
ENDBRANCH   1   7
TORSDOF 2
ENDMDL
