MODEL 1
REMARK minimizedAffinity -1.55121911
REMARK minimizedRMSD -1
REMARK  2 active torsions:
REMARK  status: ('A' for Active; 'I' for Inactive)
REMARK    1  A    between atoms: C2'_3  and  C1'_4 
REMARK    2  A    between atoms: C1'_4  and  C1_5 
ROOT
ATOM      1  C1  I4B d   1       0.027  -0.030  -0.280  0.00  0.00    -0.075 A 
ATOM      2  C2  I4B d   1       0.938   0.437   0.634  0.00  0.00     0.003 A 
ATOM      3  C3  I4B d   1       0.496   1.064   1.825  0.00  0.00     0.002 A 
ATOM      4  C4  I4B d   1      -0.855   1.247   2.035  0.00  0.00    -0.004 A 
ATOM      5  C5  I4B d   1      -1.778   0.753   1.117  0.00  0.00     0.002 A 
ATOM      6  C6  I4B d   1      -1.335   0.099  -0.042  0.00  0.00     0.003 A 
ENDROOT
BRANCH   1   7
ATOM      7  C1' I4B d   1       0.529  -0.658  -1.542  0.00  0.00     0.060 C 
BRANCH   7   8
ATOM      8  C2' I4B d   1       0.656   0.432  -2.587  0.00  0.00    -0.013 C 
ATOM      9  C4' I4B d   1       2.096   0.815  -2.804  0.00  0.00     0.013 C 
ATOM     10  C3' I4B d   1       0.032  -0.069  -3.855  0.00  0.00     0.013 C 
ENDBRANCH   7   8
ENDBRANCH   1   7
TORSDOF 2
ENDMDL
