MODEL 1
REMARK minimizedAffinity -3.84753394
REMARK minimizedRMSD -1
REMARK  2 active torsions:
REMARK  status: ('A' for Active; 'I' for Inactive)
REMARK    1  A    between atoms: C2'_3  and  C1'_4 
REMARK    2  A    between atoms: C1'_4  and  C1_5 
ROOT
ATOM      1  C1  I4B d   1       0.671  -0.387  -0.633  0.00  0.00    -0.075 A 
ATOM      2  C2  I4B d   1       1.688  -0.256   0.280  0.00  0.00     0.003 A 
ATOM      3  C3  I4B d   1       1.480   0.468   1.479  0.00  0.00     0.002 A 
ATOM      4  C4  I4B d   1       0.265   1.083   1.700  0.00  0.00    -0.004 A 
ATOM      5  C5  I4B d   1      -0.772   0.930   0.784  0.00  0.00     0.002 A 
ATOM      6  C6  I4B d   1      -0.572   0.180  -0.384  0.00  0.00     0.003 A 
ENDROOT
BRANCH   1   7
ATOM      7  C1' I4B d   1       0.935  -1.130  -1.904  0.00  0.00     0.060 C 
BRANCH   7   8
ATOM      8  C2' I4B d   1       0.851  -0.141  -3.049  0.00  0.00    -0.013 C 
ATOM      9  C4' I4B d   1       2.220   0.337  -3.457  0.00  0.00     0.013 C 
ATOM     10  C3' I4B d   1       0.149  -0.813  -4.191  0.00  0.00     0.013 C 
ENDBRANCH   7   8
ENDBRANCH   1   7
TORSDOF 2
ENDMDL
