MODEL 1
REMARK minimizedAffinity -2.84559989
REMARK minimizedRMSD -1
REMARK  2 active torsions:
REMARK  status: ('A' for Active; 'I' for Inactive)
REMARK    1  A    between atoms: C2'_3  and  C1'_4 
REMARK    2  A    between atoms: C1'_4  and  C1_5 
ROOT
ATOM      1  C1  I4B d   1       0.382  -0.290  -0.727  0.00  0.00    -0.075 A 
ATOM      2  C2  I4B d   1       1.231   0.120   0.270  0.00  0.00     0.003 A 
ATOM      3  C3  I4B d   1       0.720   0.773   1.418  0.00  0.00     0.002 A 
ATOM      4  C4  I4B d   1      -0.631   1.040   1.503  0.00  0.00    -0.004 A 
ATOM      5  C5  I4B d   1      -1.493   0.604   0.501  0.00  0.00     0.002 A 
ATOM      6  C6  I4B d   1      -0.986  -0.077  -0.615  0.00  0.00     0.003 A 
ENDROOT
BRANCH   1   7
ATOM      7  C1' I4B d   1       0.959  -0.948  -1.940  0.00  0.00     0.060 C 
BRANCH   7   8
ATOM      8  C2' I4B d   1       1.113   0.108  -3.016  0.00  0.00    -0.013 C 
ATOM      9  C4' I4B d   1       2.561   0.457  -3.235  0.00  0.00     0.013 C 
ATOM     10  C3' I4B d   1       0.486  -0.417  -4.273  0.00  0.00     0.013 C 
ENDBRANCH   7   8
ENDBRANCH   1   7
TORSDOF 2
ENDMDL
