MODEL 1
REMARK minimizedAffinity -4.51712227
REMARK minimizedRMSD -1
REMARK  2 active torsions:
REMARK  status: ('A' for Active; 'I' for Inactive)
REMARK    1  A    between atoms: C2'_3  and  C1'_4 
REMARK    2  A    between atoms: C1'_4  and  C1_5 
ROOT
ATOM      1  C1  I4B d   1       0.143  -0.242  -0.146  0.00  0.00    -0.075 A 
ATOM      2  C2  I4B d   1      -1.196  -0.298  -0.442  0.00  0.00     0.003 A 
ATOM      3  C3  I4B d   1      -2.151   0.194   0.480  0.00  0.00     0.002 A 
ATOM      4  C4  I4B d   1      -1.729   0.684   1.699  0.00  0.00    -0.004 A 
ATOM      5  C5  I4B d   1      -0.370   0.761   1.989  0.00  0.00     0.002 A 
ATOM      6  C6  I4B d   1       0.573   0.307   1.056  0.00  0.00     0.003 A 
ENDROOT
BRANCH   1   7
ATOM      7  C1' I4B d   1       1.123  -0.800  -1.129  0.00  0.00     0.060 C 
BRANCH   7   8
ATOM      8  C2' I4B d   1       0.949  -0.055  -2.436  0.00  0.00    -0.013 C 
ATOM      9  C4' I4B d   1       2.168   0.767  -2.761  0.00  0.00     0.013 C 
ATOM     10  C3' I4B d   1       0.673  -1.064  -3.511  0.00  0.00     0.013 C 
ENDBRANCH   7   8
ENDBRANCH   1   7
TORSDOF 2
ENDMDL
