MODEL 1
REMARK minimizedAffinity -2.00063324
REMARK minimizedRMSD -1
REMARK  2 active torsions:
REMARK  status: ('A' for Active; 'I' for Inactive)
REMARK    1  A    between atoms: C2'_3  and  C1'_4 
REMARK    2  A    between atoms: C1'_4  and  C1_5 
ROOT
ATOM      1  C1  I4B d   1       0.675  -0.714  -2.752  0.00  0.00    -0.075 A 
ATOM      2  C2  I4B d   1      -0.410  -0.751  -3.592  0.00  0.00     0.003 A 
ATOM      3  C3  I4B d   1      -0.318  -0.216  -4.900  0.00  0.00     0.002 A 
ATOM      4  C4  I4B d   1       0.854   0.389  -5.306  0.00  0.00    -0.004 A 
ATOM      5  C5  I4B d   1       1.960   0.406  -4.461  0.00  0.00     0.002 A 
ATOM      6  C6  I4B d   1       1.875  -0.160  -3.181  0.00  0.00     0.003 A 
ENDROOT
BRANCH   1   7
ATOM      7  C1' I4B d   1       0.533  -1.259  -1.367  0.00  0.00     0.060 C 
BRANCH   7   8
ATOM      8  C2' I4B d   1      -0.195  -0.225  -0.531  0.00  0.00    -0.013 C 
ATOM      9  C4' I4B d   1      -1.572  -0.703  -0.151  0.00  0.00     0.013 C 
ATOM     10  C3' I4B d   1       0.636   0.054   0.686  0.00  0.00     0.013 C 
ENDBRANCH   7   8
ENDBRANCH   1   7
TORSDOF 2
ENDMDL
