MODEL 1
REMARK minimizedAffinity 19.7021523
REMARK minimizedRMSD -1
REMARK  0 active torsions:
REMARK  status: ('A' for Active; 'I' for Inactive)
ROOT
ATOM      1  C   UNL d   1       5.998   2.076  -2.978  0.00  0.00    -0.002 A 
ATOM      2  C1  UNL d   1       5.428   1.144  -3.833  0.00  0.00     0.010 A 
ATOM      3  C2  UNL d   1       4.295   0.425  -3.446  0.00  0.00     0.041 A 
ATOM      4  C3  UNL d   1       3.738   0.663  -2.174  0.00  0.00    -0.075 A 
ATOM      5  S   UNL d   1       2.352  -0.097  -1.487  0.00  0.00     0.015 SA
ATOM      6  C4  UNL d   1       2.484   0.798  -0.043  0.00  0.00     0.022 A 
ATOM      7  C5  UNL d   1       3.554   1.661  -0.067  0.00  0.00     0.026 A 
ATOM      8  C6  UNL d   1       4.294   1.598  -1.296  0.00  0.00    -0.082 A 
ATOM      9  C7  UNL d   1       5.444   2.309  -1.717  0.00  0.00     0.045 A 
ENDROOT
TORSDOF 0
ENDMDL
