MODEL 1
REMARK minimizedAffinity 14.8346272
REMARK minimizedRMSD -1
REMARK  0 active torsions:
REMARK  status: ('A' for Active; 'I' for Inactive)
ROOT
ATOM      1  C   UNL d   1       2.482   0.130  -0.247  0.00  0.00    -0.002 A 
ATOM      2  C1  UNL d   1       3.024   0.712   0.891  0.00  0.00     0.010 A 
ATOM      3  C2  UNL d   1       4.117   1.575   0.796  0.00  0.00     0.041 A 
ATOM      4  C3  UNL d   1       4.661   1.849  -0.475  0.00  0.00    -0.075 A 
ATOM      5  S   UNL d   1       5.999   2.875  -0.834  0.00  0.00     0.015 SA
ATOM      6  C4  UNL d   1       5.882   2.567  -2.506  0.00  0.00     0.022 A 
ATOM      7  C5  UNL d   1       4.854   1.704  -2.801  0.00  0.00     0.026 A 
ATOM      8  C6  UNL d   1       4.133   1.276  -1.635  0.00  0.00    -0.082 A 
ATOM      9  C7  UNL d   1       3.025   0.404  -1.505  0.00  0.00     0.045 A 
ENDROOT
TORSDOF 0
ENDMDL
