MODEL 1
REMARK minimizedAffinity -5.40490246
REMARK minimizedRMSD -1
REMARK  0 active torsions:
REMARK  status: ('A' for Active; 'I' for Inactive)
ROOT
ATOM      1  C   UNL d   1       0.506   3.606  -0.031  0.00  0.00     0.124 A 
ATOM      2  C1  UNL d   1       1.639   2.810   0.068  0.00  0.00     0.062 A 
ATOM      3  C2  UNL d   1       1.517   1.445   0.309  0.00  0.00     0.162 A 
ATOM      4  C3  UNL d   1       0.256   0.865   0.450  0.00  0.00    -0.034 A 
ATOM      5  C4  UNL d   1      -0.879   1.672   0.350  0.00  0.00     0.162 A 
ATOM      6  C5  UNL d   1      -0.751   3.036   0.110  0.00  0.00     0.062 A 
ATOM      7  F   UNL d   1      -1.847   3.803   0.014  0.00  0.00    -0.097 F 
ATOM      8  F1  UNL d   1      -2.106   1.148   0.481  0.00  0.00    -0.096 F 
ATOM      9  I   UNL d   1       0.069  -1.176   0.810  0.00  0.00    -0.060 I 
ATOM     10  F2  UNL d   1       2.629   0.700   0.400  0.00  0.00    -0.096 F 
ATOM     11  F3  UNL d   1       2.855   3.358  -0.067  0.00  0.00    -0.097 F 
ATOM     12  F4  UNL d   1       0.627   4.920  -0.262  0.00  0.00    -0.092 F 
ENDROOT
TORSDOF 0
ENDMDL
