MODEL 1
REMARK minimizedAffinity -5.94301462
REMARK minimizedRMSD -1
REMARK  0 active torsions:
REMARK  status: ('A' for Active; 'I' for Inactive)
ROOT
ATOM      1  C   UNL d   1       0.777   4.712   1.561  0.00  0.00     0.124 A 
ATOM      2  C1  UNL d   1       2.096   4.382   1.279  0.00  0.00     0.062 A 
ATOM      3  C2  UNL d   1       2.483   3.048   1.204  0.00  0.00     0.162 A 
ATOM      4  C3  UNL d   1       1.551   2.031   1.411  0.00  0.00    -0.034 A 
ATOM      5  C4  UNL d   1       0.227   2.370   1.695  0.00  0.00     0.162 A 
ATOM      6  C5  UNL d   1      -0.156   3.705   1.769  0.00  0.00     0.062 A 
ATOM      7  F   UNL d   1      -1.430   4.021   2.042  0.00  0.00    -0.097 F 
ATOM      8  F1  UNL d   1      -0.696   1.418   1.900  0.00  0.00    -0.096 F 
ATOM      9  I   UNL d   1       2.127   0.034   1.301  0.00  0.00    -0.060 I 
ATOM     10  F2  UNL d   1       3.764   2.759   0.930  0.00  0.00    -0.096 F 
ATOM     11  F3  UNL d   1       2.999   5.353   1.078  0.00  0.00    -0.097 F 
ATOM     12  F4  UNL d   1       0.407   5.997   1.633  0.00  0.00    -0.092 F 
ENDROOT
TORSDOF 0
ENDMDL
