MODEL 1
REMARK minimizedAffinity -0.795154274
REMARK minimizedRMSD -1
REMARK  0 active torsions:
REMARK  status: ('A' for Active; 'I' for Inactive)
ROOT
ATOM      1  C   UNL d   1       0.595   1.877  -0.660  0.00  0.00     0.124 A 
ATOM      2  C1  UNL d   1       0.744   1.373   0.624  0.00  0.00     0.062 A 
ATOM      3  C2  UNL d   1       0.414   0.049   0.899  0.00  0.00     0.162 A 
ATOM      4  C3  UNL d   1      -0.068  -0.781  -0.113  0.00  0.00    -0.034 A 
ATOM      5  C4  UNL d   1      -0.217  -0.266  -1.402  0.00  0.00     0.162 A 
ATOM      6  C5  UNL d   1       0.115   1.058  -1.672  0.00  0.00     0.062 A 
ATOM      7  F   UNL d   1      -0.030   1.543  -2.914  0.00  0.00    -0.097 F 
ATOM      8  F1  UNL d   1      -0.678  -1.037  -2.399  0.00  0.00    -0.096 F 
ATOM      9  I   UNL d   1      -0.563  -2.761   0.294  0.00  0.00    -0.060 I 
ATOM     10  F2  UNL d   1       0.568  -0.411   2.150  0.00  0.00    -0.096 F 
ATOM     11  F3  UNL d   1       1.207   2.163   1.603  0.00  0.00    -0.097 F 
ATOM     12  F4  UNL d   1       0.912   3.152  -0.922  0.00  0.00    -0.092 F 
ENDROOT
TORSDOF 0
ENDMDL
