MODEL 1
REMARK minimizedAffinity 1.95914221
REMARK minimizedRMSD -1
REMARK  0 active torsions:
REMARK  status: ('A' for Active; 'I' for Inactive)
ROOT
ATOM      1  C   UNL d   1       3.939   3.250   1.240  0.00  0.00     0.124 A 
ATOM      2  C1  UNL d   1       4.125   1.874   1.245  0.00  0.00     0.062 A 
ATOM      3  C2  UNL d   1       3.083   1.026   0.881  0.00  0.00     0.162 A 
ATOM      4  C3  UNL d   1       1.845   1.551   0.509  0.00  0.00    -0.034 A 
ATOM      5  C4  UNL d   1       1.666   2.936   0.508  0.00  0.00     0.162 A 
ATOM      6  C5  UNL d   1       2.710   3.779   0.873  0.00  0.00     0.062 A 
ATOM      7  F   UNL d   1       2.529   5.108   0.868  0.00  0.00    -0.097 F 
ATOM      8  F1  UNL d   1       0.489   3.474   0.156  0.00  0.00    -0.096 F 
ATOM      9  I   UNL d   1       0.284   0.286  -0.035  0.00  0.00    -0.060 I 
ATOM     10  F2  UNL d   1       3.290  -0.299   0.894  0.00  0.00    -0.096 F 
ATOM     11  F3  UNL d   1       5.311   1.360   1.600  0.00  0.00    -0.097 F 
ATOM     12  F4  UNL d   1       4.944   4.063   1.591  0.00  0.00    -0.092 F 
ENDROOT
TORSDOF 0
ENDMDL
