MODEL 1
REMARK minimizedAffinity -3.50971389
REMARK minimizedRMSD -1
REMARK  0 active torsions:
REMARK  status: ('A' for Active; 'I' for Inactive)
ROOT
ATOM      1  C   UNL d   1      -0.894   0.988   0.415  0.00  0.00     0.124 A 
ATOM      2  C1  UNL d   1      -0.975   2.363   0.245  0.00  0.00     0.062 A 
ATOM      3  C2  UNL d   1       0.185   3.125   0.139  0.00  0.00     0.162 A 
ATOM      4  C3  UNL d   1       1.437   2.513   0.201  0.00  0.00    -0.034 A 
ATOM      5  C4  UNL d   1       1.510   1.129   0.373  0.00  0.00     0.162 A 
ATOM      6  C5  UNL d   1       0.348   0.372   0.479  0.00  0.00     0.062 A 
ATOM      7  F   UNL d   1       0.428  -0.956   0.643  0.00  0.00    -0.097 F 
ATOM      8  F1  UNL d   1       2.698   0.509   0.437  0.00  0.00    -0.096 F 
ATOM      9  I   UNL d   1       3.174   3.648   0.042  0.00  0.00    -0.060 I 
ATOM     10  F2  UNL d   1       0.077   4.452  -0.025  0.00  0.00    -0.096 F 
ATOM     11  F3  UNL d   1      -2.174   2.960   0.184  0.00  0.00    -0.097 F 
ATOM     12  F4  UNL d   1      -2.012   0.257   0.518  0.00  0.00    -0.092 F 
ENDROOT
TORSDOF 0
ENDMDL
