MODEL 1
REMARK minimizedAffinity -3.73068213
REMARK minimizedRMSD -1
REMARK  0 active torsions:
REMARK  status: ('A' for Active; 'I' for Inactive)
ROOT
ATOM      1  C   UNL d   1      -0.206   0.317  -1.624  0.00  0.00     0.124 A 
ATOM      2  C1  UNL d   1       0.159   1.581  -2.065  0.00  0.00     0.062 A 
ATOM      3  C2  UNL d   1      -0.267   2.713  -1.377  0.00  0.00     0.162 A 
ATOM      4  C3  UNL d   1      -1.063   2.587  -0.239  0.00  0.00    -0.034 A 
ATOM      5  C4  UNL d   1      -1.427   1.312   0.199  0.00  0.00     0.162 A 
ATOM      6  C5  UNL d   1      -0.999   0.183  -0.493  0.00  0.00     0.062 A 
ATOM      7  F   UNL d   1      -1.353  -1.037  -0.064  0.00  0.00    -0.097 F 
ATOM      8  F1  UNL d   1      -2.192   1.154   1.289  0.00  0.00    -0.096 F 
ATOM      9  I   UNL d   1      -1.702   4.277   0.793  0.00  0.00    -0.060 I 
ATOM     10  F2  UNL d   1       0.102   3.922  -1.827  0.00  0.00    -0.096 F 
ATOM     11  F3  UNL d   1       0.925   1.712  -3.159  0.00  0.00    -0.097 F 
ATOM     12  F4  UNL d   1       0.205  -0.771  -2.288  0.00  0.00    -0.092 F 
ENDROOT
TORSDOF 0
ENDMDL
