MODEL 1
REMARK minimizedAffinity -3.29112887
REMARK minimizedRMSD -1
REMARK  0 active torsions:
REMARK  status: ('A' for Active; 'I' for Inactive)
ROOT
ATOM      1  C   UNL d   1       0.752   4.931   1.700  0.00  0.00     0.124 A 
ATOM      2  C1  UNL d   1      -0.561   4.819   1.263  0.00  0.00     0.062 A 
ATOM      3  C2  UNL d   1      -0.959   3.711   0.520  0.00  0.00     0.162 A 
ATOM      4  C3  UNL d   1      -0.042   2.707   0.209  0.00  0.00    -0.034 A 
ATOM      5  C4  UNL d   1       1.276   2.827   0.651  0.00  0.00     0.162 A 
ATOM      6  C5  UNL d   1       1.669   3.936   1.394  0.00  0.00     0.062 A 
ATOM      7  F   UNL d   1       2.937   4.043   1.815  0.00  0.00    -0.097 F 
ATOM      8  F1  UNL d   1       2.183   1.880   0.370  0.00  0.00    -0.096 F 
ATOM      9  I   UNL d   1      -0.633   1.049  -0.903  0.00  0.00    -0.060 I 
ATOM     10  F2  UNL d   1      -2.233   3.629   0.111  0.00  0.00    -0.096 F 
ATOM     11  F3  UNL d   1      -1.449   5.779   1.558  0.00  0.00    -0.097 F 
ATOM     12  F4  UNL d   1       1.132   5.998   2.415  0.00  0.00    -0.092 F 
ENDROOT
TORSDOF 0
ENDMDL
