MODEL 1
REMARK minimizedAffinity -2.55129981
REMARK minimizedRMSD -1
REMARK  0 active torsions:
REMARK  status: ('A' for Active; 'I' for Inactive)
ROOT
ATOM      1  C   UNL d   1      -0.852   0.134   0.729  0.00  0.00     0.124 A 
ATOM      2  C1  UNL d   1       0.455  -0.268   0.966  0.00  0.00     0.062 A 
ATOM      3  C2  UNL d   1       1.496   0.654   0.890  0.00  0.00     0.162 A 
ATOM      4  C3  UNL d   1       1.234   1.987   0.576  0.00  0.00    -0.034 A 
ATOM      5  C4  UNL d   1      -0.083   2.384   0.337  0.00  0.00     0.162 A 
ATOM      6  C5  UNL d   1      -1.120   1.459   0.415  0.00  0.00     0.062 A 
ATOM      7  F   UNL d   1      -2.382   1.850   0.185  0.00  0.00    -0.097 F 
ATOM      8  F1  UNL d   1      -0.371   3.658   0.033  0.00  0.00    -0.096 F 
ATOM      9  I   UNL d   1       2.787   3.368   0.461  0.00  0.00    -0.060 I 
ATOM     10  F2  UNL d   1       2.749   0.237   1.125  0.00  0.00    -0.096 F 
ATOM     11  F3  UNL d   1       0.717  -1.547   1.269  0.00  0.00    -0.097 F 
ATOM     12  F4  UNL d   1      -1.851  -0.754   0.802  0.00  0.00    -0.092 F 
ENDROOT
TORSDOF 0
ENDMDL
