MODEL 1
REMARK minimizedAffinity -3.91492128
REMARK minimizedRMSD -1
REMARK  0 active torsions:
REMARK  status: ('A' for Active; 'I' for Inactive)
ROOT
ATOM      1  C   UNL d   1      -0.247   1.772  -1.252  0.00  0.00     0.124 A 
ATOM      2  C1  UNL d   1      -0.772   1.605   0.022  0.00  0.00     0.062 A 
ATOM      3  C2  UNL d   1      -0.955   0.327   0.542  0.00  0.00     0.162 A 
ATOM      4  C3  UNL d   1      -0.612  -0.795  -0.212  0.00  0.00    -0.034 A 
ATOM      5  C4  UNL d   1      -0.086  -0.620  -1.493  0.00  0.00     0.162 A 
ATOM      6  C5  UNL d   1       0.095   0.660  -2.008  0.00  0.00     0.062 A 
ATOM      7  F   UNL d   1       0.603   0.818  -3.240  0.00  0.00    -0.097 F 
ATOM      8  F1  UNL d   1       0.254  -1.677  -2.245  0.00  0.00    -0.096 F 
ATOM      9  I   UNL d   1      -0.885  -2.708   0.562  0.00  0.00    -0.060 I 
ATOM     10  F2  UNL d   1      -1.464   0.196   1.776  0.00  0.00    -0.096 F 
ATOM     11  F3  UNL d   1      -1.104   2.678   0.754  0.00  0.00    -0.097 F 
ATOM     12  F4  UNL d   1      -0.072   3.003  -1.751  0.00  0.00    -0.092 F 
ENDROOT
TORSDOF 0
ENDMDL
