MODEL 1
REMARK minimizedAffinity -4.01729822
REMARK minimizedRMSD -1
REMARK  0 active torsions:
REMARK  status: ('A' for Active; 'I' for Inactive)
ROOT
ATOM      1  C   UNL d   1      -0.294  -0.395  -1.317  0.00  0.00     0.124 A 
ATOM      2  C1  UNL d   1       0.201   0.801  -1.819  0.00  0.00     0.062 A 
ATOM      3  C2  UNL d   1      -0.010   1.991  -1.128  0.00  0.00     0.162 A 
ATOM      4  C3  UNL d   1      -0.719   1.991   0.073  0.00  0.00    -0.034 A 
ATOM      5  C4  UNL d   1      -1.214   0.785   0.571  0.00  0.00     0.162 A 
ATOM      6  C5  UNL d   1      -1.001  -0.402  -0.123  0.00  0.00     0.062 A 
ATOM      7  F   UNL d   1      -1.480  -1.556   0.364  0.00  0.00    -0.097 F 
ATOM      8  F1  UNL d   1      -1.900   0.749   1.723  0.00  0.00    -0.096 F 
ATOM      9  I   UNL d   1      -1.037   3.768   1.109  0.00  0.00    -0.060 I 
ATOM     10  F2  UNL d   1       0.480   3.131  -1.636  0.00  0.00    -0.096 F 
ATOM     11  F3  UNL d   1       0.884   0.810  -2.972  0.00  0.00    -0.097 F 
ATOM     12  F4  UNL d   1      -0.090  -1.538  -1.984  0.00  0.00    -0.092 F 
ENDROOT
TORSDOF 0
ENDMDL
