MODEL 1
REMARK minimizedAffinity -2.88770103
REMARK minimizedRMSD -1
REMARK  0 active torsions:
REMARK  status: ('A' for Active; 'I' for Inactive)
ROOT
ATOM      1  C   UNL d   1       0.751   4.898   1.654  0.00  0.00     0.124 A 
ATOM      2  C1  UNL d   1      -0.561   4.510   1.418  0.00  0.00     0.062 A 
ATOM      3  C2  UNL d   1      -0.836   3.470   0.536  0.00  0.00     0.162 A 
ATOM      4  C3  UNL d   1       0.204   2.808  -0.118  0.00  0.00    -0.034 A 
ATOM      5  C4  UNL d   1       1.521   3.204   0.124  0.00  0.00     0.162 A 
ATOM      6  C5  UNL d   1       1.790   4.245   1.007  0.00  0.00     0.062 A 
ATOM      7  F   UNL d   1       3.058   4.618   1.233  0.00  0.00    -0.097 F 
ATOM      8  F1  UNL d   1       2.544   2.590  -0.487  0.00  0.00    -0.096 F 
ATOM      9  I   UNL d   1      -0.203   1.252  -1.438  0.00  0.00    -0.060 I 
ATOM     10  F2  UNL d   1      -2.113   3.117   0.327  0.00  0.00    -0.096 F 
ATOM     11  F3  UNL d   1      -1.567   5.141   2.042  0.00  0.00    -0.097 F 
ATOM     12  F4  UNL d   1       1.012   5.900   2.503  0.00  0.00    -0.092 F 
ENDROOT
TORSDOF 0
ENDMDL
