MODEL 1
REMARK minimizedAffinity -1.00559509
REMARK minimizedRMSD -1
REMARK  0 active torsions:
REMARK  status: ('A' for Active; 'I' for Inactive)
ROOT
ATOM      1  C   UNL d   1       0.844   4.853   1.525  0.00  0.00     0.124 A 
ATOM      2  C1  UNL d   1       1.797   3.912   1.159  0.00  0.00     0.062 A 
ATOM      3  C2  UNL d   1       1.407   2.718   0.558  0.00  0.00     0.162 A 
ATOM      4  C3  UNL d   1       0.057   2.459   0.319  0.00  0.00    -0.034 A 
ATOM      5  C4  UNL d   1      -0.895   3.410   0.690  0.00  0.00     0.162 A 
ATOM      6  C5  UNL d   1      -0.500   4.601   1.291  0.00  0.00     0.062 A 
ATOM      7  F   UNL d   1      -1.422   5.509   1.644  0.00  0.00    -0.097 F 
ATOM      8  F1  UNL d   1      -2.201   3.193   0.475  0.00  0.00    -0.096 F 
ATOM      9  I   UNL d   1      -0.530   0.676  -0.580  0.00  0.00    -0.060 I 
ATOM     10  F2  UNL d   1       2.349   1.827   0.215  0.00  0.00    -0.096 F 
ATOM     11  F3  UNL d   1       3.096   4.152   1.386  0.00  0.00    -0.097 F 
ATOM     12  F4  UNL d   1       1.222   6.000   2.104  0.00  0.00    -0.092 F 
ENDROOT
TORSDOF 0
ENDMDL
