MODEL 1
REMARK minimizedAffinity -0.141567007
REMARK minimizedRMSD -1
REMARK  0 active torsions:
REMARK  status: ('A' for Active; 'I' for Inactive)
ROOT
ATOM      1  C   UNL d   1      -0.232  -0.249  -1.348  0.00  0.00     0.124 A 
ATOM      2  C1  UNL d   1       0.332   0.940  -1.790  0.00  0.00     0.062 A 
ATOM      3  C2  UNL d   1       0.007   2.142  -1.170  0.00  0.00     0.162 A 
ATOM      4  C3  UNL d   1      -0.886   2.163  -0.099  0.00  0.00    -0.034 A 
ATOM      5  C4  UNL d   1      -1.450   0.964   0.340  0.00  0.00     0.162 A 
ATOM      6  C5  UNL d   1      -1.122  -0.236  -0.283  0.00  0.00     0.062 A 
ATOM      7  F   UNL d   1      -1.668  -1.383   0.146  0.00  0.00    -0.097 F 
ATOM      8  F1  UNL d   1      -2.312   0.947   1.368  0.00  0.00    -0.096 F 
ATOM      9  I   UNL d   1      -1.374   3.959   0.832  0.00  0.00    -0.060 I 
ATOM     10  F2  UNL d   1       0.567   3.276  -1.618  0.00  0.00    -0.096 F 
ATOM     11  F3  UNL d   1       1.192   0.930  -2.819  0.00  0.00    -0.097 F 
ATOM     12  F4  UNL d   1       0.082  -1.404  -1.947  0.00  0.00    -0.092 F 
ENDROOT
TORSDOF 0
ENDMDL
