MODEL 1
REMARK minimizedAffinity 1.44100916
REMARK minimizedRMSD -1
REMARK  0 active torsions:
REMARK  status: ('A' for Active; 'I' for Inactive)
ROOT
ATOM      1  C   UNL d   1      -1.010  -0.923   0.292  0.00  0.00     0.124 A 
ATOM      2  C1  UNL d   1      -1.559   0.282   0.708  0.00  0.00     0.062 A 
ATOM      3  C2  UNL d   1      -1.101   1.483   0.173  0.00  0.00     0.162 A 
ATOM      4  C3  UNL d   1      -0.087   1.485  -0.785  0.00  0.00    -0.034 A 
ATOM      5  C4  UNL d   1       0.461   0.269  -1.198  0.00  0.00     0.162 A 
ATOM      6  C5  UNL d   1      -0.000  -0.928  -0.660  0.00  0.00     0.062 A 
ATOM      7  F   UNL d   1       0.532  -2.091  -1.063  0.00  0.00    -0.097 F 
ATOM      8  F1  UNL d   1       1.437   0.235  -2.117  0.00  0.00    -0.096 F 
ATOM      9  I   UNL d   1       0.601   3.277  -1.587  0.00  0.00    -0.060 I 
ATOM     10  F2  UNL d   1      -1.651   2.632   0.594  0.00  0.00    -0.096 F 
ATOM     11  F3  UNL d   1      -2.534   0.290   1.629  0.00  0.00    -0.097 F 
ATOM     12  F4  UNL d   1      -1.452  -2.076   0.809  0.00  0.00    -0.092 F 
ENDROOT
TORSDOF 0
ENDMDL
