MODEL 1
REMARK minimizedAffinity -5.30364513
REMARK minimizedRMSD -1
REMARK  0 active torsions:
REMARK  status: ('A' for Active; 'I' for Inactive)
ROOT
ATOM      1  C   UNL d   1      -0.178   1.723  -1.110  0.00  0.00     0.124 A 
ATOM      2  C1  UNL d   1       0.189   0.625  -1.876  0.00  0.00     0.062 A 
ATOM      3  C2  UNL d   1      -0.139  -0.661  -1.458  0.00  0.00     0.162 A 
ATOM      4  C3  UNL d   1      -0.841  -0.857  -0.268  0.00  0.00    -0.034 A 
ATOM      5  C4  UNL d   1      -1.206   0.253   0.497  0.00  0.00     0.162 A 
ATOM      6  C5  UNL d   1      -0.875   1.536   0.075  0.00  0.00     0.062 A 
ATOM      7  F   UNL d   1      -1.231   2.596   0.815  0.00  0.00    -0.097 F 
ATOM      8  F1  UNL d   1      -1.882   0.101   1.646  0.00  0.00    -0.096 F 
ATOM      9  I   UNL d   1      -1.335  -2.778   0.360  0.00  0.00    -0.060 I 
ATOM     10  F2  UNL d   1       0.228  -1.704  -2.217  0.00  0.00    -0.096 F 
ATOM     11  F3  UNL d   1       0.864   0.803  -3.021  0.00  0.00    -0.097 F 
ATOM     12  F4  UNL d   1       0.141   2.959  -1.515  0.00  0.00    -0.092 F 
ENDROOT
TORSDOF 0
ENDMDL
