MODEL 1
REMARK minimizedAffinity -2.21495748
REMARK minimizedRMSD -1
REMARK  0 active torsions:
REMARK  status: ('A' for Active; 'I' for Inactive)
ROOT
ATOM      1  C   UNL d   1       0.513   2.271  -0.831  0.00  0.00     0.124 A 
ATOM      2  C1  UNL d   1       0.074   1.235  -1.643  0.00  0.00     0.062 A 
ATOM      3  C2  UNL d   1      -0.355   0.037  -1.079  0.00  0.00     0.162 A 
ATOM      4  C3  UNL d   1      -0.347  -0.131   0.306  0.00  0.00    -0.034 A 
ATOM      5  C4  UNL d   1       0.097   0.915   1.116  0.00  0.00     0.162 A 
ATOM      6  C5  UNL d   1       0.525   2.111   0.548  0.00  0.00     0.062 A 
ATOM      7  F   UNL d   1       0.949   3.111   1.334  0.00  0.00    -0.097 F 
ATOM      8  F1  UNL d   1       0.118   0.787   2.451  0.00  0.00    -0.096 F 
ATOM      9  I   UNL d   1      -0.987  -1.921   1.154  0.00  0.00    -0.060 I 
ATOM     10  F2  UNL d   1      -0.774  -0.947  -1.888  0.00  0.00    -0.096 F 
ATOM     11  F3  UNL d   1       0.063   1.388  -2.975  0.00  0.00    -0.097 F 
ATOM     12  F4  UNL d   1       0.926   3.423  -1.376  0.00  0.00    -0.092 F 
ENDROOT
TORSDOF 0
ENDMDL
