MODEL 1
REMARK minimizedAffinity -5.5976181
REMARK minimizedRMSD -1
REMARK  1 active torsions:
REMARK  status: ('A' for Active; 'I' for Inactive)
REMARK    1  A    between atoms: C1_2  and  C2_3 
ROOT
ATOM      1  C2  UNL d   1       0.347  -1.060  -0.611  0.00  0.00    -0.081 A 
ATOM      2  C3  UNL d   1      -0.436  -1.455   0.481  0.00  0.00     0.006 A 
ATOM      3  C4  UNL d   1      -1.178  -0.513   1.198  0.00  0.00     0.002 A 
ATOM      4  C5  UNL d   1      -1.156   0.837   0.830  0.00  0.00    -0.080 A 
ATOM      5  C6  UNL d   1      -1.972   1.853   1.572  0.00  0.00     0.076 C 
ATOM      6  C7  UNL d   1      -0.361   1.234  -0.250  0.00  0.00     0.002 A 
ATOM      7  C8  UNL d   1       0.382   0.293  -0.966  0.00  0.00     0.006 A 
ENDROOT
BRANCH   1   8
ATOM      8  C1  UNL d   1       1.097  -2.082  -1.425  0.00  0.00     0.054 C 
ATOM      9  C   UNL d   1       0.321  -2.473  -2.674  0.00  0.00     0.018 C 
ENDBRANCH   1   8
TORSDOF 1
ENDMDL
