MODEL 1
REMARK minimizedAffinity -3.21074986
REMARK minimizedRMSD -1
REMARK  1 active torsions:
REMARK  status: ('A' for Active; 'I' for Inactive)
REMARK    1  A    between atoms: C1_2  and  C2_3 
ROOT
ATOM      1  C2  UNL d   1      -0.263   0.590   1.254  0.00  0.00    -0.081 A 
ATOM      2  C3  UNL d   1      -0.296   1.525   0.212  0.00  0.00     0.006 A 
ATOM      3  C4  UNL d   1      -1.177   2.608   0.260  0.00  0.00     0.002 A 
ATOM      4  C5  UNL d   1      -2.033   2.779   1.353  0.00  0.00    -0.080 A 
ATOM      5  C6  UNL d   1      -2.962   3.954   1.432  0.00  0.00     0.076 C 
ATOM      6  C7  UNL d   1      -2.012   1.836   2.386  0.00  0.00     0.002 A 
ATOM      7  C8  UNL d   1      -1.133   0.752   2.339  0.00  0.00     0.006 A 
ENDROOT
BRANCH   1   8
ATOM      8  C1  UNL d   1       0.730  -0.543   1.236  0.00  0.00     0.054 C 
ATOM      9  C   UNL d   1       0.896  -1.156   2.619  0.00  0.00     0.018 C 
ENDBRANCH   1   8
TORSDOF 1
ENDMDL
