MODEL 1
REMARK minimizedAffinity -4.9314332
REMARK minimizedRMSD -1
REMARK  1 active torsions:
REMARK  status: ('A' for Active; 'I' for Inactive)
REMARK    1  A    between atoms: C1_2  and  C2_3 
ROOT
ATOM      1  C2  UNL d   1       0.477  -1.175  -0.604  0.00  0.00    -0.081 A 
ATOM      2  C3  UNL d   1      -0.634  -1.580   0.146  0.00  0.00     0.006 A 
ATOM      3  C4  UNL d   1      -1.434  -0.634   0.793  0.00  0.00     0.002 A 
ATOM      4  C5  UNL d   1      -1.141   0.730   0.694  0.00  0.00    -0.080 A 
ATOM      5  C6  UNL d   1      -2.010   1.757   1.358  0.00  0.00     0.076 C 
ATOM      6  C7  UNL d   1      -0.021   1.133  -0.041  0.00  0.00     0.002 A 
ATOM      7  C8  UNL d   1       0.779   0.189  -0.688  0.00  0.00     0.006 A 
ENDROOT
BRANCH   1   8
ATOM      8  C1  UNL d   1       1.304  -2.187  -1.356  0.00  0.00     0.054 C 
ATOM      9  C   UNL d   1       0.473  -2.912  -2.405  0.00  0.00     0.018 C 
ENDBRANCH   1   8
TORSDOF 1
ENDMDL
