MODEL 1
REMARK minimizedAffinity -4.84722424
REMARK minimizedRMSD -1
REMARK  1 active torsions:
REMARK  status: ('A' for Active; 'I' for Inactive)
REMARK    1  A    between atoms: C1_2  and  C2_3 
ROOT
ATOM      1  C2  UNL d   1      -0.874   1.282   0.132  0.00  0.00    -0.081 A 
ATOM      2  C3  UNL d   1       0.499   1.249  -0.144  0.00  0.00     0.006 A 
ATOM      3  C4  UNL d   1       1.115   0.058  -0.535  0.00  0.00     0.002 A 
ATOM      4  C5  UNL d   1       0.368  -1.118  -0.663  0.00  0.00    -0.080 A 
ATOM      5  C6  UNL d   1       1.012  -2.397  -1.111  0.00  0.00     0.076 C 
ATOM      6  C7  UNL d   1      -0.999  -1.090  -0.370  0.00  0.00     0.002 A 
ATOM      7  C8  UNL d   1      -1.616   0.101   0.021  0.00  0.00     0.006 A 
ENDROOT
BRANCH   1   8
ATOM      8  C1  UNL d   1      -1.553   2.578   0.491  0.00  0.00     0.054 C 
ATOM      9  C   UNL d   1      -0.681   3.775   0.141  0.00  0.00     0.018 C 
ENDBRANCH   1   8
TORSDOF 1
ENDMDL
