MODEL 1
REMARK minimizedAffinity -3.94376469
REMARK minimizedRMSD -1
REMARK  1 active torsions:
REMARK  status: ('A' for Active; 'I' for Inactive)
REMARK    1  A    between atoms: C1_2  and  C2_3 
ROOT
ATOM      1  C2  UNL d   1       0.773  -0.005  -0.339  0.00  0.00    -0.081 A 
ATOM      2  C3  UNL d   1       0.182  -0.357   0.881  0.00  0.00     0.006 A 
ATOM      3  C4  UNL d   1      -0.517   0.593   1.629  0.00  0.00     0.002 A 
ATOM      4  C5  UNL d   1      -0.643   1.908   1.167  0.00  0.00    -0.080 A 
ATOM      5  C6  UNL d   1      -1.417   2.930   1.946  0.00  0.00     0.076 C 
ATOM      6  C7  UNL d   1      -0.038   2.264  -0.043  0.00  0.00     0.002 A 
ATOM      7  C8  UNL d   1       0.662   1.314  -0.791  0.00  0.00     0.006 A 
ENDROOT
BRANCH   1   8
ATOM      8  C1  UNL d   1       1.473  -1.043  -1.179  0.00  0.00     0.054 C 
ATOM      9  C   UNL d   1       0.486  -2.057  -1.741  0.00  0.00     0.018 C 
ENDBRANCH   1   8
TORSDOF 1
ENDMDL
