MODEL 1
REMARK minimizedAffinity -4.70738935
REMARK minimizedRMSD -1
REMARK  1 active torsions:
REMARK  status: ('A' for Active; 'I' for Inactive)
REMARK    1  A    between atoms: C1_2  and  C2_3 
ROOT
ATOM      1  C2  UNL d   1      -0.494   2.327   0.038  0.00  0.00    -0.081 A 
ATOM      2  C3  UNL d   1      -1.004   2.449   1.336  0.00  0.00     0.006 A 
ATOM      3  C4  UNL d   1      -0.857   1.408   2.256  0.00  0.00     0.002 A 
ATOM      4  C5  UNL d   1      -0.191   0.232   1.896  0.00  0.00    -0.080 A 
ATOM      5  C6  UNL d   1      -0.000  -0.881   2.883  0.00  0.00     0.076 C 
ATOM      6  C7  UNL d   1       0.303   0.102   0.594  0.00  0.00     0.002 A 
ATOM      7  C8  UNL d   1       0.156   1.143  -0.327  0.00  0.00     0.006 A 
ENDROOT
BRANCH   1   8
ATOM      8  C1  UNL d   1      -0.594   3.473  -0.936  0.00  0.00     0.054 C 
ATOM      9  C   UNL d   1       0.558   3.456  -1.931  0.00  0.00     0.018 C 
ENDBRANCH   1   8
TORSDOF 1
ENDMDL
