MODEL 1
REMARK minimizedAffinity -4.37200975
REMARK minimizedRMSD -1
REMARK  1 active torsions:
REMARK  status: ('A' for Active; 'I' for Inactive)
REMARK    1  A    between atoms: C1_2  and  C2_3 
ROOT
ATOM      1  C2  UNL d   1      -0.641   2.300   0.257  0.00  0.00    -0.081 A 
ATOM      2  C3  UNL d   1      -1.333   2.329   1.473  0.00  0.00     0.006 A 
ATOM      3  C4  UNL d   1      -1.406   1.188   2.275  0.00  0.00     0.002 A 
ATOM      4  C5  UNL d   1      -0.782   0.000   1.877  0.00  0.00    -0.080 A 
ATOM      5  C6  UNL d   1      -0.828  -1.224   2.743  0.00  0.00     0.076 C 
ATOM      6  C7  UNL d   1      -0.105  -0.035   0.654  0.00  0.00     0.002 A 
ATOM      7  C8  UNL d   1      -0.032   1.106  -0.148  0.00  0.00     0.006 A 
ENDROOT
BRANCH   1   8
ATOM      8  C1  UNL d   1      -0.505   3.547  -0.579  0.00  0.00     0.054 C 
ATOM      9  C   UNL d   1       0.703   3.466  -1.501  0.00  0.00     0.018 C 
ENDBRANCH   1   8
TORSDOF 1
ENDMDL
