MODEL 1
REMARK minimizedAffinity -5.05211926
REMARK minimizedRMSD -1
REMARK  1 active torsions:
REMARK  status: ('A' for Active; 'I' for Inactive)
REMARK    1  A    between atoms: C1_2  and  C2_3 
ROOT
ATOM      1  C2  UNL d   1      -0.543   1.644  -0.079  0.00  0.00    -0.081 A 
ATOM      2  C3  UNL d   1      -1.243   0.487   0.286  0.00  0.00     0.006 A 
ATOM      3  C4  UNL d   1      -0.737  -0.776  -0.027  0.00  0.00     0.002 A 
ATOM      4  C5  UNL d   1       0.481  -0.905  -0.703  0.00  0.00    -0.080 A 
ATOM      5  C6  UNL d   1       1.051  -2.256  -1.019  0.00  0.00     0.076 C 
ATOM      6  C7  UNL d   1       1.172   0.250  -1.084  0.00  0.00     0.002 A 
ATOM      7  C8  UNL d   1       0.666   1.514  -0.772  0.00  0.00     0.006 A 
ENDROOT
BRANCH   1   8
ATOM      8  C1  UNL d   1      -1.055   3.006   0.314  0.00  0.00     0.054 C 
ATOM      9  C   UNL d   1      -2.119   2.906   1.397  0.00  0.00     0.018 C 
ENDBRANCH   1   8
TORSDOF 1
ENDMDL
