MODEL 1
REMARK minimizedAffinity -6.13913584
REMARK minimizedRMSD -1
REMARK  1 active torsions:
REMARK  status: ('A' for Active; 'I' for Inactive)
REMARK    1  A    between atoms: C1_2  and  C2_3 
ROOT
ATOM      1  C2  UNL d   1      -0.736   1.233   0.097  0.00  0.00    -0.081 A 
ATOM      2  C3  UNL d   1       0.534   1.093  -0.476  0.00  0.00     0.006 A 
ATOM      3  C4  UNL d   1       0.918  -0.117  -1.060  0.00  0.00     0.002 A 
ATOM      4  C5  UNL d   1       0.037  -1.203  -1.087  0.00  0.00    -0.080 A 
ATOM      5  C6  UNL d   1       0.426  -2.497  -1.738  0.00  0.00     0.076 C 
ATOM      6  C7  UNL d   1      -1.225  -1.069  -0.500  0.00  0.00     0.002 A 
ATOM      7  C8  UNL d   1      -1.610   0.140   0.085  0.00  0.00     0.006 A 
ENDROOT
BRANCH   1   8
ATOM      8  C1  UNL d   1      -1.177   2.555   0.670  0.00  0.00     0.054 C 
ATOM      9  C   UNL d   1      -0.279   3.690   0.198  0.00  0.00     0.018 C 
ENDBRANCH   1   8
TORSDOF 1
ENDMDL
