MODEL 1
REMARK minimizedAffinity -3.2231245
REMARK minimizedRMSD -1
REMARK  1 active torsions:
REMARK  status: ('A' for Active; 'I' for Inactive)
REMARK    1  A    between atoms: C1_2  and  C2_3 
ROOT
ATOM      1  C2  UNL d   1       0.189   2.205  -0.195  0.00  0.00    -0.081 A 
ATOM      2  C3  UNL d   1      -0.464   2.416   1.026  0.00  0.00     0.006 A 
ATOM      3  C4  UNL d   1      -0.528   1.397   1.980  0.00  0.00     0.002 A 
ATOM      4  C5  UNL d   1       0.066   0.155   1.732  0.00  0.00    -0.080 A 
ATOM      5  C6  UNL d   1       0.031  -0.937   2.760  0.00  0.00     0.076 C 
ATOM      6  C7  UNL d   1       0.703  -0.061   0.506  0.00  0.00     0.002 A 
ATOM      7  C8  UNL d   1       0.767   0.957  -0.449  0.00  0.00     0.006 A 
ENDROOT
BRANCH   1   8
ATOM      8  C1  UNL d   1       0.316   3.323  -1.199  0.00  0.00     0.054 C 
ATOM      9  C   UNL d   1       1.470   3.075  -2.159  0.00  0.00     0.018 C 
ENDBRANCH   1   8
TORSDOF 1
ENDMDL
