MODEL 1
REMARK minimizedAffinity -4.86429548
REMARK minimizedRMSD -1
REMARK  1 active torsions:
REMARK  status: ('A' for Active; 'I' for Inactive)
REMARK    1  A    between atoms: C1_2  and  C2_3 
ROOT
ATOM      1  C2  UNL d   1      -0.463   1.232   0.913  0.00  0.00    -0.081 A 
ATOM      2  C3  UNL d   1       0.733   1.280   0.186  0.00  0.00     0.006 A 
ATOM      3  C4  UNL d   1       1.141   0.184  -0.578  0.00  0.00     0.002 A 
ATOM      4  C5  UNL d   1       0.358  -0.974  -0.634  0.00  0.00    -0.080 A 
ATOM      5  C6  UNL d   1       0.770  -2.146  -1.474  0.00  0.00     0.076 C 
ATOM      6  C7  UNL d   1      -0.828  -1.028   0.106  0.00  0.00     0.002 A 
ATOM      7  C8  UNL d   1      -1.237   0.067   0.870  0.00  0.00     0.006 A 
ENDROOT
BRANCH   1   8
ATOM      8  C1  UNL d   1      -0.939   2.436   1.686  0.00  0.00     0.054 C 
ATOM      9  C   UNL d   1      -2.254   2.965   1.131  0.00  0.00     0.018 C 
ENDBRANCH   1   8
TORSDOF 1
ENDMDL
