MODEL 1
REMARK minimizedAffinity -5.3641777
REMARK minimizedRMSD -1
REMARK  1 active torsions:
REMARK  status: ('A' for Active; 'I' for Inactive)
REMARK    1  A    between atoms: C1_2  and  C2_3 
ROOT
ATOM      1  C2  UNL d   1      -1.007   2.447   0.528  0.00  0.00    -0.081 A 
ATOM      2  C3  UNL d   1      -0.417   1.380  -0.160  0.00  0.00     0.006 A 
ATOM      3  C4  UNL d   1      -0.636   0.064   0.254  0.00  0.00     0.002 A 
ATOM      4  C5  UNL d   1      -1.453  -0.208   1.356  0.00  0.00    -0.080 A 
ATOM      5  C6  UNL d   1      -1.721  -1.618   1.791  0.00  0.00     0.076 C 
ATOM      6  C7  UNL d   1      -2.029   0.859   2.054  0.00  0.00     0.002 A 
ATOM      7  C8  UNL d   1      -1.810   2.176   1.642  0.00  0.00     0.006 A 
ENDROOT
BRANCH   1   8
ATOM      8  C1  UNL d   1      -0.826   3.864   0.046  0.00  0.00     0.054 C 
ATOM      9  C   UNL d   1      -0.099   3.905  -1.290  0.00  0.00     0.018 C 
ENDBRANCH   1   8
TORSDOF 1
ENDMDL
