MODEL 1
REMARK minimizedAffinity -4.58810759
REMARK minimizedRMSD -1
REMARK  1 active torsions:
REMARK  status: ('A' for Active; 'I' for Inactive)
REMARK    1  A    between atoms: C1_2  and  C2_3 
ROOT
ATOM      1  C2  UNL d   1       0.117   0.485   0.281  0.00  0.00    -0.081 A 
ATOM      2  C3  UNL d   1      -0.851   0.153   1.236  0.00  0.00     0.006 A 
ATOM      3  C4  UNL d   1      -1.833   1.077   1.602  0.00  0.00     0.002 A 
ATOM      4  C5  UNL d   1      -1.868   2.345   1.012  0.00  0.00    -0.080 A 
ATOM      5  C6  UNL d   1      -2.935   3.336   1.373  0.00  0.00     0.076 C 
ATOM      6  C7  UNL d   1      -0.891   2.684   0.070  0.00  0.00     0.002 A 
ATOM      7  C8  UNL d   1       0.092   1.761  -0.295  0.00  0.00     0.006 A 
ENDROOT
BRANCH   1   8
ATOM      8  C1  UNL d   1       1.138  -0.531  -0.162  0.00  0.00     0.054 C 
ATOM      9  C   UNL d   1       0.576  -1.445  -1.242  0.00  0.00     0.018 C 
ENDBRANCH   1   8
TORSDOF 1
ENDMDL
