MODEL 1
REMARK minimizedAffinity -6.79966259
REMARK minimizedRMSD -1
REMARK  1 active torsions:
REMARK  status: ('A' for Active; 'I' for Inactive)
REMARK    1  A    between atoms: C1_2  and  C2_3 
ROOT
ATOM      1  C2  UNL d   1      -0.661   1.452   0.356  0.00  0.00    -0.081 A 
ATOM      2  C3  UNL d   1      -1.018   1.565   1.705  0.00  0.00     0.006 A 
ATOM      3  C4  UNL d   1      -0.535   0.650   2.644  0.00  0.00     0.002 A 
ATOM      4  C5  UNL d   1       0.319  -0.386   2.251  0.00  0.00    -0.080 A 
ATOM      5  C6  UNL d   1       0.869  -1.357   3.253  0.00  0.00     0.076 C 
ATOM      6  C7  UNL d   1       0.661  -0.509   0.900  0.00  0.00     0.002 A 
ATOM      7  C8  UNL d   1       0.178   0.405  -0.039  0.00  0.00     0.006 A 
ENDROOT
BRANCH   1   8
ATOM      8  C1  UNL d   1      -1.129   2.475  -0.648  0.00  0.00     0.054 C 
ATOM      9  C   UNL d   1       0.010   3.389  -1.078  0.00  0.00     0.018 C 
ENDBRANCH   1   8
TORSDOF 1
ENDMDL
