MODEL 1
REMARK minimizedAffinity 0.864161134
REMARK minimizedRMSD -1
REMARK  0 active torsions:
REMARK  status: ('A' for Active; 'I' for Inactive)
ROOT
ATOM      1  N1  IND d   1      -3.685   1.857   1.917  0.00  0.00    -0.196 N 
ATOM      2  C2  IND d   1      -3.957   0.596   1.465  0.00  0.00     0.054 A 
ATOM      3  C3  IND d   1      -2.924  -0.233   1.733  0.00  0.00    -0.031 A 
ATOM      4  C4  IND d   1      -0.730   0.242   2.994  0.00  0.00     0.051 A 
ATOM      5  C5  IND d   1      -0.014   1.256   3.565  0.00  0.00    -0.031 A 
ATOM      6  C6  IND d   1      -0.495   2.548   3.619  0.00  0.00     0.015 A 
ATOM      7  C7  IND d   1      -1.722   2.873   3.112  0.00  0.00    -0.016 A 
ATOM      8  C8  IND d   1      -2.449   1.847   2.526  0.00  0.00    -0.047 A 
ATOM      9  C9  IND d   1      -1.947   0.543   2.430  0.00  0.00    -0.096 A 
ATOM     10  HN1 IND d   1      -4.199   2.542   1.835  0.00  0.00     0.298 HD
ENDROOT
TORSDOF 0
ENDMDL
