MODEL 1
REMARK minimizedAffinity 2.80620933
REMARK minimizedRMSD -1
REMARK  0 active torsions:
REMARK  status: ('A' for Active; 'I' for Inactive)
ROOT
ATOM      1  N1  IND d   1      -1.328  -4.487  -5.998  0.00  0.00    -0.196 N 
ATOM      2  C2  IND d   1      -1.829  -5.758  -5.985  0.00  0.00     0.054 A 
ATOM      3  C3  IND d   1      -3.180  -5.731  -5.946  0.00  0.00    -0.031 A 
ATOM      4  C4  IND d   1      -4.778  -3.713  -5.999  0.00  0.00     0.051 A 
ATOM      5  C5  IND d   1      -4.788  -2.347  -5.975  0.00  0.00    -0.031 A 
ATOM      6  C6  IND d   1      -3.622  -1.609  -5.960  0.00  0.00     0.015 A 
ATOM      7  C7  IND d   1      -2.397  -2.212  -5.980  0.00  0.00    -0.016 A 
ATOM      8  C8  IND d   1      -2.382  -3.600  -5.997  0.00  0.00    -0.047 A 
ATOM      9  C9  IND d   1      -3.562  -4.355  -5.970  0.00  0.00    -0.096 A 
ATOM     10  HN1 IND d   1      -0.494  -4.276  -6.006  0.00  0.00     0.298 HD
ENDROOT
TORSDOF 0
ENDMDL
