MODEL 1
REMARK minimizedAffinity -3.02388692
REMARK minimizedRMSD -1
REMARK  0 active torsions:
REMARK  status: ('A' for Active; 'I' for Inactive)
ROOT
ATOM      1  N1  IND d   1      -2.247   1.481   1.598  0.00  0.00    -0.196 N 
ATOM      2  C2  IND d   1      -2.977   0.402   1.184  0.00  0.00     0.054 A 
ATOM      3  C3  IND d   1      -2.337  -0.747   1.496  0.00  0.00    -0.031 A 
ATOM      4  C4  IND d   1      -0.131  -1.095   2.776  0.00  0.00     0.051 A 
ATOM      5  C5  IND d   1       0.917  -0.408   3.323  0.00  0.00    -0.031 A 
ATOM      6  C6  IND d   1       0.963   0.971   3.326  0.00  0.00     0.015 A 
ATOM      7  C7  IND d   1      -0.047   1.719   2.789  0.00  0.00    -0.016 A 
ATOM      8  C8  IND d   1      -1.109   1.025   2.226  0.00  0.00    -0.047 A 
ATOM      9  C9  IND d   1      -1.141  -0.375   2.182  0.00  0.00    -0.096 A 
ATOM     10  HN1 IND d   1      -2.462   2.306   1.484  0.00  0.00     0.298 HD
ENDROOT
TORSDOF 0
ENDMDL
