MODEL 1
REMARK minimizedAffinity 3.82519484
REMARK minimizedRMSD -1
REMARK  0 active torsions:
REMARK  status: ('A' for Active; 'I' for Inactive)
ROOT
ATOM      1  N1  IND d   1      -2.842  -0.088   0.996  0.00  0.00    -0.196 N 
ATOM      2  C2  IND d   1      -3.945   0.688   0.773  0.00  0.00     0.054 A 
ATOM      3  C3  IND d   1      -3.840   1.859   1.441  0.00  0.00    -0.031 A 
ATOM      4  C4  IND d   1      -1.901   2.754   2.878  0.00  0.00     0.051 A 
ATOM      5  C5  IND d   1      -0.692   2.391   3.403  0.00  0.00    -0.031 A 
ATOM      6  C6  IND d   1      -0.126   1.159   3.145  0.00  0.00     0.015 A 
ATOM      7  C7  IND d   1      -0.744   0.245   2.340  0.00  0.00    -0.016 A 
ATOM      8  C8  IND d   1      -1.975   0.608   1.810  0.00  0.00    -0.047 A 
ATOM      9  C9  IND d   1      -2.574   1.839   2.103  0.00  0.00    -0.096 A 
ATOM     10  HN1 IND d   1      -2.711  -0.877   0.681  0.00  0.00     0.298 HD
ENDROOT
TORSDOF 0
ENDMDL
