MODEL 1
REMARK minimizedAffinity 7.13447762
REMARK minimizedRMSD -1
REMARK  0 active torsions:
REMARK  status: ('A' for Active; 'I' for Inactive)
ROOT
ATOM      1  N1  IND d   1      -1.700  -2.214   0.683  0.00  0.00    -0.196 N 
ATOM      2  C2  IND d   1      -2.642  -2.950   0.021  0.00  0.00     0.054 A 
ATOM      3  C3  IND d   1      -3.834  -2.313   0.037  0.00  0.00    -0.031 A 
ATOM      4  C4  IND d   1      -4.442  -0.005   1.003  0.00  0.00     0.051 A 
ATOM      5  C5  IND d   1      -3.924   1.027   1.735  0.00  0.00    -0.031 A 
ATOM      6  C6  IND d   1      -2.611   1.033   2.159  0.00  0.00     0.015 A 
ATOM      7  C7  IND d   1      -1.760   0.007   1.857  0.00  0.00    -0.016 A 
ATOM      8  C8  IND d   1      -2.285  -1.046   1.120  0.00  0.00    -0.047 A 
ATOM      9  C9  IND d   1      -3.628  -1.077   0.723  0.00  0.00    -0.096 A 
ATOM     10  HN1 IND d   1      -0.880  -2.442   0.806  0.00  0.00     0.298 HD
ENDROOT
TORSDOF 0
ENDMDL
