MODEL 1
REMARK minimizedAffinity 8.84711361
REMARK minimizedRMSD -1
REMARK  0 active torsions:
REMARK  status: ('A' for Active; 'I' for Inactive)
ROOT
ATOM      1  N1  IND d   1      -1.270   0.413   0.929  0.00  0.00    -0.196 N 
ATOM      2  C2  IND d   1      -0.426   0.273   1.995  0.00  0.00     0.054 A 
ATOM      3  C3  IND d   1      -1.124   0.288   3.153  0.00  0.00    -0.031 A 
ATOM      4  C4  IND d   1      -3.667   0.429   3.527  0.00  0.00     0.051 A 
ATOM      5  C5  IND d   1      -4.846   0.607   2.859  0.00  0.00    -0.031 A 
ATOM      6  C6  IND d   1      -4.894   0.729   1.485  0.00  0.00     0.015 A 
ATOM      7  C7  IND d   1      -3.761   0.666   0.724  0.00  0.00    -0.016 A 
ATOM      8  C8  IND d   1      -2.562   0.493   1.400  0.00  0.00    -0.047 A 
ATOM      9  C9  IND d   1      -2.502   0.411   2.797  0.00  0.00    -0.096 A 
ATOM     10  HN1 IND d   1      -1.033   0.447   0.103  0.00  0.00     0.298 HD
ENDROOT
TORSDOF 0
ENDMDL
