MODEL 1
REMARK minimizedAffinity 4.38985443
REMARK minimizedRMSD -1
REMARK  0 active torsions:
REMARK  status: ('A' for Active; 'I' for Inactive)
ROOT
ATOM      1  N1  IND d   1      -0.768   0.754   1.111  0.00  0.00    -0.196 N 
ATOM      2  C2  IND d   1       0.103   0.624   2.157  0.00  0.00     0.054 A 
ATOM      3  C3  IND d   1      -0.571   0.371   3.302  0.00  0.00    -0.031 A 
ATOM      4  C4  IND d   1      -3.095   0.027   3.672  0.00  0.00     0.051 A 
ATOM      5  C5  IND d   1      -4.297   0.086   3.024  0.00  0.00    -0.031 A 
ATOM      6  C6  IND d   1      -4.385   0.372   1.677  0.00  0.00     0.015 A 
ATOM      7  C7  IND d   1      -3.269   0.602   0.922  0.00  0.00    -0.016 A 
ATOM      8  C8  IND d   1      -2.048   0.551   1.579  0.00  0.00    -0.047 A 
ATOM      9  C9  IND d   1      -1.955   0.302   2.955  0.00  0.00    -0.096 A 
ATOM     10  HN1 IND d   1      -0.553   0.932   0.298  0.00  0.00     0.298 HD
ENDROOT
TORSDOF 0
ENDMDL
