MODEL 1
REMARK minimizedAffinity 4.07518911
REMARK minimizedRMSD -1
REMARK  0 active torsions:
REMARK  status: ('A' for Active; 'I' for Inactive)
ROOT
ATOM      1  N1  IND d   1       0.465  -5.997   2.892  0.00  0.00    -0.196 N 
ATOM      2  C2  IND d   1       1.722  -6.000   2.355  0.00  0.00     0.054 A 
ATOM      3  C3  IND d   1       1.679  -5.628   1.056  0.00  0.00    -0.031 A 
ATOM      4  C4  IND d   1      -0.331  -4.874  -0.365  0.00  0.00     0.051 A 
ATOM      5  C5  IND d   1      -1.690  -4.742  -0.323  0.00  0.00    -0.031 A 
ATOM      6  C6  IND d   1      -2.416  -5.025   0.816  0.00  0.00     0.015 A 
ATOM      7  C7  IND d   1      -1.804  -5.442   1.965  0.00  0.00    -0.016 A 
ATOM      8  C8  IND d   1      -0.424  -5.583   1.924  0.00  0.00    -0.047 A 
ATOM      9  C9  IND d   1       0.313  -5.338   0.758  0.00  0.00    -0.096 A 
ATOM     10  HN1 IND d   1       0.263  -6.218   3.698  0.00  0.00     0.298 HD
ENDROOT
TORSDOF 0
ENDMDL
