MODEL 1
REMARK minimizedAffinity 8.1412878
REMARK minimizedRMSD -1
REMARK  0 active torsions:
REMARK  status: ('A' for Active; 'I' for Inactive)
ROOT
ATOM      1  N1  IND d   1       0.180  -6.000   1.489  0.00  0.00    -0.196 N 
ATOM      2  C2  IND d   1       1.090  -5.007   1.725  0.00  0.00     0.054 A 
ATOM      3  C3  IND d   1       0.546  -3.798   1.461  0.00  0.00    -0.031 A 
ATOM      4  C4  IND d   1      -1.851  -3.208   0.730  0.00  0.00     0.051 A 
ATOM      5  C5  IND d   1      -3.033  -3.779   0.350  0.00  0.00    -0.031 A 
ATOM      6  C6  IND d   1      -3.209  -5.148   0.334  0.00  0.00     0.015 A 
ATOM      7  C7  IND d   1      -2.208  -5.999   0.708  0.00  0.00    -0.016 A 
ATOM      8  C8  IND d   1      -1.004  -5.423   1.087  0.00  0.00    -0.047 A 
ATOM      9  C9  IND d   1      -0.806  -4.036   1.065  0.00  0.00    -0.096 A 
ATOM     10  HN1 IND d   1       0.324  -6.843   1.577  0.00  0.00     0.298 HD
ENDROOT
TORSDOF 0
ENDMDL
