MODEL 1
REMARK minimizedAffinity 0.838199794
REMARK minimizedRMSD -1
REMARK  0 active torsions:
REMARK  status: ('A' for Active; 'I' for Inactive)
ROOT
ATOM      1  N1  IND d   1       0.578   0.808   2.009  0.00  0.00    -0.196 N 
ATOM      2  C2  IND d   1       0.765   0.530   3.334  0.00  0.00     0.054 A 
ATOM      3  C3  IND d   1       2.023   0.082   3.547  0.00  0.00    -0.031 A 
ATOM      4  C4  IND d   1       3.970  -0.178   1.883  0.00  0.00     0.051 A 
ATOM      5  C5  IND d   1       4.271  -0.083   0.554  0.00  0.00    -0.031 A 
ATOM      6  C6  IND d   1       3.338   0.325  -0.378  0.00  0.00     0.015 A 
ATOM      7  C7  IND d   1       2.067   0.665  -0.010  0.00  0.00    -0.016 A 
ATOM      8  C8  IND d   1       1.756   0.563   1.338  0.00  0.00    -0.047 A 
ATOM      9  C9  IND d   1       2.686   0.109   2.282  0.00  0.00    -0.096 A 
ATOM     10  HN1 IND d   1      -0.153   1.089   1.654  0.00  0.00     0.298 HD
ENDROOT
TORSDOF 0
ENDMDL
