MODEL 1
REMARK minimizedAffinity 6.03071547
REMARK minimizedRMSD -1
REMARK  0 active torsions:
REMARK  status: ('A' for Active; 'I' for Inactive)
ROOT
ATOM      1  N1  IND d   1       3.694  -5.521   0.748  0.00  0.00    -0.196 N 
ATOM      2  C2  IND d   1       4.530  -5.991   1.722  0.00  0.00     0.054 A 
ATOM      3  C3  IND d   1       3.901  -5.997   2.919  0.00  0.00    -0.031 A 
ATOM      4  C4  IND d   1       1.469  -5.376   3.492  0.00  0.00     0.051 A 
ATOM      5  C5  IND d   1       0.331  -4.857   2.941  0.00  0.00    -0.031 A 
ATOM      6  C6  IND d   1       0.254  -4.529   1.602  0.00  0.00     0.015 A 
ATOM      7  C7  IND d   1       1.312  -4.719   0.760  0.00  0.00    -0.016 A 
ATOM      8  C8  IND d   1       2.472  -5.239   1.318  0.00  0.00    -0.047 A 
ATOM      9  C9  IND d   1       2.570  -5.534   2.684  0.00  0.00    -0.096 A 
ATOM     10  HN1 IND d   1       3.897  -5.419  -0.081  0.00  0.00     0.298 HD
ENDROOT
TORSDOF 0
ENDMDL
