MODEL 1
REMARK minimizedAffinity 6.79837799
REMARK minimizedRMSD -1
REMARK  0 active torsions:
REMARK  status: ('A' for Active; 'I' for Inactive)
ROOT
ATOM      1  N1  IND d   1      -2.958   1.134   1.122  0.00  0.00    -0.196 N 
ATOM      2  C2  IND d   1      -2.777  -0.173   0.764  0.00  0.00     0.054 A 
ATOM      3  C3  IND d   1      -1.682  -0.680   1.373  0.00  0.00    -0.031 A 
ATOM      4  C4  IND d   1      -0.098   0.424   3.076  0.00  0.00     0.051 A 
ATOM      5  C5  IND d   1       0.163   1.619   3.687  0.00  0.00    -0.031 A 
ATOM      6  C6  IND d   1      -0.620   2.734   3.472  0.00  0.00     0.015 A 
ATOM      7  C7  IND d   1      -1.705   2.694   2.643  0.00  0.00    -0.016 A 
ATOM      8  C8  IND d   1      -1.970   1.485   2.016  0.00  0.00    -0.047 A 
ATOM      9  C9  IND d   1      -1.153   0.361   2.197  0.00  0.00    -0.096 A 
ATOM     10  HN1 IND d   1      -3.584   1.650   0.838  0.00  0.00     0.298 HD
ENDROOT
TORSDOF 0
ENDMDL
