MODEL 1
REMARK minimizedAffinity 5.32512569
REMARK minimizedRMSD -1
REMARK  0 active torsions:
REMARK  status: ('A' for Active; 'I' for Inactive)
ROOT
ATOM      1  N1  IND d   1      -5.231   0.589   3.055  0.00  0.00    -0.196 N 
ATOM      2  C2  IND d   1      -5.209   0.583   4.422  0.00  0.00     0.054 A 
ATOM      3  C3  IND d   1      -3.935   0.521   4.872  0.00  0.00    -0.031 A 
ATOM      4  C4  IND d   1      -1.730   0.523   3.544  0.00  0.00     0.051 A 
ATOM      5  C5  IND d   1      -1.240   0.481   2.269  0.00  0.00    -0.031 A 
ATOM      6  C6  IND d   1      -2.072   0.476   1.168  0.00  0.00     0.015 A 
ATOM      7  C7  IND d   1      -3.431   0.524   1.302  0.00  0.00    -0.016 A 
ATOM      8  C8  IND d   1      -3.932   0.559   2.596  0.00  0.00    -0.047 A 
ATOM      9  C9  IND d   1      -3.094   0.521   3.717  0.00  0.00    -0.096 A 
ATOM     10  HN1 IND d   1      -5.937   0.607   2.565  0.00  0.00     0.298 HD
ENDROOT
TORSDOF 0
ENDMDL
