MODEL 1
REMARK minimizedAffinity 9.19956112
REMARK minimizedRMSD -1
REMARK  0 active torsions:
REMARK  status: ('A' for Active; 'I' for Inactive)
ROOT
ATOM      1  N1  IND d   1       0.051   0.434   0.690  0.00  0.00    -0.196 N 
ATOM      2  C2  IND d   1       1.362   0.070   0.823  0.00  0.00     0.054 A 
ATOM      3  C3  IND d   1       1.840   0.464   2.024  0.00  0.00    -0.031 A 
ATOM      4  C4  IND d   1       0.621   1.631   3.968  0.00  0.00     0.051 A 
ATOM      5  C5  IND d   1      -0.577   2.197   4.303  0.00  0.00    -0.031 A 
ATOM      6  C6  IND d   1      -1.649   2.203   3.434  0.00  0.00     0.015 A 
ATOM      7  C7  IND d   1      -1.567   1.629   2.197  0.00  0.00    -0.016 A 
ATOM      8  C8  IND d   1      -0.350   1.059   1.851  0.00  0.00    -0.047 A 
ATOM      9  C9  IND d   1       0.755   1.088   2.712  0.00  0.00    -0.096 A 
ATOM     10  HN1 IND d   1      -0.441   0.296  -0.001  0.00  0.00     0.298 HD
ENDROOT
TORSDOF 0
ENDMDL
