MODEL 1
REMARK minimizedAffinity -3.79018712
REMARK minimizedRMSD -1
REMARK  0 active torsions:
REMARK  status: ('A' for Active; 'I' for Inactive)
ROOT
ATOM      1  C2' OXE d   1       1.866   1.873  -0.427  0.00  0.00     0.078 C 
ATOM      2  C1' OXE d   1       3.215  -0.438  -1.273  0.00  0.00     0.078 C 
ATOM      3  C1  OXE d   1       1.784  -0.585  -0.822  0.00  0.00    -0.078 A 
ATOM      4  C2  OXE d   1       1.146   0.543  -0.366  0.00  0.00    -0.078 A 
ATOM      5  C3  OXE d   1      -0.193   0.474   0.011  0.00  0.00     0.003 A 
ATOM      6  C4  OXE d   1      -0.848  -0.762   0.074  0.00  0.00    -0.002 A 
ATOM      7  C5  OXE d   1      -0.204  -1.930  -0.349  0.00  0.00    -0.002 A 
ATOM      8  C6  OXE d   1       1.095  -1.852  -0.839  0.00  0.00     0.003 A 
ENDROOT
TORSDOF 0
ENDMDL
