MODEL 1
REMARK minimizedAffinity -3.3728466
REMARK minimizedRMSD -1
REMARK  0 active torsions:
REMARK  status: ('A' for Active; 'I' for Inactive)
ROOT
ATOM      1  C2' OXE d   1      -0.721  -2.085  -0.587  0.00  0.00     0.078 C 
ATOM      2  C1' OXE d   1      -0.818   0.372   0.768  0.00  0.00     0.078 C 
ATOM      3  C1  OXE d   1       0.461   0.012   0.055  0.00  0.00    -0.078 A 
ATOM      4  C2  OXE d   1       0.516  -1.213  -0.566  0.00  0.00    -0.078 A 
ATOM      5  C3  OXE d   1       1.653  -1.571  -1.284  0.00  0.00     0.003 A 
ATOM      6  C4  OXE d   1       2.796  -0.763  -1.251  0.00  0.00    -0.002 A 
ATOM      7  C5  OXE d   1       2.775   0.470  -0.591  0.00  0.00    -0.002 A 
ATOM      8  C6  OXE d   1       1.604   0.891   0.030  0.00  0.00     0.003 A 
ENDROOT
TORSDOF 0
ENDMDL
