MODEL 1
REMARK minimizedAffinity -5.20161867
REMARK minimizedRMSD -1
REMARK  0 active torsions:
REMARK  status: ('A' for Active; 'I' for Inactive)
ROOT
ATOM      1  C2' OXE d   1      -1.063  -0.212  -0.028  0.00  0.00     0.078 C 
ATOM      2  C1' OXE d   1      -0.182   2.140  -1.281  0.00  0.00     0.078 C 
ATOM      3  C1  OXE d   1       0.708   0.925  -1.361  0.00  0.00    -0.078 A 
ATOM      4  C2  OXE d   1       0.290  -0.208  -0.705  0.00  0.00    -0.078 A 
ATOM      5  C3  OXE d   1       1.047  -1.373  -0.793  0.00  0.00     0.003 A 
ATOM      6  C4  OXE d   1       2.303  -1.358  -1.412  0.00  0.00    -0.002 A 
ATOM      7  C5  OXE d   1       2.765  -0.203  -2.052  0.00  0.00    -0.002 A 
ATOM      8  C6  OXE d   1       1.962   0.932  -2.072  0.00  0.00     0.003 A 
ENDROOT
TORSDOF 0
ENDMDL
