MODEL 1
REMARK minimizedAffinity -3.39136744
REMARK minimizedRMSD -1
REMARK  0 active torsions:
REMARK  status: ('A' for Active; 'I' for Inactive)
ROOT
ATOM      1  C2' OXE d   1      -1.006  -1.897  -0.643  0.00  0.00     0.078 C 
ATOM      2  C1' OXE d   1       1.224  -2.079  -2.338  0.00  0.00     0.078 C 
ATOM      3  C1  OXE d   1       1.278  -1.080  -1.209  0.00  0.00    -0.078 A 
ATOM      4  C2  OXE d   1       0.164  -0.965  -0.413  0.00  0.00    -0.078 A 
ATOM      5  C3  OXE d   1       0.182  -0.098   0.676  0.00  0.00     0.003 A 
ATOM      6  C4  OXE d   1       1.264   0.768   0.875  0.00  0.00    -0.002 A 
ATOM      7  C5  OXE d   1       2.393   0.694   0.052  0.00  0.00    -0.002 A 
ATOM      8  C6  OXE d   1       2.433  -0.252  -0.966  0.00  0.00     0.003 A 
ENDROOT
TORSDOF 0
ENDMDL
