MODEL 1
REMARK minimizedAffinity -4.2592802
REMARK minimizedRMSD -1
REMARK  0 active torsions:
REMARK  status: ('A' for Active; 'I' for Inactive)
ROOT
ATOM      1  C2' OXE d   1      -0.781  -2.293  -0.739  0.00  0.00     0.078 C 
ATOM      2  C1' OXE d   1      -1.057   0.188   0.545  0.00  0.00     0.078 C 
ATOM      3  C1  OXE d   1       0.293  -0.160  -0.030  0.00  0.00    -0.078 A 
ATOM      4  C2  OXE d   1       0.432  -1.395  -0.615  0.00  0.00    -0.078 A 
ATOM      5  C3  OXE d   1       1.641  -1.745  -1.210  0.00  0.00     0.003 A 
ATOM      6  C4  OXE d   1       2.760  -0.914  -1.082  0.00  0.00    -0.002 A 
ATOM      7  C5  OXE d   1       2.651   0.332  -0.455  0.00  0.00    -0.002 A 
ATOM      8  C6  OXE d   1       1.417   0.741   0.038  0.00  0.00     0.003 A 
ENDROOT
TORSDOF 0
ENDMDL
