MODEL 1
REMARK minimizedAffinity -4.3381815
REMARK minimizedRMSD -1
REMARK  0 active torsions:
REMARK  status: ('A' for Active; 'I' for Inactive)
ROOT
ATOM      1  C2' OXE d   1      -1.792  -0.003   0.352  0.00  0.00     0.078 C 
ATOM      2  C1' OXE d   1      -0.359   1.900  -1.133  0.00  0.00     0.078 C 
ATOM      3  C1  OXE d   1       0.242   0.525  -0.986  0.00  0.00    -0.078 A 
ATOM      4  C2  OXE d   1      -0.444  -0.386  -0.219  0.00  0.00    -0.078 A 
ATOM      5  C3  OXE d   1       0.039  -1.686  -0.096  0.00  0.00     0.003 A 
ATOM      6  C4  OXE d   1       1.291  -2.029  -0.619  0.00  0.00    -0.002 A 
ATOM      7  C5  OXE d   1       2.025  -1.105  -1.370  0.00  0.00    -0.002 A 
ATOM      8  C6  OXE d   1       1.496   0.161  -1.599  0.00  0.00     0.003 A 
ENDROOT
TORSDOF 0
ENDMDL
