MODEL 1
REMARK minimizedAffinity -2.623245
REMARK minimizedRMSD -1
REMARK  0 active torsions:
REMARK  status: ('A' for Active; 'I' for Inactive)
ROOT
ATOM      1  C2' OXE d   1      -3.002   4.472   2.004  0.00  0.00     0.078 C 
ATOM      2  C1' OXE d   1      -1.602   3.319   4.146  0.00  0.00     0.078 C 
ATOM      3  C1  OXE d   1      -2.912   4.003   4.449  0.00  0.00    -0.078 A 
ATOM      4  C2  OXE d   1      -3.567   4.606   3.402  0.00  0.00    -0.078 A 
ATOM      5  C3  OXE d   1      -4.806   5.204   3.616  0.00  0.00     0.003 A 
ATOM      6  C4  OXE d   1      -5.316   5.331   4.913  0.00  0.00    -0.002 A 
ATOM      7  C5  OXE d   1      -4.645   4.759   6.000  0.00  0.00    -0.002 A 
ATOM      8  C6  OXE d   1      -3.466   4.057   5.779  0.00  0.00     0.003 A 
ENDROOT
TORSDOF 0
ENDMDL
