MODEL 1
REMARK minimizedAffinity -4.63310337
REMARK minimizedRMSD -1
REMARK  0 active torsions:
REMARK  status: ('A' for Active; 'I' for Inactive)
ROOT
ATOM      1  C2' OXE d   1       1.400   2.115  -1.154  0.00  0.00     0.078 C 
ATOM      2  C1' OXE d   1       2.811  -0.310  -1.077  0.00  0.00     0.078 C 
ATOM      3  C1  OXE d   1       1.395  -0.304  -0.557  0.00  0.00    -0.078 A 
ATOM      4  C2  OXE d   1       0.728   0.898  -0.555  0.00  0.00    -0.078 A 
ATOM      5  C3  OXE d   1      -0.599   0.949  -0.138  0.00  0.00     0.003 A 
ATOM      6  C4  OXE d   1      -1.209  -0.179   0.423  0.00  0.00    -0.002 A 
ATOM      7  C5  OXE d   1      -0.534  -1.404   0.468  0.00  0.00    -0.002 A 
ATOM      8  C6  OXE d   1       0.751  -1.493  -0.056  0.00  0.00     0.003 A 
ENDROOT
TORSDOF 0
ENDMDL
