MODEL 1
REMARK minimizedAffinity -3.58021331
REMARK minimizedRMSD -1
REMARK  0 active torsions:
REMARK  status: ('A' for Active; 'I' for Inactive)
ROOT
ATOM      1  C2' OXE d   1      -1.415   0.356   0.478  0.00  0.00     0.078 C 
ATOM      2  C1' OXE d   1      -0.731  -2.334   0.058  0.00  0.00     0.078 C 
ATOM      3  C1  OXE d   1       0.237  -1.280  -0.417  0.00  0.00    -0.078 A 
ATOM      4  C2  OXE d   1      -0.127   0.035  -0.249  0.00  0.00    -0.078 A 
ATOM      5  C3  OXE d   1       0.754   1.047  -0.619  0.00  0.00     0.003 A 
ATOM      6  C4  OXE d   1       1.939   0.741  -1.300  0.00  0.00    -0.002 A 
ATOM      7  C5  OXE d   1       2.310  -0.590  -1.517  0.00  0.00    -0.002 A 
ATOM      8  C6  OXE d   1       1.492  -1.611  -1.044  0.00  0.00     0.003 A 
ENDROOT
TORSDOF 0
ENDMDL
