MODEL 1
REMARK minimizedAffinity -4.99198294
REMARK minimizedRMSD -1
REMARK  0 active torsions:
REMARK  status: ('A' for Active; 'I' for Inactive)
ROOT
ATOM      1  C2' OXE d   1       1.372  -1.793  -1.229  0.00  0.00     0.078 C 
ATOM      2  C1' OXE d   1       2.374   0.817  -0.975  0.00  0.00     0.078 C 
ATOM      3  C1  OXE d   1       1.116   0.470  -0.220  0.00  0.00    -0.078 A 
ATOM      4  C2  OXE d   1       0.606  -0.796  -0.387  0.00  0.00    -0.078 A 
ATOM      5  C3  OXE d   1      -0.522  -1.185   0.330  0.00  0.00     0.003 A 
ATOM      6  C4  OXE d   1      -1.229  -0.253   1.099  0.00  0.00    -0.002 A 
ATOM      7  C5  OXE d   1      -0.750   1.052   1.251  0.00  0.00    -0.002 A 
ATOM      8  C6  OXE d   1       0.442   1.417   0.634  0.00  0.00     0.003 A 
ENDROOT
TORSDOF 0
ENDMDL
