MODEL 1
REMARK minimizedAffinity -3.77936912
REMARK minimizedRMSD -1
REMARK  0 active torsions:
REMARK  status: ('A' for Active; 'I' for Inactive)
ROOT
ATOM      1  C2' OXE d   1       1.233   2.166  -1.473  0.00  0.00     0.078 C 
ATOM      2  C1' OXE d   1       2.429  -0.362  -1.233  0.00  0.00     0.078 C 
ATOM      3  C1  OXE d   1       0.941  -0.265  -1.011  0.00  0.00    -0.078 A 
ATOM      4  C2  OXE d   1       0.371   0.984  -1.084  0.00  0.00    -0.078 A 
ATOM      5  C3  OXE d   1      -1.006   1.123  -0.941  0.00  0.00     0.003 A 
ATOM      6  C4  OXE d   1      -1.795   0.026  -0.572  0.00  0.00    -0.002 A 
ATOM      7  C5  OXE d   1      -1.228  -1.248  -0.453  0.00  0.00    -0.002 A 
ATOM      8  C6  OXE d   1       0.128  -1.417  -0.711  0.00  0.00     0.003 A 
ENDROOT
TORSDOF 0
ENDMDL
