MODEL 1
REMARK minimizedAffinity -4.77122307
REMARK minimizedRMSD -1
REMARK  0 active torsions:
REMARK  status: ('A' for Active; 'I' for Inactive)
ROOT
ATOM      1  C2' OXE d   1      -1.393   0.036   0.493  0.00  0.00     0.078 C 
ATOM      2  C1' OXE d   1      -1.040  -2.598  -0.410  0.00  0.00     0.078 C 
ATOM      3  C1  OXE d   1       0.085  -1.620  -0.638  0.00  0.00    -0.078 A 
ATOM      4  C2  OXE d   1      -0.115  -0.322  -0.234  0.00  0.00    -0.078 A 
ATOM      5  C3  OXE d   1       0.912   0.609  -0.371  0.00  0.00     0.003 A 
ATOM      6  C4  OXE d   1       2.087   0.272  -1.053  0.00  0.00    -0.002 A 
ATOM      7  C5  OXE d   1       2.295  -1.035  -1.508  0.00  0.00    -0.002 A 
ATOM      8  C6  OXE d   1       1.324  -2.001  -1.270  0.00  0.00     0.003 A 
ENDROOT
TORSDOF 0
ENDMDL
