MODEL 1
REMARK minimizedAffinity -2.02257466
REMARK minimizedRMSD -1
REMARK  0 active torsions:
REMARK  status: ('A' for Active; 'I' for Inactive)
ROOT
ATOM      1  C2' OXE d   1      -0.021  -1.348   1.148  0.00  0.00     0.078 C 
ATOM      2  C1' OXE d   1      -2.333   0.204   1.507  0.00  0.00     0.078 C 
ATOM      3  C1  OXE d   1      -1.347   0.644   0.454  0.00  0.00    -0.078 A 
ATOM      4  C2  OXE d   1      -0.196  -0.095   0.317  0.00  0.00    -0.078 A 
ATOM      5  C3  OXE d   1       0.721   0.235  -0.677  0.00  0.00     0.003 A 
ATOM      6  C4  OXE d   1       0.556   1.401  -1.435  0.00  0.00    -0.002 A 
ATOM      7  C5  OXE d   1      -0.589   2.190  -1.284  0.00  0.00    -0.002 A 
ATOM      8  C6  OXE d   1      -1.568   1.803  -0.376  0.00  0.00     0.003 A 
ENDROOT
TORSDOF 0
ENDMDL
