MODEL 1
REMARK minimizedAffinity -4.37859964
REMARK minimizedRMSD -1
REMARK  0 active torsions:
REMARK  status: ('A' for Active; 'I' for Inactive)
ROOT
ATOM      1  C2' OXE d   1       0.034  -1.900   1.161  0.00  0.00     0.078 C 
ATOM      2  C1' OXE d   1      -2.072  -0.058   1.391  0.00  0.00     0.078 C 
ATOM      3  C1  OXE d   1      -0.963   0.258   0.418  0.00  0.00    -0.078 A 
ATOM      4  C2  OXE d   1       0.086  -0.626   0.346  0.00  0.00    -0.078 A 
ATOM      5  C3  OXE d   1       1.108  -0.410  -0.575  0.00  0.00     0.003 A 
ATOM      6  C4  OXE d   1       1.154   0.777  -1.317  0.00  0.00    -0.002 A 
ATOM      7  C5  OXE d   1       0.115   1.709  -1.230  0.00  0.00    -0.002 A 
ATOM      8  C6  OXE d   1      -0.970   1.446  -0.401  0.00  0.00     0.003 A 
ENDROOT
TORSDOF 0
ENDMDL
