MODEL 1
REMARK minimizedAffinity -3.88764167
REMARK minimizedRMSD -1
REMARK  0 active torsions:
REMARK  status: ('A' for Active; 'I' for Inactive)
ROOT
ATOM      1  C2' OXE d   1      -0.168  -2.358   0.251  0.00  0.00     0.078 C 
ATOM      2  C1' OXE d   1      -1.069   0.300   0.270  0.00  0.00     0.078 C 
ATOM      3  C1  OXE d   1       0.292   0.023  -0.317  0.00  0.00    -0.078 A 
ATOM      4  C2  OXE d   1       0.744  -1.274  -0.280  0.00  0.00    -0.078 A 
ATOM      5  C3  OXE d   1       1.970  -1.594  -0.858  0.00  0.00     0.003 A 
ATOM      6  C4  OXE d   1       2.812  -0.583  -1.338  0.00  0.00    -0.002 A 
ATOM      7  C5  OXE d   1       2.387   0.750  -1.349  0.00  0.00    -0.002 A 
ATOM      8  C6  OXE d   1       1.115   1.063  -0.882  0.00  0.00     0.003 A 
ENDROOT
TORSDOF 0
ENDMDL
