MODEL 1
REMARK minimizedAffinity 0.703076363
REMARK minimizedRMSD -1
REMARK  0 active torsions:
REMARK  status: ('A' for Active; 'I' for Inactive)
ROOT
ATOM      1  C2' OXE d   1      -2.847  -0.145   1.109  0.00  0.00     0.078 C 
ATOM      2  C1' OXE d   1      -1.272   2.051   1.871  0.00  0.00     0.078 C 
ATOM      3  C1  OXE d   1      -0.657   1.031   0.945  0.00  0.00    -0.078 A 
ATOM      4  C2  OXE d   1      -1.418  -0.064   0.615  0.00  0.00    -0.078 A 
ATOM      5  C3  OXE d   1      -0.919  -1.007  -0.279  0.00  0.00     0.003 A 
ATOM      6  C4  OXE d   1       0.406  -0.929  -0.724  0.00  0.00    -0.002 A 
ATOM      7  C5  OXE d   1       1.212   0.157  -0.368  0.00  0.00    -0.002 A 
ATOM      8  C6  OXE d   1       0.683   1.166   0.430  0.00  0.00     0.003 A 
ENDROOT
TORSDOF 0
ENDMDL
