MODEL 1
REMARK minimizedAffinity 9.0717392
REMARK minimizedRMSD -1
REMARK  1 active torsions:
REMARK  status: ('A' for Active; 'I' for Inactive)
REMARK    1  A    between atoms: C1_2  and  C2_3 
ROOT
ATOM      1  C2  UNL d   1       4.307  -2.915   5.227  0.00  0.00    -0.073 A 
ATOM      2  C3  UNL d   1       3.032  -3.264   4.769  0.00  0.00    -0.002 A 
ATOM      3  C4  UNL d   1       2.193  -2.296   4.215  0.00  0.00     0.004 A 
ATOM      4  C5  UNL d   1       2.623  -0.973   4.107  0.00  0.00    -0.004 A 
ATOM      5  C6  UNL d   1       3.899  -0.608   4.548  0.00  0.00    -0.075 A 
ATOM      6  C7  UNL d   1       4.375   0.811   4.441  0.00  0.00     0.076 C 
ATOM      7  C8  UNL d   1       4.734  -1.585   5.106  0.00  0.00     0.001 A 
ENDROOT
BRANCH   1   8
ATOM      8  C1  UNL d   1       5.219  -3.958   5.821  0.00  0.00     0.053 C 
ATOM      9  C   UNL d   1       6.000  -4.707   4.752  0.00  0.00     0.018 C 
ENDBRANCH   1   8
TORSDOF 1
ENDMDL
