MODEL 1
REMARK minimizedAffinity 10.6809855
REMARK minimizedRMSD -1
REMARK  1 active torsions:
REMARK  status: ('A' for Active; 'I' for Inactive)
REMARK    1  A    between atoms: C1_2  and  C2_3 
ROOT
ATOM      1  C2  UNL d   1      -1.251  -3.502  -4.832  0.00  0.00    -0.073 A 
ATOM      2  C3  UNL d   1      -1.818  -3.750  -3.577  0.00  0.00    -0.002 A 
ATOM      3  C4  UNL d   1      -1.541  -2.907  -2.499  0.00  0.00     0.004 A 
ATOM      4  C5  UNL d   1      -0.701  -1.806  -2.667  0.00  0.00    -0.004 A 
ATOM      5  C6  UNL d   1      -0.134  -1.536  -3.917  0.00  0.00    -0.075 A 
ATOM      6  C7  UNL d   1       0.774  -0.357  -4.113  0.00  0.00     0.076 C 
ATOM      7  C8  UNL d   1      -0.415  -2.388  -4.993  0.00  0.00     0.001 A 
ENDROOT
BRANCH   1   8
ATOM      8  C1  UNL d   1      -1.553  -4.406  -6.000  0.00  0.00     0.053 C 
ATOM      9  C   UNL d   1      -2.999  -4.874  -5.999  0.00  0.00     0.018 C 
ENDBRANCH   1   8
TORSDOF 1
ENDMDL
