MODEL 1
REMARK minimizedAffinity 5.73811722
REMARK minimizedRMSD -1
REMARK  1 active torsions:
REMARK  status: ('A' for Active; 'I' for Inactive)
REMARK    1  A    between atoms: C1_2  and  C2_3 
ROOT
ATOM      1  C2  UNL d   1      -1.141  -2.552  -4.423  0.00  0.00    -0.073 A 
ATOM      2  C3  UNL d   1      -1.118  -3.043  -5.734  0.00  0.00    -0.002 A 
ATOM      3  C4  UNL d   1      -1.489  -4.362  -5.999  0.00  0.00     0.004 A 
ATOM      4  C5  UNL d   1      -1.892  -5.201  -4.960  0.00  0.00    -0.004 A 
ATOM      5  C6  UNL d   1      -1.933  -4.725  -3.645  0.00  0.00    -0.075 A 
ATOM      6  C7  UNL d   1      -2.363  -5.615  -2.516  0.00  0.00     0.076 C 
ATOM      7  C8  UNL d   1      -1.557  -3.400  -3.387  0.00  0.00     0.001 A 
ENDROOT
BRANCH   1   8
ATOM      8  C1  UNL d   1      -0.748  -1.127  -4.133  0.00  0.00     0.053 C 
ATOM      9  C   UNL d   1       0.705  -0.853  -4.486  0.00  0.00     0.018 C 
ENDBRANCH   1   8
TORSDOF 1
ENDMDL
