MODEL 1
REMARK minimizedAffinity 10.7823706
REMARK minimizedRMSD -1
REMARK  1 active torsions:
REMARK  status: ('A' for Active; 'I' for Inactive)
REMARK    1  A    between atoms: C1_2  and  C2_3 
ROOT
ATOM      1  C2  UNL d   1       1.066   0.231   3.063  0.00  0.00    -0.073 A 
ATOM      2  C3  UNL d   1       1.068  -1.054   2.509  0.00  0.00    -0.002 A 
ATOM      3  C4  UNL d   1      -0.030  -1.506   1.775  0.00  0.00     0.004 A 
ATOM      4  C5  UNL d   1      -1.135  -0.678   1.582  0.00  0.00    -0.004 A 
ATOM      5  C6  UNL d   1      -1.150   0.614   2.118  0.00  0.00    -0.075 A 
ATOM      6  C7  UNL d   1      -2.332   1.517   1.920  0.00  0.00     0.076 C 
ATOM      7  C8  UNL d   1      -0.045   1.060   2.856  0.00  0.00     0.001 A 
ENDROOT
BRANCH   1   8
ATOM      8  C1  UNL d   1       2.252   0.726   3.851  0.00  0.00     0.053 C 
ATOM      9  C   UNL d   1       3.419   1.098   2.951  0.00  0.00     0.018 C 
ENDBRANCH   1   8
TORSDOF 1
ENDMDL
