MODEL 1
REMARK minimizedAffinity 0.388840497
REMARK minimizedRMSD -1
REMARK  1 active torsions:
REMARK  status: ('A' for Active; 'I' for Inactive)
REMARK    1  A    between atoms: C1_2  and  C2_3 
ROOT
ATOM      1  C2  UNL d   1       3.373  -2.762   5.116  0.00  0.00    -0.073 A 
ATOM      2  C3  UNL d   1       2.186  -3.257   4.564  0.00  0.00    -0.002 A 
ATOM      3  C4  UNL d   1       1.401  -2.448   3.741  0.00  0.00     0.004 A 
ATOM      4  C5  UNL d   1       1.798  -1.141   3.456  0.00  0.00    -0.004 A 
ATOM      5  C6  UNL d   1       2.987  -0.633   3.989  0.00  0.00    -0.075 A 
ATOM      6  C7  UNL d   1       3.426   0.771   3.694  0.00  0.00     0.076 C 
ATOM      7  C8  UNL d   1       3.768  -1.450   4.816  0.00  0.00     0.001 A 
ENDROOT
BRANCH   1   8
ATOM      8  C1  UNL d   1       4.228  -3.633   6.000  0.00  0.00     0.053 C 
ATOM      9  C   UNL d   1       5.057  -4.622   5.195  0.00  0.00     0.018 C 
ENDBRANCH   1   8
TORSDOF 1
ENDMDL
