MODEL 1
REMARK minimizedAffinity 17.1871643
REMARK minimizedRMSD -1
REMARK  1 active torsions:
REMARK  status: ('A' for Active; 'I' for Inactive)
REMARK    1  A    between atoms: C1_2  and  C2_3 
ROOT
ATOM      1  C2  UNL d   1       0.567  -3.771   5.209  0.00  0.00    -0.073 A 
ATOM      2  C3  UNL d   1       0.270  -3.127   4.003  0.00  0.00    -0.002 A 
ATOM      3  C4  UNL d   1       1.280  -2.500   3.272  0.00  0.00     0.004 A 
ATOM      4  C5  UNL d   1       2.596  -2.516   3.736  0.00  0.00    -0.004 A 
ATOM      5  C6  UNL d   1       2.914  -3.164   4.933  0.00  0.00    -0.075 A 
ATOM      6  C7  UNL d   1       4.323  -3.188   5.447  0.00  0.00     0.076 C 
ATOM      7  C8  UNL d   1       1.893  -3.789   5.663  0.00  0.00     0.001 A 
ENDROOT
BRANCH   1   8
ATOM      8  C1  UNL d   1      -0.519  -4.455   5.999  0.00  0.00     0.053 C 
ATOM      9  C   UNL d   1      -0.357  -5.967   5.999  0.00  0.00     0.018 C 
ENDBRANCH   1   8
TORSDOF 1
ENDMDL
