MODEL 1
REMARK minimizedAffinity 16.4171638
REMARK minimizedRMSD -1
REMARK  1 active torsions:
REMARK  status: ('A' for Active; 'I' for Inactive)
REMARK    1  A    between atoms: C1_2  and  C2_3 
ROOT
ATOM      1  C2  UNL d   1       1.197  -1.654  -4.680  0.00  0.00    -0.073 A 
ATOM      2  C3  UNL d   1       2.437  -1.270  -4.156  0.00  0.00    -0.002 A 
ATOM      3  C4  UNL d   1       3.529  -2.137  -4.222  0.00  0.00     0.004 A 
ATOM      4  C5  UNL d   1       3.394  -3.391  -4.817  0.00  0.00    -0.004 A 
ATOM      5  C6  UNL d   1       2.167  -3.788  -5.357  0.00  0.00    -0.075 A 
ATOM      6  C7  UNL d   1       2.005  -5.134  -6.000  0.00  0.00     0.076 C 
ATOM      7  C8  UNL d   1       1.074  -2.913  -5.285  0.00  0.00     0.001 A 
ENDROOT
BRANCH   1   8
ATOM      8  C1  UNL d   1       0.018  -0.719  -4.616  0.00  0.00     0.053 C 
ATOM      9  C   UNL d   1      -0.518  -0.382  -5.999  0.00  0.00     0.018 C 
ENDBRANCH   1   8
TORSDOF 1
ENDMDL
