MODEL 1
REMARK minimizedAffinity 18.2410755
REMARK minimizedRMSD -1
REMARK  1 active torsions:
REMARK  status: ('A' for Active; 'I' for Inactive)
REMARK    1  A    between atoms: C1_2  and  C2_3 
ROOT
ATOM      1  C2  UNL d   1       0.845  -0.073   2.983  0.00  0.00    -0.073 A 
ATOM      2  C3  UNL d   1       1.168  -1.266   2.324  0.00  0.00    -0.002 A 
ATOM      3  C4  UNL d   1       0.256  -1.857   1.450  0.00  0.00     0.004 A 
ATOM      4  C5  UNL d   1      -0.984  -1.261   1.219  0.00  0.00    -0.004 A 
ATOM      5  C6  UNL d   1      -1.320  -0.063   1.858  0.00  0.00    -0.075 A 
ATOM      6  C7  UNL d   1      -2.651   0.590   1.622  0.00  0.00     0.076 C 
ATOM      7  C8  UNL d   1      -0.400   0.523   2.737  0.00  0.00     0.001 A 
ENDROOT
BRANCH   1   8
ATOM      8  C1  UNL d   1       1.829   0.573   3.923  0.00  0.00     0.053 C 
ATOM      9  C   UNL d   1       3.254   0.108   3.665  0.00  0.00     0.018 C 
ENDBRANCH   1   8
TORSDOF 1
ENDMDL
