MODEL 1
REMARK minimizedAffinity -2.50908089
REMARK minimizedRMSD -1
REMARK  1 active torsions:
REMARK  status: ('A' for Active; 'I' for Inactive)
REMARK    1  A    between atoms: C1_2  and  C2_3 
ROOT
ATOM      1  C2  UNL d   1       4.455  -3.645  -1.123  0.00  0.00    -0.077 A 
ATOM      2  C3  UNL d   1       4.226  -2.275  -1.314  0.00  0.00     0.002 A 
ATOM      3  C4  UNL d   1       3.859  -1.789  -2.570  0.00  0.00     0.002 A 
ATOM      4  C5  UNL d   1       3.715  -2.665  -3.644  0.00  0.00    -0.004 A 
ATOM      5  C6  UNL d   1       3.943  -4.029  -3.465  0.00  0.00     0.002 A 
ATOM      6  C7  UNL d   1       4.310  -4.517  -2.210  0.00  0.00     0.002 A 
ENDROOT
BRANCH   1   7
ATOM      7  C1  UNL d   1       4.801  -4.179   0.242  0.00  0.00     0.055 C 
ATOM      8  C   UNL d   1       5.576  -5.485   0.146  0.00  0.00     0.019 C 
ENDBRANCH   1   7
TORSDOF 1
ENDMDL
