MODEL 1
REMARK minimizedAffinity 4.93373013
REMARK minimizedRMSD -1
REMARK  1 active torsions:
REMARK  status: ('A' for Active; 'I' for Inactive)
REMARK    1  A    between atoms: C1_2  and  C2_3 
ROOT
ATOM      1  C2  UNL d   1       2.907  -4.663  -1.526  0.00  0.00    -0.077 A 
ATOM      2  C3  UNL d   1       3.650  -4.188  -2.616  0.00  0.00     0.002 A 
ATOM      3  C4  UNL d   1       4.423  -3.032  -2.493  0.00  0.00     0.002 A 
ATOM      4  C5  UNL d   1       4.465  -2.346  -1.282  0.00  0.00    -0.004 A 
ATOM      5  C6  UNL d   1       3.728  -2.809  -0.192  0.00  0.00     0.002 A 
ATOM      6  C7  UNL d   1       2.953  -3.964  -0.314  0.00  0.00     0.002 A 
ENDROOT
BRANCH   1   7
ATOM      7  C1  UNL d   1       2.111  -5.937  -1.643  0.00  0.00     0.055 C 
ATOM      8  C   UNL d   1       1.342  -5.992  -2.955  0.00  0.00     0.019 C 
ENDBRANCH   1   7
TORSDOF 1
ENDMDL
