MODEL 1
REMARK minimizedAffinity 2.75068831
REMARK minimizedRMSD -1
REMARK  1 active torsions:
REMARK  status: ('A' for Active; 'I' for Inactive)
REMARK    1  A    between atoms: C1_2  and  C2_3 
ROOT
ATOM      1  C2  UNL d   1      -2.367   1.141  -1.764  0.00  0.00    -0.077 A 
ATOM      2  C3  UNL d   1      -3.099   2.242  -2.231  0.00  0.00     0.002 A 
ATOM      3  C4  UNL d   1      -4.485   2.287  -2.071  0.00  0.00     0.002 A 
ATOM      4  C5  UNL d   1      -5.150   1.238  -1.441  0.00  0.00    -0.004 A 
ATOM      5  C6  UNL d   1      -4.432   0.138  -0.974  0.00  0.00     0.002 A 
ATOM      6  C7  UNL d   1      -3.046   0.090  -1.134  0.00  0.00     0.002 A 
ENDROOT
BRANCH   1   7
ATOM      7  C1  UNL d   1      -0.866   1.113  -1.891  0.00  0.00     0.055 C 
ATOM      8  C   UNL d   1      -0.226   2.281  -1.155  0.00  0.00     0.019 C 
ENDBRANCH   1   7
TORSDOF 1
ENDMDL
