MODEL 1
REMARK minimizedAffinity -2.88122869
REMARK minimizedRMSD -1
REMARK  1 active torsions:
REMARK  status: ('A' for Active; 'I' for Inactive)
REMARK    1  A    between atoms: N_2  and  C1_3 
ROOT
ATOM      1  C1  UNL d   1      -0.212   1.051   1.509  0.00  0.00     0.143 A 
ATOM      2  C2  UNL d   1       1.053   0.607   1.109  0.00  0.00    -0.057 A 
ATOM      3  C3  UNL d   1       1.218  -0.168  -0.045  0.00  0.00     0.033 A 
ATOM      4  C4  UNL d   1       0.114  -0.539  -0.806  0.00  0.00    -0.042 A 
ATOM      5  C5  UNL d   1      -1.155  -0.130  -0.413  0.00  0.00     0.033 A 
ATOM      6  C6  UNL d   1      -1.313   0.650   0.737  0.00  0.00    -0.057 A 
ENDROOT
BRANCH   1   7
ATOM      7  N   UNL d   1      -0.453   1.741   2.700  0.00  0.00    -0.732 N 
ATOM      8  C   UNL d   1      -1.045   1.066   3.836  0.00  0.00     0.284 C 
ATOM      9  H3  UNL d   1       0.304   2.375   2.942  0.00  0.00     0.395 HD
ENDBRANCH   1   7
TORSDOF 1
ENDMDL
