MODEL 1
REMARK minimizedAffinity -1.6672163
REMARK minimizedRMSD -1
REMARK  1 active torsions:
REMARK  status: ('A' for Active; 'I' for Inactive)
REMARK    1  A    between atoms: N_2  and  C1_3 
ROOT
ATOM      1  C1  UNL d   1      -1.440  -0.133   1.755  0.00  0.00     0.143 A 
ATOM      2  C2  UNL d   1      -1.681  -0.650   0.478  0.00  0.00    -0.057 A 
ATOM      3  C3  UNL d   1      -0.764  -0.467  -0.564  0.00  0.00     0.033 A 
ATOM      4  C4  UNL d   1       0.400   0.265  -0.354  0.00  0.00    -0.042 A 
ATOM      5  C5  UNL d   1       0.648   0.809   0.901  0.00  0.00     0.033 A 
ATOM      6  C6  UNL d   1      -0.268   0.617   1.939  0.00  0.00    -0.057 A 
ENDROOT
BRANCH   1   7
ATOM      7  N   UNL d   1      -2.358  -0.197   2.807  0.00  0.00    -0.732 N 
ATOM      8  C   UNL d   1      -2.780  -1.475   3.340  0.00  0.00     0.284 C 
ATOM      9  H3  UNL d   1      -2.188   0.513   3.515  0.00  0.00     0.395 HD
ENDBRANCH   1   7
TORSDOF 1
ENDMDL
