MODEL 1
REMARK minimizedAffinity -4.4384923
REMARK minimizedRMSD -1
REMARK  1 active torsions:
REMARK  status: ('A' for Active; 'I' for Inactive)
REMARK    1  A    between atoms: N_2  and  C1_3 
ROOT
ATOM      1  C1  UNL d   1      -0.266  -0.666  -0.032  0.00  0.00     0.143 A 
ATOM      2  C2  UNL d   1      -1.619  -0.794   0.299  0.00  0.00    -0.057 A 
ATOM      3  C3  UNL d   1      -2.121  -0.299   1.508  0.00  0.00     0.033 A 
ATOM      4  C4  UNL d   1      -1.269   0.309   2.425  0.00  0.00    -0.042 A 
ATOM      5  C5  UNL d   1       0.084   0.425   2.128  0.00  0.00     0.033 A 
ATOM      6  C6  UNL d   1       0.578  -0.066   0.915  0.00  0.00    -0.057 A 
ENDROOT
BRANCH   1   7
ATOM      7  N   UNL d   1       0.312  -1.224  -1.175  0.00  0.00    -0.732 N 
ATOM      8  C   UNL d   1       0.374  -0.474  -2.411  0.00  0.00     0.284 C 
ATOM      9  H3  UNL d   1       1.157  -1.751  -0.965  0.00  0.00     0.395 HD
ENDBRANCH   1   7
TORSDOF 1
ENDMDL
