MODEL 1
REMARK minimizedAffinity 11.7604952
REMARK minimizedRMSD -1
REMARK  0 active torsions:
REMARK  status: ('A' for Active; 'I' for Inactive)
ROOT
ATOM      1  C2' OXE d   1      -0.751   2.332  -5.235  0.00  0.00     0.078 C 
ATOM      2  C1' OXE d   1      -3.524   2.268  -4.804  0.00  0.00     0.078 C 
ATOM      3  C1  OXE d   1      -2.824   3.598  -4.682  0.00  0.00    -0.078 A 
ATOM      4  C2  OXE d   1      -1.460   3.612  -4.848  0.00  0.00    -0.078 A 
ATOM      5  C3  OXE d   1      -0.772   4.821  -4.800  0.00  0.00     0.003 A 
ATOM      6  C4  OXE d   1      -1.433   5.999  -4.432  0.00  0.00    -0.002 A 
ATOM      7  C5  OXE d   1      -2.816   6.000  -4.219  0.00  0.00    -0.002 A 
ATOM      8  C6  OXE d   1      -3.531   4.818  -4.381  0.00  0.00     0.003 A 
ENDROOT
TORSDOF 0
ENDMDL
