MODEL 1
REMARK minimizedAffinity 14.4861441
REMARK minimizedRMSD -1
REMARK  0 active torsions:
REMARK  status: ('A' for Active; 'I' for Inactive)
ROOT
ATOM      1  C2' OXE d   1      -4.911   1.906   1.562  0.00  0.00     0.078 C 
ATOM      2  C1' OXE d   1      -2.524   2.203   0.116  0.00  0.00     0.078 C 
ATOM      3  C1  OXE d   1      -3.231   3.456   0.572  0.00  0.00    -0.078 A 
ATOM      4  C2  OXE d   1      -4.423   3.302   1.238  0.00  0.00    -0.078 A 
ATOM      5  C3  OXE d   1      -5.088   4.422   1.728  0.00  0.00     0.003 A 
ATOM      6  C4  OXE d   1      -4.634   5.709   1.415  0.00  0.00    -0.002 A 
ATOM      7  C5  OXE d   1      -3.444   5.889   0.703  0.00  0.00    -0.002 A 
ATOM      8  C6  OXE d   1      -2.709   4.775   0.312  0.00  0.00     0.003 A 
ENDROOT
TORSDOF 0
ENDMDL
