MODEL 1
REMARK minimizedAffinity 19.5749435
REMARK minimizedRMSD -1
REMARK  0 active torsions:
REMARK  status: ('A' for Active; 'I' for Inactive)
ROOT
ATOM      1  C2' OXE d   1      -1.213   2.616   0.484  0.00  0.00     0.078 C 
ATOM      2  C1' OXE d   1      -3.715   1.863   1.510  0.00  0.00     0.078 C 
ATOM      3  C1  OXE d   1      -3.492   3.322   1.200  0.00  0.00    -0.078 A 
ATOM      4  C2  OXE d   1      -2.250   3.688   0.742  0.00  0.00    -0.078 A 
ATOM      5  C3  OXE d   1      -2.008   5.013   0.389  0.00  0.00     0.003 A 
ATOM      6  C4  OXE d   1      -2.969   6.000   0.640  0.00  0.00    -0.002 A 
ATOM      7  C5  OXE d   1      -4.227   5.654   1.143  0.00  0.00    -0.002 A 
ATOM      8  C6  OXE d   1      -4.519   4.317   1.387  0.00  0.00     0.003 A 
ENDROOT
TORSDOF 0
ENDMDL
