MODEL 1
REMARK minimizedAffinity 17.5310268
REMARK minimizedRMSD -1
REMARK  0 active torsions:
REMARK  status: ('A' for Active; 'I' for Inactive)
ROOT
ATOM      1  C2' OXE d   1      -1.919   0.970   2.790  0.00  0.00     0.078 C 
ATOM      2  C1' OXE d   1       0.868   1.061   2.466  0.00  0.00     0.078 C 
ATOM      3  C1  OXE d   1       0.023   1.870   1.515  0.00  0.00    -0.078 A 
ATOM      4  C2  OXE d   1      -1.342   1.784   1.651  0.00  0.00    -0.078 A 
ATOM      5  C3  OXE d   1      -2.166   2.553   0.835  0.00  0.00     0.003 A 
ATOM      6  C4  OXE d   1      -1.625   3.294  -0.222  0.00  0.00    -0.002 A 
ATOM      7  C5  OXE d   1      -0.240   3.365  -0.403  0.00  0.00    -0.002 A 
ATOM      8  C6  OXE d   1       0.599   2.694   0.481  0.00  0.00     0.003 A 
ENDROOT
TORSDOF 0
ENDMDL
