MODEL 1
REMARK minimizedAffinity 24.960516
REMARK minimizedRMSD -1
REMARK  0 active torsions:
REMARK  status: ('A' for Active; 'I' for Inactive)
ROOT
ATOM      1  C2' OXE d   1       5.951  -2.655   1.716  0.00  0.00     0.078 C 
ATOM      2  C1' OXE d   1       5.895  -5.396   2.320  0.00  0.00     0.078 C 
ATOM      3  C1  OXE d   1       5.932  -4.997   0.866  0.00  0.00    -0.078 A 
ATOM      4  C2  OXE d   1       5.911  -3.653   0.579  0.00  0.00    -0.078 A 
ATOM      5  C3  OXE d   1       5.999  -3.229  -0.744  0.00  0.00     0.003 A 
ATOM      6  C4  OXE d   1       5.952  -4.158  -1.791  0.00  0.00    -0.002 A 
ATOM      7  C5  OXE d   1       5.932  -5.531  -1.521  0.00  0.00    -0.002 A 
ATOM      8  C6  OXE d   1       5.965  -5.966  -0.201  0.00  0.00     0.003 A 
ENDROOT
TORSDOF 0
ENDMDL
