MODEL 1
REMARK minimizedAffinity -1.71039248
REMARK minimizedRMSD -1
REMARK  0 active torsions:
REMARK  status: ('A' for Active; 'I' for Inactive)
ROOT
ATOM      1  C2' OXE d   1      -1.901   3.019  -3.024  0.00  0.00     0.078 C 
ATOM      2  C1' OXE d   1      -4.277   2.249  -4.305  0.00  0.00     0.078 C 
ATOM      3  C1  OXE d   1      -3.657   3.565  -4.704  0.00  0.00    -0.078 A 
ATOM      4  C2  OXE d   1      -2.520   3.955  -4.039  0.00  0.00    -0.078 A 
ATOM      5  C3  OXE d   1      -1.876   5.134  -4.407  0.00  0.00     0.003 A 
ATOM      6  C4  OXE d   1      -2.461   5.999  -5.339  0.00  0.00    -0.002 A 
ATOM      7  C5  OXE d   1      -3.640   5.639  -6.000  0.00  0.00    -0.002 A 
ATOM      8  C6  OXE d   1      -4.227   4.409  -5.726  0.00  0.00     0.003 A 
ENDROOT
TORSDOF 0
ENDMDL
