MODEL 1
REMARK minimizedAffinity 15.1025829
REMARK minimizedRMSD -1
REMARK  0 active torsions:
REMARK  status: ('A' for Active; 'I' for Inactive)
ROOT
ATOM      1  C2' OXE d   1      -3.378   2.252  -4.130  0.00  0.00     0.078 C 
ATOM      2  C1' OXE d   1      -1.124   3.186  -2.742  0.00  0.00     0.078 C 
ATOM      3  C1  OXE d   1      -1.656   4.033  -3.870  0.00  0.00    -0.078 A 
ATOM      4  C2  OXE d   1      -2.731   3.546  -4.574  0.00  0.00    -0.078 A 
ATOM      5  C3  OXE d   1      -3.296   4.313  -5.589  0.00  0.00     0.003 A 
ATOM      6  C4  OXE d   1      -2.686   5.505  -6.000  0.00  0.00    -0.002 A 
ATOM      7  C5  OXE d   1      -1.566   5.999  -5.322  0.00  0.00    -0.002 A 
ATOM      8  C6  OXE d   1      -1.066   5.299  -4.231  0.00  0.00     0.003 A 
ENDROOT
TORSDOF 0
ENDMDL
