MODEL 1
REMARK minimizedAffinity 11.3850365
REMARK minimizedRMSD -1
REMARK  0 active torsions:
REMARK  status: ('A' for Active; 'I' for Inactive)
ROOT
ATOM      1  C2' OXE d   1      -1.659   3.013  -2.870  0.00  0.00     0.078 C 
ATOM      2  C1' OXE d   1      -3.756   2.051  -4.469  0.00  0.00     0.078 C 
ATOM      3  C1  OXE d   1      -3.230   3.435  -4.757  0.00  0.00    -0.078 A 
ATOM      4  C2  OXE d   1      -2.236   3.915  -3.939  0.00  0.00    -0.078 A 
ATOM      5  C3  OXE d   1      -1.677   5.164  -4.195  0.00  0.00     0.003 A 
ATOM      6  C4  OXE d   1      -2.222   5.997  -5.180  0.00  0.00    -0.002 A 
ATOM      7  C5  OXE d   1      -3.262   5.542  -5.998  0.00  0.00    -0.002 A 
ATOM      8  C6  OXE d   1      -3.748   4.250  -5.827  0.00  0.00     0.003 A 
ENDROOT
TORSDOF 0
ENDMDL
