MODEL 1
REMARK minimizedAffinity 9.79073524
REMARK minimizedRMSD -1
REMARK  0 active torsions:
REMARK  status: ('A' for Active; 'I' for Inactive)
ROOT
ATOM      1  C2' OXE d   1      -1.922  -3.765   3.972  0.00  0.00     0.078 C 
ATOM      2  C1' OXE d   1      -2.623  -1.955   6.000  0.00  0.00     0.078 C 
ATOM      3  C1  OXE d   1      -3.697  -2.877   5.477  0.00  0.00    -0.078 A 
ATOM      4  C2  OXE d   1      -3.357  -3.727   4.453  0.00  0.00    -0.078 A 
ATOM      5  C3  OXE d   1      -4.295  -4.635   3.971  0.00  0.00     0.003 A 
ATOM      6  C4  OXE d   1      -5.622  -4.586   4.414  0.00  0.00    -0.002 A 
ATOM      7  C5  OXE d   1      -5.999  -3.701   5.429  0.00  0.00    -0.002 A 
ATOM      8  C6  OXE d   1      -5.041  -2.871   6.000  0.00  0.00     0.003 A 
ENDROOT
TORSDOF 0
ENDMDL
