MODEL 1
REMARK minimizedAffinity 1.0162977
REMARK minimizedRMSD -1
REMARK  0 active torsions:
REMARK  status: ('A' for Active; 'I' for Inactive)
ROOT
ATOM      1  C2' OXE d   1      -3.751   1.831  -4.334  0.00  0.00     0.078 C 
ATOM      2  C1' OXE d   1      -5.401   3.385  -5.991  0.00  0.00     0.078 C 
ATOM      3  C1  OXE d   1      -4.189   4.047  -5.385  0.00  0.00    -0.078 A 
ATOM      4  C2  OXE d   1      -3.413   3.292  -4.538  0.00  0.00    -0.078 A 
ATOM      5  C3  OXE d   1      -2.253   3.838  -3.996  0.00  0.00     0.003 A 
ATOM      6  C4  OXE d   1      -1.953   5.192  -4.182  0.00  0.00    -0.002 A 
ATOM      7  C5  OXE d   1      -2.752   5.990  -5.008  0.00  0.00    -0.002 A 
ATOM      8  C6  OXE d   1      -3.847   5.423  -5.650  0.00  0.00     0.003 A 
ENDROOT
TORSDOF 0
ENDMDL
