MODEL 1
REMARK minimizedAffinity 2.41674042
REMARK minimizedRMSD -1
REMARK  0 active torsions:
REMARK  status: ('A' for Active; 'I' for Inactive)
ROOT
ATOM      1  C2' OXE d   1      -1.968   2.739  -3.317  0.00  0.00     0.078 C 
ATOM      2  C1' OXE d   1      -4.141   1.984  -4.926  0.00  0.00     0.078 C 
ATOM      3  C1  OXE d   1      -3.629   3.397  -5.052  0.00  0.00    -0.078 A 
ATOM      4  C2  OXE d   1      -2.596   3.772  -4.228  0.00  0.00    -0.078 A 
ATOM      5  C3  OXE d   1      -2.050   5.047  -4.342  0.00  0.00     0.003 A 
ATOM      6  C4  OXE d   1      -2.644   5.999  -5.180  0.00  0.00    -0.002 A 
ATOM      7  C5  OXE d   1      -3.722   5.650  -6.000  0.00  0.00    -0.002 A 
ATOM      8  C6  OXE d   1      -4.199   4.344  -5.979  0.00  0.00     0.003 A 
ENDROOT
TORSDOF 0
ENDMDL
