MODEL 1
REMARK minimizedAffinity 19.5279083
REMARK minimizedRMSD -1
REMARK  0 active torsions:
REMARK  status: ('A' for Active; 'I' for Inactive)
ROOT
ATOM      1  C2' OXE d   1       1.462  -5.999  -2.561  0.00  0.00     0.078 C 
ATOM      2  C1' OXE d   1       4.047  -5.755  -1.492  0.00  0.00     0.078 C 
ATOM      3  C1  OXE d   1       3.035  -4.695  -1.135  0.00  0.00    -0.078 A 
ATOM      4  C2  OXE d   1       1.786  -4.797  -1.700  0.00  0.00    -0.078 A 
ATOM      5  C3  OXE d   1       0.799  -3.877  -1.360  0.00  0.00     0.003 A 
ATOM      6  C4  OXE d   1       1.110  -2.763  -0.571  0.00  0.00    -0.002 A 
ATOM      7  C5  OXE d   1       2.386  -2.618  -0.018  0.00  0.00    -0.002 A 
ATOM      8  C6  OXE d   1       3.346  -3.596  -0.255  0.00  0.00     0.003 A 
ENDROOT
TORSDOF 0
ENDMDL
