MODEL 1
REMARK minimizedAffinity 0.0666705817
REMARK minimizedRMSD -1
REMARK  0 active torsions:
REMARK  status: ('A' for Active; 'I' for Inactive)
ROOT
ATOM      1  C2' OXE d   1      -0.000   1.554   0.671  0.00  0.00     0.078 C 
ATOM      2  C1' OXE d   1       0.572   4.297   0.491  0.00  0.00     0.078 C 
ATOM      3  C1  OXE d   1      -0.235   3.672  -0.620  0.00  0.00    -0.078 A 
ATOM      4  C2  OXE d   1      -0.471   2.320  -0.546  0.00  0.00    -0.078 A 
ATOM      5  C3  OXE d   1      -1.256   1.704  -1.516  0.00  0.00     0.003 A 
ATOM      6  C4  OXE d   1      -1.679   2.417  -2.645  0.00  0.00    -0.002 A 
ATOM      7  C5  OXE d   1      -1.416   3.786  -2.759  0.00  0.00    -0.002 A 
ATOM      8  C6  OXE d   1      -0.733   4.436  -1.736  0.00  0.00     0.003 A 
ENDROOT
TORSDOF 0
ENDMDL
