MODEL 1
REMARK minimizedAffinity 14.4183979
REMARK minimizedRMSD -1
REMARK  0 active torsions:
REMARK  status: ('A' for Active; 'I' for Inactive)
ROOT
ATOM      1  C2' OXE d   1      -1.249   2.100   0.307  0.00  0.00     0.078 C 
ATOM      2  C1' OXE d   1      -2.872   1.346   2.469  0.00  0.00     0.078 C 
ATOM      3  C1  OXE d   1      -1.468   1.806   2.771  0.00  0.00    -0.078 A 
ATOM      4  C2  OXE d   1      -0.665   2.129   1.703  0.00  0.00    -0.078 A 
ATOM      5  C3  OXE d   1       0.621   2.611   1.928  0.00  0.00     0.003 A 
ATOM      6  C4  OXE d   1       1.156   2.626   3.222  0.00  0.00    -0.002 A 
ATOM      7  C5  OXE d   1       0.369   2.264   4.320  0.00  0.00    -0.002 A 
ATOM      8  C6  OXE d   1      -0.956   1.893   4.116  0.00  0.00     0.003 A 
ENDROOT
TORSDOF 0
ENDMDL
