MODEL 1
REMARK minimizedAffinity 25.1915874
REMARK minimizedRMSD -1
REMARK  0 active torsions:
REMARK  status: ('A' for Active; 'I' for Inactive)
ROOT
ATOM      1  C2' OXE d   1      -4.956   6.000   2.070  0.00  0.00     0.078 C 
ATOM      2  C1' OXE d   1      -2.435   5.991   0.835  0.00  0.00     0.078 C 
ATOM      3  C1  OXE d   1      -3.632   5.629  -0.008  0.00  0.00    -0.078 A 
ATOM      4  C2  OXE d   1      -4.856   5.590   0.616  0.00  0.00    -0.078 A 
ATOM      5  C3  OXE d   1      -6.000   5.315  -0.127  0.00  0.00     0.003 A 
ATOM      6  C4  OXE d   1      -5.898   4.927  -1.469  0.00  0.00    -0.002 A 
ATOM      7  C5  OXE d   1      -4.656   4.921  -2.113  0.00  0.00    -0.002 A 
ATOM      8  C6  OXE d   1      -3.521   5.310  -1.410  0.00  0.00     0.003 A 
ENDROOT
TORSDOF 0
ENDMDL
