MODEL 1
REMARK minimizedAffinity 7.50713539
REMARK minimizedRMSD -1
REMARK  0 active torsions:
REMARK  status: ('A' for Active; 'I' for Inactive)
ROOT
ATOM      1  C2' OXE d   1      -5.767  -2.769   5.088  0.00  0.00     0.078 C 
ATOM      2  C1' OXE d   1      -5.999  -5.523   5.581  0.00  0.00     0.078 C 
ATOM      3  C1  OXE d   1      -5.941  -5.068   4.145  0.00  0.00    -0.078 A 
ATOM      4  C2  OXE d   1      -5.875  -3.715   3.912  0.00  0.00    -0.078 A 
ATOM      5  C3  OXE d   1      -5.764  -3.244   2.607  0.00  0.00     0.003 A 
ATOM      6  C4  OXE d   1      -5.874  -4.125   1.524  0.00  0.00    -0.002 A 
ATOM      7  C5  OXE d   1      -5.983  -5.504   1.738  0.00  0.00    -0.002 A 
ATOM      8  C6  OXE d   1      -5.974  -5.994   3.040  0.00  0.00     0.003 A 
ENDROOT
TORSDOF 0
ENDMDL
