MODEL 1
REMARK minimizedAffinity 13.5214624
REMARK minimizedRMSD -1
REMARK  0 active torsions:
REMARK  status: ('A' for Active; 'I' for Inactive)
ROOT
ATOM      1  C2' OXE d   1       0.354  -0.013   3.004  0.00  0.00     0.078 C 
ATOM      2  C1' OXE d   1      -2.118  -0.630   4.182  0.00  0.00     0.078 C 
ATOM      3  C1  OXE d   1      -2.094   0.432   3.111  0.00  0.00    -0.078 A 
ATOM      4  C2  OXE d   1      -0.873   0.760   2.573  0.00  0.00    -0.078 A 
ATOM      5  C3  OXE d   1      -0.802   1.694   1.543  0.00  0.00     0.003 A 
ATOM      6  C4  OXE d   1      -1.941   2.412   1.158  0.00  0.00    -0.002 A 
ATOM      7  C5  OXE d   1      -3.188   2.121   1.721  0.00  0.00    -0.002 A 
ATOM      8  C6  OXE d   1      -3.289   1.106   2.666  0.00  0.00     0.003 A 
ENDROOT
TORSDOF 0
ENDMDL
