MODEL 1
REMARK minimizedAffinity 17.1276283
REMARK minimizedRMSD -1
REMARK  0 active torsions:
REMARK  status: ('A' for Active; 'I' for Inactive)
ROOT
ATOM      1  C2' OXE d   1       1.368   2.675  -2.301  0.00  0.00     0.078 C 
ATOM      2  C1' OXE d   1      -1.375   2.494  -2.873  0.00  0.00     0.078 C 
ATOM      3  C1  OXE d   1      -0.940   2.297  -1.442  0.00  0.00    -0.078 A 
ATOM      4  C2  OXE d   1       0.408   2.341  -1.180  0.00  0.00    -0.078 A 
ATOM      5  C3  OXE d   1       0.859   2.219   0.132  0.00  0.00     0.003 A 
ATOM      6  C4  OXE d   1      -0.034   1.900   1.162  0.00  0.00    -0.002 A 
ATOM      7  C5  OXE d   1      -1.407   1.812   0.909  0.00  0.00    -0.002 A 
ATOM      8  C6  OXE d   1      -1.880   2.049  -0.377  0.00  0.00     0.003 A 
ENDROOT
TORSDOF 0
ENDMDL
