MODEL 1
REMARK minimizedAffinity 20.7791386
REMARK minimizedRMSD -1
REMARK  0 active torsions:
REMARK  status: ('A' for Active; 'I' for Inactive)
ROOT
ATOM      1  C2' OXE d   1       1.387   4.086  -1.782  0.00  0.00     0.078 C 
ATOM      2  C1' OXE d   1      -1.346   4.028  -2.421  0.00  0.00     0.078 C 
ATOM      3  C1  OXE d   1      -0.898   3.299  -1.179  0.00  0.00    -0.078 A 
ATOM      4  C2  OXE d   1       0.448   3.294  -0.899  0.00  0.00    -0.078 A 
ATOM      5  C3  OXE d   1       0.908   2.683   0.263  0.00  0.00     0.003 A 
ATOM      6  C4  OXE d   1       0.034   1.943   1.069  0.00  0.00    -0.002 A 
ATOM      7  C5  OXE d   1      -1.334   1.902   0.781  0.00  0.00    -0.002 A 
ATOM      8  C6  OXE d   1      -1.822   2.609  -0.313  0.00  0.00     0.003 A 
ENDROOT
TORSDOF 0
ENDMDL
