MODEL 1
REMARK minimizedAffinity 16.2640076
REMARK minimizedRMSD -1
REMARK  0 active torsions:
REMARK  status: ('A' for Active; 'I' for Inactive)
ROOT
ATOM      1  C2' OXE d   1      -3.160   1.705   1.347  0.00  0.00     0.078 C 
ATOM      2  C1' OXE d   1      -3.365   4.353   0.437  0.00  0.00     0.078 C 
ATOM      3  C1  OXE d   1      -2.083   3.610   0.156  0.00  0.00    -0.078 A 
ATOM      4  C2  OXE d   1      -1.974   2.330   0.645  0.00  0.00    -0.078 A 
ATOM      5  C3  OXE d   1      -0.834   1.581   0.367  0.00  0.00     0.003 A 
ATOM      6  C4  OXE d   1       0.263   2.170  -0.274  0.00  0.00    -0.002 A 
ATOM      7  C5  OXE d   1       0.187   3.485  -0.746  0.00  0.00    -0.002 A 
ATOM      8  C6  OXE d   1      -0.992   4.203  -0.577  0.00  0.00     0.003 A 
ENDROOT
TORSDOF 0
ENDMDL
