MODEL 1
REMARK minimizedAffinity 9.1046114
REMARK minimizedRMSD -1
REMARK  0 active torsions:
REMARK  status: ('A' for Active; 'I' for Inactive)
ROOT
ATOM      1  C   UNL d   1       3.409   1.851   1.538  0.00  0.00    -0.002 A 
ATOM      2  C1  UNL d   1       3.747   3.003   2.234  0.00  0.00     0.010 A 
ATOM      3  C2  UNL d   1       4.547   2.933   3.376  0.00  0.00     0.041 A 
ATOM      4  C3  UNL d   1       5.007   1.675   3.810  0.00  0.00    -0.075 A 
ATOM      5  S   UNL d   1       5.999   1.347   5.182  0.00  0.00     0.015 SA
ATOM      6  C4  UNL d   1       5.999  -0.330   4.875  0.00  0.00     0.022 A 
ATOM      7  C5  UNL d   1       5.264  -0.649   3.757  0.00  0.00     0.026 A 
ATOM      8  C6  UNL d   1       4.681   0.501   3.125  0.00  0.00    -0.082 A 
ATOM      9  C7  UNL d   1       3.868   0.605   1.971  0.00  0.00     0.045 A 
ENDROOT
TORSDOF 0
ENDMDL
