MODEL 1
REMARK minimizedAffinity 6.76604986
REMARK minimizedRMSD -1
REMARK  0 active torsions:
REMARK  status: ('A' for Active; 'I' for Inactive)
ROOT
ATOM      1  C   UNL d   1      -0.939  -2.369  -0.454  0.00  0.00    -0.002 A 
ATOM      2  C1  UNL d   1      -1.658  -2.006   0.676  0.00  0.00     0.010 A 
ATOM      3  C2  UNL d   1      -1.906  -0.661   0.958  0.00  0.00     0.041 A 
ATOM      4  C3  UNL d   1      -1.415   0.322   0.077  0.00  0.00    -0.075 A 
ATOM      5  S   UNL d   1      -1.597   2.030   0.219  0.00  0.00     0.015 SA
ATOM      6  C4  UNL d   1      -0.726   2.318  -1.217  0.00  0.00     0.022 A 
ATOM      7  C5  UNL d   1      -0.298   1.151  -1.803  0.00  0.00     0.026 A 
ATOM      8  C6  UNL d   1      -0.689  -0.019  -1.068  0.00  0.00    -0.082 A 
ATOM      9  C7  UNL d   1      -0.454  -1.391  -1.326  0.00  0.00     0.045 A 
ENDROOT
TORSDOF 0
ENDMDL
