MODEL 1
REMARK minimizedAffinity -2.02301502
REMARK minimizedRMSD -1
REMARK  0 active torsions:
REMARK  status: ('A' for Active; 'I' for Inactive)
ROOT
ATOM      1  C   UNL d   1      -2.499  -0.814   1.078  0.00  0.00    -0.002 A 
ATOM      2  C1  UNL d   1      -2.250  -0.283   2.336  0.00  0.00     0.010 A 
ATOM      3  C2  UNL d   1      -2.379   1.089   2.566  0.00  0.00     0.041 A 
ATOM      4  C3  UNL d   1      -2.768   1.925   1.500  0.00  0.00    -0.075 A 
ATOM      5  S   UNL d   1      -2.991   3.633   1.548  0.00  0.00     0.015 SA
ATOM      6  C4  UNL d   1      -3.423   3.698  -0.099  0.00  0.00     0.022 A 
ATOM      7  C5  UNL d   1      -3.403   2.455  -0.687  0.00  0.00     0.026 A 
ATOM      8  C6  UNL d   1      -3.025   1.413   0.225  0.00  0.00    -0.082 A 
ATOM      9  C7  UNL d   1      -2.885   0.018   0.024  0.00  0.00     0.045 A 
ENDROOT
TORSDOF 0
ENDMDL
