MODEL 1
REMARK minimizedAffinity 0.902796149
REMARK minimizedRMSD -1
REMARK  0 active torsions:
REMARK  status: ('A' for Active; 'I' for Inactive)
ROOT
ATOM      1  C   UNL d   1      -2.126  -1.239   2.591  0.00  0.00    -0.002 A 
ATOM      2  C1  UNL d   1      -2.876  -0.438   3.442  0.00  0.00     0.010 A 
ATOM      3  C2  UNL d   1      -3.259   0.847   3.053  0.00  0.00     0.041 A 
ATOM      4  C3  UNL d   1      -2.873   1.318   1.783  0.00  0.00    -0.075 A 
ATOM      5  S   UNL d   1      -3.228   2.858   1.093  0.00  0.00     0.015 SA
ATOM      6  C4  UNL d   1      -2.394   2.489  -0.347  0.00  0.00     0.022 A 
ATOM      7  C5  UNL d   1      -1.852   1.226  -0.319  0.00  0.00     0.026 A 
ATOM      8  C6  UNL d   1      -2.119   0.530   0.908  0.00  0.00    -0.082 A 
ATOM      9  C7  UNL d   1      -1.746  -0.768   1.332  0.00  0.00     0.045 A 
ENDROOT
TORSDOF 0
ENDMDL
