MODEL 1
REMARK minimizedAffinity 0.73744458
REMARK minimizedRMSD -1
REMARK  0 active torsions:
REMARK  status: ('A' for Active; 'I' for Inactive)
ROOT
ATOM      1  C   UNL d   1      -2.729  -0.393   1.357  0.00  0.00    -0.002 A 
ATOM      2  C1  UNL d   1      -2.567   0.079   2.651  0.00  0.00     0.010 A 
ATOM      3  C2  UNL d   1      -2.718   1.437   2.936  0.00  0.00     0.041 A 
ATOM      4  C3  UNL d   1      -3.041   2.322   1.888  0.00  0.00    -0.075 A 
ATOM      5  S   UNL d   1      -3.276   4.026   2.001  0.00  0.00     0.015 SA
ATOM      6  C4  UNL d   1      -3.599   4.167   0.333  0.00  0.00     0.022 A 
ATOM      7  C5  UNL d   1      -3.532   2.953  -0.309  0.00  0.00     0.026 A 
ATOM      8  C6  UNL d   1      -3.210   1.870   0.576  0.00  0.00    -0.082 A 
ATOM      9  C7  UNL d   1      -3.049   0.487   0.319  0.00  0.00     0.045 A 
ENDROOT
TORSDOF 0
ENDMDL
