MODEL 1
REMARK minimizedAffinity 4.45859289
REMARK minimizedRMSD -1
REMARK  0 active torsions:
REMARK  status: ('A' for Active; 'I' for Inactive)
ROOT
ATOM      1  C   UNL d   1       2.323  -2.443   0.892  0.00  0.00    -0.002 A 
ATOM      2  C1  UNL d   1       2.242  -2.999   2.161  0.00  0.00     0.010 A 
ATOM      3  C2  UNL d   1       2.772  -2.330   3.265  0.00  0.00     0.041 A 
ATOM      4  C3  UNL d   1       3.389  -1.078   3.072  0.00  0.00    -0.075 A 
ATOM      5  S   UNL d   1       4.107  -0.076   4.277  0.00  0.00     0.015 SA
ATOM      6  C4  UNL d   1       4.538   1.115   3.137  0.00  0.00     0.022 A 
ATOM      7  C5  UNL d   1       4.151   0.773   1.863  0.00  0.00     0.026 A 
ATOM      8  C6  UNL d   1       3.482  -0.497   1.805  0.00  0.00    -0.082 A 
ATOM      9  C7  UNL d   1       2.935  -1.201   0.705  0.00  0.00     0.045 A 
ENDROOT
TORSDOF 0
ENDMDL
