MODEL 1
REMARK minimizedAffinity 18.2320461
REMARK minimizedRMSD -1
REMARK  0 active torsions:
REMARK  status: ('A' for Active; 'I' for Inactive)
ROOT
ATOM      1  C   UNL d   1      -5.319   5.873   5.936  0.00  0.00    -0.002 A 
ATOM      2  C1  UNL d   1      -3.957   5.608   5.953  0.00  0.00     0.010 A 
ATOM      3  C2  UNL d   1      -3.247   5.460   4.760  0.00  0.00     0.041 A 
ATOM      4  C3  UNL d   1      -3.935   5.586   3.537  0.00  0.00    -0.075 A 
ATOM      5  S   UNL d   1      -3.272   5.445   1.952  0.00  0.00     0.015 SA
ATOM      6  C4  UNL d   1      -4.781   5.734   1.214  0.00  0.00     0.022 A 
ATOM      7  C5  UNL d   1      -5.778   5.935   2.140  0.00  0.00     0.026 A 
ATOM      8  C6  UNL d   1      -5.306   5.853   3.494  0.00  0.00    -0.082 A 
ATOM      9  C7  UNL d   1      -5.998   5.997   4.721  0.00  0.00     0.045 A 
ENDROOT
TORSDOF 0
ENDMDL
