MODEL 1
REMARK minimizedAffinity 8.04498005
REMARK minimizedRMSD -1
REMARK  0 active torsions:
REMARK  status: ('A' for Active; 'I' for Inactive)
ROOT
ATOM      1  C   UNL d   1       3.397   2.249   1.109  0.00  0.00    -0.002 A 
ATOM      2  C1  UNL d   1       3.693   0.905   0.928  0.00  0.00     0.010 A 
ATOM      3  C2  UNL d   1       4.480   0.221   1.856  0.00  0.00     0.041 A 
ATOM      4  C3  UNL d   1       4.968   0.915   2.980  0.00  0.00    -0.075 A 
ATOM      5  S   UNL d   1       5.950   0.282   4.248  0.00  0.00     0.015 SA
ATOM      6  C4  UNL d   1       6.000   1.780   5.059  0.00  0.00     0.022 A 
ATOM      7  C5  UNL d   1       5.290   2.751   4.393  0.00  0.00     0.026 A 
ATOM      8  C6  UNL d   1       4.683   2.269   3.184  0.00  0.00    -0.082 A 
ATOM      9  C7  UNL d   1       3.883   2.935   2.225  0.00  0.00     0.045 A 
ENDROOT
TORSDOF 0
ENDMDL
