MODEL 1
REMARK minimizedAffinity 4.06009817
REMARK minimizedRMSD -1
REMARK  0 active torsions:
REMARK  status: ('A' for Active; 'I' for Inactive)
ROOT
ATOM      1  C   UNL d   1      -2.639  -1.130   3.771  0.00  0.00    -0.002 A 
ATOM      2  C1  UNL d   1      -3.917  -0.766   4.171  0.00  0.00     0.010 A 
ATOM      3  C2  UNL d   1      -4.865  -0.354   3.233  0.00  0.00     0.041 A 
ATOM      4  C3  UNL d   1      -4.504  -0.315   1.872  0.00  0.00    -0.075 A 
ATOM      5  S   UNL d   1      -5.500   0.156   0.545  0.00  0.00     0.015 SA
ATOM      6  C4  UNL d   1      -4.253  -0.117  -0.584  0.00  0.00     0.022 A 
ATOM      7  C5  UNL d   1      -3.098  -0.556   0.018  0.00  0.00     0.026 A 
ATOM      8  C6  UNL d   1      -3.224  -0.678   1.444  0.00  0.00    -0.082 A 
ATOM      9  C7  UNL d   1      -2.285  -1.091   2.419  0.00  0.00     0.045 A 
ENDROOT
TORSDOF 0
ENDMDL
