MODEL 1
REMARK minimizedAffinity 1.17275023
REMARK minimizedRMSD -1
REMARK  0 active torsions:
REMARK  status: ('A' for Active; 'I' for Inactive)
ROOT
ATOM      1  C   UNL d   1       5.619   1.283   3.602  0.00  0.00    -0.002 A 
ATOM      2  C1  UNL d   1       5.856   1.155   4.963  0.00  0.00     0.010 A 
ATOM      3  C2  UNL d   1       5.988   2.285   5.771  0.00  0.00     0.041 A 
ATOM      4  C3  UNL d   1       5.874   3.561   5.183  0.00  0.00    -0.075 A 
ATOM      5  S   UNL d   1       5.999   5.086   5.976  0.00  0.00     0.015 SA
ATOM      6  C4  UNL d   1       5.740   5.945   4.527  0.00  0.00     0.022 A 
ATOM      7  C5  UNL d   1       5.561   5.104   3.454  0.00  0.00     0.026 A 
ATOM      8  C6  UNL d   1       5.635   3.716   3.815  0.00  0.00    -0.082 A 
ATOM      9  C7  UNL d   1       5.507   2.550   3.022  0.00  0.00     0.045 A 
ENDROOT
TORSDOF 0
ENDMDL
