MODEL 1
REMARK minimizedAffinity 6.0676136
REMARK minimizedRMSD -1
REMARK  0 active torsions:
REMARK  status: ('A' for Active; 'I' for Inactive)
ROOT
ATOM      1  C   UNL d   1       2.974  -1.551   2.219  0.00  0.00    -0.002 A 
ATOM      2  C1  UNL d   1       2.962  -2.179   3.456  0.00  0.00     0.010 A 
ATOM      3  C2  UNL d   1       3.727  -1.681   4.513  0.00  0.00     0.041 A 
ATOM      4  C3  UNL d   1       4.510  -0.529   4.304  0.00  0.00    -0.075 A 
ATOM      5  S   UNL d   1       5.525   0.261   5.452  0.00  0.00     0.015 SA
ATOM      6  C4  UNL d   1       5.998   1.451   4.328  0.00  0.00     0.022 A 
ATOM      7  C5  UNL d   1       5.405   1.266   3.101  0.00  0.00     0.026 A 
ATOM      8  C6  UNL d   1       4.537   0.122   3.067  0.00  0.00    -0.082 A 
ATOM      9  C7  UNL d   1       3.752  -0.408   2.015  0.00  0.00     0.045 A 
ENDROOT
TORSDOF 0
ENDMDL
