MODEL 1
REMARK minimizedAffinity 8.92336369
REMARK minimizedRMSD -1
REMARK  0 active torsions:
REMARK  status: ('A' for Active; 'I' for Inactive)
ROOT
ATOM      1  C   UNL d   1       5.817   5.315   4.699  0.00  0.00    -0.002 A 
ATOM      2  C1  UNL d   1       5.502   5.405   3.351  0.00  0.00     0.010 A 
ATOM      3  C2  UNL d   1       5.356   4.253   2.576  0.00  0.00     0.041 A 
ATOM      4  C3  UNL d   1       5.532   2.995   3.186  0.00  0.00    -0.075 A 
ATOM      5  S   UNL d   1       5.402   1.448   2.436  0.00  0.00     0.015 SA
ATOM      6  C4  UNL d   1       5.761   0.631   3.888  0.00  0.00     0.022 A 
ATOM      7  C5  UNL d   1       5.978   1.501   4.929  0.00  0.00     0.026 A 
ATOM      8  C6  UNL d   1       5.849   2.878   4.543  0.00  0.00    -0.082 A 
ATOM      9  C7  UNL d   1       5.991   4.065   5.301  0.00  0.00     0.045 A 
ENDROOT
TORSDOF 0
ENDMDL
