MODEL 1
REMARK minimizedAffinity 2.98583817
REMARK minimizedRMSD -1
REMARK  0 active torsions:
REMARK  status: ('A' for Active; 'I' for Inactive)
ROOT
ATOM      1  C1  DEN d   1       1.101  -0.965   0.461  0.00  0.00     0.130 A 
ATOM      2  C2  DEN d   1      -0.297  -0.893   0.877  0.00  0.00    -0.031 A 
ATOM      3  C3  DEN d   1      -0.778   0.480   0.623  0.00  0.00     0.027 A 
ATOM      4  C4  DEN d   1       0.498   2.489  -0.372  0.00  0.00     0.027 A 
ATOM      5  C5  DEN d   1       1.711   2.915  -0.865  0.00  0.00    -0.003 A 
ATOM      6  C6  DEN d   1       2.806   2.095  -0.919  0.00  0.00     0.001 A 
ATOM      7  C7  DEN d   1       2.698   0.790  -0.513  0.00  0.00     0.017 A 
ATOM      8  C8  DEN d   1       1.480   0.355  -0.008  0.00  0.00    -0.094 A 
ATOM      9  C9  DEN d   1       0.381   1.197   0.027  0.00  0.00    -0.072 A 
ENDROOT
TORSDOF 0
ENDMDL
