MODEL 1
REMARK minimizedAffinity 9.7433939
REMARK minimizedRMSD -1
REMARK  0 active torsions:
REMARK  status: ('A' for Active; 'I' for Inactive)
ROOT
ATOM      1  C1  DEN d   1       2.305  -3.491  -4.242  0.00  0.00     0.130 A 
ATOM      2  C2  DEN d   1       1.496  -4.661  -3.913  0.00  0.00    -0.031 A 
ATOM      3  C3  DEN d   1       2.370  -5.850  -3.964  0.00  0.00     0.027 A 
ATOM      4  C4  DEN d   1       4.885  -5.992  -4.515  0.00  0.00     0.027 A 
ATOM      5  C5  DEN d   1       6.000  -5.265  -4.870  0.00  0.00    -0.003 A 
ATOM      6  C6  DEN d   1       5.954  -3.911  -5.073  0.00  0.00     0.001 A 
ATOM      7  C7  DEN d   1       4.778  -3.235  -4.877  0.00  0.00     0.017 A 
ATOM      8  C8  DEN d   1       3.649  -3.963  -4.526  0.00  0.00    -0.094 A 
ATOM      9  C9  DEN d   1       3.719  -5.329  -4.314  0.00  0.00    -0.072 A 
ENDROOT
TORSDOF 0
ENDMDL
