MODEL 1
REMARK minimizedAffinity 2.47378898
REMARK minimizedRMSD -1
REMARK  0 active torsions:
REMARK  status: ('A' for Active; 'I' for Inactive)
ROOT
ATOM      1  C1  DEN d   1       0.207   2.734  -0.652  0.00  0.00     0.130 A 
ATOM      2  C2  DEN d   1       1.494   3.183  -1.176  0.00  0.00    -0.031 A 
ATOM      3  C3  DEN d   1       2.458   2.074  -1.031  0.00  0.00     0.027 A 
ATOM      4  C4  DEN d   1       2.084  -0.284  -0.056  0.00  0.00     0.027 A 
ATOM      5  C5  DEN d   1       1.160  -1.125   0.525  0.00  0.00    -0.003 A 
ATOM      6  C6  DEN d   1      -0.126  -0.730   0.784  0.00  0.00     0.001 A 
ATOM      7  C7  DEN d   1      -0.537   0.525   0.419  0.00  0.00     0.017 A 
ATOM      8  C8  DEN d   1       0.391   1.380  -0.161  0.00  0.00    -0.094 A 
ATOM      9  C9  DEN d   1       1.683   0.959  -0.425  0.00  0.00    -0.072 A 
ENDROOT
TORSDOF 0
ENDMDL
