MODEL 1
REMARK minimizedAffinity 8.67327976
REMARK minimizedRMSD -1
REMARK  0 active torsions:
REMARK  status: ('A' for Active; 'I' for Inactive)
ROOT
ATOM      1  C1  DEN d   1      -5.140  -4.755   0.493  0.00  0.00     0.130 A 
ATOM      2  C2  DEN d   1      -4.321  -3.590   0.818  0.00  0.00    -0.031 A 
ATOM      3  C3  DEN d   1      -3.712  -3.097  -0.434  0.00  0.00     0.027 A 
ATOM      4  C4  DEN d   1      -3.960  -4.017  -2.831  0.00  0.00     0.027 A 
ATOM      5  C5  DEN d   1      -4.542  -4.999  -3.602  0.00  0.00    -0.003 A 
ATOM      6  C6  DEN d   1      -5.330  -5.980  -3.062  0.00  0.00     0.001 A 
ATOM      7  C7  DEN d   1      -5.595  -5.975  -1.718  0.00  0.00     0.017 A 
ATOM      8  C8  DEN d   1      -5.005  -4.993  -0.933  0.00  0.00    -0.094 A 
ATOM      9  C9  DEN d   1      -4.222  -4.002  -1.500  0.00  0.00    -0.072 A 
ENDROOT
TORSDOF 0
ENDMDL
