MODEL 1
REMARK minimizedAffinity 0.592532992
REMARK minimizedRMSD -1
REMARK  0 active torsions:
REMARK  status: ('A' for Active; 'I' for Inactive)
ROOT
ATOM      1  C1  DEN d   1       0.929  -0.627   0.379  0.00  0.00     0.130 A 
ATOM      2  C2  DEN d   1      -0.468  -0.536   0.794  0.00  0.00    -0.031 A 
ATOM      3  C3  DEN d   1      -0.936   0.838   0.523  0.00  0.00     0.027 A 
ATOM      4  C4  DEN d   1       0.358   2.822  -0.496  0.00  0.00     0.027 A 
ATOM      5  C5  DEN d   1       1.576   3.231  -0.994  0.00  0.00    -0.003 A 
ATOM      6  C6  DEN d   1       2.664   2.400  -1.037  0.00  0.00     0.001 A 
ATOM      7  C7  DEN d   1       2.543   1.102  -0.616  0.00  0.00     0.017 A 
ATOM      8  C8  DEN d   1       1.321   0.684  -0.106  0.00  0.00    -0.094 A 
ATOM      9  C9  DEN d   1       0.230   1.536  -0.082  0.00  0.00    -0.072 A 
ENDROOT
TORSDOF 0
ENDMDL
