MODEL 1
REMARK minimizedAffinity 9.69001865
REMARK minimizedRMSD -1
REMARK  0 active torsions:
REMARK  status: ('A' for Active; 'I' for Inactive)
ROOT
ATOM      1  C1  DEN d   1      -1.130   4.239  -2.151  0.00  0.00     0.130 A 
ATOM      2  C2  DEN d   1       0.298   4.137  -1.866  0.00  0.00    -0.031 A 
ATOM      3  C3  DEN d   1       0.475   3.179  -0.757  0.00  0.00     0.027 A 
ATOM      4  C4  DEN d   1      -1.314   1.846   0.537  0.00  0.00     0.027 A 
ATOM      5  C5  DEN d   1      -2.665   1.609   0.662  0.00  0.00    -0.003 A 
ATOM      6  C6  DEN d   1      -3.594   2.252  -0.113  0.00  0.00     0.001 A 
ATOM      7  C7  DEN d   1      -3.181   3.131  -1.079  0.00  0.00     0.017 A 
ATOM      8  C8  DEN d   1      -1.821   3.381  -1.206  0.00  0.00    -0.094 A 
ATOM      9  C9  DEN d   1      -0.897   2.711  -0.422  0.00  0.00    -0.072 A 
ENDROOT
TORSDOF 0
ENDMDL
