MODEL 1
REMARK minimizedAffinity 14.6109667
REMARK minimizedRMSD -1
REMARK  0 active torsions:
REMARK  status: ('A' for Active; 'I' for Inactive)
ROOT
ATOM      1  C1  DEN d   1       0.029   3.490  -6.000  0.00  0.00     0.130 A 
ATOM      2  C2  DEN d   1       1.447   3.840  -5.999  0.00  0.00    -0.031 A 
ATOM      3  C3  DEN d   1       1.923   3.815  -4.601  0.00  0.00     0.027 A 
ATOM      4  C4  DEN d   1       0.610   3.266  -2.450  0.00  0.00     0.027 A 
ATOM      5  C5  DEN d   1      -0.624   2.921  -1.946  0.00  0.00    -0.003 A 
ATOM      6  C6  DEN d   1      -1.726   2.775  -2.747  0.00  0.00     0.001 A 
ATOM      7  C7  DEN d   1      -1.605   2.932  -4.102  0.00  0.00     0.017 A 
ATOM      8  C8  DEN d   1      -0.365   3.287  -4.618  0.00  0.00    -0.094 A 
ATOM      9  C9  DEN d   1       0.739   3.418  -3.793  0.00  0.00    -0.072 A 
ENDROOT
TORSDOF 0
ENDMDL
