MODEL 1
REMARK minimizedAffinity -2.28315639
REMARK minimizedRMSD -1
REMARK  0 active torsions:
REMARK  status: ('A' for Active; 'I' for Inactive)
ROOT
ATOM      1  C1  DEN d   1       4.228  -2.000  -5.241  0.00  0.00     0.130 A 
ATOM      2  C2  DEN d   1       5.138  -1.388  -4.277  0.00  0.00    -0.031 A 
ATOM      3  C3  DEN d   1       5.994  -2.454  -3.717  0.00  0.00     0.027 A 
ATOM      4  C4  DEN d   1       6.000  -4.978  -4.251  0.00  0.00     0.027 A 
ATOM      5  C5  DEN d   1       5.400  -5.969  -4.995  0.00  0.00    -0.003 A 
ATOM      6  C6  DEN d   1       4.353  -5.715  -5.841  0.00  0.00     0.001 A 
ATOM      7  C7  DEN d   1       3.904  -4.430  -5.998  0.00  0.00     0.017 A 
ATOM      8  C8  DEN d   1       4.499  -3.426  -5.245  0.00  0.00    -0.094 A 
ATOM      9  C9  DEN d   1       5.564  -3.702  -4.404  0.00  0.00    -0.072 A 
ENDROOT
TORSDOF 0
ENDMDL
