MODEL 1
REMARK minimizedAffinity 13.9166832
REMARK minimizedRMSD -1
REMARK  0 active torsions:
REMARK  status: ('A' for Active; 'I' for Inactive)
ROOT
ATOM      1  C1  DEN d   1       2.455   0.843  -0.335  0.00  0.00     0.130 A 
ATOM      2  C2  DEN d   1       3.354  -0.194   0.164  0.00  0.00    -0.031 A 
ATOM      3  C3  DEN d   1       2.584  -1.071   1.068  0.00  0.00     0.027 A 
ATOM      4  C4  DEN d   1       0.097  -0.927   1.737  0.00  0.00     0.027 A 
ATOM      5  C5  DEN d   1      -1.069  -0.211   1.579  0.00  0.00    -0.003 A 
ATOM      6  C6  DEN d   1      -1.133   0.917   0.805  0.00  0.00     0.001 A 
ATOM      7  C7  DEN d   1      -0.021   1.337   0.123  0.00  0.00     0.017 A 
ATOM      8  C8  DEN d   1       1.160   0.624   0.284  0.00  0.00    -0.094 A 
ATOM      9  C9  DEN d   1       1.201  -0.521   1.061  0.00  0.00    -0.072 A 
ENDROOT
TORSDOF 0
ENDMDL
