MODEL 1
REMARK minimizedAffinity 9.19148254
REMARK minimizedRMSD -1
REMARK  0 active torsions:
REMARK  status: ('A' for Active; 'I' for Inactive)
ROOT
ATOM      1  C1  DEN d   1       1.148   3.918  -2.104  0.00  0.00     0.130 A 
ATOM      2  C2  DEN d   1       0.126   3.828  -1.064  0.00  0.00    -0.031 A 
ATOM      3  C3  DEN d   1       0.636   2.943   0.002  0.00  0.00     0.027 A 
ATOM      4  C4  DEN d   1       2.898   1.712   0.146  0.00  0.00     0.027 A 
ATOM      5  C5  DEN d   1       4.089   1.473  -0.504  0.00  0.00    -0.003 A 
ATOM      6  C6  DEN d   1       4.367   1.999  -1.737  0.00  0.00     0.001 A 
ATOM      7  C7  DEN d   1       3.460   2.830  -2.341  0.00  0.00     0.017 A 
ATOM      8  C8  DEN d   1       2.254   3.070  -1.695  0.00  0.00    -0.094 A 
ATOM      9  C9  DEN d   1       1.997   2.538  -0.443  0.00  0.00    -0.072 A 
ENDROOT
TORSDOF 0
ENDMDL
