MODEL 1
REMARK minimizedAffinity 3.32266808
REMARK minimizedRMSD -1
REMARK  0 active torsions:
REMARK  status: ('A' for Active; 'I' for Inactive)
ROOT
ATOM      1  C   UNL d   1      -3.422   5.210  -5.033  0.00  0.00     0.077 C 
ATOM      2  C1  UNL d   1      -3.067   3.754  -4.972  0.00  0.00    -0.074 A 
ATOM      3  C2  UNL d   1      -2.171   3.194  -5.888  0.00  0.00    -0.005 A 
ATOM      4  C3  UNL d   1      -1.843   1.840  -5.813  0.00  0.00     0.006 A 
ATOM      5  C4  UNL d   1      -2.406   1.035  -4.822  0.00  0.00    -0.005 A 
ATOM      6  C5  UNL d   1      -3.303   1.578  -3.897  0.00  0.00    -0.074 A 
ATOM      7  C6  UNL d   1      -3.909   0.728  -2.820  0.00  0.00     0.077 C 
ATOM      8  C7  UNL d   1      -3.622   2.940  -3.975  0.00  0.00    -0.001 A 
ENDROOT
TORSDOF 0
ENDMDL
