MODEL 1
REMARK minimizedAffinity 6.56192589
REMARK minimizedRMSD -1
REMARK  0 active torsions:
REMARK  status: ('A' for Active; 'I' for Inactive)
ROOT
ATOM      1  C   UNL d   1       2.341  -1.540   5.679  0.00  0.00     0.077 C 
ATOM      2  C1  UNL d   1       3.621  -2.144   5.184  0.00  0.00    -0.074 A 
ATOM      3  C2  UNL d   1       4.379  -2.991   5.999  0.00  0.00    -0.005 A 
ATOM      4  C3  UNL d   1       5.562  -3.554   5.522  0.00  0.00     0.006 A 
ATOM      5  C4  UNL d   1       6.000  -3.276   4.226  0.00  0.00    -0.005 A 
ATOM      6  C5  UNL d   1       5.255  -2.432   3.396  0.00  0.00    -0.074 A 
ATOM      7  C6  UNL d   1       5.706  -2.130   1.998  0.00  0.00     0.077 C 
ATOM      8  C7  UNL d   1       4.063  -1.876   3.881  0.00  0.00    -0.001 A 
ENDROOT
TORSDOF 0
ENDMDL
