MODEL 1
REMARK minimizedAffinity 9.98467159
REMARK minimizedRMSD -1
REMARK  0 active torsions:
REMARK  status: ('A' for Active; 'I' for Inactive)
ROOT
ATOM      1  C   UNL d   1      -5.991   5.447   1.752  0.00  0.00     0.077 C 
ATOM      2  C1  UNL d   1      -4.994   4.361   1.477  0.00  0.00    -0.074 A 
ATOM      3  C2  UNL d   1      -3.742   4.360   2.099  0.00  0.00    -0.005 A 
ATOM      4  C3  UNL d   1      -2.829   3.338   1.841  0.00  0.00     0.006 A 
ATOM      5  C4  UNL d   1      -3.158   2.308   0.958  0.00  0.00    -0.005 A 
ATOM      6  C5  UNL d   1      -4.406   2.292   0.327  0.00  0.00    -0.074 A 
ATOM      7  C6  UNL d   1      -4.779   1.188  -0.617  0.00  0.00     0.077 C 
ATOM      8  C7  UNL d   1      -5.321   3.319   0.597  0.00  0.00    -0.001 A 
ENDROOT
TORSDOF 0
ENDMDL
