MODEL 1
REMARK minimizedAffinity 9.52897549
REMARK minimizedRMSD -1
REMARK  0 active torsions:
REMARK  status: ('A' for Active; 'I' for Inactive)
ROOT
ATOM      1  C   UNL d   1       0.380   1.830   0.426  0.00  0.00     0.077 C 
ATOM      2  C1  UNL d   1       0.107   3.082  -0.354  0.00  0.00    -0.074 A 
ATOM      3  C2  UNL d   1      -1.197   3.428  -0.725  0.00  0.00    -0.005 A 
ATOM      4  C3  UNL d   1      -1.437   4.600  -1.442  0.00  0.00     0.006 A 
ATOM      5  C4  UNL d   1      -0.377   5.436  -1.796  0.00  0.00    -0.005 A 
ATOM      6  C5  UNL d   1       0.933   5.107  -1.433  0.00  0.00    -0.074 A 
ATOM      7  C6  UNL d   1       2.082   6.000  -1.797  0.00  0.00     0.077 C 
ATOM      8  C7  UNL d   1       1.165   3.931  -0.706  0.00  0.00    -0.001 A 
ENDROOT
TORSDOF 0
ENDMDL
