MODEL 1
REMARK minimizedAffinity 10.3994856
REMARK minimizedRMSD -1
REMARK  0 active torsions:
REMARK  status: ('A' for Active; 'I' for Inactive)
ROOT
ATOM      1  C   UNL d   1       1.770   5.848  -1.317  0.00  0.00     0.077 C 
ATOM      2  C1  UNL d   1       1.067   4.637  -0.781  0.00  0.00    -0.074 A 
ATOM      3  C2  UNL d   1       1.762   3.667  -0.050  0.00  0.00    -0.005 A 
ATOM      4  C3  UNL d   1       1.093   2.550   0.450  0.00  0.00     0.006 A 
ATOM      5  C4  UNL d   1      -0.275   2.391   0.225  0.00  0.00    -0.005 A 
ATOM      6  C5  UNL d   1      -0.986   3.350  -0.504  0.00  0.00    -0.074 A 
ATOM      7  C6  UNL d   1      -2.459   3.200  -0.747  0.00  0.00     0.077 C 
ATOM      8  C7  UNL d   1      -0.308   4.474  -0.997  0.00  0.00    -0.001 A 
ENDROOT
TORSDOF 0
ENDMDL
