MODEL 1
REMARK minimizedAffinity 2.59802151
REMARK minimizedRMSD -1
REMARK  0 active torsions:
REMARK  status: ('A' for Active; 'I' for Inactive)
ROOT
ATOM      1  C   UNL d   1      -3.268   3.841  -5.454  0.00  0.00     0.077 C 
ATOM      2  C1  UNL d   1      -2.141   2.952  -5.020  0.00  0.00    -0.074 A 
ATOM      3  C2  UNL d   1      -1.638   1.961  -5.869  0.00  0.00    -0.005 A 
ATOM      4  C3  UNL d   1      -0.583   1.148  -5.455  0.00  0.00     0.006 A 
ATOM      5  C4  UNL d   1      -0.022   1.317  -4.188  0.00  0.00    -0.005 A 
ATOM      6  C5  UNL d   1      -0.511   2.302  -3.325  0.00  0.00    -0.074 A 
ATOM      7  C6  UNL d   1       0.088   2.504  -1.965  0.00  0.00     0.077 C 
ATOM      8  C7  UNL d   1      -1.566   3.120  -3.752  0.00  0.00    -0.001 A 
ENDROOT
TORSDOF 0
ENDMDL
