MODEL 1
REMARK minimizedAffinity 10.9597473
REMARK minimizedRMSD -1
REMARK  0 active torsions:
REMARK  status: ('A' for Active; 'I' for Inactive)
ROOT
ATOM      1  C   UNL d   1      -4.900   1.238  -0.446  0.00  0.00     0.077 C 
ATOM      2  C1  UNL d   1      -4.343   2.337   0.410  0.00  0.00    -0.074 A 
ATOM      3  C2  UNL d   1      -3.001   2.332   0.802  0.00  0.00    -0.005 A 
ATOM      4  C3  UNL d   1      -2.495   3.366   1.591  0.00  0.00     0.006 A 
ATOM      5  C4  UNL d   1      -3.325   4.412   1.994  0.00  0.00    -0.005 A 
ATOM      6  C5  UNL d   1      -4.669   4.435   1.611  0.00  0.00    -0.074 A 
ATOM      7  C6  UNL d   1      -5.573   5.557   2.027  0.00  0.00     0.077 C 
ATOM      8  C7  UNL d   1      -5.169   3.396   0.813  0.00  0.00    -0.001 A 
ENDROOT
TORSDOF 0
ENDMDL
