MODEL 1
REMARK minimizedAffinity 2.71474218
REMARK minimizedRMSD -1
REMARK  0 active torsions:
REMARK  status: ('A' for Active; 'I' for Inactive)
ROOT
ATOM      1  C   UNL d   1       1.059   0.920   1.336  0.00  0.00     0.077 C 
ATOM      2  C1  UNL d   1       0.747   2.228   0.673  0.00  0.00    -0.074 A 
ATOM      3  C2  UNL d   1      -0.574   2.599   0.401  0.00  0.00    -0.005 A 
ATOM      4  C3  UNL d   1      -0.850   3.823  -0.207  0.00  0.00     0.006 A 
ATOM      5  C4  UNL d   1       0.190   4.688  -0.549  0.00  0.00    -0.005 A 
ATOM      6  C5  UNL d   1       1.517   4.335  -0.284  0.00  0.00    -0.074 A 
ATOM      7  C6  UNL d   1       2.647   5.257  -0.636  0.00  0.00     0.077 C 
ATOM      8  C7  UNL d   1       1.786   3.106   0.334  0.00  0.00    -0.001 A 
ENDROOT
TORSDOF 0
ENDMDL
