MODEL 1
REMARK minimizedAffinity 8.9424324
REMARK minimizedRMSD -1
REMARK  0 active torsions:
REMARK  status: ('A' for Active; 'I' for Inactive)
ROOT
ATOM      1  C   UNL d   1       0.360   1.345  -0.025  0.00  0.00     0.077 C 
ATOM      2  C1  UNL d   1      -0.180   2.635  -0.567  0.00  0.00    -0.074 A 
ATOM      3  C2  UNL d   1      -1.555   2.824  -0.737  0.00  0.00    -0.005 A 
ATOM      4  C3  UNL d   1      -2.043   4.033  -1.233  0.00  0.00     0.006 A 
ATOM      5  C4  UNL d   1      -1.162   5.063  -1.564  0.00  0.00    -0.005 A 
ATOM      6  C5  UNL d   1       0.216   4.893  -1.401  0.00  0.00    -0.074 A 
ATOM      7  C6  UNL d   1       1.176   5.994  -1.742  0.00  0.00     0.077 C 
ATOM      8  C7  UNL d   1       0.698   3.678  -0.895  0.00  0.00    -0.001 A 
ENDROOT
TORSDOF 0
ENDMDL
