MODEL 1
REMARK minimizedAffinity 0.720276535
REMARK minimizedRMSD -1
REMARK  0 active torsions:
REMARK  status: ('A' for Active; 'I' for Inactive)
ROOT
ATOM      1  C   UNL d   1       0.393   2.152   0.119  0.00  0.00     0.077 C 
ATOM      2  C1  UNL d   1       0.303   3.497  -0.538  0.00  0.00    -0.074 A 
ATOM      3  C2  UNL d   1       1.453   4.253  -0.789  0.00  0.00    -0.005 A 
ATOM      4  C3  UNL d   1       1.354   5.498  -1.410  0.00  0.00     0.006 A 
ATOM      5  C4  UNL d   1       0.107   6.000  -1.784  0.00  0.00    -0.005 A 
ATOM      6  C5  UNL d   1      -1.053   5.258  -1.541  0.00  0.00    -0.074 A 
ATOM      7  C6  UNL d   1      -2.401   5.778  -1.946  0.00  0.00     0.077 C 
ATOM      8  C7  UNL d   1      -0.945   4.004  -0.924  0.00  0.00    -0.001 A 
ENDROOT
TORSDOF 0
ENDMDL
