MODEL 1
REMARK minimizedAffinity 2.67723227
REMARK minimizedRMSD -1
REMARK  0 active torsions:
REMARK  status: ('A' for Active; 'I' for Inactive)
ROOT
ATOM      1  C1  BNZ d   1      -0.363  -1.616  -1.987  0.00  0.00     0.000 A 
ATOM      2  C2  BNZ d   1      -1.694  -1.896  -1.829  0.00  0.00     0.000 A 
ATOM      3  C3  BNZ d   1      -2.560  -0.944  -1.369  0.00  0.00     0.000 A 
ATOM      4  C4  BNZ d   1      -2.089   0.273  -1.030  0.00  0.00     0.000 A 
ATOM      5  C5  BNZ d   1      -0.748   0.568  -1.175  0.00  0.00     0.000 A 
ATOM      6  C6  BNZ d   1       0.115  -0.380  -1.675  0.00  0.00     0.000 A 
ENDROOT
TORSDOF 0
ENDMDL
