MODEL 1
REMARK minimizedAffinity 0.906592548
REMARK minimizedRMSD -1
REMARK  0 active torsions:
REMARK  status: ('A' for Active; 'I' for Inactive)
ROOT
ATOM      1  C1  BNZ d   1       4.827  -3.935  -0.908  0.00  0.00     0.000 A 
ATOM      2  C2  BNZ d   1       5.998  -3.240  -1.049  0.00  0.00     0.000 A 
ATOM      3  C3  BNZ d   1       5.999  -1.874  -1.099  0.00  0.00     0.000 A 
ATOM      4  C4  BNZ d   1       4.828  -1.207  -1.048  0.00  0.00     0.000 A 
ATOM      5  C5  BNZ d   1       3.638  -1.895  -0.916  0.00  0.00     0.000 A 
ATOM      6  C6  BNZ d   1       3.643  -3.268  -0.827  0.00  0.00     0.000 A 
ENDROOT
TORSDOF 0
ENDMDL
