MODEL 1
REMARK minimizedAffinity 2.61366081
REMARK minimizedRMSD -1
REMARK  0 active torsions:
REMARK  status: ('A' for Active; 'I' for Inactive)
ROOT
ATOM      1  C1  BNZ d   1      -0.530   2.630   1.522  0.00  0.00     0.000 A 
ATOM      2  C2  BNZ d   1      -0.098   3.908   1.286  0.00  0.00     0.000 A 
ATOM      3  C3  BNZ d   1      -0.126   4.435   0.026  0.00  0.00     0.000 A 
ATOM      4  C4  BNZ d   1      -0.549   3.672  -1.003  0.00  0.00     0.000 A 
ATOM      5  C5  BNZ d   1      -0.980   2.379  -0.783  0.00  0.00     0.000 A 
ATOM      6  C6  BNZ d   1      -0.986   1.864   0.493  0.00  0.00     0.000 A 
ENDROOT
TORSDOF 0
ENDMDL
