MODEL 1
REMARK minimizedAffinity -0.651522577
REMARK minimizedRMSD -1
REMARK  0 active torsions:
REMARK  status: ('A' for Active; 'I' for Inactive)
ROOT
ATOM      1  C1  BNZ d   1      -4.256   0.628   0.986  0.00  0.00     0.000 A 
ATOM      2  C2  BNZ d   1      -4.094   1.023  -0.315  0.00  0.00     0.000 A 
ATOM      3  C3  BNZ d   1      -3.828   0.109  -1.296  0.00  0.00     0.000 A 
ATOM      4  C4  BNZ d   1      -3.685  -1.191  -0.969  0.00  0.00     0.000 A 
ATOM      5  C5  BNZ d   1      -3.836  -1.604   0.340  0.00  0.00     0.000 A 
ATOM      6  C6  BNZ d   1      -4.142  -0.686   1.319  0.00  0.00     0.000 A 
ENDROOT
TORSDOF 0
ENDMDL
