MODEL 1
REMARK minimizedAffinity -0.885851622
REMARK minimizedRMSD -1
REMARK  0 active torsions:
REMARK  status: ('A' for Active; 'I' for Inactive)
ROOT
ATOM      1  C1  BNZ d   1       1.070   2.891   2.960  0.00  0.00     0.000 A 
ATOM      2  C2  BNZ d   1       0.102   1.954   2.716  0.00  0.00     0.000 A 
ATOM      3  C3  BNZ d   1      -0.661   2.015   1.583  0.00  0.00     0.000 A 
ATOM      4  C4  BNZ d   1      -0.482   3.033   0.717  0.00  0.00     0.000 A 
ATOM      5  C5  BNZ d   1       0.484   3.991   0.954  0.00  0.00     0.000 A 
ATOM      6  C6  BNZ d   1       1.276   3.905   2.076  0.00  0.00     0.000 A 
ENDROOT
TORSDOF 0
ENDMDL
