MODEL 1
REMARK minimizedAffinity 0.100464433
REMARK minimizedRMSD -1
REMARK  0 active torsions:
REMARK  status: ('A' for Active; 'I' for Inactive)
ROOT
ATOM      1  C1  BNZ d   1       5.142  -2.107  -1.833  0.00  0.00     0.000 A 
ATOM      2  C2  BNZ d   1       3.979  -1.739  -1.211  0.00  0.00     0.000 A 
ATOM      3  C3  BNZ d   1       3.330  -2.603  -0.374  0.00  0.00     0.000 A 
ATOM      4  C4  BNZ d   1       3.822  -3.845  -0.192  0.00  0.00     0.000 A 
ATOM      5  C5  BNZ d   1       4.989  -4.234  -0.819  0.00  0.00     0.000 A 
ATOM      6  C6  BNZ d   1       5.661  -3.348  -1.630  0.00  0.00     0.000 A 
ENDROOT
TORSDOF 0
ENDMDL
