MODEL 1
REMARK minimizedAffinity 3.71348572
REMARK minimizedRMSD -1
REMARK  0 active torsions:
REMARK  status: ('A' for Active; 'I' for Inactive)
ROOT
ATOM      1  C1  BNZ d   1       1.107   4.228   1.473  0.00  0.00     0.000 A 
ATOM      2  C2  BNZ d   1       1.357   3.416   2.548  0.00  0.00     0.000 A 
ATOM      3  C3  BNZ d   1       0.560   2.336   2.809  0.00  0.00     0.000 A 
ATOM      4  C4  BNZ d   1      -0.506   2.093   2.020  0.00  0.00     0.000 A 
ATOM      5  C5  BNZ d   1      -0.776   2.907   0.939  0.00  0.00     0.000 A 
ATOM      6  C6  BNZ d   1       0.050   3.971   0.656  0.00  0.00     0.000 A 
ENDROOT
TORSDOF 0
ENDMDL
