MODEL 1
REMARK minimizedAffinity -3.31738901
REMARK minimizedRMSD -1
REMARK  1 active torsions:
REMARK  status: ('A' for Active; 'I' for Inactive)
REMARK    1  A    between atoms: C1_2  and  C2_3 
ROOT
ATOM      1  C2  UNL d   1       1.133   0.699  -0.763  0.00  0.00    -0.076 A 
ATOM      2  C3  UNL d   1       0.733   0.729   0.584  0.00  0.00     0.004 A 
ATOM      3  C4  UNL d   1       1.597   0.323   1.599  0.00  0.00    -0.003 A 
ATOM      4  C5  UNL d   1       2.877  -0.120   1.283  0.00  0.00     0.000 A 
ATOM      5  C6  UNL d   1       3.297  -0.140  -0.046  0.00  0.00     0.000 A 
ATOM      6  C7  UNL d   1       2.444   0.282  -1.080  0.00  0.00    -0.073 A 
ATOM      7  C8  UNL d   1       2.947   0.235  -2.497  0.00  0.00     0.078 C 
ENDROOT
BRANCH   1   8
ATOM      8  C1  UNL d   1       0.143   1.127  -1.823  0.00  0.00     0.053 C 
ATOM      9  C   UNL d   1      -1.283   0.722  -1.485  0.00  0.00     0.018 C 
ENDBRANCH   1   8
TORSDOF 1
ENDMDL
