MODEL 1
REMARK minimizedAffinity -5.41769028
REMARK minimizedRMSD -1
REMARK  1 active torsions:
REMARK  status: ('A' for Active; 'I' for Inactive)
REMARK    1  A    between atoms: C1_2  and  C2_3 
ROOT
ATOM      1  C2  UNL d   1       0.601  -0.572   0.678  0.00  0.00    -0.076 A 
ATOM      2  C3  UNL d   1       1.343   0.538   0.238  0.00  0.00     0.004 A 
ATOM      3  C4  UNL d   1       2.670   0.714   0.627  0.00  0.00    -0.003 A 
ATOM      4  C5  UNL d   1       3.276  -0.217   1.463  0.00  0.00     0.000 A 
ATOM      5  C6  UNL d   1       2.560  -1.333   1.896  0.00  0.00     0.000 A 
ATOM      6  C7  UNL d   1       1.227  -1.534   1.499  0.00  0.00    -0.073 A 
ATOM      7  C8  UNL d   1       0.501  -2.752   2.000  0.00  0.00     0.078 C 
ENDROOT
BRANCH   1   8
ATOM      8  C1  UNL d   1      -0.842  -0.696   0.245  0.00  0.00     0.053 C 
ATOM      9  C   UNL d   1      -1.357   0.563  -0.435  0.00  0.00     0.018 C 
ENDBRANCH   1   8
TORSDOF 1
ENDMDL
