MODEL 1
REMARK minimizedAffinity -4.97812891
REMARK minimizedRMSD -1
REMARK  1 active torsions:
REMARK  status: ('A' for Active; 'I' for Inactive)
REMARK    1  A    between atoms: C1_2  and  C2_3 
ROOT
ATOM      1  C2  UNL d   1       1.344   0.104   0.459  0.00  0.00    -0.076 A 
ATOM      2  C3  UNL d   1       0.958  -1.227   0.696  0.00  0.00     0.004 A 
ATOM      3  C4  UNL d   1      -0.383  -1.604   0.655  0.00  0.00    -0.003 A 
ATOM      4  C5  UNL d   1      -1.361  -0.655   0.376  0.00  0.00     0.000 A 
ATOM      5  C6  UNL d   1      -0.995   0.666   0.122  0.00  0.00     0.000 A 
ATOM      6  C7  UNL d   1       0.354   1.059   0.143  0.00  0.00    -0.073 A 
ATOM      7  C8  UNL d   1       0.691   2.498  -0.134  0.00  0.00     0.078 C 
ENDROOT
BRANCH   1   8
ATOM      8  C1  UNL d   1       2.811   0.458   0.543  0.00  0.00     0.053 C 
ATOM      9  C   UNL d   1       3.596  -0.511   1.413  0.00  0.00     0.018 C 
ENDBRANCH   1   8
TORSDOF 1
ENDMDL
