MODEL 1
REMARK minimizedAffinity -1.16555035
REMARK minimizedRMSD -1
REMARK  1 active torsions:
REMARK  status: ('A' for Active; 'I' for Inactive)
REMARK    1  A    between atoms: C1_2  and  C2_3 
ROOT
ATOM      1  C2  UNL d   1      -0.345  -0.315   0.705  0.00  0.00    -0.076 A 
ATOM      2  C3  UNL d   1       0.776   0.009   1.489  0.00  0.00     0.004 A 
ATOM      3  C4  UNL d   1       1.745   0.896   1.024  0.00  0.00    -0.003 A 
ATOM      4  C5  UNL d   1       1.609   1.475  -0.234  0.00  0.00     0.000 A 
ATOM      5  C6  UNL d   1       0.495   1.178  -1.018  0.00  0.00     0.000 A 
ATOM      6  C7  UNL d   1      -0.500   0.298  -0.557  0.00  0.00    -0.073 A 
ATOM      7  C8  UNL d   1      -1.677   0.009  -1.447  0.00  0.00     0.078 C 
ENDROOT
BRANCH   1   8
ATOM      8  C1  UNL d   1      -1.349  -1.304   1.251  0.00  0.00     0.053 C 
ATOM      9  C   UNL d   1      -0.689  -2.555   1.812  0.00  0.00     0.018 C 
ENDBRANCH   1   8
TORSDOF 1
ENDMDL
