MODEL 1
REMARK minimizedAffinity -5.54739571
REMARK minimizedRMSD -1
REMARK  1 active torsions:
REMARK  status: ('A' for Active; 'I' for Inactive)
REMARK    1  A    between atoms: C1_2  and  C2_3 
ROOT
ATOM      1  C2  UNL d   1       0.749  -0.470   0.768  0.00  0.00    -0.076 A 
ATOM      2  C3  UNL d   1       0.908  -1.780   1.254  0.00  0.00     0.004 A 
ATOM      3  C4  UNL d   1       2.174  -2.297   1.524  0.00  0.00    -0.003 A 
ATOM      4  C5  UNL d   1       3.302  -1.512   1.313  0.00  0.00     0.000 A 
ATOM      5  C6  UNL d   1       3.163  -0.204   0.848  0.00  0.00     0.000 A 
ATOM      6  C7  UNL d   1       1.892   0.337   0.587  0.00  0.00    -0.073 A 
ATOM      7  C8  UNL d   1       1.801   1.751   0.082  0.00  0.00     0.078 C 
ENDROOT
BRANCH   1   8
ATOM      8  C1  UNL d   1      -0.647   0.027   0.468  0.00  0.00     0.053 C 
ATOM      9  C   UNL d   1      -1.723  -0.939   0.938  0.00  0.00     0.018 C 
ENDBRANCH   1   8
TORSDOF 1
ENDMDL
