MODEL 1
REMARK minimizedAffinity -3.32855296
REMARK minimizedRMSD -1
REMARK  1 active torsions:
REMARK  status: ('A' for Active; 'I' for Inactive)
REMARK    1  A    between atoms: C1_2  and  C2_3 
ROOT
ATOM      1  C2  UNL d   1      -1.156   0.127  -0.667  0.00  0.00    -0.076 A 
ATOM      2  C3  UNL d   1      -0.276   1.124  -1.122  0.00  0.00     0.004 A 
ATOM      3  C4  UNL d   1       1.001   1.256  -0.579  0.00  0.00    -0.003 A 
ATOM      4  C5  UNL d   1       1.419   0.391   0.427  0.00  0.00     0.000 A 
ATOM      5  C6  UNL d   1       0.565  -0.615   0.878  0.00  0.00     0.000 A 
ATOM      6  C7  UNL d   1      -0.720  -0.771   0.330  0.00  0.00    -0.073 A 
ATOM      7  C8  UNL d   1      -1.601  -1.870   0.858  0.00  0.00     0.078 C 
ENDROOT
BRANCH   1   8
ATOM      8  C1  UNL d   1      -2.539   0.050  -1.275  0.00  0.00     0.053 C 
ATOM      9  C   UNL d   1      -2.505  -0.028  -2.793  0.00  0.00     0.018 C 
ENDBRANCH   1   8
TORSDOF 1
ENDMDL
