MODEL 1
REMARK minimizedAffinity 14.0500059
REMARK minimizedRMSD -1
REMARK  0 active torsions:
REMARK  status: ('A' for Active; 'I' for Inactive)
ROOT
ATOM      1  C   UNL d   1      -2.950   0.500   3.340  0.00  0.00     0.020 A 
ATOM      2  C1  UNL d   1      -3.624   1.665   2.975  0.00  0.00     0.020 A 
ATOM      3  C2  UNL d   1      -2.939   2.694   2.326  0.00  0.00     0.034 A 
ATOM      4  C3  UNL d   1      -1.575   2.560   2.039  0.00  0.00     0.017 A 
ATOM      5  C4  UNL d   1      -0.899   1.391   2.406  0.00  0.00     0.017 A 
ATOM      6  C5  UNL d   1      -1.590   0.364   3.056  0.00  0.00     0.034 A 
ATOM      7 Cl   UNL d   1       0.782   1.153   2.086  0.00  0.00    -0.070 Cl
ATOM      8 Cl1  UNL d   1      -0.791   3.873   1.233  0.00  0.00    -0.070 Cl
ENDROOT
TORSDOF 0
ENDMDL
