MODEL 1
REMARK minimizedAffinity -4.32165861
REMARK minimizedRMSD -1
REMARK  0 active torsions:
REMARK  status: ('A' for Active; 'I' for Inactive)
ROOT
ATOM      1  C   UNL d   1       2.117   2.385   0.194  0.00  0.00     0.020 A 
ATOM      2  C1  UNL d   1       0.781   2.267   0.574  0.00  0.00     0.020 A 
ATOM      3  C2  UNL d   1       0.083   1.087   0.312  0.00  0.00     0.034 A 
ATOM      4  C3  UNL d   1       0.719   0.020  -0.332  0.00  0.00     0.017 A 
ATOM      5  C4  UNL d   1       2.061   0.139  -0.714  0.00  0.00     0.017 A 
ATOM      6  C5  UNL d   1       2.756   1.324  -0.449  0.00  0.00     0.034 A 
ATOM      7 Cl   UNL d   1       2.914  -1.134  -1.513  0.00  0.00    -0.070 Cl
ATOM      8 Cl1  UNL d   1      -0.205  -1.410  -0.624  0.00  0.00    -0.070 Cl
ENDROOT
TORSDOF 0
ENDMDL
