MODEL 1
REMARK minimizedAffinity 9.36618519
REMARK minimizedRMSD -1
REMARK  0 active torsions:
REMARK  status: ('A' for Active; 'I' for Inactive)
ROOT
ATOM      1  C   UNL d   1       1.332  -0.836  -3.341  0.00  0.00     0.020 A 
ATOM      2  C1  UNL d   1       2.107  -1.126  -2.219  0.00  0.00     0.020 A 
ATOM      3  C2  UNL d   1       2.220  -0.193  -1.187  0.00  0.00     0.034 A 
ATOM      4  C3  UNL d   1       1.555   1.036  -1.274  0.00  0.00     0.017 A 
ATOM      5  C4  UNL d   1       0.776   1.327  -2.400  0.00  0.00     0.017 A 
ATOM      6  C5  UNL d   1       0.668   0.388  -3.431  0.00  0.00     0.034 A 
ATOM      7 Cl   UNL d   1      -0.073   2.821  -2.579  0.00  0.00    -0.070 Cl
ATOM      8 Cl1  UNL d   1       1.738   2.143   0.040  0.00  0.00    -0.070 Cl
ENDROOT
TORSDOF 0
ENDMDL
