MODEL 1
REMARK minimizedAffinity 7.07949734
REMARK minimizedRMSD -1
REMARK  0 active torsions:
REMARK  status: ('A' for Active; 'I' for Inactive)
ROOT
ATOM      1  C   UNL d   1       2.617   3.262   0.785  0.00  0.00     0.020 A 
ATOM      2  C1  UNL d   1       3.056   1.968   0.506  0.00  0.00     0.020 A 
ATOM      3  C2  UNL d   1       2.280   0.871   0.887  0.00  0.00     0.034 A 
ATOM      4  C3  UNL d   1       1.062   1.066   1.549  0.00  0.00     0.017 A 
ATOM      5  C4  UNL d   1       0.623   2.365   1.829  0.00  0.00     0.017 A 
ATOM      6  C5  UNL d   1       1.404   3.460   1.445  0.00  0.00     0.034 A 
ATOM      7 Cl   UNL d   1      -0.868   2.685   2.642  0.00  0.00    -0.070 Cl
ATOM      8 Cl1  UNL d   1       0.154  -0.336   1.991  0.00  0.00    -0.070 Cl
ENDROOT
TORSDOF 0
ENDMDL
