MODEL 1
REMARK minimizedAffinity 11.6749954
REMARK minimizedRMSD -1
REMARK  0 active torsions:
REMARK  status: ('A' for Active; 'I' for Inactive)
ROOT
ATOM      1  C   UNL d   1       1.423  -1.280  -2.284  0.00  0.00     0.020 A 
ATOM      2  C1  UNL d   1       2.035  -1.071  -1.049  0.00  0.00     0.020 A 
ATOM      3  C2  UNL d   1       2.162   0.224  -0.543  0.00  0.00     0.034 A 
ATOM      4  C3  UNL d   1       1.678   1.315  -1.273  0.00  0.00     0.017 A 
ATOM      5  C4  UNL d   1       1.064   1.105  -2.513  0.00  0.00     0.017 A 
ATOM      6  C5  UNL d   1       0.939  -0.194  -3.015  0.00  0.00     0.034 A 
ATOM      7 Cl   UNL d   1       0.442   2.402  -3.471  0.00  0.00    -0.070 Cl
ATOM      8 Cl1  UNL d   1       1.869   2.889  -0.586  0.00  0.00    -0.070 Cl
ENDROOT
TORSDOF 0
ENDMDL
