MODEL 1
REMARK minimizedAffinity 7.60667515
REMARK minimizedRMSD -1
REMARK  0 active torsions:
REMARK  status: ('A' for Active; 'I' for Inactive)
ROOT
ATOM      1  C   UNL d   1       1.060   3.577   0.971  0.00  0.00     0.020 A 
ATOM      2  C1  UNL d   1       2.045   2.607   1.151  0.00  0.00     0.020 A 
ATOM      3  C2  UNL d   1       1.746   1.427   1.835  0.00  0.00     0.034 A 
ATOM      4  C3  UNL d   1       0.459   1.214   2.342  0.00  0.00     0.017 A 
ATOM      5  C4  UNL d   1      -0.529   2.188   2.160  0.00  0.00     0.017 A 
ATOM      6  C5  UNL d   1      -0.224   3.368   1.475  0.00  0.00     0.034 A 
ATOM      7 Cl   UNL d   1      -2.140   1.997   2.757  0.00  0.00    -0.070 Cl
ATOM      8 Cl1  UNL d   1       0.159  -0.269   3.177  0.00  0.00    -0.070 Cl
ENDROOT
TORSDOF 0
ENDMDL
