MODEL 1
REMARK minimizedAffinity 2.21962905
REMARK minimizedRMSD -1
REMARK  0 active torsions:
REMARK  status: ('A' for Active; 'I' for Inactive)
ROOT
ATOM      1  C   UNL d   1       0.718   0.817   2.180  0.00  0.00     0.020 A 
ATOM      2  C1  UNL d   1       1.375   2.041   2.050  0.00  0.00     0.020 A 
ATOM      3  C2  UNL d   1       2.348   2.209   1.063  0.00  0.00     0.034 A 
ATOM      4  C3  UNL d   1       2.668   1.153   0.202  0.00  0.00     0.017 A 
ATOM      5  C4  UNL d   1       2.009  -0.075   0.334  0.00  0.00     0.017 A 
ATOM      6  C5  UNL d   1       1.035  -0.238   1.324  0.00  0.00     0.034 A 
ATOM      7 Cl   UNL d   1       2.349  -1.424  -0.691  0.00  0.00    -0.070 Cl
ATOM      8 Cl1  UNL d   1       3.882   1.432  -0.995  0.00  0.00    -0.070 Cl
ENDROOT
TORSDOF 0
ENDMDL
