MODEL 1
REMARK minimizedAffinity 4.44791794
REMARK minimizedRMSD -1
REMARK  0 active torsions:
REMARK  status: ('A' for Active; 'I' for Inactive)
ROOT
ATOM      1  C   UNL d   1       1.064   2.603   1.564  0.00  0.00     0.020 A 
ATOM      2  C1  UNL d   1       2.309   3.229   1.509  0.00  0.00     0.020 A 
ATOM      3  C2  UNL d   1       3.366   2.621   0.830  0.00  0.00     0.034 A 
ATOM      4  C3  UNL d   1       3.181   1.384   0.202  0.00  0.00     0.017 A 
ATOM      5  C4  UNL d   1       1.931   0.757   0.257  0.00  0.00     0.017 A 
ATOM      6  C5  UNL d   1       0.875   1.370   0.939  0.00  0.00     0.034 A 
ATOM      7 Cl   UNL d   1       1.626  -0.770  -0.493  0.00  0.00    -0.070 Cl
ATOM      8 Cl1  UNL d   1       4.533   0.690  -0.621  0.00  0.00    -0.070 Cl
ENDROOT
TORSDOF 0
ENDMDL
