MODEL 1
REMARK minimizedAffinity 6.77363396
REMARK minimizedRMSD -1
REMARK  0 active torsions:
REMARK  status: ('A' for Active; 'I' for Inactive)
ROOT
ATOM      1  C   UNL d   1       2.067   2.186   0.259  0.00  0.00     0.020 A 
ATOM      2  C1  UNL d   1       1.803   1.923   1.602  0.00  0.00     0.020 A 
ATOM      3  C2  UNL d   1       1.156   0.741   1.968  0.00  0.00     0.034 A 
ATOM      4  C3  UNL d   1       0.772  -0.183   0.989  0.00  0.00     0.017 A 
ATOM      5  C4  UNL d   1       1.037   0.082  -0.359  0.00  0.00     0.017 A 
ATOM      6  C5  UNL d   1       1.685   1.268  -0.720  0.00  0.00     0.034 A 
ATOM      7 Cl   UNL d   1       0.593  -1.009  -1.623  0.00  0.00    -0.070 Cl
ATOM      8 Cl1  UNL d   1      -0.024  -1.624   1.513  0.00  0.00    -0.070 Cl
ENDROOT
TORSDOF 0
ENDMDL
