MODEL 1
REMARK minimizedAffinity 7.50446177
REMARK minimizedRMSD -1
REMARK  0 active torsions:
REMARK  status: ('A' for Active; 'I' for Inactive)
ROOT
ATOM      1  C   UNL d   1       5.472   2.959  -3.337  0.00  0.00     0.020 A 
ATOM      2  C1  UNL d   1       4.108   2.964  -3.049  0.00  0.00     0.020 A 
ATOM      3  C2  UNL d   1       3.271   3.908  -3.648  0.00  0.00     0.034 A 
ATOM      4  C3  UNL d   1       3.797   4.850  -4.539  0.00  0.00     0.017 A 
ATOM      5  C4  UNL d   1       5.167   4.845  -4.828  0.00  0.00     0.017 A 
ATOM      6  C5  UNL d   1       6.000   3.897  -4.225  0.00  0.00     0.034 A 
ATOM      7 Cl   UNL d   1       5.889   5.976  -5.917  0.00  0.00    -0.070 Cl
ATOM      8 Cl1  UNL d   1       2.704   5.988  -5.244  0.00  0.00    -0.070 Cl
ENDROOT
TORSDOF 0
ENDMDL
