MODEL 1
REMARK minimizedAffinity 7.33430433
REMARK minimizedRMSD -1
REMARK  0 active torsions:
REMARK  status: ('A' for Active; 'I' for Inactive)
ROOT
ATOM      1  C   UNL d   1       1.412   2.763   1.871  0.00  0.00     0.020 A 
ATOM      2  C1  UNL d   1       0.282   3.532   1.593  0.00  0.00     0.020 A 
ATOM      3  C2  UNL d   1      -0.986   3.062   1.942  0.00  0.00     0.034 A 
ATOM      4  C3  UNL d   1      -1.127   1.819   2.571  0.00  0.00     0.017 A 
ATOM      5  C4  UNL d   1       0.007   1.048   2.849  0.00  0.00     0.017 A 
ATOM      6  C5  UNL d   1       1.274   1.524   2.497  0.00  0.00     0.034 A 
ATOM      7 Cl   UNL d   1      -0.087  -0.495   3.622  0.00  0.00    -0.070 Cl
ATOM      8 Cl1  UNL d   1      -2.725   1.300   2.975  0.00  0.00    -0.070 Cl
ENDROOT
TORSDOF 0
ENDMDL
