MODEL 1
REMARK minimizedAffinity 5.21555853
REMARK minimizedRMSD -1
REMARK  0 active torsions:
REMARK  status: ('A' for Active; 'I' for Inactive)
ROOT
ATOM      1  C   UNL d   1       0.712  -0.860  -3.105  0.00  0.00     0.020 A 
ATOM      2  C1  UNL d   1       1.453  -1.250  -1.991  0.00  0.00     0.020 A 
ATOM      3  C2  UNL d   1       1.809  -0.307  -1.024  0.00  0.00     0.034 A 
ATOM      4  C3  UNL d   1       1.423   1.030  -1.170  0.00  0.00     0.017 A 
ATOM      5  C4  UNL d   1       0.679   1.421  -2.289  0.00  0.00     0.017 A 
ATOM      6  C5  UNL d   1       0.325   0.473  -3.254  0.00  0.00     0.034 A 
ATOM      7 Cl   UNL d   1       0.167   3.053  -2.538  0.00  0.00    -0.070 Cl
ATOM      8 Cl1  UNL d   1       1.898   2.142   0.065  0.00  0.00    -0.070 Cl
ENDROOT
TORSDOF 0
ENDMDL
