MODEL 1
REMARK minimizedAffinity 0.480765313
REMARK minimizedRMSD -1
REMARK  0 active torsions:
REMARK  status: ('A' for Active; 'I' for Inactive)
ROOT
ATOM      1  C   UNL d   1       2.838   0.647  -0.167  0.00  0.00     0.020 A 
ATOM      2  C1  UNL d   1       2.715  -0.399  -1.081  0.00  0.00     0.020 A 
ATOM      3  C2  UNL d   1       1.734  -1.375  -0.896  0.00  0.00     0.034 A 
ATOM      4  C3  UNL d   1       0.873  -1.309   0.205  0.00  0.00     0.017 A 
ATOM      5  C4  UNL d   1       0.997  -0.259   1.122  0.00  0.00     0.017 A 
ATOM      6  C5  UNL d   1       1.981   0.717   0.932  0.00  0.00     0.034 A 
ATOM      7 Cl   UNL d   1      -0.029  -0.109   2.505  0.00  0.00    -0.070 Cl
ATOM      8 Cl1  UNL d   1      -0.317  -2.550   0.371  0.00  0.00    -0.070 Cl
ENDROOT
TORSDOF 0
ENDMDL
