MODEL 1
REMARK minimizedAffinity 8.12370491
REMARK minimizedRMSD -1
REMARK  0 active torsions:
REMARK  status: ('A' for Active; 'I' for Inactive)
ROOT
ATOM      1  C   UNL d   1       2.276   3.033   1.841  0.00  0.00     0.020 A 
ATOM      2  C1  UNL d   1       3.114   2.564   0.829  0.00  0.00     0.020 A 
ATOM      3  C2  UNL d   1       2.792   1.391   0.145  0.00  0.00     0.034 A 
ATOM      4  C3  UNL d   1       1.630   0.681   0.471  0.00  0.00     0.017 A 
ATOM      5  C4  UNL d   1       0.790   1.153   1.486  0.00  0.00     0.017 A 
ATOM      6  C5  UNL d   1       1.117   2.329   2.168  0.00  0.00     0.034 A 
ATOM      7 Cl   UNL d   1      -0.660   0.332   1.945  0.00  0.00    -0.070 Cl
ATOM      8 Cl1  UNL d   1       1.294  -0.762  -0.418  0.00  0.00    -0.070 Cl
ENDROOT
TORSDOF 0
ENDMDL
