MODEL 1
REMARK minimizedAffinity 8.9380703
REMARK minimizedRMSD -1
REMARK  0 active torsions:
REMARK  status: ('A' for Active; 'I' for Inactive)
ROOT
ATOM      1  C   UNL d   1       2.982   1.943   0.693  0.00  0.00     0.020 A 
ATOM      2  C1  UNL d   1       2.457   3.230   0.797  0.00  0.00     0.020 A 
ATOM      3  C2  UNL d   1       1.252   3.440   1.472  0.00  0.00     0.034 A 
ATOM      4  C3  UNL d   1       0.569   2.361   2.045  0.00  0.00     0.017 A 
ATOM      5  C4  UNL d   1       1.098   1.069   1.940  0.00  0.00     0.017 A 
ATOM      6  C5  UNL d   1       2.304   0.865   1.263  0.00  0.00     0.034 A 
ATOM      7 Cl   UNL d   1       0.313  -0.312   2.621  0.00  0.00    -0.070 Cl
ATOM      8 Cl1  UNL d   1      -0.915   2.693   2.865  0.00  0.00    -0.070 Cl
ENDROOT
TORSDOF 0
ENDMDL
