MODEL 1
REMARK minimizedAffinity 13.74403
REMARK minimizedRMSD -1
REMARK  0 active torsions:
REMARK  status: ('A' for Active; 'I' for Inactive)
ROOT
ATOM      1  C   UNL d   1      -5.534  -5.513  -4.122  0.00  0.00     0.020 A 
ATOM      2  C1  UNL d   1      -6.000  -4.249  -3.762  0.00  0.00     0.020 A 
ATOM      3  C2  UNL d   1      -5.177  -3.382  -3.039  0.00  0.00     0.034 A 
ATOM      4  C3  UNL d   1      -3.885  -3.778  -2.675  0.00  0.00     0.017 A 
ATOM      5  C4  UNL d   1      -3.419  -5.047  -3.037  0.00  0.00     0.017 A 
ATOM      6  C5  UNL d   1      -4.247  -5.911  -3.760  0.00  0.00     0.034 A 
ATOM      7 Cl   UNL d   1      -1.837  -5.607  -2.623  0.00  0.00    -0.070 Cl
ATOM      8 Cl1  UNL d   1      -2.922  -2.655  -1.782  0.00  0.00    -0.070 Cl
ENDROOT
TORSDOF 0
ENDMDL
