MODEL 1
REMARK minimizedAffinity 1.7805233
REMARK minimizedRMSD -1
REMARK  0 active torsions:
REMARK  status: ('A' for Active; 'I' for Inactive)
ROOT
ATOM      1  C   UNL d   1      -5.754  -5.587  -3.752  0.00  0.00     0.020 A 
ATOM      2  C1  UNL d   1      -6.000  -4.228  -3.939  0.00  0.00     0.020 A 
ATOM      3  C2  UNL d   1      -5.126  -3.280  -3.402  0.00  0.00     0.034 A 
ATOM      4  C3  UNL d   1      -4.002  -3.690  -2.676  0.00  0.00     0.017 A 
ATOM      5  C4  UNL d   1      -3.755  -5.055  -2.489  0.00  0.00     0.017 A 
ATOM      6  C5  UNL d   1      -4.634  -6.000  -3.029  0.00  0.00     0.034 A 
ATOM      7 Cl   UNL d   1      -2.389  -5.638  -1.605  0.00  0.00    -0.070 Cl
ATOM      8 Cl1  UNL d   1      -2.964  -2.463  -2.042  0.00  0.00    -0.070 Cl
ENDROOT
TORSDOF 0
ENDMDL
