MODEL 1
REMARK minimizedAffinity -2.48563147
REMARK minimizedRMSD -1
REMARK  0 active torsions:
REMARK  status: ('A' for Active; 'I' for Inactive)
ROOT
ATOM      1  C   UNL d   1      -0.218  -3.608  -0.258  0.00  0.00     0.023 A 
ATOM      2  C1  UNL d   1      -0.278  -3.072   1.028  0.00  0.00     0.003 A 
ATOM      3  C2  UNL d   1      -0.051  -1.709   1.229  0.00  0.00     0.048 A 
ATOM      4  C3  UNL d   1       0.236  -0.888   0.139  0.00  0.00     0.023 A 
ATOM      5  C4  UNL d   1       0.297  -1.420  -1.150  0.00  0.00     0.048 A 
ATOM      6  C5  UNL d   1       0.069  -2.783  -1.346  0.00  0.00     0.003 A 
ATOM      7  I   UNL d   1       0.575   1.141   0.435  0.00  0.00    -0.146 I 
ENDROOT
TORSDOF 0
ENDMDL
