MODEL 1
REMARK minimizedAffinity -2.86944795
REMARK minimizedRMSD -1
REMARK  0 active torsions:
REMARK  status: ('A' for Active; 'I' for Inactive)
ROOT
ATOM      1  C   UNL d   1      -0.181  -2.382   0.416  0.00  0.00     0.023 A 
ATOM      2  C1  UNL d   1      -1.019  -1.485   1.080  0.00  0.00     0.003 A 
ATOM      3  C2  UNL d   1      -0.823  -0.110   0.941  0.00  0.00     0.048 A 
ATOM      4  C3  UNL d   1       0.212   0.363   0.135  0.00  0.00     0.023 A 
ATOM      5  C4  UNL d   1       1.052  -0.530  -0.533  0.00  0.00     0.048 A 
ATOM      6  C5  UNL d   1       0.853  -1.905  -0.390  0.00  0.00     0.003 A 
ATOM      7  I   UNL d   1       0.506   2.410  -0.075  0.00  0.00    -0.146 I 
ENDROOT
TORSDOF 0
ENDMDL
