MODEL 1
REMARK minimizedAffinity 0.242677346
REMARK minimizedRMSD -1
REMARK  0 active torsions:
REMARK  status: ('A' for Active; 'I' for Inactive)
ROOT
ATOM      1  C   UNL d   1      -0.599   1.544  -0.132  0.00  0.00     0.023 A 
ATOM      2  C1  UNL d   1       0.114   0.787  -1.062  0.00  0.00     0.003 A 
ATOM      3  C2  UNL d   1       0.209  -0.598  -0.912  0.00  0.00     0.048 A 
ATOM      4  C3  UNL d   1      -0.414  -1.220   0.169  0.00  0.00     0.023 A 
ATOM      5  C4  UNL d   1      -1.129  -0.467   1.102  0.00  0.00     0.048 A 
ATOM      6  C5  UNL d   1      -1.220   0.917   0.948  0.00  0.00     0.003 A 
ATOM      7  I   UNL d   1      -0.274  -3.282   0.395  0.00  0.00    -0.146 I 
ENDROOT
TORSDOF 0
ENDMDL
