MODEL 1
REMARK minimizedAffinity -2.56292987
REMARK minimizedRMSD -1
REMARK  0 active torsions:
REMARK  status: ('A' for Active; 'I' for Inactive)
ROOT
ATOM      1  C   UNL d   1      -0.978  -1.439  -0.291  0.00  0.00     0.023 A 
ATOM      2  C1  UNL d   1      -0.193  -0.747  -1.214  0.00  0.00     0.003 A 
ATOM      3  C2  UNL d   1       0.273   0.534  -0.913  0.00  0.00     0.048 A 
ATOM      4  C3  UNL d   1      -0.047   1.117   0.312  0.00  0.00     0.023 A 
ATOM      5  C4  UNL d   1      -0.831   0.428   1.239  0.00  0.00     0.048 A 
ATOM      6  C5  UNL d   1      -1.296  -0.853   0.934  0.00  0.00     0.003 A 
ATOM      7  I   UNL d   1       0.646   3.024   0.762  0.00  0.00    -0.146 I 
ENDROOT
TORSDOF 0
ENDMDL
