MODEL 1
REMARK minimizedAffinity -4.81737566
REMARK minimizedRMSD -1
REMARK  0 active torsions:
REMARK  status: ('A' for Active; 'I' for Inactive)
ROOT
ATOM      1  C   UNL d   1       0.084  -3.392  -0.747  0.00  0.00     0.023 A 
ATOM      2  C1  UNL d   1       0.386  -2.502  -1.777  0.00  0.00     0.003 A 
ATOM      3  C2  UNL d   1       0.442  -1.130  -1.523  0.00  0.00     0.048 A 
ATOM      4  C3  UNL d   1       0.195  -0.655  -0.236  0.00  0.00     0.023 A 
ATOM      5  C4  UNL d   1      -0.107  -1.542   0.799  0.00  0.00     0.048 A 
ATOM      6  C5  UNL d   1      -0.162  -2.913   0.540  0.00  0.00     0.003 A 
ATOM      7  I   UNL d   1       0.277   1.387   0.145  0.00  0.00    -0.146 I 
ENDROOT
TORSDOF 0
ENDMDL
