MODEL 1
REMARK minimizedAffinity -3.02514482
REMARK minimizedRMSD -1
REMARK  0 active torsions:
REMARK  status: ('A' for Active; 'I' for Inactive)
ROOT
ATOM      1  C   UNL d   1      -1.161  -1.217   0.131  0.00  0.00     0.023 A 
ATOM      2  C1  UNL d   1      -0.928  -0.604   1.362  0.00  0.00     0.003 A 
ATOM      3  C2  UNL d   1      -0.217   0.596   1.423  0.00  0.00     0.048 A 
ATOM      4  C3  UNL d   1       0.257   1.179   0.248  0.00  0.00     0.023 A 
ATOM      5  C4  UNL d   1       0.026   0.570  -0.987  0.00  0.00     0.048 A 
ATOM      6  C5  UNL d   1      -0.685  -0.630  -1.042  0.00  0.00     0.003 A 
ATOM      7  I   UNL d   1       1.316   2.966   0.335  0.00  0.00    -0.146 I 
ENDROOT
TORSDOF 0
ENDMDL
