MODEL 1
REMARK minimizedAffinity -3.91424251
REMARK minimizedRMSD -1
REMARK  0 active torsions:
REMARK  status: ('A' for Active; 'I' for Inactive)
ROOT
ATOM      1  C   UNL d   1      -0.740  -0.465   1.422  0.00  0.00     0.023 A 
ATOM      2  C1  UNL d   1      -0.453   0.380   0.350  0.00  0.00     0.003 A 
ATOM      3  C2  UNL d   1      -0.125  -0.157  -0.896  0.00  0.00     0.048 A 
ATOM      4  C3  UNL d   1      -0.086  -1.541  -1.064  0.00  0.00     0.023 A 
ATOM      5  C4  UNL d   1      -0.373  -2.391   0.005  0.00  0.00     0.048 A 
ATOM      6  C5  UNL d   1      -0.700  -1.849   1.250  0.00  0.00     0.003 A 
ATOM      7  I   UNL d   1       0.401  -2.343  -2.918  0.00  0.00    -0.146 I 
ENDROOT
TORSDOF 0
ENDMDL
