MODEL 1
REMARK minimizedAffinity -4.86140299
REMARK minimizedRMSD -1
REMARK  0 active torsions:
REMARK  status: ('A' for Active; 'I' for Inactive)
ROOT
ATOM      1  C   UNL d   1      -0.950  -1.078   1.752  0.00  0.00     0.023 A 
ATOM      2  C1  UNL d   1      -0.797  -2.411   1.369  0.00  0.00     0.003 A 
ATOM      3  C2  UNL d   1      -0.424  -2.725   0.061  0.00  0.00     0.048 A 
ATOM      4  C3  UNL d   1      -0.205  -1.701  -0.860  0.00  0.00     0.023 A 
ATOM      5  C4  UNL d   1      -0.356  -0.366  -0.482  0.00  0.00     0.048 A 
ATOM      6  C5  UNL d   1      -0.730  -0.057   0.827  0.00  0.00     0.003 A 
ATOM      7  I   UNL d   1       0.350  -2.166  -2.808  0.00  0.00    -0.146 I 
ENDROOT
TORSDOF 0
ENDMDL
