MODEL 1
REMARK minimizedAffinity -3.20325112
REMARK minimizedRMSD -1
REMARK  0 active torsions:
REMARK  status: ('A' for Active; 'I' for Inactive)
ROOT
ATOM      1  C   UNL d   1      -0.355  -3.697  -0.175  0.00  0.00     0.023 A 
ATOM      2  C1  UNL d   1       0.660  -3.096  -0.919  0.00  0.00     0.003 A 
ATOM      3  C2  UNL d   1       0.742  -1.704  -0.994  0.00  0.00     0.048 A 
ATOM      4  C3  UNL d   1      -0.193  -0.919  -0.321  0.00  0.00     0.023 A 
ATOM      5  C4  UNL d   1      -1.211  -1.516   0.425  0.00  0.00     0.048 A 
ATOM      6  C5  UNL d   1      -1.289  -2.908   0.496  0.00  0.00     0.003 A 
ATOM      7  I   UNL d   1      -0.073   1.153  -0.431  0.00  0.00    -0.146 I 
ENDROOT
TORSDOF 0
ENDMDL
