MODEL 1
REMARK minimizedAffinity -3.0267067
REMARK minimizedRMSD -1
REMARK  0 active torsions:
REMARK  status: ('A' for Active; 'I' for Inactive)
ROOT
ATOM      1  C   UNL d   1      -0.993  -3.271  -0.547  0.00  0.00     0.023 A 
ATOM      2  C1  UNL d   1      -0.268  -2.676  -1.579  0.00  0.00     0.003 A 
ATOM      3  C2  UNL d   1       0.182  -1.360  -1.449  0.00  0.00     0.048 A 
ATOM      4  C3  UNL d   1      -0.096  -0.646  -0.283  0.00  0.00     0.023 A 
ATOM      5  C4  UNL d   1      -0.821  -1.239   0.752  0.00  0.00     0.048 A 
ATOM      6  C5  UNL d   1      -1.269  -2.554   0.617  0.00  0.00     0.003 A 
ATOM      7  I   UNL d   1       0.573   1.312  -0.087  0.00  0.00    -0.146 I 
ENDROOT
TORSDOF 0
ENDMDL
