MODEL 1
REMARK minimizedAffinity 13.3351364
REMARK minimizedRMSD -1
REMARK  0 active torsions:
REMARK  status: ('A' for Active; 'I' for Inactive)
ROOT
ATOM      1  C   UNL d   1      -1.342  -0.927   2.504  0.00  0.00     0.124 A 
ATOM      2  C1  UNL d   1      -1.400  -2.300   2.312  0.00  0.00     0.062 A 
ATOM      3  C2  UNL d   1      -0.363  -2.960   1.660  0.00  0.00     0.162 A 
ATOM      4  C3  UNL d   1       0.743  -2.248   1.195  0.00  0.00    -0.034 A 
ATOM      5  C4  UNL d   1       0.793  -0.867   1.390  0.00  0.00     0.162 A 
ATOM      6  C5  UNL d   1      -0.246  -0.211   2.043  0.00  0.00     0.062 A 
ATOM      7  F   UNL d   1      -0.188   1.116   2.226  0.00  0.00    -0.097 F 
ATOM      8  F1  UNL d   1       1.841  -0.151   0.955  0.00  0.00    -0.096 F 
ATOM      9  I   UNL d   1       2.296  -3.232   0.219  0.00  0.00    -0.060 I 
ATOM     10  F2  UNL d   1      -0.445  -4.288   1.489  0.00  0.00    -0.096 F 
ATOM     11  F3  UNL d   1      -2.458  -2.994   2.756  0.00  0.00    -0.097 F 
ATOM     12  F4  UNL d   1      -2.342  -0.294   3.131  0.00  0.00    -0.092 F 
ENDROOT
TORSDOF 0
ENDMDL
