MODEL 1
REMARK minimizedAffinity -0.610532999
REMARK minimizedRMSD -1
REMARK  0 active torsions:
REMARK  status: ('A' for Active; 'I' for Inactive)
ROOT
ATOM      1  C   UNL d   1       0.507  -1.048   1.434  0.00  0.00     0.124 A 
ATOM      2  C1  UNL d   1       0.610  -1.418   2.767  0.00  0.00     0.062 A 
ATOM      3  C2  UNL d   1       1.578  -2.334   3.167  0.00  0.00     0.162 A 
ATOM      4  C3  UNL d   1       2.453  -2.887   2.231  0.00  0.00    -0.034 A 
ATOM      5  C4  UNL d   1       2.343  -2.510   0.891  0.00  0.00     0.162 A 
ATOM      6  C5  UNL d   1       1.373  -1.594   0.497  0.00  0.00     0.062 A 
ATOM      7  F   UNL d   1       1.275  -1.238  -0.792  0.00  0.00    -0.097 F 
ATOM      8  F1  UNL d   1       3.168  -3.022  -0.034  0.00  0.00    -0.096 F 
ATOM      9  I   UNL d   1       3.903  -4.257   2.824  0.00  0.00    -0.060 I 
ATOM     10  F2  UNL d   1       1.655  -2.673   4.462  0.00  0.00    -0.096 F 
ATOM     11  F3  UNL d   1      -0.226  -0.892   3.674  0.00  0.00    -0.097 F 
ATOM     12  F4  UNL d   1      -0.427  -0.167   1.052  0.00  0.00    -0.092 F 
ENDROOT
TORSDOF 0
ENDMDL
