MODEL 1
REMARK minimizedAffinity 9.00289249
REMARK minimizedRMSD -1
REMARK  0 active torsions:
REMARK  status: ('A' for Active; 'I' for Inactive)
ROOT
ATOM      1  C   UNL d   1       3.851   0.552   0.022  0.00  0.00     0.124 A 
ATOM      2  C1  UNL d   1       2.725  -0.235  -0.172  0.00  0.00     0.062 A 
ATOM      3  C2  UNL d   1       1.531   0.342  -0.595  0.00  0.00     0.162 A 
ATOM      4  C3  UNL d   1       1.458   1.716  -0.828  0.00  0.00    -0.034 A 
ATOM      5  C4  UNL d   1       2.595   2.501  -0.630  0.00  0.00     0.162 A 
ATOM      6  C5  UNL d   1       3.785   1.919  -0.207  0.00  0.00     0.062 A 
ATOM      7  F   UNL d   1       4.872   2.682  -0.021  0.00  0.00    -0.097 F 
ATOM      8  F1  UNL d   1       2.559   3.825  -0.845  0.00  0.00    -0.096 F 
ATOM      9  I   UNL d   1      -0.325   2.583  -1.460  0.00  0.00    -0.060 I 
ATOM     10  F2  UNL d   1       0.459  -0.443  -0.774  0.00  0.00    -0.096 F 
ATOM     11  F3  UNL d   1       2.786  -1.556   0.049  0.00  0.00    -0.097 F 
ATOM     12  F4  UNL d   1       4.998  -0.006   0.429  0.00  0.00    -0.092 F 
ENDROOT
TORSDOF 0
ENDMDL
