MODEL 1
REMARK minimizedAffinity 5.97757149
REMARK minimizedRMSD -1
REMARK  0 active torsions:
REMARK  status: ('A' for Active; 'I' for Inactive)
ROOT
ATOM      1  C   UNL d   1      -0.333  -2.306   2.794  0.00  0.00     0.124 A 
ATOM      2  C1  UNL d   1      -0.868  -1.105   2.349  0.00  0.00     0.062 A 
ATOM      3  C2  UNL d   1      -0.203  -0.360   1.380  0.00  0.00     0.162 A 
ATOM      4  C3  UNL d   1       1.005  -0.813   0.849  0.00  0.00    -0.034 A 
ATOM      5  C4  UNL d   1       1.537  -2.021   1.303  0.00  0.00     0.162 A 
ATOM      6  C5  UNL d   1       0.869  -2.763   2.271  0.00  0.00     0.062 A 
ATOM      7  F   UNL d   1       1.387  -3.922   2.701  0.00  0.00    -0.097 F 
ATOM      8  F1  UNL d   1       2.696  -2.486   0.813  0.00  0.00    -0.096 F 
ATOM      9  I   UNL d   1       2.002   0.299  -0.600  0.00  0.00    -0.060 I 
ATOM     10  F2  UNL d   1      -0.743   0.797   0.968  0.00  0.00    -0.096 F 
ATOM     11  F3  UNL d   1      -2.028  -0.662   2.853  0.00  0.00    -0.097 F 
ATOM     12  F4  UNL d   1      -0.974  -3.021   3.728  0.00  0.00    -0.092 F 
ENDROOT
TORSDOF 0
ENDMDL
