MODEL 1
REMARK minimizedAffinity 2.71842384
REMARK minimizedRMSD -1
REMARK  0 active torsions:
REMARK  status: ('A' for Active; 'I' for Inactive)
ROOT
ATOM      1  C   UNL d   1       2.987  -3.140   0.274  0.00  0.00     0.124 A 
ATOM      2  C1  UNL d   1       4.092  -3.889   0.652  0.00  0.00     0.062 A 
ATOM      3  C2  UNL d   1       4.554  -3.843   1.964  0.00  0.00     0.162 A 
ATOM      4  C3  UNL d   1       3.909  -3.046   2.910  0.00  0.00    -0.034 A 
ATOM      5  C4  UNL d   1       2.798  -2.295   2.522  0.00  0.00     0.162 A 
ATOM      6  C5  UNL d   1       2.341  -2.343   1.209  0.00  0.00     0.062 A 
ATOM      7  F   UNL d   1       1.272  -1.619   0.847  0.00  0.00    -0.097 F 
ATOM      8  F1  UNL d   1       2.154  -1.517   3.406  0.00  0.00    -0.096 F 
ATOM      9  I   UNL d   1       4.596  -2.975   4.873  0.00  0.00    -0.060 I 
ATOM     10  F2  UNL d   1       5.625  -4.578   2.301  0.00  0.00    -0.096 F 
ATOM     11  F3  UNL d   1       4.719  -4.658  -0.250  0.00  0.00    -0.097 F 
ATOM     12  F4  UNL d   1       2.545  -3.184  -0.989  0.00  0.00    -0.092 F 
ENDROOT
TORSDOF 0
ENDMDL
