MODEL 1
REMARK minimizedAffinity 5.32463264
REMARK minimizedRMSD -1
REMARK  0 active torsions:
REMARK  status: ('A' for Active; 'I' for Inactive)
ROOT
ATOM      1  C   UNL d   1       1.849  -1.572   0.410  0.00  0.00     0.124 A 
ATOM      2  C1  UNL d   1       1.361  -1.858   1.677  0.00  0.00     0.062 A 
ATOM      3  C2  UNL d   1       0.149  -1.318   2.099  0.00  0.00     0.162 A 
ATOM      4  C3  UNL d   1      -0.583  -0.485   1.252  0.00  0.00    -0.034 A 
ATOM      5  C4  UNL d   1      -0.084  -0.201  -0.020  0.00  0.00     0.162 A 
ATOM      6  C5  UNL d   1       1.127  -0.744  -0.437  0.00  0.00     0.062 A 
ATOM      7  F   UNL d   1       1.598  -0.466  -1.662  0.00  0.00    -0.097 F 
ATOM      8  F1  UNL d   1      -0.762   0.595  -0.860  0.00  0.00    -0.096 F 
ATOM      9  I   UNL d   1      -2.394   0.325   1.879  0.00  0.00    -0.060 I 
ATOM     10  F2  UNL d   1      -0.299  -1.611   3.329  0.00  0.00    -0.096 F 
ATOM     11  F3  UNL d   1       2.057  -2.657   2.499  0.00  0.00    -0.097 F 
ATOM     12  F4  UNL d   1       3.016  -2.093   0.008  0.00  0.00    -0.092 F 
ENDROOT
TORSDOF 0
ENDMDL
