MODEL 1
REMARK minimizedAffinity 2.15204597
REMARK minimizedRMSD -1
REMARK  0 active torsions:
REMARK  status: ('A' for Active; 'I' for Inactive)
ROOT
ATOM      1  C   UNL d   1      -1.808   2.426  -2.791  0.00  0.00     0.124 A 
ATOM      2  C1  UNL d   1      -0.440   2.660  -2.792  0.00  0.00     0.062 A 
ATOM      3  C2  UNL d   1       0.432   1.718  -2.255  0.00  0.00     0.162 A 
ATOM      4  C3  UNL d   1      -0.061   0.531  -1.712  0.00  0.00    -0.034 A 
ATOM      5  C4  UNL d   1      -1.439   0.304  -1.714  0.00  0.00     0.162 A 
ATOM      6  C5  UNL d   1      -2.306   1.249  -2.252  0.00  0.00     0.062 A 
ATOM      7  F   UNL d   1      -3.627   1.021  -2.250  0.00  0.00    -0.097 F 
ATOM      8  F1  UNL d   1      -1.947  -0.826  -1.200  0.00  0.00    -0.096 F 
ATOM      9  I   UNL d   1       1.239  -0.880  -0.908  0.00  0.00    -0.060 I 
ATOM     10  F2  UNL d   1       1.749   1.970  -2.270  0.00  0.00    -0.096 F 
ATOM     11  F3  UNL d   1       0.044   3.798  -3.312  0.00  0.00    -0.097 F 
ATOM     12  F4  UNL d   1      -2.645   3.335  -3.308  0.00  0.00    -0.092 F 
ENDROOT
TORSDOF 0
ENDMDL
