MODEL 1
REMARK minimizedAffinity 2.83891964
REMARK minimizedRMSD -1
REMARK  0 active torsions:
REMARK  status: ('A' for Active; 'I' for Inactive)
ROOT
ATOM      1  C   UNL d   1      -1.056  -0.563   1.584  0.00  0.00     0.124 A 
ATOM      2  C1  UNL d   1      -0.714  -1.430   2.612  0.00  0.00     0.062 A 
ATOM      3  C2  UNL d   1       0.323  -2.343   2.443  0.00  0.00     0.162 A 
ATOM      4  C3  UNL d   1       1.027  -2.393   1.240  0.00  0.00    -0.034 A 
ATOM      5  C4  UNL d   1       0.677  -1.519   0.209  0.00  0.00     0.162 A 
ATOM      6  C5  UNL d   1      -0.360  -0.608   0.384  0.00  0.00     0.062 A 
ATOM      7  F   UNL d   1      -0.689   0.228  -0.611  0.00  0.00    -0.097 F 
ATOM      8  F1  UNL d   1       1.333  -1.540  -0.960  0.00  0.00    -0.096 F 
ATOM      9  I   UNL d   1       2.578  -3.756   0.983  0.00  0.00    -0.060 I 
ATOM     10  F2  UNL d   1       0.632  -3.168   3.454  0.00  0.00    -0.096 F 
ATOM     11  F3  UNL d   1      -1.385  -1.389   3.773  0.00  0.00    -0.097 F 
ATOM     12  F4  UNL d   1      -2.055   0.313   1.749  0.00  0.00    -0.092 F 
ENDROOT
TORSDOF 0
ENDMDL
