MODEL 1
REMARK minimizedAffinity 9.8059597
REMARK minimizedRMSD -1
REMARK  0 active torsions:
REMARK  status: ('A' for Active; 'I' for Inactive)
ROOT
ATOM      1  C   UNL d   1      -0.049  -2.965   2.943  0.00  0.00     0.124 A 
ATOM      2  C1  UNL d   1       0.935  -3.554   2.161  0.00  0.00     0.062 A 
ATOM      3  C2  UNL d   1       1.618  -2.801   1.211  0.00  0.00     0.162 A 
ATOM      4  C3  UNL d   1       1.321  -1.449   1.038  0.00  0.00    -0.034 A 
ATOM      5  C4  UNL d   1       0.330  -0.864   1.827  0.00  0.00     0.162 A 
ATOM      6  C5  UNL d   1      -0.350  -1.621   2.775  0.00  0.00     0.062 A 
ATOM      7  F   UNL d   1      -1.301  -1.050   3.530  0.00  0.00    -0.097 F 
ATOM      8  F1  UNL d   1       0.019   0.433   1.687  0.00  0.00    -0.096 F 
ATOM      9  I   UNL d   1       2.342  -0.319  -0.382  0.00  0.00    -0.060 I 
ATOM     10  F2  UNL d   1       2.564  -3.397   0.469  0.00  0.00    -0.096 F 
ATOM     11  F3  UNL d   1       1.227  -4.853   2.320  0.00  0.00    -0.097 F 
ATOM     12  F4  UNL d   1      -0.706  -3.693   3.855  0.00  0.00    -0.092 F 
ENDROOT
TORSDOF 0
ENDMDL
