MODEL 1
REMARK minimizedAffinity 4.41028357
REMARK minimizedRMSD -1
REMARK  0 active torsions:
REMARK  status: ('A' for Active; 'I' for Inactive)
ROOT
ATOM      1  C   UNL d   1      -0.283  -2.856   2.927  0.00  0.00     0.124 A 
ATOM      2  C1  UNL d   1      -0.549  -1.506   2.742  0.00  0.00     0.062 A 
ATOM      3  C2  UNL d   1       0.129  -0.787   1.762  0.00  0.00     0.162 A 
ATOM      4  C3  UNL d   1       1.079  -1.417   0.958  0.00  0.00    -0.034 A 
ATOM      5  C4  UNL d   1       1.342  -2.774   1.150  0.00  0.00     0.162 A 
ATOM      6  C5  UNL d   1       0.662  -3.489   2.132  0.00  0.00     0.062 A 
ATOM      7  F   UNL d   1       0.920  -4.792   2.309  0.00  0.00    -0.097 F 
ATOM      8  F1  UNL d   1       2.249  -3.411   0.395  0.00  0.00    -0.096 F 
ATOM      9  I   UNL d   1       2.095  -0.345  -0.509  0.00  0.00    -0.060 I 
ATOM     10  F2  UNL d   1      -0.148   0.516   1.605  0.00  0.00    -0.096 F 
ATOM     11  F3  UNL d   1      -1.460  -0.892   3.511  0.00  0.00    -0.097 F 
ATOM     12  F4  UNL d   1      -0.936  -3.545   3.872  0.00  0.00    -0.092 F 
ENDROOT
TORSDOF 0
ENDMDL
