MODEL 1
REMARK minimizedAffinity 9.58164501
REMARK minimizedRMSD -1
REMARK  0 active torsions:
REMARK  status: ('A' for Active; 'I' for Inactive)
ROOT
ATOM      1  C   UNL d   1      -2.675   1.383  -0.115  0.00  0.00     0.124 A 
ATOM      2  C1  UNL d   1      -1.702   2.345  -0.351  0.00  0.00     0.062 A 
ATOM      3  C2  UNL d   1      -0.458   2.248   0.266  0.00  0.00     0.162 A 
ATOM      4  C3  UNL d   1      -0.180   1.186   1.126  0.00  0.00    -0.034 A 
ATOM      5  C4  UNL d   1      -1.164   0.223   1.359  0.00  0.00     0.162 A 
ATOM      6  C5  UNL d   1      -2.405   0.324   0.739  0.00  0.00     0.062 A 
ATOM      7  F   UNL d   1      -3.344  -0.606   0.968  0.00  0.00    -0.097 F 
ATOM      8  F1  UNL d   1      -0.929  -0.812   2.179  0.00  0.00    -0.096 F 
ATOM      9  I   UNL d   1       1.679   1.038   2.051  0.00  0.00    -0.060 I 
ATOM     10  F2  UNL d   1       0.463   3.192   0.020  0.00  0.00    -0.096 F 
ATOM     11  F3  UNL d   1      -1.961   3.370  -1.176  0.00  0.00    -0.097 F 
ATOM     12  F4  UNL d   1      -3.871   1.479  -0.710  0.00  0.00    -0.092 F 
ENDROOT
TORSDOF 0
ENDMDL
