MODEL 1
REMARK minimizedAffinity 9.70737934
REMARK minimizedRMSD -1
REMARK  0 active torsions:
REMARK  status: ('A' for Active; 'I' for Inactive)
ROOT
ATOM      1  C   UNL d   1      -1.763   2.559   0.007  0.00  0.00     0.124 A 
ATOM      2  C1  UNL d   1      -2.951   1.960   0.404  0.00  0.00     0.062 A 
ATOM      3  C2  UNL d   1      -2.927   0.781   1.143  0.00  0.00     0.162 A 
ATOM      4  C3  UNL d   1      -1.711   0.193   1.491  0.00  0.00    -0.034 A 
ATOM      5  C4  UNL d   1      -0.521   0.801   1.087  0.00  0.00     0.162 A 
ATOM      6  C5  UNL d   1      -0.550   1.979   0.348  0.00  0.00     0.062 A 
ATOM      7  F   UNL d   1       0.598   2.557  -0.035  0.00  0.00    -0.097 F 
ATOM      8  F1  UNL d   1       0.666   0.262   1.404  0.00  0.00    -0.096 F 
ATOM      9  I   UNL d   1      -1.670  -1.570   2.596  0.00  0.00    -0.060 I 
ATOM     10  F2  UNL d   1      -4.089   0.224   1.514  0.00  0.00    -0.096 F 
ATOM     11  F3  UNL d   1      -4.125   2.518   0.075  0.00  0.00    -0.097 F 
ATOM     12  F4  UNL d   1      -1.789   3.693  -0.705  0.00  0.00    -0.092 F 
ENDROOT
TORSDOF 0
ENDMDL
