MODEL 1
REMARK minimizedAffinity 10.0554419
REMARK minimizedRMSD -1
REMARK  0 active torsions:
REMARK  status: ('A' for Active; 'I' for Inactive)
ROOT
ATOM      1  C   UNL d   1      -3.069   1.507   0.308  0.00  0.00     0.124 A 
ATOM      2  C1  UNL d   1      -2.157   2.490  -0.052  0.00  0.00     0.062 A 
ATOM      3  C2  UNL d   1      -0.842   2.423   0.398  0.00  0.00     0.162 A 
ATOM      4  C3  UNL d   1      -0.429   1.368   1.212  0.00  0.00    -0.034 A 
ATOM      5  C4  UNL d   1      -1.352   0.384   1.570  0.00  0.00     0.162 A 
ATOM      6  C5  UNL d   1      -2.666   0.456   1.118  0.00  0.00     0.062 A 
ATOM      7  F   UNL d   1      -3.545  -0.495   1.467  0.00  0.00    -0.097 F 
ATOM      8  F1  UNL d   1      -0.989  -0.644   2.352  0.00  0.00    -0.096 F 
ATOM      9  I   UNL d   1       1.537   1.264   1.887  0.00  0.00    -0.060 I 
ATOM     10  F2  UNL d   1       0.018   3.387   0.035  0.00  0.00    -0.096 F 
ATOM     11  F3  UNL d   1      -2.544   3.508  -0.834  0.00  0.00    -0.097 F 
ATOM     12  F4  UNL d   1      -4.334   1.575  -0.126  0.00  0.00    -0.092 F 
ENDROOT
TORSDOF 0
ENDMDL
