MODEL 1
REMARK minimizedAffinity 14.2323618
REMARK minimizedRMSD -1
REMARK  0 active torsions:
REMARK  status: ('A' for Active; 'I' for Inactive)
ROOT
ATOM      1  C   UNL d   1       1.098   3.382   2.001  0.00  0.00     0.124 A 
ATOM      2  C1  UNL d   1       1.313   4.173   0.881  0.00  0.00     0.062 A 
ATOM      3  C2  UNL d   1       2.482   4.921   0.767  0.00  0.00     0.162 A 
ATOM      4  C3  UNL d   1       3.445   4.881   1.775  0.00  0.00    -0.034 A 
ATOM      5  C4  UNL d   1       3.221   4.084   2.898  0.00  0.00     0.162 A 
ATOM      6  C5  UNL d   1       2.052   3.338   3.008  0.00  0.00     0.062 A 
ATOM      7  F   UNL d   1       1.846   2.574   4.091  0.00  0.00    -0.097 F 
ATOM      8  F1  UNL d   1       4.127   4.022   3.886  0.00  0.00    -0.096 F 
ATOM      9  I   UNL d   1       5.193   5.998   1.607  0.00  0.00    -0.060 I 
ATOM     10  F2  UNL d   1       2.663   5.677  -0.327  0.00  0.00    -0.096 F 
ATOM     11  F3  UNL d   1       0.393   4.219  -0.093  0.00  0.00    -0.097 F 
ATOM     12  F4  UNL d   1      -0.027   2.664   2.110  0.00  0.00    -0.092 F 
ENDROOT
TORSDOF 0
ENDMDL
