MODEL 1
REMARK minimizedAffinity 18.4173565
REMARK minimizedRMSD -1
REMARK  0 active torsions:
REMARK  status: ('A' for Active; 'I' for Inactive)
ROOT
ATOM      1  C   UNL d   1       0.193   3.388   2.565  0.00  0.00     0.124 A 
ATOM      2  C1  UNL d   1      -0.523   2.224   2.321  0.00  0.00     0.062 A 
ATOM      3  C2  UNL d   1       0.028   1.214   1.537  0.00  0.00     0.162 A 
ATOM      4  C3  UNL d   1       1.303   1.364   0.991  0.00  0.00    -0.034 A 
ATOM      5  C4  UNL d   1       2.016   2.538   1.239  0.00  0.00     0.162 A 
ATOM      6  C5  UNL d   1       1.461   3.544   2.024  0.00  0.00     0.062 A 
ATOM      7  F   UNL d   1       2.154   4.668   2.257  0.00  0.00    -0.097 F 
ATOM      8  F1  UNL d   1       3.244   2.715   0.729  0.00  0.00    -0.096 F 
ATOM      9  I   UNL d   1       2.130  -0.143  -0.182  0.00  0.00    -0.060 I 
ATOM     10  F2  UNL d   1      -0.686   0.100   1.319  0.00  0.00    -0.096 F 
ATOM     11  F3  UNL d   1      -1.749   2.071   2.842  0.00  0.00    -0.097 F 
ATOM     12  F4  UNL d   1      -0.340   4.358   3.319  0.00  0.00    -0.092 F 
ENDROOT
TORSDOF 0
ENDMDL
