MODEL 1
REMARK minimizedAffinity 8.15781593
REMARK minimizedRMSD -1
REMARK  0 active torsions:
REMARK  status: ('A' for Active; 'I' for Inactive)
ROOT
ATOM      1  C   UNL d   1       1.644   2.975   2.954  0.00  0.00     0.124 A 
ATOM      2  C1  UNL d   1       2.041   2.076   1.975  0.00  0.00     0.062 A 
ATOM      3  C2  UNL d   1       1.091   1.350   1.264  0.00  0.00     0.162 A 
ATOM      4  C3  UNL d   1      -0.268   1.520   1.529  0.00  0.00    -0.034 A 
ATOM      5  C4  UNL d   1      -0.661   2.425   2.517  0.00  0.00     0.162 A 
ATOM      6  C5  UNL d   1       0.293   3.149   3.224  0.00  0.00     0.062 A 
ATOM      7  F   UNL d   1      -0.093   4.017   4.171  0.00  0.00    -0.097 F 
ATOM      8  F1  UNL d   1      -1.959   2.613   2.797  0.00  0.00    -0.096 F 
ATOM      9  I   UNL d   1      -1.693   0.436   0.468  0.00  0.00    -0.060 I 
ATOM     10  F2  UNL d   1       1.504   0.488   0.322  0.00  0.00    -0.096 F 
ATOM     11  F3  UNL d   1       3.345   1.906   1.713  0.00  0.00    -0.097 F 
ATOM     12  F4  UNL d   1       2.561   3.672   3.638  0.00  0.00    -0.092 F 
ENDROOT
TORSDOF 0
ENDMDL
