MODEL 1
REMARK minimizedAffinity 9.16869831
REMARK minimizedRMSD -1
REMARK  0 active torsions:
REMARK  status: ('A' for Active; 'I' for Inactive)
ROOT
ATOM      1  C   UNL d   1      -0.009   3.376   1.964  0.00  0.00     0.124 A 
ATOM      2  C1  UNL d   1       0.721   4.225   1.143  0.00  0.00     0.062 A 
ATOM      3  C2  UNL d   1       1.769   4.975   1.667  0.00  0.00     0.162 A 
ATOM      4  C3  UNL d   1       2.095   4.879   3.020  0.00  0.00    -0.034 A 
ATOM      5  C4  UNL d   1       1.356   4.024   3.840  0.00  0.00     0.162 A 
ATOM      6  C5  UNL d   1       0.309   3.276   3.311  0.00  0.00     0.062 A 
ATOM      7  F   UNL d   1      -0.395   2.457   4.105  0.00  0.00    -0.097 F 
ATOM      8  F1  UNL d   1       1.643   3.908   5.145  0.00  0.00    -0.096 F 
ATOM      9  I   UNL d   1       3.663   5.999   3.808  0.00  0.00    -0.060 I 
ATOM     10  F2  UNL d   1       2.458   5.787   0.851  0.00  0.00    -0.096 F 
ATOM     11  F3  UNL d   1       0.415   4.323  -0.159  0.00  0.00    -0.097 F 
ATOM     12  F4  UNL d   1      -1.018   2.656   1.457  0.00  0.00    -0.092 F 
ENDROOT
TORSDOF 0
ENDMDL
