MODEL 1
REMARK minimizedAffinity 12.6514788
REMARK minimizedRMSD -1
REMARK  0 active torsions:
REMARK  status: ('A' for Active; 'I' for Inactive)
ROOT
ATOM      1  C   UNL d   1       1.399   2.892   2.885  0.00  0.00     0.124 A 
ATOM      2  C1  UNL d   1       0.091   3.222   3.212  0.00  0.00     0.062 A 
ATOM      3  C2  UNL d   1      -0.971   2.640   2.525  0.00  0.00     0.162 A 
ATOM      4  C3  UNL d   1      -0.729   1.719   1.505  0.00  0.00    -0.034 A 
ATOM      5  C4  UNL d   1       0.589   1.392   1.182  0.00  0.00     0.162 A 
ATOM      6  C5  UNL d   1       1.647   1.977   1.871  0.00  0.00     0.062 A 
ATOM      7  F   UNL d   1       2.910   1.656   1.554  0.00  0.00    -0.097 F 
ATOM      8  F1  UNL d   1       0.857   0.511   0.207  0.00  0.00    -0.096 F 
ATOM      9  I   UNL d   1      -2.314   0.847   0.477  0.00  0.00    -0.060 I 
ATOM     10  F2  UNL d   1      -2.224   2.978   2.862  0.00  0.00    -0.096 F 
ATOM     11  F3  UNL d   1      -0.151   4.106   4.190  0.00  0.00    -0.097 F 
ATOM     12  F4  UNL d   1       2.419   3.454   3.546  0.00  0.00    -0.092 F 
ENDROOT
TORSDOF 0
ENDMDL
