MODEL 1
REMARK minimizedAffinity 11.1589956
REMARK minimizedRMSD -1
REMARK  0 active torsions:
REMARK  status: ('A' for Active; 'I' for Inactive)
ROOT
ATOM      1  C   UNL d   1       1.279   2.779   2.480  0.00  0.00     0.124 A 
ATOM      2  C1  UNL d   1       1.655   1.666   1.741  0.00  0.00     0.062 A 
ATOM      3  C2  UNL d   1       0.688   0.845   1.169  0.00  0.00     0.162 A 
ATOM      4  C3  UNL d   1      -0.667   1.135   1.333  0.00  0.00    -0.034 A 
ATOM      5  C4  UNL d   1      -1.038   2.256   2.078  0.00  0.00     0.162 A 
ATOM      6  C5  UNL d   1      -0.067   3.073   2.648  0.00  0.00     0.062 A 
ATOM      7  F   UNL d   1      -0.433   4.148   3.361  0.00  0.00    -0.097 F 
ATOM      8  F1  UNL d   1      -2.331   2.564   2.255  0.00  0.00    -0.096 F 
ATOM      9  I   UNL d   1      -2.117  -0.090   0.479  0.00  0.00    -0.060 I 
ATOM     10  F2  UNL d   1       1.080  -0.224   0.461  0.00  0.00    -0.096 F 
ATOM     11  F3  UNL d   1       2.955   1.380   1.578  0.00  0.00    -0.097 F 
ATOM     12  F4  UNL d   1       2.212   3.567   3.030  0.00  0.00    -0.092 F 
ENDROOT
TORSDOF 0
ENDMDL
