MODEL 1
REMARK minimizedAffinity 15.1584616
REMARK minimizedRMSD -1
REMARK  0 active torsions:
REMARK  status: ('A' for Active; 'I' for Inactive)
ROOT
ATOM      1  C   UNL d   1       2.277   1.635  -2.382  0.00  0.00     0.124 A 
ATOM      2  C1  UNL d   1       0.913   1.874  -2.474  0.00  0.00     0.062 A 
ATOM      3  C2  UNL d   1       0.095   1.701  -1.361  0.00  0.00     0.162 A 
ATOM      4  C3  UNL d   1       0.639   1.287  -0.146  0.00  0.00    -0.034 A 
ATOM      5  C4  UNL d   1       2.011   1.047  -0.060  0.00  0.00     0.162 A 
ATOM      6  C5  UNL d   1       2.825   1.222  -1.175  0.00  0.00     0.062 A 
ATOM      7  F   UNL d   1       4.142   0.990  -1.084  0.00  0.00    -0.097 F 
ATOM      8  F1  UNL d   1       2.567   0.648   1.093  0.00  0.00    -0.096 F 
ATOM      9  I   UNL d   1      -0.581   1.027   1.520  0.00  0.00    -0.060 I 
ATOM     10  F2  UNL d   1      -1.220   1.939  -1.480  0.00  0.00    -0.096 F 
ATOM     11  F3  UNL d   1       0.381   2.272  -3.639  0.00  0.00    -0.097 F 
ATOM     12  F4  UNL d   1       3.062   1.801  -3.454  0.00  0.00    -0.092 F 
ENDROOT
TORSDOF 0
ENDMDL
