MODEL 1
REMARK minimizedAffinity 0.415571094
REMARK minimizedRMSD -1
REMARK  0 active torsions:
REMARK  status: ('A' for Active; 'I' for Inactive)
ROOT
ATOM      1  C   UNL d   1      -0.529   2.008   2.442  0.00  0.00     0.124 A 
ATOM      2  C1  UNL d   1      -0.957   1.428   1.256  0.00  0.00     0.062 A 
ATOM      3  C2  UNL d   1      -0.028   0.980   0.321  0.00  0.00     0.162 A 
ATOM      4  C3  UNL d   1       1.339   1.109   0.569  0.00  0.00    -0.034 A 
ATOM      5  C4  UNL d   1       1.761   1.694   1.764  0.00  0.00     0.162 A 
ATOM      6  C5  UNL d   1       0.829   2.140   2.695  0.00  0.00     0.062 A 
ATOM      7  F   UNL d   1       1.244   2.700   3.841  0.00  0.00    -0.097 F 
ATOM      8  F1  UNL d   1       3.067   1.834   2.035  0.00  0.00    -0.096 F 
ATOM      9  I   UNL d   1       2.731   0.440  -0.826  0.00  0.00    -0.060 I 
ATOM     10  F2  UNL d   1      -0.470   0.423  -0.817  0.00  0.00    -0.096 F 
ATOM     11  F3  UNL d   1      -2.268   1.299   1.009  0.00  0.00    -0.097 F 
ATOM     12  F4  UNL d   1      -1.425   2.439   3.339  0.00  0.00    -0.092 F 
ENDROOT
TORSDOF 0
ENDMDL
