MODEL 1
REMARK minimizedAffinity 16.5330563
REMARK minimizedRMSD -1
REMARK  0 active torsions:
REMARK  status: ('A' for Active; 'I' for Inactive)
ROOT
ATOM      1  C   UNL d   1       1.531  -5.995   4.120  0.00  0.00     0.124 A 
ATOM      2  C1  UNL d   1       1.738  -5.995   2.747  0.00  0.00     0.062 A 
ATOM      3  C2  UNL d   1       0.653  -5.996   1.875  0.00  0.00     0.162 A 
ATOM      4  C3  UNL d   1      -0.650  -5.997   2.374  0.00  0.00    -0.034 A 
ATOM      5  C4  UNL d   1      -0.850  -5.998   3.755  0.00  0.00     0.162 A 
ATOM      6  C5  UNL d   1       0.238  -5.996   4.622  0.00  0.00     0.062 A 
ATOM      7  F   UNL d   1       0.036  -5.996   5.948  0.00  0.00    -0.097 F 
ATOM      8  F1  UNL d   1      -2.090  -5.999   4.268  0.00  0.00    -0.096 F 
ATOM      9  I   UNL d   1      -2.275  -6.000   1.074  0.00  0.00    -0.060 I 
ATOM     10  F2  UNL d   1       0.883  -5.996   0.554  0.00  0.00    -0.096 F 
ATOM     11  F3  UNL d   1       2.987  -5.994   2.259  0.00  0.00    -0.097 F 
ATOM     12  F4  UNL d   1       2.577  -5.994   4.956  0.00  0.00    -0.092 F 
ENDROOT
TORSDOF 0
ENDMDL
