MODEL 1
REMARK minimizedAffinity 21.6651001
REMARK minimizedRMSD -1
REMARK  0 active torsions:
REMARK  status: ('A' for Active; 'I' for Inactive)
ROOT
ATOM      1  C   UNL d   1       0.060   2.143   2.628  0.00  0.00     0.124 A 
ATOM      2  C1  UNL d   1      -0.505   1.513   1.528  0.00  0.00     0.062 A 
ATOM      3  C2  UNL d   1       0.304   0.860   0.603  0.00  0.00     0.162 A 
ATOM      4  C3  UNL d   1       1.688   0.833   0.774  0.00  0.00    -0.034 A 
ATOM      5  C4  UNL d   1       2.250   1.469   1.882  0.00  0.00     0.162 A 
ATOM      6  C5  UNL d   1       1.437   2.121   2.804  0.00  0.00     0.062 A 
ATOM      7  F   UNL d   1       1.985   2.729   3.866  0.00  0.00    -0.097 F 
ATOM      8  F1  UNL d   1       3.577   1.462   2.077  0.00  0.00    -0.096 F 
ATOM      9  I   UNL d   1       2.901  -0.143  -0.607  0.00  0.00    -0.060 I 
ATOM     10  F2  UNL d   1      -0.270   0.260  -0.451  0.00  0.00    -0.096 F 
ATOM     11  F3  UNL d   1      -1.835   1.535   1.355  0.00  0.00    -0.097 F 
ATOM     12  F4  UNL d   1      -0.720   2.772   3.516  0.00  0.00    -0.092 F 
ENDROOT
TORSDOF 0
ENDMDL
