MODEL 1
REMARK minimizedAffinity 7.01959038
REMARK minimizedRMSD -1
REMARK  0 active torsions:
REMARK  status: ('A' for Active; 'I' for Inactive)
ROOT
ATOM      1  C   UNL d   1      -0.266   2.380   2.388  0.00  0.00     0.124 A 
ATOM      2  C1  UNL d   1       1.113   2.501   2.493  0.00  0.00     0.062 A 
ATOM      3  C2  UNL d   1       1.931   2.134   1.428  0.00  0.00     0.162 A 
ATOM      4  C3  UNL d   1       1.373   1.643   0.248  0.00  0.00    -0.034 A 
ATOM      5  C4  UNL d   1      -0.015   1.522   0.150  0.00  0.00     0.162 A 
ATOM      6  C5  UNL d   1      -0.828   1.891   1.217  0.00  0.00     0.062 A 
ATOM      7  F   UNL d   1      -2.160   1.772   1.114  0.00  0.00    -0.097 F 
ATOM      8  F1  UNL d   1      -0.585   1.053  -0.970  0.00  0.00    -0.096 F 
ATOM      9  I   UNL d   1       2.593   1.093  -1.346  0.00  0.00    -0.060 I 
ATOM     10  F2  UNL d   1       3.260   2.262   1.558  0.00  0.00    -0.096 F 
ATOM     11  F3  UNL d   1       1.659   2.973   3.623  0.00  0.00    -0.097 F 
ATOM     12  F4  UNL d   1      -1.051   2.733   3.414  0.00  0.00    -0.092 F 
ENDROOT
TORSDOF 0
ENDMDL
