MODEL 1
REMARK minimizedAffinity 4.24998045
REMARK minimizedRMSD -1
REMARK  0 active torsions:
REMARK  status: ('A' for Active; 'I' for Inactive)
ROOT
ATOM      1  C   UNL d   1       0.288   1.784   2.309  0.00  0.00     0.124 A 
ATOM      2  C1  UNL d   1       0.946   1.053   1.330  0.00  0.00     0.062 A 
ATOM      3  C2  UNL d   1       2.283   1.313   1.043  0.00  0.00     0.162 A 
ATOM      4  C3  UNL d   1       2.971   2.309   1.736  0.00  0.00    -0.034 A 
ATOM      5  C4  UNL d   1       2.302   3.040   2.719  0.00  0.00     0.162 A 
ATOM      6  C5  UNL d   1       0.966   2.776   3.003  0.00  0.00     0.062 A 
ATOM      7  F   UNL d   1       0.331   3.483   3.949  0.00  0.00    -0.097 F 
ATOM      8  F1  UNL d   1       2.933   4.005   3.405  0.00  0.00    -0.096 F 
ATOM      9  I   UNL d   1       4.970   2.701   1.310  0.00  0.00    -0.060 I 
ATOM     10  F2  UNL d   1       2.894   0.592   0.091  0.00  0.00    -0.096 F 
ATOM     11  F3  UNL d   1       0.293   0.094   0.658  0.00  0.00    -0.097 F 
ATOM     12  F4  UNL d   1      -0.999   1.532   2.583  0.00  0.00    -0.092 F 
ENDROOT
TORSDOF 0
ENDMDL
