MODEL 1
REMARK minimizedAffinity 8.58937168
REMARK minimizedRMSD -1
REMARK  0 active torsions:
REMARK  status: ('A' for Active; 'I' for Inactive)
ROOT
ATOM      1  C   UNL d   1       1.310   2.740   2.516  0.00  0.00     0.124 A 
ATOM      2  C1  UNL d   1      -0.019   2.951   2.856  0.00  0.00     0.062 A 
ATOM      3  C2  UNL d   1      -1.025   2.206   2.247  0.00  0.00     0.162 A 
ATOM      4  C3  UNL d   1      -0.706   1.242   1.291  0.00  0.00    -0.034 A 
ATOM      5  C4  UNL d   1       0.633   1.036   0.953  0.00  0.00     0.162 A 
ATOM      6  C5  UNL d   1       1.635   1.783   1.565  0.00  0.00     0.062 A 
ATOM      7  F   UNL d   1       2.918   1.578   1.234  0.00  0.00    -0.097 F 
ATOM      8  F1  UNL d   1       0.975   0.117   0.038  0.00  0.00    -0.096 F 
ATOM      9  I   UNL d   1      -2.206   0.126   0.379  0.00  0.00    -0.060 I 
ATOM     10  F2  UNL d   1      -2.300   2.432   2.596  0.00  0.00    -0.096 F 
ATOM     11  F3  UNL d   1      -0.336   3.876   3.774  0.00  0.00    -0.097 F 
ATOM     12  F4  UNL d   1       2.275   3.459   3.102  0.00  0.00    -0.092 F 
ENDROOT
TORSDOF 0
ENDMDL
