MODEL 1
REMARK minimizedAffinity 7.08863878
REMARK minimizedRMSD -1
REMARK  0 active torsions:
REMARK  status: ('A' for Active; 'I' for Inactive)
ROOT
ATOM      1  C4' PXY d   1      -1.272  -1.356   0.423  0.00  0.00     0.077 C 
ATOM      2  C1' PXY d   1       4.260  -0.135  -0.725  0.00  0.00     0.077 C 
ATOM      3  C1  PXY d   1       2.809  -0.445  -0.416  0.00  0.00    -0.082 A 
ATOM      4  C2  PXY d   1       2.352  -1.675  -0.586  0.00  0.00     0.003 A 
ATOM      5  C3  PXY d   1       1.035  -1.966  -0.341  0.00  0.00     0.003 A 
ATOM      6  C4  PXY d   1       0.188  -0.999   0.132  0.00  0.00    -0.082 A 
ATOM      7  C5  PXY d   1       0.649   0.256   0.318  0.00  0.00     0.003 A 
ATOM      8  C6  PXY d   1       1.980   0.540   0.025  0.00  0.00     0.003 A 
ENDROOT
TORSDOF 0
ENDMDL
