MODEL 1
REMARK minimizedAffinity 9.78293705
REMARK minimizedRMSD -1
REMARK  0 active torsions:
REMARK  status: ('A' for Active; 'I' for Inactive)
ROOT
ATOM      1  C4' PXY d   1       3.926   2.248  -0.733  0.00  0.00     0.077 C 
ATOM      2  C1' PXY d   1       0.762   2.448   4.100  0.00  0.00     0.077 C 
ATOM      3  C1  PXY d   1       1.585   2.386   2.828  0.00  0.00    -0.082 A 
ATOM      4  C2  PXY d   1       2.823   2.852   2.827  0.00  0.00     0.003 A 
ATOM      5  C3  PXY d   1       3.570   2.833   1.677  0.00  0.00     0.003 A 
ATOM      6  C4  PXY d   1       3.062   2.282   0.530  0.00  0.00    -0.082 A 
ATOM      7  C5  PXY d   1       1.803   1.795   0.527  0.00  0.00     0.003 A 
ATOM      8  C6  PXY d   1       1.047   1.861   1.694  0.00  0.00     0.003 A 
ENDROOT
TORSDOF 0
ENDMDL
