MODEL 1
REMARK minimizedAffinity 7.3909812
REMARK minimizedRMSD -1
REMARK  0 active torsions:
REMARK  status: ('A' for Active; 'I' for Inactive)
ROOT
ATOM      1  C4' PXY d   1      -1.431  -3.076  -2.731  0.00  0.00     0.077 C 
ATOM      2  C1' PXY d   1       0.762   1.180   0.508  0.00  0.00     0.077 C 
ATOM      3  C1  PXY d   1       0.198   0.058  -0.342  0.00  0.00    -0.082 A 
ATOM      4  C2  PXY d   1      -0.876   0.275  -1.083  0.00  0.00     0.003 A 
ATOM      5  C3  PXY d   1      -1.418  -0.738  -1.832  0.00  0.00     0.003 A 
ATOM      6  C4  PXY d   1      -0.822  -1.970  -1.865  0.00  0.00    -0.082 A 
ATOM      7  C5  PXY d   1       0.281  -2.196  -1.120  0.00  0.00     0.003 A 
ATOM      8  C6  PXY d   1       0.791  -1.167  -0.334  0.00  0.00     0.003 A 
ENDROOT
TORSDOF 0
ENDMDL
