MODEL 1
REMARK minimizedAffinity 3.61115837
REMARK minimizedRMSD -1
REMARK  0 active torsions:
REMARK  status: ('A' for Active; 'I' for Inactive)
ROOT
ATOM      1  C4' PXY d   1      -0.090  -3.927  -1.063  0.00  0.00     0.077 C 
ATOM      2  C1' PXY d   1       0.978   1.690  -0.212  0.00  0.00     0.077 C 
ATOM      3  C1  PXY d   1       0.710   0.216  -0.440  0.00  0.00    -0.082 A 
ATOM      4  C2  PXY d   1      -0.535  -0.209  -0.581  0.00  0.00     0.003 A 
ATOM      5  C3  PXY d   1      -0.798  -1.543  -0.756  0.00  0.00     0.003 A 
ATOM      6  C4  PXY d   1       0.228  -2.446  -0.841  0.00  0.00    -0.082 A 
ATOM      7  C5  PXY d   1       1.502  -2.019  -0.708  0.00  0.00     0.003 A 
ATOM      8  C6  PXY d   1       1.745  -0.666  -0.490  0.00  0.00     0.003 A 
ENDROOT
TORSDOF 0
ENDMDL
