MODEL 1
REMARK minimizedAffinity -0.607124507
REMARK minimizedRMSD -1
REMARK  0 active torsions:
REMARK  status: ('A' for Active; 'I' for Inactive)
ROOT
ATOM      1  C4' PXY d   1      -0.443   3.054   3.306  0.00  0.00     0.077 C 
ATOM      2  C1' PXY d   1       3.424   1.170  -0.555  0.00  0.00     0.077 C 
ATOM      3  C1  PXY d   1       2.417   1.660   0.467  0.00  0.00    -0.082 A 
ATOM      4  C2  PXY d   1       1.148   1.802   0.120  0.00  0.00     0.003 A 
ATOM      5  C3  PXY d   1       0.231   2.274   1.023  0.00  0.00     0.003 A 
ATOM      6  C4  PXY d   1       0.606   2.553   2.310  0.00  0.00    -0.082 A 
ATOM      7  C5  PXY d   1       1.896   2.401   2.675  0.00  0.00     0.003 A 
ATOM      8  C6  PXY d   1       2.820   1.960   1.732  0.00  0.00     0.003 A 
ENDROOT
TORSDOF 0
ENDMDL
