MODEL 1
REMARK minimizedAffinity 2.04904962
REMARK minimizedRMSD -1
REMARK  0 active torsions:
REMARK  status: ('A' for Active; 'I' for Inactive)
ROOT
ATOM      1  C4' PXY d   1       4.060   0.620  -0.624  0.00  0.00     0.077 C 
ATOM      2  C1' PXY d   1      -0.673  -2.686  -0.331  0.00  0.00     0.077 C 
ATOM      3  C1  PXY d   1       0.561  -1.809  -0.409  0.00  0.00    -0.082 A 
ATOM      4  C2  PXY d   1       1.711  -2.330  -0.803  0.00  0.00     0.003 A 
ATOM      5  C3  PXY d   1       2.843  -1.558  -0.849  0.00  0.00     0.003 A 
ATOM      6  C4  PXY d   1       2.787  -0.226  -0.539  0.00  0.00    -0.082 A 
ATOM      7  C5  PXY d   1       1.615   0.316  -0.146  0.00  0.00     0.003 A 
ATOM      8  C6  PXY d   1       0.485  -0.494  -0.066  0.00  0.00     0.003 A 
ENDROOT
TORSDOF 0
ENDMDL
