MODEL 1
REMARK minimizedAffinity -0.734259486
REMARK minimizedRMSD -1
REMARK  0 active torsions:
REMARK  status: ('A' for Active; 'I' for Inactive)
ROOT
ATOM      1  C4' PXY d   1       1.478   1.128   0.607  0.00  0.00     0.077 C 
ATOM      2  C1' PXY d   1       3.699  -3.340  -2.311  0.00  0.00     0.077 C 
ATOM      3  C1  PXY d   1       3.129  -2.163  -1.545  0.00  0.00    -0.082 A 
ATOM      4  C2  PXY d   1       2.009  -2.312  -0.855  0.00  0.00     0.003 A 
ATOM      5  C3  PXY d   1       1.462  -1.249  -0.183  0.00  0.00     0.003 A 
ATOM      6  C4  PXY d   1       2.096  -0.035  -0.173  0.00  0.00    -0.082 A 
ATOM      7  C5  PXY d   1       3.244   0.122  -0.866  0.00  0.00     0.003 A 
ATOM      8  C6  PXY d   1       3.761  -0.958  -1.575  0.00  0.00     0.003 A 
ENDROOT
TORSDOF 0
ENDMDL
