MODEL 1
REMARK minimizedAffinity 6.22404766
REMARK minimizedRMSD -1
REMARK  0 active torsions:
REMARK  status: ('A' for Active; 'I' for Inactive)
ROOT
ATOM      1  C4' PXY d   1       4.161   1.215  -1.123  0.00  0.00     0.077 C 
ATOM      2  C1' PXY d   1      -0.256  -2.441  -0.387  0.00  0.00     0.077 C 
ATOM      3  C1  PXY d   1       0.894  -1.472  -0.581  0.00  0.00    -0.082 A 
ATOM      4  C2  PXY d   1       2.049  -1.914  -1.053  0.00  0.00     0.003 A 
ATOM      5  C3  PXY d   1       3.109  -1.058  -1.204  0.00  0.00     0.003 A 
ATOM      6  C4  PXY d   1       2.970   0.274  -0.920  0.00  0.00    -0.082 A 
ATOM      7  C5  PXY d   1       1.792   0.735  -0.448  0.00  0.00     0.003 A 
ATOM      8  C6  PXY d   1       0.740  -0.158  -0.262  0.00  0.00     0.003 A 
ENDROOT
TORSDOF 0
ENDMDL
