MODEL 1
REMARK minimizedAffinity -2.34696221
REMARK minimizedRMSD -1
REMARK  0 active torsions:
REMARK  status: ('A' for Active; 'I' for Inactive)
ROOT
ATOM      1  C4' PXY d   1       5.202   0.078  -0.731  0.00  0.00     0.077 C 
ATOM      2  C1' PXY d   1      -0.327  -1.603  -0.591  0.00  0.00     0.077 C 
ATOM      3  C1  PXY d   1       1.119  -1.151  -0.633  0.00  0.00    -0.082 A 
ATOM      4  C2  PXY d   1       2.085  -2.052  -0.712  0.00  0.00     0.003 A 
ATOM      5  C3  PXY d   1       3.399  -1.662  -0.718  0.00  0.00     0.003 A 
ATOM      6  C4  PXY d   1       3.727  -0.333  -0.696  0.00  0.00    -0.082 A 
ATOM      7  C5  PXY d   1       2.748   0.593  -0.625  0.00  0.00     0.003 A 
ATOM      8  C6  PXY d   1       1.421   0.175  -0.579  0.00  0.00     0.003 A 
ENDROOT
TORSDOF 0
ENDMDL
