MODEL 1
REMARK minimizedAffinity -3.27626848
REMARK minimizedRMSD -1
REMARK  2 active torsions:
REMARK  status: ('A' for Active; 'I' for Inactive)
REMARK    1  A    between atoms: C2'_3  and  C1'_4 
REMARK    2  A    between atoms: C1'_4  and  C1_5 
ROOT
ATOM      1  C1  I4B d   1      -0.594   1.294  -0.605  0.00  0.00    -0.075 A 
ATOM      2  C2  I4B d   1      -0.685   1.122   0.754  0.00  0.00     0.003 A 
ATOM      3  C3  I4B d   1      -1.211   2.154   1.568  0.00  0.00     0.002 A 
ATOM      4  C4  I4B d   1      -1.585   3.351   0.992  0.00  0.00    -0.004 A 
ATOM      5  C5  I4B d   1      -1.513   3.514  -0.388  0.00  0.00     0.002 A 
ATOM      6  C6  I4B d   1      -1.026   2.475  -1.194  0.00  0.00     0.003 A 
ENDROOT
BRANCH   1   7
ATOM      7  C1' I4B d   1      -0.002   0.196  -1.432  0.00  0.00     0.060 C 
BRANCH   7   8
ATOM      8  C2' I4B d   1       0.185  -1.013  -0.537  0.00  0.00    -0.013 C 
ATOM      9  C4' I4B d   1      -0.255  -2.276  -1.229  0.00  0.00     0.013 C 
ATOM     10  C3' I4B d   1       1.632  -1.083  -0.151  0.00  0.00     0.013 C 
ENDBRANCH   7   8
ENDBRANCH   1   7
TORSDOF 2
ENDMDL
