MODEL 1
REMARK minimizedAffinity -4.69841194
REMARK minimizedRMSD -1
REMARK  2 active torsions:
REMARK  status: ('A' for Active; 'I' for Inactive)
REMARK    1  A    between atoms: C2'_3  and  C1'_4 
REMARK    2  A    between atoms: C1'_4  and  C1_5 
ROOT
ATOM      1  C1  I4B d   1       0.053   0.089  -0.131  0.00  0.00    -0.075 A 
ATOM      2  C2  I4B d   1      -1.036   0.918  -0.235  0.00  0.00     0.003 A 
ATOM      3  C3  I4B d   1      -1.443   1.703   0.871  0.00  0.00     0.002 A 
ATOM      4  C4  I4B d   1      -0.769   1.589   2.070  0.00  0.00    -0.004 A 
ATOM      5  C5  I4B d   1       0.348   0.764   2.167  0.00  0.00     0.002 A 
ATOM      6  C6  I4B d   1       0.770   0.018   1.057  0.00  0.00     0.003 A 
ENDROOT
BRANCH   1   7
ATOM      7  C1' I4B d   1       0.435  -0.750  -1.309  0.00  0.00     0.060 C 
BRANCH   7   8
ATOM      8  C2' I4B d   1      -0.157  -2.131  -1.111  0.00  0.00    -0.013 C 
ATOM      9  C4' I4B d   1      -1.098  -2.486  -2.231  0.00  0.00     0.013 C 
ATOM     10  C3' I4B d   1       0.974  -3.111  -1.022  0.00  0.00     0.013 C 
ENDBRANCH   7   8
ENDBRANCH   1   7
TORSDOF 2
ENDMDL
