MODEL 1
REMARK minimizedAffinity -5.7164216
REMARK minimizedRMSD -1
REMARK  2 active torsions:
REMARK  status: ('A' for Active; 'I' for Inactive)
REMARK    1  A    between atoms: C2'_3  and  C1'_4 
REMARK    2  A    between atoms: C1'_4  and  C1_5 
ROOT
ATOM      1  C1  I4B d   1       0.194   0.006  -0.120  0.00  0.00    -0.075 A 
ATOM      2  C2  I4B d   1       0.794  -0.095   1.110  0.00  0.00     0.003 A 
ATOM      3  C3  I4B d   1       0.469   0.822   2.139  0.00  0.00     0.002 A 
ATOM      4  C4  I4B d   1      -0.419   1.846   1.881  0.00  0.00    -0.004 A 
ATOM      5  C5  I4B d   1      -1.044   1.933   0.640  0.00  0.00     0.002 A 
ATOM      6  C6  I4B d   1      -0.745   1.000  -0.363  0.00  0.00     0.003 A 
ENDROOT
BRANCH   1   7
ATOM      7  C1' I4B d   1       0.586  -0.959  -1.194  0.00  0.00     0.060 C 
BRANCH   7   8
ATOM      8  C2' I4B d   1      -0.158  -2.256  -0.951  0.00  0.00    -0.013 C 
ATOM      9  C4' I4B d   1      -1.188  -2.503  -2.022  0.00  0.00     0.013 C 
ATOM     10  C3' I4B d   1       0.850  -3.366  -0.904  0.00  0.00     0.013 C 
ENDBRANCH   7   8
ENDBRANCH   1   7
TORSDOF 2
ENDMDL
