MODEL 1
REMARK minimizedAffinity -4.11922455
REMARK minimizedRMSD -1
REMARK  2 active torsions:
REMARK  status: ('A' for Active; 'I' for Inactive)
REMARK    1  A    between atoms: C2'_3  and  C1'_4 
REMARK    2  A    between atoms: C1'_4  and  C1_5 
ROOT
ATOM      1  C1  I4B d   1       0.149  -0.373  -0.456  0.00  0.00    -0.075 A 
ATOM      2  C2  I4B d   1       0.840  -0.422   0.729  0.00  0.00     0.003 A 
ATOM      3  C3  I4B d   1       0.590   0.536   1.741  0.00  0.00     0.002 A 
ATOM      4  C4  I4B d   1      -0.317   1.550   1.507  0.00  0.00    -0.004 A 
ATOM      5  C5  I4B d   1      -1.033   1.585   0.314  0.00  0.00     0.002 A 
ATOM      6  C6  I4B d   1      -0.808   0.611  -0.669  0.00  0.00     0.003 A 
ENDROOT
BRANCH   1   7
ATOM      7  C1' I4B d   1       0.462  -1.381  -1.516  0.00  0.00     0.060 C 
BRANCH   7   8
ATOM      8  C2' I4B d   1      -0.407  -2.598  -1.273  0.00  0.00    -0.013 C 
ATOM      9  C4' I4B d   1      -1.312  -2.864  -2.447  0.00  0.00     0.013 C 
ATOM     10  C3' I4B d   1       0.496  -3.766  -1.010  0.00  0.00     0.013 C 
ENDBRANCH   7   8
ENDBRANCH   1   7
TORSDOF 2
ENDMDL
