MODEL 1
REMARK minimizedAffinity -4.76994896
REMARK minimizedRMSD -1
REMARK  2 active torsions:
REMARK  status: ('A' for Active; 'I' for Inactive)
REMARK    1  A    between atoms: C2'_3  and  C1'_4 
REMARK    2  A    between atoms: C1'_4  and  C1_5 
ROOT
ATOM      1  C1  I4B d   1       0.444  -0.692  -0.462  0.00  0.00    -0.075 A 
ATOM      2  C2  I4B d   1      -0.362   0.245  -1.060  0.00  0.00     0.003 A 
ATOM      3  C3  I4B d   1      -0.818   1.367  -0.326  0.00  0.00     0.002 A 
ATOM      4  C4  I4B d   1      -0.488   1.485   1.009  0.00  0.00    -0.004 A 
ATOM      5  C5  I4B d   1       0.347   0.547   1.608  0.00  0.00     0.002 A 
ATOM      6  C6  I4B d   1       0.827  -0.542   0.865  0.00  0.00     0.003 A 
ENDROOT
BRANCH   1   7
ATOM      7  C1' I4B d   1       0.880  -1.881  -1.257  0.00  0.00     0.060 C 
BRANCH   7   8
ATOM      8  C2' I4B d   1       0.034  -3.063  -0.831  0.00  0.00    -0.013 C 
ATOM      9  C4' I4B d   1      -1.013  -3.385  -1.864  0.00  0.00     0.013 C 
ATOM     10  C3' I4B d   1       0.950  -4.230  -0.606  0.00  0.00     0.013 C 
ENDBRANCH   7   8
ENDBRANCH   1   7
TORSDOF 2
ENDMDL
