MODEL 1
REMARK minimizedAffinity 14.2904463
REMARK minimizedRMSD -1
REMARK  0 active torsions:
REMARK  status: ('A' for Active; 'I' for Inactive)
ROOT
ATOM      1  C   UNL d   1       1.248   0.368   1.671  0.00  0.00     0.077 C 
ATOM      2  C1  UNL d   1       2.317   0.350   0.619  0.00  0.00    -0.074 A 
ATOM      3  C2  UNL d   1       2.066  -0.178  -0.651  0.00  0.00    -0.005 A 
ATOM      4  C3  UNL d   1       3.068  -0.179  -1.622  0.00  0.00     0.006 A 
ATOM      5  C4  UNL d   1       4.327   0.347  -1.333  0.00  0.00    -0.005 A 
ATOM      6  C5  UNL d   1       4.596   0.880  -0.069  0.00  0.00    -0.074 A 
ATOM      7  C6  UNL d   1       5.942   1.458   0.255  0.00  0.00     0.077 C 
ATOM      8  C7  UNL d   1       3.583   0.884   0.899  0.00  0.00    -0.001 A 
ENDROOT
TORSDOF 0
ENDMDL
