MODEL 1
REMARK minimizedAffinity 11.3236914
REMARK minimizedRMSD -1
REMARK  0 active torsions:
REMARK  status: ('A' for Active; 'I' for Inactive)
ROOT
ATOM      1  C   UNL d   1       6.000   5.691  -2.937  0.00  0.00     0.077 C 
ATOM      2  C1  UNL d   1       5.820   4.855  -1.705  0.00  0.00    -0.074 A 
ATOM      3  C2  UNL d   1       6.000   5.404  -0.431  0.00  0.00    -0.005 A 
ATOM      4  C3  UNL d   1       5.819   4.617   0.706  0.00  0.00     0.006 A 
ATOM      5  C4  UNL d   1       5.458   3.275   0.581  0.00  0.00    -0.005 A 
ATOM      6  C5  UNL d   1       5.273   2.709  -0.684  0.00  0.00    -0.074 A 
ATOM      7  C6  UNL d   1       4.874   1.271  -0.836  0.00  0.00     0.077 C 
ATOM      8  C7  UNL d   1       5.449   3.508  -1.822  0.00  0.00    -0.001 A 
ENDROOT
TORSDOF 0
ENDMDL
