MODEL 1
REMARK minimizedAffinity 12.0683594
REMARK minimizedRMSD -1
REMARK  0 active torsions:
REMARK  status: ('A' for Active; 'I' for Inactive)
ROOT
ATOM      1  C   UNL d   1       0.367  -0.056   3.538  0.00  0.00     0.077 C 
ATOM      2  C1  UNL d   1       0.570   0.291   2.093  0.00  0.00    -0.074 A 
ATOM      3  C2  UNL d   1      -0.436   0.928   1.359  0.00  0.00    -0.005 A 
ATOM      4  C3  UNL d   1      -0.229   1.253   0.018  0.00  0.00     0.006 A 
ATOM      5  C4  UNL d   1       0.983   0.945  -0.601  0.00  0.00    -0.005 A 
ATOM      6  C5  UNL d   1       2.000   0.308   0.117  0.00  0.00    -0.074 A 
ATOM      7  C6  UNL d   1       3.312  -0.022  -0.530  0.00  0.00     0.077 C 
ATOM      8  C7  UNL d   1       1.787  -0.009   1.466  0.00  0.00    -0.001 A 
ENDROOT
TORSDOF 0
ENDMDL
