MODEL 1
REMARK minimizedAffinity 12.5047197
REMARK minimizedRMSD -1
REMARK  0 active torsions:
REMARK  status: ('A' for Active; 'I' for Inactive)
ROOT
ATOM      1  C   UNL d   1       5.974   0.575   0.345  0.00  0.00     0.077 C 
ATOM      2  C1  UNL d   1       4.597   0.137  -0.055  0.00  0.00    -0.074 A 
ATOM      3  C2  UNL d   1       4.397  -0.662  -1.185  0.00  0.00    -0.005 A 
ATOM      4  C3  UNL d   1       3.111  -1.069  -1.540  0.00  0.00     0.006 A 
ATOM      5  C4  UNL d   1       2.014  -0.683  -0.768  0.00  0.00    -0.005 A 
ATOM      6  C5  UNL d   1       2.195   0.115   0.366  0.00  0.00    -0.074 A 
ATOM      7  C6  UNL d   1       1.028   0.531   1.211  0.00  0.00     0.077 C 
ATOM      8  C7  UNL d   1       3.491   0.514   0.719  0.00  0.00    -0.001 A 
ENDROOT
TORSDOF 0
ENDMDL
