MODEL 1
REMARK minimizedAffinity 9.93414021
REMARK minimizedRMSD -1
REMARK  0 active torsions:
REMARK  status: ('A' for Active; 'I' for Inactive)
ROOT
ATOM      1  C   UNL d   1      -1.960  -3.744  -2.642  0.00  0.00     0.077 C 
ATOM      2  C1  UNL d   1      -2.607  -4.430  -3.809  0.00  0.00    -0.074 A 
ATOM      3  C2  UNL d   1      -1.902  -5.362  -4.576  0.00  0.00    -0.005 A 
ATOM      4  C3  UNL d   1      -2.520  -5.999  -5.652  0.00  0.00     0.006 A 
ATOM      5  C4  UNL d   1      -3.847  -5.711  -5.971  0.00  0.00    -0.005 A 
ATOM      6  C5  UNL d   1      -4.569  -4.783  -5.214  0.00  0.00    -0.074 A 
ATOM      7  C6  UNL d   1      -6.000  -4.469  -5.537  0.00  0.00     0.077 C 
ATOM      8  C7  UNL d   1      -3.943  -4.152  -4.130  0.00  0.00    -0.001 A 
ENDROOT
TORSDOF 0
ENDMDL
