MODEL 1
REMARK minimizedAffinity 6.58912325
REMARK minimizedRMSD -1
REMARK  0 active torsions:
REMARK  status: ('A' for Active; 'I' for Inactive)
ROOT
ATOM      1  C   UNL d   1      -2.601   0.566  -5.973  0.00  0.00     0.077 C 
ATOM      2  C1  UNL d   1      -3.792   1.064  -5.211  0.00  0.00    -0.074 A 
ATOM      3  C2  UNL d   1      -4.787   0.183  -4.775  0.00  0.00    -0.005 A 
ATOM      4  C3  UNL d   1      -5.885   0.660  -4.059  0.00  0.00     0.006 A 
ATOM      5  C4  UNL d   1      -5.999   2.021  -3.771  0.00  0.00    -0.005 A 
ATOM      6  C5  UNL d   1      -5.014   2.917  -4.198  0.00  0.00    -0.074 A 
ATOM      7  C6  UNL d   1      -5.116   4.381  -3.889  0.00  0.00     0.077 C 
ATOM      8  C7  UNL d   1      -3.910   2.429  -4.911  0.00  0.00    -0.001 A 
ENDROOT
TORSDOF 0
ENDMDL
