MODEL 1
REMARK minimizedAffinity 9.68130684
REMARK minimizedRMSD -1
REMARK  0 active torsions:
REMARK  status: ('A' for Active; 'I' for Inactive)
ROOT
ATOM      1  C   UNL d   1      -0.000  -4.990  -1.520  0.00  0.00     0.077 C 
ATOM      2  C1  UNL d   1       1.049  -4.146  -2.180  0.00  0.00    -0.074 A 
ATOM      3  C2  UNL d   1       1.401  -4.352  -3.518  0.00  0.00    -0.005 A 
ATOM      4  C3  UNL d   1       2.372  -3.552  -4.121  0.00  0.00     0.006 A 
ATOM      5  C4  UNL d   1       2.999  -2.540  -3.394  0.00  0.00    -0.005 A 
ATOM      6  C5  UNL d   1       2.659  -2.318  -2.055  0.00  0.00    -0.074 A 
ATOM      7  C6  UNL d   1       3.316  -1.227  -1.263  0.00  0.00     0.077 C 
ATOM      8  C7  UNL d   1       1.678  -3.121  -1.459  0.00  0.00    -0.001 A 
ENDROOT
TORSDOF 0
ENDMDL
