MODEL 1
REMARK minimizedAffinity 3.37817168
REMARK minimizedRMSD -1
REMARK  0 active torsions:
REMARK  status: ('A' for Active; 'I' for Inactive)
ROOT
ATOM      1  C   UNL d   1      -1.522  -6.000   1.458  0.00  0.00     0.077 C 
ATOM      2  C1  UNL d   1      -0.984  -5.520   0.142  0.00  0.00    -0.074 A 
ATOM      3  C2  UNL d   1      -1.503  -5.999  -1.065  0.00  0.00    -0.005 A 
ATOM      4  C3  UNL d   1      -0.999  -5.536  -2.280  0.00  0.00     0.006 A 
ATOM      5  C4  UNL d   1       0.027  -4.591  -2.301  0.00  0.00    -0.005 A 
ATOM      6  C5  UNL d   1       0.557  -4.099  -1.104  0.00  0.00    -0.074 A 
ATOM      7  C6  UNL d   1       1.654  -3.076  -1.109  0.00  0.00     0.077 C 
ATOM      8  C7  UNL d   1       0.041  -4.564   0.113  0.00  0.00    -0.001 A 
ENDROOT
TORSDOF 0
ENDMDL
