MODEL 1
REMARK minimizedAffinity 17.8370628
REMARK minimizedRMSD -1
REMARK  0 active torsions:
REMARK  status: ('A' for Active; 'I' for Inactive)
ROOT
ATOM      1  C   UNL d   1       4.129  -1.675  -3.698  0.00  0.00     0.077 C 
ATOM      2  C1  UNL d   1       3.821  -0.967  -2.412  0.00  0.00    -0.074 A 
ATOM      3  C2  UNL d   1       2.599  -1.160  -1.760  0.00  0.00    -0.005 A 
ATOM      4  C3  UNL d   1       2.330  -0.502  -0.560  0.00  0.00     0.006 A 
ATOM      5  C4  UNL d   1       3.279   0.354  -0.000  0.00  0.00    -0.005 A 
ATOM      6  C5  UNL d   1       4.507   0.559  -0.638  0.00  0.00    -0.074 A 
ATOM      7  C6  UNL d   1       5.542   1.468  -0.045  0.00  0.00     0.077 C 
ATOM      8  C7  UNL d   1       4.772  -0.111  -1.840  0.00  0.00    -0.001 A 
ENDROOT
TORSDOF 0
ENDMDL
