MODEL 1
REMARK minimizedAffinity 13.7095461
REMARK minimizedRMSD -1
REMARK  0 active torsions:
REMARK  status: ('A' for Active; 'I' for Inactive)
ROOT
ATOM      1  C   UNL d   1      -4.835  -0.469   0.256  0.00  0.00     0.077 C 
ATOM      2  C1  UNL d   1      -4.348   0.695   1.068  0.00  0.00    -0.074 A 
ATOM      3  C2  UNL d   1      -2.987   1.007   1.132  0.00  0.00    -0.005 A 
ATOM      4  C3  UNL d   1      -2.550   2.099   1.883  0.00  0.00     0.006 A 
ATOM      5  C4  UNL d   1      -3.469   2.888   2.576  0.00  0.00    -0.005 A 
ATOM      6  C5  UNL d   1      -4.834   2.591   2.523  0.00  0.00    -0.074 A 
ATOM      7  C6  UNL d   1      -5.836   3.435   3.253  0.00  0.00     0.077 C 
ATOM      8  C7  UNL d   1      -5.266   1.497   1.760  0.00  0.00    -0.001 A 
ENDROOT
TORSDOF 0
ENDMDL
