MODEL 1
REMARK minimizedAffinity -5.6026721
REMARK minimizedRMSD -1
REMARK  2 active torsions:
REMARK  status: ('A' for Active; 'I' for Inactive)
REMARK    1  A    between atoms: C1_2  and  C2_3 
REMARK    2  A    between atoms: C2_3  and  C3_4 
ROOT
ATOM      1  C3  UNL d   1      -0.545  -0.158   0.421  0.00  0.00    -0.075 A 
ATOM      2  C4  UNL d   1      -1.054   0.789  -0.479  0.00  0.00     0.002 A 
ATOM      3  C5  UNL d   1      -1.451   2.049  -0.032  0.00  0.00     0.002 A 
ATOM      4  C6  UNL d   1      -1.355   2.374   1.320  0.00  0.00    -0.004 A 
ATOM      5  C7  UNL d   1      -0.866   1.435   2.225  0.00  0.00     0.002 A 
ATOM      6  C8  UNL d   1      -0.463   0.175   1.779  0.00  0.00     0.002 A 
ENDROOT
BRANCH   1   7
ATOM      7  C2  UNL d   1      -0.086  -1.514  -0.062  0.00  0.00     0.056 C 
BRANCH   7   8
ATOM      8  C1  UNL d   1       0.598  -1.489  -1.432  0.00  0.00     0.007 C 
ATOM      9  C   UNL d   1       0.007  -2.489  -2.417  0.00  0.00     0.009 C 
ENDBRANCH   7   8
ENDBRANCH   1   7
TORSDOF 2
ENDMDL
