MODEL 1
REMARK minimizedAffinity -5.46626234
REMARK minimizedRMSD -1
REMARK  2 active torsions:
REMARK  status: ('A' for Active; 'I' for Inactive)
REMARK    1  A    between atoms: C1_2  and  C2_3 
REMARK    2  A    between atoms: C2_3  and  C3_4 
ROOT
ATOM      1  C3  UNL d   1       0.110  -0.586  -0.629  0.00  0.00    -0.075 A 
ATOM      2  C4  UNL d   1      -0.971  -0.946  -1.446  0.00  0.00     0.002 A 
ATOM      3  C5  UNL d   1      -0.868  -2.029  -2.320  0.00  0.00     0.002 A 
ATOM      4  C6  UNL d   1       0.317  -2.758  -2.395  0.00  0.00    -0.004 A 
ATOM      5  C7  UNL d   1       1.403  -2.399  -1.599  0.00  0.00     0.002 A 
ATOM      6  C8  UNL d   1       1.302  -1.318  -0.721  0.00  0.00     0.002 A 
ENDROOT
BRANCH   1   7
ATOM      7  C2  UNL d   1      -0.004   0.567   0.340  0.00  0.00     0.056 C 
BRANCH   7   8
ATOM      8  C1  UNL d   1      -0.455   0.157   1.746  0.00  0.00     0.007 C 
ATOM      9  C   UNL d   1      -1.899   0.535   2.047  0.00  0.00     0.009 C 
ENDBRANCH   7   8
ENDBRANCH   1   7
TORSDOF 2
ENDMDL
