MODEL 1
REMARK minimizedAffinity -6.29876709
REMARK minimizedRMSD -1
REMARK  2 active torsions:
REMARK  status: ('A' for Active; 'I' for Inactive)
REMARK    1  A    between atoms: C1_2  and  C2_3 
REMARK    2  A    between atoms: C2_3  and  C3_4 
ROOT
ATOM      1  C3  UNL d   1      -0.469   0.859   0.381  0.00  0.00    -0.075 A 
ATOM      2  C4  UNL d   1      -0.296   2.000  -0.417  0.00  0.00     0.002 A 
ATOM      3  C5  UNL d   1      -1.179   3.076  -0.315  0.00  0.00     0.002 A 
ATOM      4  C6  UNL d   1      -2.249   3.021   0.575  0.00  0.00    -0.004 A 
ATOM      5  C7  UNL d   1      -2.440   1.886   1.360  0.00  0.00     0.002 A 
ATOM      6  C8  UNL d   1      -1.556   0.810   1.264  0.00  0.00     0.002 A 
ENDROOT
BRANCH   1   7
ATOM      7  C2  UNL d   1       0.500  -0.296   0.297  0.00  0.00     0.056 C 
BRANCH   7   8
ATOM      8  C1  UNL d   1       1.109  -0.499  -1.095  0.00  0.00     0.007 C 
ATOM      9  C   UNL d   1       0.406  -1.579  -1.906  0.00  0.00     0.009 C 
ENDBRANCH   7   8
ENDBRANCH   1   7
TORSDOF 2
ENDMDL
