MODEL 1
REMARK minimizedAffinity -4.97691679
REMARK minimizedRMSD -1
REMARK  2 active torsions:
REMARK  status: ('A' for Active; 'I' for Inactive)
REMARK    1  A    between atoms: C1_2  and  C2_3 
REMARK    2  A    between atoms: C2_3  and  C3_4 
ROOT
ATOM      1  C3  UNL d   1      -1.097   1.590   0.814  0.00  0.00    -0.075 A 
ATOM      2  C4  UNL d   1      -1.799   0.831   1.762  0.00  0.00     0.002 A 
ATOM      3  C5  UNL d   1      -1.420  -0.484   2.038  0.00  0.00     0.002 A 
ATOM      4  C6  UNL d   1      -0.344  -1.058   1.364  0.00  0.00    -0.004 A 
ATOM      5  C7  UNL d   1       0.349  -0.318   0.409  0.00  0.00     0.002 A 
ATOM      6  C8  UNL d   1      -0.025   0.998   0.134  0.00  0.00     0.002 A 
ENDROOT
BRANCH   1   7
ATOM      7  C2  UNL d   1      -1.484   3.022   0.532  0.00  0.00     0.056 C 
BRANCH   7   8
ATOM      8  C1  UNL d   1      -0.307   3.918   0.131  0.00  0.00     0.007 C 
ATOM      9  C   UNL d   1      -0.148   4.061  -1.377  0.00  0.00     0.009 C 
ENDBRANCH   7   8
ENDBRANCH   1   7
TORSDOF 2
ENDMDL
