MODEL 1
REMARK minimizedAffinity -5.58071661
REMARK minimizedRMSD -1
REMARK  2 active torsions:
REMARK  status: ('A' for Active; 'I' for Inactive)
REMARK    1  A    between atoms: C1_2  and  C2_3 
REMARK    2  A    between atoms: C2_3  and  C3_4 
ROOT
ATOM      1  C3  UNL d   1      -0.958   0.718   0.659  0.00  0.00    -0.075 A 
ATOM      2  C4  UNL d   1      -0.262   0.541  -0.546  0.00  0.00     0.002 A 
ATOM      3  C5  UNL d   1       0.789  -0.374  -0.628  0.00  0.00     0.002 A 
ATOM      4  C6  UNL d   1       1.163  -1.113   0.492  0.00  0.00    -0.004 A 
ATOM      5  C7  UNL d   1       0.489  -0.932   1.698  0.00  0.00     0.002 A 
ATOM      6  C8  UNL d   1      -0.566  -0.022   1.782  0.00  0.00     0.002 A 
ENDROOT
BRANCH   1   7
ATOM      7  C2  UNL d   1      -2.115   1.684   0.747  0.00  0.00     0.056 C 
BRANCH   7   8
ATOM      8  C1  UNL d   1      -1.719   3.092   1.205  0.00  0.00     0.007 C 
ATOM      9  C   UNL d   1      -0.599   3.701   0.373  0.00  0.00     0.009 C 
ENDBRANCH   7   8
ENDBRANCH   1   7
TORSDOF 2
ENDMDL
