MODEL 1
REMARK minimizedAffinity -3.03046536
REMARK minimizedRMSD -1
REMARK  2 active torsions:
REMARK  status: ('A' for Active; 'I' for Inactive)
REMARK    1  A    between atoms: C1_2  and  C2_3 
REMARK    2  A    between atoms: C2_3  and  C3_4 
ROOT
ATOM      1  C3  UNL d   1       0.858  -0.773  -0.418  0.00  0.00    -0.075 A 
ATOM      2  C4  UNL d   1       0.917  -1.284   0.886  0.00  0.00     0.002 A 
ATOM      3  C5  UNL d   1       0.175  -0.698   1.912  0.00  0.00     0.002 A 
ATOM      4  C6  UNL d   1      -0.627   0.411   1.649  0.00  0.00    -0.004 A 
ATOM      5  C7  UNL d   1      -0.681   0.937   0.360  0.00  0.00     0.002 A 
ATOM      6  C8  UNL d   1       0.058   0.349  -0.669  0.00  0.00     0.002 A 
ENDROOT
BRANCH   1   7
ATOM      7  C2  UNL d   1       1.636  -1.422  -1.538  0.00  0.00     0.056 C 
BRANCH   7   8
ATOM      8  C1  UNL d   1       1.527  -2.950  -1.570  0.00  0.00     0.007 C 
ATOM      9  C   UNL d   1       0.581  -3.463  -2.648  0.00  0.00     0.009 C 
ENDBRANCH   7   8
ENDBRANCH   1   7
TORSDOF 2
ENDMDL
