MODEL 1
REMARK minimizedAffinity -5.40965462
REMARK minimizedRMSD -1
REMARK  2 active torsions:
REMARK  status: ('A' for Active; 'I' for Inactive)
REMARK    1  A    between atoms: C1_2  and  C2_3 
REMARK    2  A    between atoms: C2_3  and  C3_4 
ROOT
ATOM      1  C3  UNL d   1       0.022   1.081  -0.379  0.00  0.00    -0.075 A 
ATOM      2  C4  UNL d   1       0.005   2.433  -0.752  0.00  0.00     0.002 A 
ATOM      3  C5  UNL d   1      -0.723   3.363  -0.010  0.00  0.00     0.002 A 
ATOM      4  C6  UNL d   1      -1.451   2.953   1.106  0.00  0.00    -0.004 A 
ATOM      5  C7  UNL d   1      -1.455   1.609   1.475  0.00  0.00     0.002 A 
ATOM      6  C8  UNL d   1      -0.723   0.677   0.737  0.00  0.00     0.002 A 
ENDROOT
BRANCH   1   7
ATOM      7  C2  UNL d   1       0.833   0.074  -1.160  0.00  0.00     0.056 C 
BRANCH   7   8
ATOM      8  C1  UNL d   1       0.820  -1.336  -0.562  0.00  0.00     0.007 C 
ATOM      9  C   UNL d   1       1.420  -2.386  -1.487  0.00  0.00     0.009 C 
ENDBRANCH   7   8
ENDBRANCH   1   7
TORSDOF 2
ENDMDL
