MODEL 1
REMARK minimizedAffinity -3.75301361
REMARK minimizedRMSD -1
REMARK  0 active torsions:
REMARK  status: ('A' for Active; 'I' for Inactive)
ROOT
ATOM      1  C   UNL d   1       0.090  -0.874   0.256  0.00  0.00     0.172 C 
ATOM      2  N   UNL d   1      -0.290   0.506   0.445  0.00  0.00    -0.070 N 
ATOM      3  C1  UNL d   1      -1.410   0.943   1.101  0.00  0.00    -0.004 A 
ATOM      4  C2  UNL d   1      -1.409   2.321   1.064  0.00  0.00    -0.047 A 
ATOM      5  C3  UNL d   1      -0.250   2.726   0.361  0.00  0.00    -0.047 A 
ATOM      6  C4  UNL d   1       0.425   1.582  -0.011  0.00  0.00    -0.004 A 
ENDROOT
TORSDOF 0
ENDMDL
