MODEL 1
REMARK minimizedAffinity -2.21536541
REMARK minimizedRMSD -1
REMARK  0 active torsions:
REMARK  status: ('A' for Active; 'I' for Inactive)
ROOT
ATOM      1  C   UNL d   1       0.330  -0.835   0.515  0.00  0.00     0.172 C 
ATOM      2  N   UNL d   1       0.194   0.597   0.644  0.00  0.00    -0.070 N 
ATOM      3  C1  UNL d   1      -0.989   1.281   0.741  0.00  0.00    -0.004 A 
ATOM      4  C2  UNL d   1      -0.693   2.622   0.849  0.00  0.00    -0.047 A 
ATOM      5  C3  UNL d   1       0.716   2.749   0.816  0.00  0.00    -0.047 A 
ATOM      6  C4  UNL d   1       1.240   1.480   0.689  0.00  0.00    -0.004 A 
ENDROOT
TORSDOF 0
ENDMDL
