MODEL 1
REMARK minimizedAffinity -1.53465235
REMARK minimizedRMSD -1
REMARK  0 active torsions:
REMARK  status: ('A' for Active; 'I' for Inactive)
ROOT
ATOM      1  C   UNL d   1      -0.177  -0.786   0.120  0.00  0.00     0.172 C 
ATOM      2  N   UNL d   1      -0.751   0.481   0.510  0.00  0.00    -0.070 N 
ATOM      3  C1  UNL d   1      -0.053   1.634   0.750  0.00  0.00    -0.004 A 
ATOM      4  C2  UNL d   1      -0.959   2.613   1.095  0.00  0.00    -0.047 A 
ATOM      5  C3  UNL d   1      -2.247   2.027   1.062  0.00  0.00    -0.047 A 
ATOM      6  C4  UNL d   1      -2.089   0.707   0.697  0.00  0.00    -0.004 A 
ENDROOT
TORSDOF 0
ENDMDL
