MODEL 1
REMARK minimizedAffinity -2.7233355
REMARK minimizedRMSD -1
REMARK  0 active torsions:
REMARK  status: ('A' for Active; 'I' for Inactive)
ROOT
ATOM      1  C   UNL d   1      -0.026  -1.489   0.322  0.00  0.00     0.172 C 
ATOM      2  N   UNL d   1      -0.566  -0.165   0.522  0.00  0.00    -0.070 N 
ATOM      3  C1  UNL d   1      -1.621   0.152   1.335  0.00  0.00    -0.004 A 
ATOM      4  C2  UNL d   1      -1.825   1.512   1.250  0.00  0.00    -0.047 A 
ATOM      5  C3  UNL d   1      -0.860   2.031   0.354  0.00  0.00    -0.047 A 
ATOM      6  C4  UNL d   1      -0.094   0.970  -0.082  0.00  0.00    -0.004 A 
ENDROOT
TORSDOF 0
ENDMDL
