MODEL 1
REMARK minimizedAffinity -2.26337934
REMARK minimizedRMSD -1
REMARK  0 active torsions:
REMARK  status: ('A' for Active; 'I' for Inactive)
ROOT
ATOM      1  C   UNL d   1      -0.751   2.798   1.050  0.00  0.00     0.172 C 
ATOM      2  N   UNL d   1      -0.576   1.457   0.542  0.00  0.00    -0.070 N 
ATOM      3  C1  UNL d   1       0.504   1.008  -0.170  0.00  0.00    -0.004 A 
ATOM      4  C2  UNL d   1       0.290  -0.321  -0.467  0.00  0.00    -0.047 A 
ATOM      5  C3  UNL d   1      -0.962  -0.682   0.083  0.00  0.00    -0.047 A 
ATOM      6  C4  UNL d   1      -1.477   0.438   0.702  0.00  0.00    -0.004 A 
ENDROOT
TORSDOF 0
ENDMDL
