MODEL 1
REMARK minimizedAffinity -3.65628338
REMARK minimizedRMSD -1
REMARK  0 active torsions:
REMARK  status: ('A' for Active; 'I' for Inactive)
ROOT
ATOM      1  C   UNL d   1      -0.046   3.373  -0.030  0.00  0.00     0.172 C 
ATOM      2  N   UNL d   1      -0.305   1.989   0.287  0.00  0.00    -0.070 N 
ATOM      3  C1  UNL d   1       0.405   0.916  -0.182  0.00  0.00    -0.004 A 
ATOM      4  C2  UNL d   1      -0.154  -0.226   0.351  0.00  0.00    -0.047 A 
ATOM      5  C3  UNL d   1      -1.238   0.175   1.168  0.00  0.00    -0.047 A 
ATOM      6  C4  UNL d   1      -1.309   1.551   1.110  0.00  0.00    -0.004 A 
ENDROOT
TORSDOF 0
ENDMDL
