MODEL 1
REMARK minimizedAffinity 1.28772819
REMARK minimizedRMSD -1
REMARK  0 active torsions:
REMARK  status: ('A' for Active; 'I' for Inactive)
ROOT
ATOM      1  C   UNL d   1      -1.036  -0.906   0.364  0.00  0.00     0.172 C 
ATOM      2  N   UNL d   1      -1.219   0.389   0.976  0.00  0.00    -0.070 N 
ATOM      3  C1  UNL d   1      -0.258   1.099   1.644  0.00  0.00    -0.004 A 
ATOM      4  C2  UNL d   1      -0.827   2.278   2.074  0.00  0.00    -0.047 A 
ATOM      5  C3  UNL d   1      -2.178   2.276   1.651  0.00  0.00    -0.047 A 
ATOM      6  C4  UNL d   1      -2.393   1.094   0.973  0.00  0.00    -0.004 A 
ENDROOT
TORSDOF 0
ENDMDL
