MODEL 1
REMARK minimizedAffinity -3.63914371
REMARK minimizedRMSD -1
REMARK  0 active torsions:
REMARK  status: ('A' for Active; 'I' for Inactive)
ROOT
ATOM      1  C   UNL d   1      -0.177  -0.010   0.192  0.00  0.00     0.172 C 
ATOM      2  N   UNL d   1       0.306   1.350   0.242  0.00  0.00    -0.070 N 
ATOM      3  C1  UNL d   1       1.555   1.767  -0.136  0.00  0.00    -0.004 A 
ATOM      4  C2  UNL d   1       1.622   3.129   0.062  0.00  0.00    -0.047 A 
ATOM      5  C3  UNL d   1       0.372   3.545   0.578  0.00  0.00    -0.047 A 
ATOM      6  C4  UNL d   1      -0.424   2.423   0.679  0.00  0.00    -0.004 A 
ENDROOT
TORSDOF 0
ENDMDL
