MODEL 1
REMARK minimizedAffinity -2.20640445
REMARK minimizedRMSD -1
REMARK  0 active torsions:
REMARK  status: ('A' for Active; 'I' for Inactive)
ROOT
ATOM      1  C   UNL d   1      -1.754   0.845   0.267  0.00  0.00     0.172 C 
ATOM      2  N   UNL d   1      -0.916  -0.312   0.050  0.00  0.00    -0.070 N 
ATOM      3  C1  UNL d   1      -1.294  -1.463  -0.588  0.00  0.00    -0.004 A 
ATOM      4  C2  UNL d   1      -0.214  -2.319  -0.589  0.00  0.00    -0.047 A 
ATOM      5  C3  UNL d   1       0.849  -1.660   0.072  0.00  0.00    -0.047 A 
ATOM      6  C4  UNL d   1       0.387  -0.419   0.457  0.00  0.00    -0.004 A 
ENDROOT
TORSDOF 0
ENDMDL
