MODEL 1
REMARK minimizedAffinity -3.92330647
REMARK minimizedRMSD -1
REMARK  0 active torsions:
REMARK  status: ('A' for Active; 'I' for Inactive)
ROOT
ATOM      1  C   UNL d   1      -1.319   0.358   0.469  0.00  0.00     0.172 C 
ATOM      2  N   UNL d   1      -0.423   1.479   0.312  0.00  0.00    -0.070 N 
ATOM      3  C1  UNL d   1       0.842   1.423  -0.210  0.00  0.00    -0.004 A 
ATOM      4  C2  UNL d   1       1.364   2.698  -0.189  0.00  0.00    -0.047 A 
ATOM      5  C3  UNL d   1       0.380   3.550   0.367  0.00  0.00    -0.047 A 
ATOM      6  C4  UNL d   1      -0.716   2.769   0.668  0.00  0.00    -0.004 A 
ENDROOT
TORSDOF 0
ENDMDL
