MODEL 1
REMARK minimizedAffinity -3.78776574
REMARK minimizedRMSD -1
REMARK  0 active torsions:
REMARK  status: ('A' for Active; 'I' for Inactive)
ROOT
ATOM      1  C   UNL d   1       2.709   1.920   0.687  0.00  0.00     0.172 C 
ATOM      2  N   UNL d   1       1.294   2.050   0.426  0.00  0.00    -0.070 N 
ATOM      3  C1  UNL d   1       0.376   1.035   0.484  0.00  0.00    -0.004 A 
ATOM      4  C2  UNL d   1      -0.858   1.565   0.171  0.00  0.00    -0.047 A 
ATOM      5  C3  UNL d   1      -0.674   2.944  -0.084  0.00  0.00    -0.047 A 
ATOM      6  C4  UNL d   1       0.667   3.218   0.081  0.00  0.00    -0.004 A 
ENDROOT
TORSDOF 0
ENDMDL
