MODEL 1
REMARK minimizedAffinity -3.80444765
REMARK minimizedRMSD -1
REMARK  0 active torsions:
REMARK  status: ('A' for Active; 'I' for Inactive)
ROOT
ATOM      1  C   UNL d   1      -0.770  -0.323   1.037  0.00  0.00     0.172 C 
ATOM      2  N   UNL d   1      -0.149   0.763   0.317  0.00  0.00    -0.070 N 
ATOM      3  C1  UNL d   1       0.412   0.677  -0.930  0.00  0.00    -0.004 A 
ATOM      4  C2  UNL d   1       0.893   1.924  -1.263  0.00  0.00    -0.047 A 
ATOM      5  C3  UNL d   1       0.612   2.790  -0.180  0.00  0.00    -0.047 A 
ATOM      6  C4  UNL d   1      -0.034   2.045   0.785  0.00  0.00    -0.004 A 
ENDROOT
TORSDOF 0
ENDMDL
