MODEL 1
REMARK minimizedAffinity 14.5450182
REMARK minimizedRMSD -1
REMARK  1 active torsions:
REMARK  status: ('A' for Active; 'I' for Inactive)
REMARK    1  A    between atoms: C1_2  and  C2_3 
ROOT
ATOM      1  C2  UNL d   1       1.012  -1.059   0.837  0.00  0.00    -0.081 A 
ATOM      2  C3  UNL d   1       0.340  -1.328  -0.361  0.00  0.00     0.006 A 
ATOM      3  C4  UNL d   1       0.541  -0.521  -1.484  0.00  0.00     0.002 A 
ATOM      4  C5  UNL d   1       1.423   0.563  -1.429  0.00  0.00    -0.080 A 
ATOM      5  C6  UNL d   1       1.670   1.419  -2.636  0.00  0.00     0.076 C 
ATOM      6  C7  UNL d   1       2.081   0.843  -0.227  0.00  0.00     0.002 A 
ATOM      7  C8  UNL d   1       1.880   0.037   0.895  0.00  0.00     0.006 A 
ENDROOT
BRANCH   1   8
ATOM      8  C1  UNL d   1       0.847  -1.965   2.029  0.00  0.00     0.054 C 
ATOM      9  C   UNL d   1       2.064  -2.860   2.217  0.00  0.00     0.018 C 
ENDBRANCH   1   8
TORSDOF 1
ENDMDL
