MODEL 1
REMARK minimizedAffinity 13.6416054
REMARK minimizedRMSD -1
REMARK  0 active torsions:
REMARK  status: ('A' for Active; 'I' for Inactive)
ROOT
ATOM      1  C4' PXY d   1       0.719  -0.348   3.427  0.00  0.00     0.077 C 
ATOM      2  C1' PXY d   1      -0.299   4.733   5.989  0.00  0.00     0.077 C 
ATOM      3  C1  PXY d   1      -0.041   3.403   5.308  0.00  0.00    -0.082 A 
ATOM      4  C2  PXY d   1       0.513   2.415   5.991  0.00  0.00     0.003 A 
ATOM      5  C3  PXY d   1       0.783   1.216   5.383  0.00  0.00     0.003 A 
ATOM      6  C4  PXY d   1       0.432   1.008   4.076  0.00  0.00    -0.082 A 
ATOM      7  C5  PXY d   1      -0.144   2.008   3.375  0.00  0.00     0.003 A 
ATOM      8  C6  PXY d   1      -0.371   3.231   3.999  0.00  0.00     0.003 A 
ENDROOT
TORSDOF 0
ENDMDL
