MODEL 1
REMARK minimizedAffinity 10.692874
REMARK minimizedRMSD -1
REMARK  0 active torsions:
REMARK  status: ('A' for Active; 'I' for Inactive)
ROOT
ATOM      1  C4' PXY d   1      -1.797  -5.296  -3.462  0.00  0.00     0.077 C 
ATOM      2  C1' PXY d   1      -5.969  -2.202  -6.000  0.00  0.00     0.077 C 
ATOM      3  C1  PXY d   1      -4.868  -3.003  -5.331  0.00  0.00    -0.082 A 
ATOM      4  C2  PXY d   1      -4.688  -4.271  -5.663  0.00  0.00     0.003 A 
ATOM      5  C3  PXY d   1      -3.719  -5.018  -5.046  0.00  0.00     0.003 A 
ATOM      6  C4  PXY d   1      -2.890  -4.447  -4.117  0.00  0.00    -0.082 A 
ATOM      7  C5  PXY d   1      -3.060  -3.151  -3.781  0.00  0.00     0.003 A 
ATOM      8  C6  PXY d   1      -4.077  -2.421  -4.390  0.00  0.00     0.003 A 
ENDROOT
TORSDOF 0
ENDMDL
