MODEL 1
REMARK minimizedAffinity 6.70948696
REMARK minimizedRMSD -1
REMARK  0 active torsions:
REMARK  status: ('A' for Active; 'I' for Inactive)
ROOT
ATOM      1  C4' PXY d   1      -5.999  -2.876   2.590  0.00  0.00     0.077 C 
ATOM      2  C1' PXY d   1      -2.331   1.576   2.969  0.00  0.00     0.077 C 
ATOM      3  C1  PXY d   1      -3.284   0.401   2.877  0.00  0.00    -0.082 A 
ATOM      4  C2  PXY d   1      -4.144   0.334   1.873  0.00  0.00     0.003 A 
ATOM      5  C3  PXY d   1      -5.035  -0.705   1.792  0.00  0.00     0.003 A 
ATOM      6  C4  PXY d   1      -5.011  -1.713   2.718  0.00  0.00    -0.082 A 
ATOM      7  C5  PXY d   1      -4.130  -1.657   3.739  0.00  0.00     0.003 A 
ATOM      8  C6  PXY d   1      -3.261  -0.573   3.827  0.00  0.00     0.003 A 
ENDROOT
TORSDOF 0
ENDMDL
