MODEL 1
REMARK minimizedAffinity 11.7503948
REMARK minimizedRMSD -1
REMARK  0 active torsions:
REMARK  status: ('A' for Active; 'I' for Inactive)
ROOT
ATOM      1  C4' PXY d   1      -1.801  -0.163  -3.442  0.00  0.00     0.077 C 
ATOM      2  C1' PXY d   1      -1.783  -5.888  -2.644  0.00  0.00     0.077 C 
ATOM      3  C1  PXY d   1      -1.798  -4.388  -2.862  0.00  0.00    -0.082 A 
ATOM      4  C2  PXY d   1      -0.719  -3.675  -2.580  0.00  0.00     0.003 A 
ATOM      5  C3  PXY d   1      -0.725  -2.314  -2.741  0.00  0.00     0.003 A 
ATOM      6  C4  PXY d   1      -1.829  -1.681  -3.246  0.00  0.00    -0.082 A 
ATOM      7  C5  PXY d   1      -2.930  -2.402  -3.546  0.00  0.00     0.003 A 
ATOM      8  C6  PXY d   1      -2.917  -3.778  -3.337  0.00  0.00     0.003 A 
ENDROOT
TORSDOF 0
ENDMDL
