MODEL 1
REMARK minimizedAffinity 9.67152023
REMARK minimizedRMSD -1
REMARK  0 active torsions:
REMARK  status: ('A' for Active; 'I' for Inactive)
ROOT
ATOM      1  C4' PXY d   1      -0.558  -4.524  -2.647  0.00  0.00     0.077 C 
ATOM      2  C1' PXY d   1      -5.548  -3.698  -5.446  0.00  0.00     0.077 C 
ATOM      3  C1  PXY d   1      -4.246  -3.920  -4.702  0.00  0.00    -0.082 A 
ATOM      4  C2  PXY d   1      -3.190  -3.180  -4.997  0.00  0.00     0.003 A 
ATOM      5  C3  PXY d   1      -1.996  -3.389  -4.357  0.00  0.00     0.003 A 
ATOM      6  C4  PXY d   1      -1.896  -4.329  -3.366  0.00  0.00    -0.082 A 
ATOM      7  C5  PXY d   1      -2.972  -5.081  -3.052  0.00  0.00     0.003 A 
ATOM      8  C6  PXY d   1      -4.164  -4.881  -3.743  0.00  0.00     0.003 A 
ENDROOT
TORSDOF 0
ENDMDL
