MODEL 1
REMARK minimizedAffinity 16.8435097
REMARK minimizedRMSD -1
REMARK  0 active torsions:
REMARK  status: ('A' for Active; 'I' for Inactive)
ROOT
ATOM      1  C4' PXY d   1       2.055  -0.154  -4.600  0.00  0.00     0.077 C 
ATOM      2  C1' PXY d   1       3.987   0.778   0.768  0.00  0.00     0.077 C 
ATOM      3  C1  PXY d   1       3.480   0.521  -0.637  0.00  0.00    -0.082 A 
ATOM      4  C2  PXY d   1       3.770   1.376  -1.604  0.00  0.00     0.003 A 
ATOM      5  C3  PXY d   1       3.293   1.175  -2.874  0.00  0.00     0.003 A 
ATOM      6  C4  PXY d   1       2.554   0.061  -3.168  0.00  0.00    -0.082 A 
ATOM      7  C5  PXY d   1       2.263  -0.822  -2.189  0.00  0.00     0.003 A 
ATOM      8  C6  PXY d   1       2.722  -0.579  -0.898  0.00  0.00     0.003 A 
ENDROOT
TORSDOF 0
ENDMDL
