MODEL 1
REMARK minimizedAffinity 15.9069195
REMARK minimizedRMSD -1
REMARK  0 active torsions:
REMARK  status: ('A' for Active; 'I' for Inactive)
ROOT
ATOM      1  C4' PXY d   1      -1.471  -2.422  -2.943  0.00  0.00     0.077 C 
ATOM      2  C1' PXY d   1       3.246  -0.479  -5.661  0.00  0.00     0.077 C 
ATOM      3  C1  PXY d   1       2.015  -0.986  -4.936  0.00  0.00    -0.082 A 
ATOM      4  C2  PXY d   1       1.185  -1.811  -5.555  0.00  0.00     0.003 A 
ATOM      5  C3  PXY d   1       0.050  -2.254  -4.926  0.00  0.00     0.003 A 
ATOM      6  C4  PXY d   1      -0.211  -1.892  -3.632  0.00  0.00    -0.082 A 
ATOM      7  C5  PXY d   1       0.636  -1.060  -2.990  0.00  0.00     0.003 A 
ATOM      8  C6  PXY d   1       1.761  -0.588  -3.660  0.00  0.00     0.003 A 
ENDROOT
TORSDOF 0
ENDMDL
