MODEL 1
REMARK minimizedAffinity 12.6070385
REMARK minimizedRMSD -1
REMARK  0 active torsions:
REMARK  status: ('A' for Active; 'I' for Inactive)
ROOT
ATOM      1  C4' PXY d   1       1.979   0.127  -4.491  0.00  0.00     0.077 C 
ATOM      2  C1' PXY d   1       4.392   1.869   0.464  0.00  0.00     0.077 C 
ATOM      3  C1  PXY d   1       3.764   1.400  -0.834  0.00  0.00    -0.082 A 
ATOM      4  C2  PXY d   1       3.487   2.281  -1.782  0.00  0.00     0.003 A 
ATOM      5  C3  PXY d   1       2.890   1.878  -2.949  0.00  0.00     0.003 A 
ATOM      6  C4  PXY d   1       2.622   0.554  -3.169  0.00  0.00    -0.082 A 
ATOM      7  C5  PXY d   1       2.911  -0.352  -2.211  0.00  0.00     0.003 A 
ATOM      8  C6  PXY d   1       3.480   0.082  -1.017  0.00  0.00     0.003 A 
ENDROOT
TORSDOF 0
ENDMDL
