MODEL 1
REMARK minimizedAffinity 5.65315008
REMARK minimizedRMSD -1
REMARK  0 active torsions:
REMARK  status: ('A' for Active; 'I' for Inactive)
ROOT
ATOM      1  C4' PXY d   1       1.616  -1.022  -2.236  0.00  0.00     0.077 C 
ATOM      2  C1' PXY d   1       4.139  -5.996  -0.717  0.00  0.00     0.077 C 
ATOM      3  C1  PXY d   1       3.475  -4.696  -1.127  0.00  0.00    -0.082 A 
ATOM      4  C2  PXY d   1       3.776  -3.578  -0.487  0.00  0.00     0.003 A 
ATOM      5  C3  PXY d   1       3.161  -2.400  -0.824  0.00  0.00     0.003 A 
ATOM      6  C4  PXY d   1       2.269  -2.356  -1.862  0.00  0.00    -0.082 A 
ATOM      7  C5  PXY d   1       1.965  -3.490  -2.527  0.00  0.00     0.003 A 
ATOM      8  C6  PXY d   1       2.569  -4.684  -2.142  0.00  0.00     0.003 A 
ENDROOT
TORSDOF 0
ENDMDL
