MODEL 1
REMARK minimizedAffinity 10.0763321
REMARK minimizedRMSD -1
REMARK  0 active torsions:
REMARK  status: ('A' for Active; 'I' for Inactive)
ROOT
ATOM      1  C4' PXY d   1       0.050   2.481  -3.933  0.00  0.00     0.077 C 
ATOM      2  C1' PXY d   1      -4.046   5.998  -5.999  0.00  0.00     0.077 C 
ATOM      3  C1  PXY d   1      -2.979   5.066  -5.462  0.00  0.00    -0.082 A 
ATOM      4  C2  PXY d   1      -2.196   5.468  -4.474  0.00  0.00     0.003 A 
ATOM      5  C3  PXY d   1      -1.204   4.649  -3.997  0.00  0.00     0.003 A 
ATOM      6  C4  PXY d   1      -1.047   3.386  -4.501  0.00  0.00    -0.082 A 
ATOM      7  C5  PXY d   1      -1.849   2.964  -5.501  0.00  0.00     0.003 A 
ATOM      8  C6  PXY d   1      -2.822   3.826  -5.999  0.00  0.00     0.003 A 
ENDROOT
TORSDOF 0
ENDMDL
