MODEL 1
REMARK minimizedAffinity 4.76830292
REMARK minimizedRMSD -1
REMARK  0 active torsions:
REMARK  status: ('A' for Active; 'I' for Inactive)
ROOT
ATOM      1  C4' PXY d   1      -2.629   0.538  -4.123  0.00  0.00     0.077 C 
ATOM      2  C1' PXY d   1      -2.330   5.997  -5.999  0.00  0.00     0.077 C 
ATOM      3  C1  PXY d   1      -2.402   4.562  -5.518  0.00  0.00    -0.082 A 
ATOM      4  C2  PXY d   1      -3.322   4.214  -4.633  0.00  0.00     0.003 A 
ATOM      5  C3  PXY d   1      -3.382   2.927  -4.163  0.00  0.00     0.003 A 
ATOM      6  C4  PXY d   1      -2.524   1.974  -4.644  0.00  0.00    -0.082 A 
ATOM      7  C5  PXY d   1      -1.590   2.318  -5.555  0.00  0.00     0.003 A 
ATOM      8  C6  PXY d   1      -1.519   3.639  -5.988  0.00  0.00     0.003 A 
ENDROOT
TORSDOF 0
ENDMDL
