MODEL 1
REMARK minimizedAffinity 22.4431171
REMARK minimizedRMSD -1
REMARK  0 active torsions:
REMARK  status: ('A' for Active; 'I' for Inactive)
ROOT
ATOM      1  C4' PXY d   1      -0.099  -1.530  -2.833  0.00  0.00     0.077 C 
ATOM      2  C1' PXY d   1       4.125   0.932   0.251  0.00  0.00     0.077 C 
ATOM      3  C1  PXY d   1       3.017   0.297  -0.566  0.00  0.00    -0.082 A 
ATOM      4  C2  PXY d   1       2.228  -0.606  -0.007  0.00  0.00     0.003 A 
ATOM      5  C3  PXY d   1       1.241  -1.214  -0.740  0.00  0.00     0.003 A 
ATOM      6  C4  PXY d   1       1.026  -0.855  -2.044  0.00  0.00    -0.082 A 
ATOM      7  C5  PXY d   1       1.820   0.073  -2.618  0.00  0.00     0.003 A 
ATOM      8  C6  PXY d   1       2.842   0.648  -1.869  0.00  0.00     0.003 A 
ENDROOT
TORSDOF 0
ENDMDL
