MODEL 1
REMARK minimizedAffinity 13.8232841
REMARK minimizedRMSD -1
REMARK  0 active torsions:
REMARK  status: ('A' for Active; 'I' for Inactive)
ROOT
ATOM      1  C4' PXY d   1      -4.708  -1.503   2.986  0.00  0.00     0.077 C 
ATOM      2  C1' PXY d   1       0.361   1.274   2.874  0.00  0.00     0.077 C 
ATOM      3  C1  PXY d   1      -0.974   0.557   2.905  0.00  0.00    -0.082 A 
ATOM      4  C2  PXY d   1      -1.017  -0.735   3.188  0.00  0.00     0.003 A 
ATOM      5  C3  PXY d   1      -2.212  -1.406   3.190  0.00  0.00     0.003 A 
ATOM      6  C4  PXY d   1      -3.383  -0.737   2.952  0.00  0.00    -0.082 A 
ATOM      7  C5  PXY d   1      -3.349   0.584   2.673  0.00  0.00     0.003 A 
ATOM      8  C6  PXY d   1      -2.121   1.238   2.636  0.00  0.00     0.003 A 
ENDROOT
TORSDOF 0
ENDMDL
