MODEL 1
REMARK minimizedAffinity 19.2296181
REMARK minimizedRMSD -1
REMARK  0 active torsions:
REMARK  status: ('A' for Active; 'I' for Inactive)
ROOT
ATOM      1  C4' PXY d   1      -4.549  -3.492  -4.878  0.00  0.00     0.077 C 
ATOM      2  C1' PXY d   1       0.172  -4.549  -1.714  0.00  0.00     0.077 C 
ATOM      3  C1  PXY d   1      -1.062  -4.260  -2.546  0.00  0.00    -0.082 A 
ATOM      4  C2  PXY d   1      -2.154  -4.985  -2.370  0.00  0.00     0.003 A 
ATOM      5  C3  PXY d   1      -3.269  -4.758  -3.136  0.00  0.00     0.003 A 
ATOM      6  C4  PXY d   1      -3.283  -3.742  -4.054  0.00  0.00    -0.082 A 
ATOM      7  C5  PXY d   1      -2.176  -2.991  -4.232  0.00  0.00     0.003 A 
ATOM      8  C6  PXY d   1      -1.041  -3.264  -3.473  0.00  0.00     0.003 A 
ENDROOT
TORSDOF 0
ENDMDL
