MODEL 1
REMARK minimizedAffinity 15.7418432
REMARK minimizedRMSD -1
REMARK  0 active torsions:
REMARK  status: ('A' for Active; 'I' for Inactive)
ROOT
ATOM      1  C4' PXY d   1      -5.976   2.645   3.436  0.00  0.00     0.077 C 
ATOM      2  C1' PXY d   1      -0.943   1.411   5.997  0.00  0.00     0.077 C 
ATOM      3  C1  PXY d   1      -2.257   1.735   5.314  0.00  0.00    -0.082 A 
ATOM      4  C2  PXY d   1      -3.217   2.340   5.995  0.00  0.00     0.003 A 
ATOM      5  C3  PXY d   1      -4.423   2.611   5.401  0.00  0.00     0.003 A 
ATOM      6  C4  PXY d   1      -4.630   2.308   4.082  0.00  0.00    -0.082 A 
ATOM      7  C5  PXY d   1      -3.652   1.700   3.378  0.00  0.00     0.003 A 
ATOM      8  C6  PXY d   1      -2.450   1.396   4.010  0.00  0.00     0.003 A 
ENDROOT
TORSDOF 0
ENDMDL
