MODEL 1
REMARK minimizedAffinity 17.7582703
REMARK minimizedRMSD -1
REMARK  0 active torsions:
REMARK  status: ('A' for Active; 'I' for Inactive)
ROOT
ATOM      1  C4' PXY d   1      -5.223  -2.486   1.849  0.00  0.00     0.077 C 
ATOM      2  C1' PXY d   1       0.045  -0.226   2.593  0.00  0.00     0.077 C 
ATOM      3  C1  PXY d   1      -1.331  -0.831   2.398  0.00  0.00    -0.082 A 
ATOM      4  C2  PXY d   1      -2.296  -0.101   1.862  0.00  0.00     0.003 A 
ATOM      5  C3  PXY d   1      -3.555  -0.622   1.708  0.00  0.00     0.003 A 
ATOM      6  C4  PXY d   1      -3.816  -1.920   2.056  0.00  0.00    -0.082 A 
ATOM      7  C5  PXY d   1      -2.834  -2.674   2.594  0.00  0.00     0.003 A 
ATOM      8  C6  PXY d   1      -1.573  -2.114   2.780  0.00  0.00     0.003 A 
ENDROOT
TORSDOF 0
ENDMDL
