MODEL 1
REMARK minimizedAffinity 12.2477331
REMARK minimizedRMSD -1
REMARK  0 active torsions:
REMARK  status: ('A' for Active; 'I' for Inactive)
ROOT
ATOM      1  C4' PXY d   1      -4.612  -1.214   1.690  0.00  0.00     0.077 C 
ATOM      2  C1' PXY d   1      -0.062   1.935   3.362  0.00  0.00     0.077 C 
ATOM      3  C1  PXY d   1      -1.261   1.113   2.935  0.00  0.00    -0.082 A 
ATOM      4  C2  PXY d   1      -1.091   0.076   2.131  0.00  0.00     0.003 A 
ATOM      5  C3  PXY d   1      -2.168  -0.659   1.708  0.00  0.00     0.003 A 
ATOM      6  C4  PXY d   1      -3.428  -0.361   2.156  0.00  0.00    -0.082 A 
ATOM      7  C5  PXY d   1      -3.609   0.689   2.985  0.00  0.00     0.003 A 
ATOM      8  C6  PXY d   1      -2.507   1.447   3.369  0.00  0.00     0.003 A 
ENDROOT
TORSDOF 0
ENDMDL
