MODEL 1
REMARK minimizedAffinity 1.62855315
REMARK minimizedRMSD -1
REMARK  0 active torsions:
REMARK  status: ('A' for Active; 'I' for Inactive)
ROOT
ATOM      1  C4' PXY d   1      -5.412  -4.111  -5.999  0.00  0.00     0.077 C 
ATOM      2  C1' PXY d   1      -0.563  -5.058  -2.998  0.00  0.00     0.077 C 
ATOM      3  C1  PXY d   1      -1.830  -4.798  -3.789  0.00  0.00    -0.082 A 
ATOM      4  C2  PXY d   1      -2.945  -5.433  -3.465  0.00  0.00     0.003 A 
ATOM      5  C3  PXY d   1      -4.092  -5.234  -4.190  0.00  0.00     0.003 A 
ATOM      6  C4  PXY d   1      -4.111  -4.335  -5.223  0.00  0.00    -0.082 A 
ATOM      7  C5  PXY d   1      -2.981  -3.675  -5.552  0.00  0.00     0.003 A 
ATOM      8  C6  PXY d   1      -1.817  -3.923  -4.830  0.00  0.00     0.003 A 
ENDROOT
TORSDOF 0
ENDMDL
