MODEL 1
REMARK minimizedAffinity 9.03984261
REMARK minimizedRMSD -1
REMARK  0 active torsions:
REMARK  status: ('A' for Active; 'I' for Inactive)
ROOT
ATOM      1  C4' PXY d   1      -4.942   2.141   1.504  0.00  0.00     0.077 C 
ATOM      2  C1' PXY d   1      -1.490   1.005   5.999  0.00  0.00     0.077 C 
ATOM      3  C1  PXY d   1      -2.393   1.316   4.821  0.00  0.00    -0.082 A 
ATOM      4  C2  PXY d   1      -3.373   0.484   4.512  0.00  0.00     0.003 A 
ATOM      5  C3  PXY d   1      -4.179   0.733   3.430  0.00  0.00     0.003 A 
ATOM      6  C4  PXY d   1      -4.012   1.873   2.691  0.00  0.00    -0.082 A 
ATOM      7  C5  PXY d   1      -3.021   2.732   3.007  0.00  0.00     0.003 A 
ATOM      8  C6  PXY d   1      -2.188   2.441   4.083  0.00  0.00     0.003 A 
ENDROOT
TORSDOF 0
ENDMDL
