MODEL 1
REMARK minimizedAffinity 4.57113457
REMARK minimizedRMSD -1
REMARK  0 active torsions:
REMARK  status: ('A' for Active; 'I' for Inactive)
ROOT
ATOM      1  C4' PXY d   1       0.785   3.069  -3.920  0.00  0.00     0.077 C 
ATOM      2  C1' PXY d   1       1.483   3.816   1.769  0.00  0.00     0.077 C 
ATOM      3  C1  PXY d   1       1.296   3.632   0.276  0.00  0.00    -0.082 A 
ATOM      4  C2  PXY d   1       1.114   2.418  -0.216  0.00  0.00     0.003 A 
ATOM      5  C3  PXY d   1       0.975   2.230  -1.567  0.00  0.00     0.003 A 
ATOM      6  C4  PXY d   1       0.969   3.303  -2.418  0.00  0.00    -0.082 A 
ATOM      7  C5  PXY d   1       1.143   4.546  -1.923  0.00  0.00     0.003 A 
ATOM      8  C6  PXY d   1       1.323   4.711  -0.552  0.00  0.00     0.003 A 
ENDROOT
TORSDOF 0
ENDMDL
