MODEL 1
REMARK minimizedAffinity -2.22390819
REMARK minimizedRMSD -1
REMARK  0 active torsions:
REMARK  status: ('A' for Active; 'I' for Inactive)
ROOT
ATOM      1  C2' OXE d   1      -0.246   1.086  -0.146  0.00  0.00     0.078 C 
ATOM      2  C1' OXE d   1       0.040  -1.541  -1.093  0.00  0.00     0.078 C 
ATOM      3  C1  OXE d   1      -0.485  -1.352   0.308  0.00  0.00    -0.078 A 
ATOM      4  C2  OXE d   1      -0.578  -0.064   0.780  0.00  0.00    -0.078 A 
ATOM      5  C3  OXE d   1      -1.108   0.169   2.046  0.00  0.00     0.003 A 
ATOM      6  C4  OXE d   1      -1.402  -0.901   2.899  0.00  0.00    -0.002 A 
ATOM      7  C5  OXE d   1      -1.278  -2.221   2.452  0.00  0.00    -0.002 A 
ATOM      8  C6  OXE d   1      -0.862  -2.462   1.148  0.00  0.00     0.003 A 
ENDROOT
TORSDOF 0
ENDMDL
