MODEL 1
REMARK minimizedAffinity 0.155139565
REMARK minimizedRMSD -1
REMARK  0 active torsions:
REMARK  status: ('A' for Active; 'I' for Inactive)
ROOT
ATOM      1  C2' OXE d   1      -1.002   1.739   0.657  0.00  0.00     0.078 C 
ATOM      2  C1' OXE d   1      -3.075   0.685   2.230  0.00  0.00     0.078 C 
ATOM      3  C1  OXE d   1      -2.288  -0.272   1.370  0.00  0.00    -0.078 A 
ATOM      4  C2  OXE d   1      -1.307   0.259   0.568  0.00  0.00    -0.078 A 
ATOM      5  C3  OXE d   1      -0.515  -0.587  -0.204  0.00  0.00     0.003 A 
ATOM      6  C4  OXE d   1      -0.809  -1.953  -0.288  0.00  0.00    -0.002 A 
ATOM      7  C5  OXE d   1      -1.831  -2.508   0.490  0.00  0.00    -0.002 A 
ATOM      8  C6  OXE d   1      -2.550  -1.690   1.354  0.00  0.00     0.003 A 
ENDROOT
TORSDOF 0
ENDMDL
