MODEL 1
REMARK minimizedAffinity -4.71308756
REMARK minimizedRMSD -1
REMARK  0 active torsions:
REMARK  status: ('A' for Active; 'I' for Inactive)
ROOT
ATOM      1  C2' OXE d   1       0.200  -3.036   0.115  0.00  0.00     0.078 C 
ATOM      2  C1' OXE d   1      -1.677  -1.916   1.877  0.00  0.00     0.078 C 
ATOM      3  C1  OXE d   1      -0.957  -0.987   0.932  0.00  0.00    -0.078 A 
ATOM      4  C2  OXE d   1      -0.007  -1.537   0.105  0.00  0.00    -0.078 A 
ATOM      5  C3  OXE d   1       0.647  -0.733  -0.824  0.00  0.00     0.003 A 
ATOM      6  C4  OXE d   1       0.457   0.654  -0.820  0.00  0.00    -0.002 A 
ATOM      7  C5  OXE d   1      -0.477   1.240   0.041  0.00  0.00    -0.002 A 
ATOM      8  C6  OXE d   1      -1.222   0.430   0.892  0.00  0.00     0.003 A 
ENDROOT
TORSDOF 0
ENDMDL
