MODEL 1
REMARK minimizedAffinity 1.66350365
REMARK minimizedRMSD -1
REMARK  0 active torsions:
REMARK  status: ('A' for Active; 'I' for Inactive)
ROOT
ATOM      1  C2' OXE d   1      -2.163  -1.506   3.983  0.00  0.00     0.078 C 
ATOM      2  C1' OXE d   1       0.577  -0.983   3.668  0.00  0.00     0.078 C 
ATOM      3  C1  OXE d   1      -0.346  -0.606   2.536  0.00  0.00    -0.078 A 
ATOM      4  C2  OXE d   1      -1.678  -0.908   2.679  0.00  0.00    -0.078 A 
ATOM      5  C3  OXE d   1      -2.581  -0.532   1.689  0.00  0.00     0.003 A 
ATOM      6  C4  OXE d   1      -2.123   0.011   0.482  0.00  0.00    -0.002 A 
ATOM      7  C5  OXE d   1      -0.765   0.291   0.299  0.00  0.00    -0.002 A 
ATOM      8  C6  OXE d   1       0.130   0.028   1.331  0.00  0.00     0.003 A 
ENDROOT
TORSDOF 0
ENDMDL
