MODEL 1
REMARK minimizedAffinity -1.60778546
REMARK minimizedRMSD -1
REMARK  0 active torsions:
REMARK  status: ('A' for Active; 'I' for Inactive)
ROOT
ATOM      1  C2' OXE d   1       0.012   1.037  -0.705  0.00  0.00     0.078 C 
ATOM      2  C1' OXE d   1       0.280  -1.449  -1.981  0.00  0.00     0.078 C 
ATOM      3  C1  OXE d   1      -0.281  -1.434  -0.581  0.00  0.00    -0.078 A 
ATOM      4  C2  OXE d   1      -0.365  -0.217   0.053  0.00  0.00    -0.078 A 
ATOM      5  C3  OXE d   1      -0.925  -0.141   1.325  0.00  0.00     0.003 A 
ATOM      6  C4  OXE d   1      -1.262  -1.307   2.023  0.00  0.00    -0.002 A 
ATOM      7  C5  OXE d   1      -1.147  -2.559   1.411  0.00  0.00    -0.002 A 
ATOM      8  C6  OXE d   1      -0.699  -2.636   0.096  0.00  0.00     0.003 A 
ENDROOT
TORSDOF 0
ENDMDL
