MODEL 1
REMARK minimizedAffinity -4.63057327
REMARK minimizedRMSD -1
REMARK  0 active torsions:
REMARK  status: ('A' for Active; 'I' for Inactive)
ROOT
ATOM      1  C2' OXE d   1      -1.822   0.019   1.710  0.00  0.00     0.078 C 
ATOM      2  C1' OXE d   1       0.022   1.121  -0.096  0.00  0.00     0.078 C 
ATOM      3  C1  OXE d   1      -0.041  -0.382   0.015  0.00  0.00    -0.078 A 
ATOM      4  C2  OXE d   1      -0.913  -0.911   0.936  0.00  0.00    -0.078 A 
ATOM      5  C3  OXE d   1      -1.051  -2.292   1.040  0.00  0.00     0.003 A 
ATOM      6  C4  OXE d   1      -0.199  -3.145   0.327  0.00  0.00    -0.002 A 
ATOM      7  C5  OXE d   1       0.724  -2.626  -0.586  0.00  0.00    -0.002 A 
ATOM      8  C6  OXE d   1       0.786  -1.251  -0.785  0.00  0.00     0.003 A 
ENDROOT
TORSDOF 0
ENDMDL
