MODEL 1
REMARK minimizedAffinity 5.30871391
REMARK minimizedRMSD -1
REMARK  0 active torsions:
REMARK  status: ('A' for Active; 'I' for Inactive)
ROOT
ATOM      1  C2' OXE d   1       0.631   0.631  -0.098  0.00  0.00     0.078 C 
ATOM      2  C1' OXE d   1       0.490   0.027   2.640  0.00  0.00     0.078 C 
ATOM      3  C1  OXE d   1      -0.806   0.229   1.897  0.00  0.00    -0.078 A 
ATOM      4  C2  OXE d   1      -0.727   0.570   0.568  0.00  0.00    -0.078 A 
ATOM      5  C3  OXE d   1      -1.894   0.715  -0.177  0.00  0.00     0.003 A 
ATOM      6  C4  OXE d   1      -3.145   0.667   0.449  0.00  0.00    -0.002 A 
ATOM      7  C5  OXE d   1      -3.247   0.360   1.810  0.00  0.00    -0.002 A 
ATOM      8  C6  OXE d   1      -2.092   0.097   2.537  0.00  0.00     0.003 A 
ENDROOT
TORSDOF 0
ENDMDL
