MODEL 1
REMARK minimizedAffinity -6.0001297
REMARK minimizedRMSD -1
REMARK  0 active torsions:
REMARK  status: ('A' for Active; 'I' for Inactive)
ROOT
ATOM      1  C2' OXE d   1      -0.046   1.111   0.351  0.00  0.00     0.078 C 
ATOM      2  C1' OXE d   1      -2.171   0.165   1.922  0.00  0.00     0.078 C 
ATOM      3  C1  OXE d   1      -1.347  -0.850   1.171  0.00  0.00    -0.078 A 
ATOM      4  C2  OXE d   1      -0.338  -0.374   0.367  0.00  0.00    -0.078 A 
ATOM      5  C3  OXE d   1       0.488  -1.271  -0.305  0.00  0.00     0.003 A 
ATOM      6  C4  OXE d   1       0.205  -2.642  -0.293  0.00  0.00    -0.002 A 
ATOM      7  C5  OXE d   1      -0.843  -3.143   0.487  0.00  0.00    -0.002 A 
ATOM      8  C6  OXE d   1      -1.599  -2.267   1.257  0.00  0.00     0.003 A 
ENDROOT
TORSDOF 0
ENDMDL
