MODEL 1
REMARK minimizedAffinity 8.1665678
REMARK minimizedRMSD -1
REMARK  0 active torsions:
REMARK  status: ('A' for Active; 'I' for Inactive)
ROOT
ATOM      1  C2' OXE d   1       1.132  -0.712   3.221  0.00  0.00     0.078 C 
ATOM      2  C1' OXE d   1      -1.557  -0.607   2.421  0.00  0.00     0.078 C 
ATOM      3  C1  OXE d   1      -0.506  -0.233   1.406  0.00  0.00    -0.078 A 
ATOM      4  C2  OXE d   1       0.804  -0.242   1.820  0.00  0.00    -0.078 A 
ATOM      5  C3  OXE d   1       1.817   0.041   0.908  0.00  0.00     0.003 A 
ATOM      6  C4  OXE d   1       1.505   0.484  -0.383  0.00  0.00    -0.002 A 
ATOM      7  C5  OXE d   1       0.174   0.539  -0.813  0.00  0.00    -0.002 A 
ATOM      8  C6  OXE d   1      -0.838   0.144   0.054  0.00  0.00     0.003 A 
ENDROOT
TORSDOF 0
ENDMDL
