MODEL 1
REMARK minimizedAffinity -3.46340823
REMARK minimizedRMSD -1
REMARK  0 active torsions:
REMARK  status: ('A' for Active; 'I' for Inactive)
ROOT
ATOM      1  C2' OXE d   1      -1.143  -0.883   1.680  0.00  0.00     0.078 C 
ATOM      2  C1' OXE d   1      -0.409   0.848  -0.404  0.00  0.00     0.078 C 
ATOM      3  C1  OXE d   1      -0.283  -0.635  -0.645  0.00  0.00    -0.078 A 
ATOM      4  C2  OXE d   1      -0.600  -1.474   0.396  0.00  0.00    -0.078 A 
ATOM      5  C3  OXE d   1      -0.553  -2.852   0.210  0.00  0.00     0.003 A 
ATOM      6  C4  OXE d   1      -0.040  -3.390  -0.977  0.00  0.00    -0.002 A 
ATOM      7  C5  OXE d   1       0.326  -2.553  -2.036  0.00  0.00    -0.002 A 
ATOM      8  C6  OXE d   1       0.171  -1.177  -1.902  0.00  0.00     0.003 A 
ENDROOT
TORSDOF 0
ENDMDL
