MODEL 1
REMARK minimizedAffinity -3.97021651
REMARK minimizedRMSD -1
REMARK  0 active torsions:
REMARK  status: ('A' for Active; 'I' for Inactive)
ROOT
ATOM      1  C2' OXE d   1       0.074   1.640  -1.767  0.00  0.00     0.078 C 
ATOM      2  C1' OXE d   1      -1.269   0.754   0.533  0.00  0.00     0.078 C 
ATOM      3  C1  OXE d   1      -0.322   1.919   0.677  0.00  0.00    -0.078 A 
ATOM      4  C2  OXE d   1       0.366   2.316  -0.444  0.00  0.00    -0.078 A 
ATOM      5  C3  OXE d   1       1.211   3.420  -0.380  0.00  0.00     0.003 A 
ATOM      6  C4  OXE d   1       1.483   4.033   0.849  0.00  0.00    -0.002 A 
ATOM      7  C5  OXE d   1       0.823   3.619   2.011  0.00  0.00    -0.002 A 
ATOM      8  C6  OXE d   1      -0.112   2.593   1.934  0.00  0.00     0.003 A 
ENDROOT
TORSDOF 0
ENDMDL
