MODEL 1
REMARK minimizedAffinity -3.84102583
REMARK minimizedRMSD -1
REMARK  0 active torsions:
REMARK  status: ('A' for Active; 'I' for Inactive)
ROOT
ATOM      1  C2' OXE d   1      -0.176   0.358  -0.039  0.00  0.00     0.078 C 
ATOM      2  C1' OXE d   1      -1.076  -1.954   1.275  0.00  0.00     0.078 C 
ATOM      3  C1  OXE d   1      -0.571  -2.100  -0.139  0.00  0.00    -0.078 A 
ATOM      4  C2  OXE d   1      -0.176  -0.956  -0.790  0.00  0.00    -0.078 A 
ATOM      5  C3  OXE d   1       0.350  -1.042  -2.076  0.00  0.00     0.003 A 
ATOM      6  C4  OXE d   1       0.337  -2.260  -2.768  0.00  0.00    -0.002 A 
ATOM      7  C5  OXE d   1      -0.098  -3.430  -2.136  0.00  0.00    -0.002 A 
ATOM      8  C6  OXE d   1      -0.514  -3.375  -0.811  0.00  0.00     0.003 A 
ENDROOT
TORSDOF 0
ENDMDL
