MODEL 1
REMARK minimizedAffinity -5.70624876
REMARK minimizedRMSD -1
REMARK  0 active torsions:
REMARK  status: ('A' for Active; 'I' for Inactive)
ROOT
ATOM      1  C2' OXE d   1      -0.069   0.709  -0.829  0.00  0.00     0.078 C 
ATOM      2  C1' OXE d   1       0.230  -1.186  -2.878  0.00  0.00     0.078 C 
ATOM      3  C1  OXE d   1      -0.015  -1.695  -1.480  0.00  0.00    -0.078 A 
ATOM      4  C2  OXE d   1      -0.114  -0.762  -0.476  0.00  0.00    -0.078 A 
ATOM      5  C3  OXE d   1      -0.394  -1.174   0.824  0.00  0.00     0.003 A 
ATOM      6  C4  OXE d   1      -0.423  -2.537   1.144  0.00  0.00    -0.002 A 
ATOM      7  C5  OXE d   1      -0.286  -3.505   0.143  0.00  0.00    -0.002 A 
ATOM      8  C6  OXE d   1      -0.123  -3.101  -1.178  0.00  0.00     0.003 A 
ENDROOT
TORSDOF 0
ENDMDL
