MODEL 1
REMARK minimizedAffinity -3.85524583
REMARK minimizedRMSD -1
REMARK  0 active torsions:
REMARK  status: ('A' for Active; 'I' for Inactive)
ROOT
ATOM      1  C2' OXE d   1      -0.507  -2.340   1.223  0.00  0.00     0.078 C 
ATOM      2  C1' OXE d   1       0.408  -0.079  -0.167  0.00  0.00     0.078 C 
ATOM      3  C1  OXE d   1       0.311  -1.380  -0.925  0.00  0.00    -0.078 A 
ATOM      4  C2  OXE d   1      -0.094  -2.491  -0.225  0.00  0.00    -0.078 A 
ATOM      5  C3  OXE d   1      -0.253  -3.704  -0.889  0.00  0.00     0.003 A 
ATOM      6  C4  OXE d   1       0.142  -3.837  -2.225  0.00  0.00    -0.002 A 
ATOM      7  C5  OXE d   1       0.594  -2.727  -2.946  0.00  0.00    -0.002 A 
ATOM      8  C6  OXE d   1       0.644  -1.485  -2.324  0.00  0.00     0.003 A 
ENDROOT
TORSDOF 0
ENDMDL
