MODEL 1
REMARK minimizedAffinity 4.42644262
REMARK minimizedRMSD -1
REMARK  0 active torsions:
REMARK  status: ('A' for Active; 'I' for Inactive)
ROOT
ATOM      1  C2' OXE d   1      -0.370   1.514   0.135  0.00  0.00     0.078 C 
ATOM      2  C1' OXE d   1      -0.014  -0.022  -2.187  0.00  0.00     0.078 C 
ATOM      3  C1  OXE d   1      -0.698  -0.673  -1.011  0.00  0.00    -0.078 A 
ATOM      4  C2  OXE d   1      -0.826   0.071   0.137  0.00  0.00    -0.078 A 
ATOM      5  C3  OXE d   1      -1.498  -0.463   1.233  0.00  0.00     0.003 A 
ATOM      6  C4  OXE d   1      -1.907  -1.802   1.230  0.00  0.00    -0.002 A 
ATOM      7  C5  OXE d   1      -1.751  -2.589   0.085  0.00  0.00    -0.002 A 
ATOM      8  C6  OXE d   1      -1.188  -2.029  -1.056  0.00  0.00     0.003 A 
ENDROOT
TORSDOF 0
ENDMDL
