MODEL 1
REMARK minimizedAffinity 4.94775867
REMARK minimizedRMSD -1
REMARK  0 active torsions:
REMARK  status: ('A' for Active; 'I' for Inactive)
ROOT
ATOM      1  C2' OXE d   1      -0.367   1.770   0.386  0.00  0.00     0.078 C 
ATOM      2  C1' OXE d   1       0.068  -0.354  -1.399  0.00  0.00     0.078 C 
ATOM      3  C1  OXE d   1      -0.713  -0.641  -0.140  0.00  0.00    -0.078 A 
ATOM      4  C2  OXE d   1      -0.881   0.393   0.749  0.00  0.00    -0.078 A 
ATOM      5  C3  OXE d   1      -1.640   0.196   1.899  0.00  0.00     0.003 A 
ATOM      6  C4  OXE d   1      -2.103  -1.082   2.233  0.00  0.00    -0.002 A 
ATOM      7  C5  OXE d   1      -1.909  -2.158   1.360  0.00  0.00    -0.002 A 
ATOM      8  C6  OXE d   1      -1.254  -1.945   0.152  0.00  0.00     0.003 A 
ENDROOT
TORSDOF 0
ENDMDL
