MODEL 1
REMARK minimizedAffinity 6.84184027
REMARK minimizedRMSD -1
REMARK  0 active torsions:
REMARK  status: ('A' for Active; 'I' for Inactive)
ROOT
ATOM      1  C   UNL d   1       0.131   3.195  -1.961  0.00  0.00     0.020 A 
ATOM      2  C1  UNL d   1       0.269   4.113  -0.921  0.00  0.00     0.020 A 
ATOM      3  C2  UNL d   1      -0.700   4.182   0.082  0.00  0.00     0.034 A 
ATOM      4  C3  UNL d   1      -1.811   3.331   0.048  0.00  0.00     0.017 A 
ATOM      5  C4  UNL d   1      -1.948   2.409  -0.996  0.00  0.00     0.017 A 
ATOM      6  C5  UNL d   1      -0.975   2.344  -1.998  0.00  0.00     0.034 A 
ATOM      7 Cl   UNL d   1      -3.290   1.326  -1.107  0.00  0.00    -0.070 Cl
ATOM      8 Cl1  UNL d   1      -2.970   3.471   1.321  0.00  0.00    -0.070 Cl
ENDROOT
TORSDOF 0
ENDMDL
