MODEL 1
REMARK minimizedAffinity 2.5635736
REMARK minimizedRMSD -1
REMARK  0 active torsions:
REMARK  status: ('A' for Active; 'I' for Inactive)
ROOT
ATOM      1  C   UNL d   1       0.780   2.606   0.029  0.00  0.00     0.020 A 
ATOM      2  C1  UNL d   1      -0.488   2.082   0.279  0.00  0.00     0.020 A 
ATOM      3  C2  UNL d   1      -1.503   2.228  -0.670  0.00  0.00     0.034 A 
ATOM      4  C3  UNL d   1      -1.251   2.900  -1.872  0.00  0.00     0.017 A 
ATOM      5  C4  UNL d   1       0.022   3.425  -2.121  0.00  0.00     0.017 A 
ATOM      6  C5  UNL d   1       1.034   3.275  -1.168  0.00  0.00     0.034 A 
ATOM      7 Cl   UNL d   1       0.409   4.265  -3.581  0.00  0.00    -0.070 Cl
ATOM      8 Cl1  UNL d   1      -2.552   3.043  -3.000  0.00  0.00    -0.070 Cl
ENDROOT
TORSDOF 0
ENDMDL
