MODEL 1
REMARK minimizedAffinity 5.16969204
REMARK minimizedRMSD -1
REMARK  0 active torsions:
REMARK  status: ('A' for Active; 'I' for Inactive)
ROOT
ATOM      1  C   UNL d   1      -0.245   3.218  -1.505  0.00  0.00     0.020 A 
ATOM      2  C1  UNL d   1      -0.228   2.500  -0.310  0.00  0.00     0.020 A 
ATOM      3  C2  UNL d   1      -1.199   1.527  -0.066  0.00  0.00     0.034 A 
ATOM      4  C3  UNL d   1      -2.192   1.269  -1.018  0.00  0.00     0.017 A 
ATOM      5  C4  UNL d   1      -2.209   1.990  -2.218  0.00  0.00     0.017 A 
ATOM      6  C5  UNL d   1      -1.233   2.963  -2.457  0.00  0.00     0.034 A 
ATOM      7 Cl   UNL d   1      -3.402   1.729  -3.440  0.00  0.00    -0.070 Cl
ATOM      8 Cl1  UNL d   1      -3.362   0.052  -0.650  0.00  0.00    -0.070 Cl
ENDROOT
TORSDOF 0
ENDMDL
