MODEL 1
REMARK minimizedAffinity 4.39357233
REMARK minimizedRMSD -1
REMARK  0 active torsions:
REMARK  status: ('A' for Active; 'I' for Inactive)
ROOT
ATOM      1  C   UNL d   1      -0.871   1.929   0.791  0.00  0.00     0.020 A 
ATOM      2  C1  UNL d   1      -1.541   2.299  -0.374  0.00  0.00     0.020 A 
ATOM      3  C2  UNL d   1      -0.991   3.264  -1.220  0.00  0.00     0.034 A 
ATOM      4  C3  UNL d   1       0.234   3.862  -0.903  0.00  0.00     0.017 A 
ATOM      5  C4  UNL d   1       0.907   3.490   0.267  0.00  0.00     0.017 A 
ATOM      6  C5  UNL d   1       0.351   2.523   1.111  0.00  0.00     0.034 A 
ATOM      7 Cl   UNL d   1       2.422   4.183   0.725  0.00  0.00    -0.070 Cl
ATOM      8 Cl1  UNL d   1       0.857   5.047  -1.995  0.00  0.00    -0.070 Cl
ENDROOT
TORSDOF 0
ENDMDL
