MODEL 1
REMARK minimizedAffinity 0.848212242
REMARK minimizedRMSD -1
REMARK  0 active torsions:
REMARK  status: ('A' for Active; 'I' for Inactive)
ROOT
ATOM      1  C   UNL d   1      -1.240   2.616   1.765  0.00  0.00     0.020 A 
ATOM      2  C1  UNL d   1       0.145   2.699   1.628  0.00  0.00     0.020 A 
ATOM      3  C2  UNL d   1       0.707   3.004   0.386  0.00  0.00     0.034 A 
ATOM      4  C3  UNL d   1      -0.117   3.228  -0.723  0.00  0.00     0.017 A 
ATOM      5  C4  UNL d   1      -1.507   3.144  -0.585  0.00  0.00     0.017 A 
ATOM      6  C5  UNL d   1      -2.064   2.838   0.661  0.00  0.00     0.034 A 
ATOM      7 Cl   UNL d   1      -2.588   3.407  -1.908  0.00  0.00    -0.070 Cl
ATOM      8 Cl1  UNL d   1       0.646   3.601  -2.228  0.00  0.00    -0.070 Cl
ENDROOT
TORSDOF 0
ENDMDL
