MODEL 1
REMARK minimizedAffinity 20.1496048
REMARK minimizedRMSD -1
REMARK  0 active torsions:
REMARK  status: ('A' for Active; 'I' for Inactive)
ROOT
ATOM      1  C   UNL d   1       4.650  -5.999  -1.710  0.00  0.00     0.020 A 
ATOM      2  C1  UNL d   1       5.258  -5.026  -0.917  0.00  0.00     0.020 A 
ATOM      3  C2  UNL d   1       4.480  -4.052  -0.288  0.00  0.00     0.034 A 
ATOM      4  C3  UNL d   1       3.089  -4.050  -0.450  0.00  0.00     0.017 A 
ATOM      5  C4  UNL d   1       2.480  -5.027  -1.245  0.00  0.00     0.017 A 
ATOM      6  C5  UNL d   1       3.265  -6.000  -1.873  0.00  0.00     0.034 A 
ATOM      7 Cl   UNL d   1       0.771  -5.088  -1.492  0.00  0.00    -0.070 Cl
ATOM      8 Cl1  UNL d   1       2.189  -2.816   0.358  0.00  0.00    -0.070 Cl
ENDROOT
TORSDOF 0
ENDMDL
