MODEL 1
REMARK minimizedAffinity 8.29154778
REMARK minimizedRMSD -1
REMARK  0 active torsions:
REMARK  status: ('A' for Active; 'I' for Inactive)
ROOT
ATOM      1  C   UNL d   1       0.374   4.640  -0.843  0.00  0.00     0.020 A 
ATOM      2  C1  UNL d   1      -0.161   4.040  -1.982  0.00  0.00     0.020 A 
ATOM      3  C2  UNL d   1      -0.800   2.802  -1.885  0.00  0.00     0.034 A 
ATOM      4  C3  UNL d   1      -0.904   2.159  -0.646  0.00  0.00     0.017 A 
ATOM      5  C4  UNL d   1      -0.366   2.762   0.497  0.00  0.00     0.017 A 
ATOM      6  C5  UNL d   1       0.272   4.002   0.394  0.00  0.00     0.034 A 
ATOM      7 Cl   UNL d   1      -0.455   2.029   2.060  0.00  0.00    -0.070 Cl
ATOM      8 Cl1  UNL d   1      -1.707   0.630  -0.599  0.00  0.00    -0.070 Cl
ENDROOT
TORSDOF 0
ENDMDL
