MODEL 1
REMARK minimizedAffinity 6.85979891
REMARK minimizedRMSD -1
REMARK  0 active torsions:
REMARK  status: ('A' for Active; 'I' for Inactive)
ROOT
ATOM      1  C   UNL d   1       0.054   4.820  -1.593  0.00  0.00     0.020 A 
ATOM      2  C1  UNL d   1       0.527   3.525  -1.383  0.00  0.00     0.020 A 
ATOM      3  C2  UNL d   1       0.133   2.813  -0.248  0.00  0.00     0.034 A 
ATOM      4  C3  UNL d   1      -0.736   3.395   0.681  0.00  0.00     0.017 A 
ATOM      5  C4  UNL d   1      -1.211   4.695   0.469  0.00  0.00     0.017 A 
ATOM      6  C5  UNL d   1      -0.813   5.403  -0.669  0.00  0.00     0.034 A 
ATOM      7 Cl   UNL d   1      -2.286   5.480   1.572  0.00  0.00    -0.070 Cl
ATOM      8 Cl1  UNL d   1      -1.182   2.457   2.062  0.00  0.00    -0.070 Cl
ENDROOT
TORSDOF 0
ENDMDL
