MODEL 1
REMARK minimizedAffinity 13.386754
REMARK minimizedRMSD -1
REMARK  0 active torsions:
REMARK  status: ('A' for Active; 'I' for Inactive)
ROOT
ATOM      1  C   UNL d   1       1.826  -5.999  -1.590  0.00  0.00     0.020 A 
ATOM      2  C1  UNL d   1       1.047  -4.905  -1.216  0.00  0.00     0.020 A 
ATOM      3  C2  UNL d   1       1.660  -3.728  -0.782  0.00  0.00     0.034 A 
ATOM      4  C3  UNL d   1       3.056  -3.642  -0.721  0.00  0.00     0.017 A 
ATOM      5  C4  UNL d   1       3.837  -4.741  -1.096  0.00  0.00     0.017 A 
ATOM      6  C5  UNL d   1       3.218  -5.917  -1.530  0.00  0.00     0.034 A 
ATOM      7 Cl   UNL d   1       5.564  -4.710  -1.047  0.00  0.00    -0.070 Cl
ATOM      8 Cl1  UNL d   1       3.746  -2.155  -0.175  0.00  0.00    -0.070 Cl
ENDROOT
TORSDOF 0
ENDMDL
