MODEL 1
REMARK minimizedAffinity 3.67948747
REMARK minimizedRMSD -1
REMARK  0 active torsions:
REMARK  status: ('A' for Active; 'I' for Inactive)
ROOT
ATOM      1  C   UNL d   1      -5.999  -2.510   5.938  0.00  0.00     0.020 A 
ATOM      2  C1  UNL d   1      -5.672  -3.302   4.838  0.00  0.00     0.020 A 
ATOM      3  C2  UNL d   1      -5.345  -2.704   3.619  0.00  0.00     0.034 A 
ATOM      4  C3  UNL d   1      -5.345  -1.309   3.497  0.00  0.00     0.017 A 
ATOM      5  C4  UNL d   1      -5.673  -0.515   4.602  0.00  0.00     0.017 A 
ATOM      6  C5  UNL d   1      -6.000  -1.120   5.820  0.00  0.00     0.034 A 
ATOM      7 Cl   UNL d   1      -5.695   1.211   4.529  0.00  0.00    -0.070 Cl
ATOM      8 Cl1  UNL d   1      -4.930  -0.637   1.961  0.00  0.00    -0.070 Cl
ENDROOT
TORSDOF 0
ENDMDL
