MODEL 1
REMARK minimizedAffinity -0.150911078
REMARK minimizedRMSD -1
REMARK  0 active torsions:
REMARK  status: ('A' for Active; 'I' for Inactive)
ROOT
ATOM      1  C   UNL d   1      -3.456   4.068  -3.157  0.00  0.00     0.124 A 
ATOM      2  C1  UNL d   1      -2.667   3.240  -3.944  0.00  0.00     0.062 A 
ATOM      3  C2  UNL d   1      -2.326   1.967  -3.497  0.00  0.00     0.162 A 
ATOM      4  C3  UNL d   1      -2.775   1.512  -2.257  0.00  0.00    -0.034 A 
ATOM      5  C4  UNL d   1      -3.567   2.351  -1.471  0.00  0.00     0.162 A 
ATOM      6  C5  UNL d   1      -3.905   3.623  -1.922  0.00  0.00     0.062 A 
ATOM      7  F   UNL d   1      -4.667   4.421  -1.161  0.00  0.00    -0.097 F 
ATOM      8  F1  UNL d   1      -4.016   1.946  -0.274  0.00  0.00    -0.096 F 
ATOM      9  I   UNL d   1      -2.267  -0.391  -1.586  0.00  0.00    -0.060 I 
ATOM     10  F2  UNL d   1      -1.562   1.188  -4.278  0.00  0.00    -0.096 F 
ATOM     11  F3  UNL d   1      -2.230   3.668  -5.137  0.00  0.00    -0.097 F 
ATOM     12  F4  UNL d   1      -3.781   5.293  -3.589  0.00  0.00    -0.092 F 
ENDROOT
TORSDOF 0
ENDMDL
