MODEL 1
REMARK minimizedAffinity 7.83483076
REMARK minimizedRMSD -1
REMARK  0 active torsions:
REMARK  status: ('A' for Active; 'I' for Inactive)
ROOT
ATOM      1  C   UNL d   1      -2.832   2.758  -2.914  0.00  0.00     0.124 A 
ATOM      2  C1  UNL d   1      -3.436   3.220  -4.075  0.00  0.00     0.062 A 
ATOM      3  C2  UNL d   1      -2.782   4.146  -4.883  0.00  0.00     0.162 A 
ATOM      4  C3  UNL d   1      -1.516   4.615  -4.533  0.00  0.00    -0.034 A 
ATOM      5  C4  UNL d   1      -0.916   4.147  -3.363  0.00  0.00     0.162 A 
ATOM      6  C5  UNL d   1      -1.574   3.222  -2.559  0.00  0.00     0.062 A 
ATOM      7  F   UNL d   1      -0.989   2.777  -1.437  0.00  0.00    -0.097 F 
ATOM      8  F1  UNL d   1       0.300   4.578  -2.996  0.00  0.00    -0.096 F 
ATOM      9  I   UNL d   1      -0.535   6.000  -5.738  0.00  0.00    -0.060 I 
ATOM     10  F2  UNL d   1      -3.389   4.575  -6.000  0.00  0.00    -0.096 F 
ATOM     11  F3  UNL d   1      -4.652   2.774  -4.420  0.00  0.00    -0.097 F 
ATOM     12  F4  UNL d   1      -3.464   1.868  -2.138  0.00  0.00    -0.092 F 
ENDROOT
TORSDOF 0
ENDMDL
