MODEL 1
REMARK minimizedAffinity 2.80393124
REMARK minimizedRMSD -1
REMARK  0 active torsions:
REMARK  status: ('A' for Active; 'I' for Inactive)
ROOT
ATOM      1  C   UNL d   1      -3.041   1.496  -2.433  0.00  0.00     0.124 A 
ATOM      2  C1  UNL d   1      -3.362   2.588  -1.640  0.00  0.00     0.062 A 
ATOM      3  C2  UNL d   1      -3.330   3.874  -2.171  0.00  0.00     0.162 A 
ATOM      4  C3  UNL d   1      -2.975   4.075  -3.505  0.00  0.00    -0.034 A 
ATOM      5  C4  UNL d   1      -2.652   2.972  -4.297  0.00  0.00     0.162 A 
ATOM      6  C5  UNL d   1      -2.686   1.689  -3.761  0.00  0.00     0.062 A 
ATOM      7  F   UNL d   1      -2.375   0.635  -4.529  0.00  0.00    -0.097 F 
ATOM      8  F1  UNL d   1      -2.306   3.129  -5.584  0.00  0.00    -0.096 F 
ATOM      9  I   UNL d   1      -2.925   5.996  -4.305  0.00  0.00    -0.060 I 
ATOM     10  F2  UNL d   1      -3.645   4.911  -1.381  0.00  0.00    -0.096 F 
ATOM     11  F3  UNL d   1      -3.705   2.405  -0.356  0.00  0.00    -0.097 F 
ATOM     12  F4  UNL d   1      -3.072   0.260  -1.919  0.00  0.00    -0.092 F 
ENDROOT
TORSDOF 0
ENDMDL
