MODEL 1
REMARK minimizedAffinity -0.205337614
REMARK minimizedRMSD -1
REMARK  0 active torsions:
REMARK  status: ('A' for Active; 'I' for Inactive)
ROOT
ATOM      1  C   UNL d   1      -2.643  -0.450   1.722  0.00  0.00     0.124 A 
ATOM      2  C1  UNL d   1      -2.233  -0.887   0.470  0.00  0.00     0.062 A 
ATOM      3  C2  UNL d   1      -0.962  -1.429   0.300  0.00  0.00     0.162 A 
ATOM      4  C3  UNL d   1      -0.092  -1.539   1.384  0.00  0.00    -0.034 A 
ATOM      5  C4  UNL d   1      -0.511  -1.096   2.640  0.00  0.00     0.162 A 
ATOM      6  C5  UNL d   1      -1.782  -0.556   2.806  0.00  0.00     0.062 A 
ATOM      7  F   UNL d   1      -2.177  -0.134   4.016  0.00  0.00    -0.097 F 
ATOM      8  F1  UNL d   1       0.300  -1.187   3.705  0.00  0.00    -0.096 F 
ATOM      9  I   UNL d   1       1.808  -2.349   1.133  0.00  0.00    -0.060 I 
ATOM     10  F2  UNL d   1      -0.592  -1.843  -0.922  0.00  0.00    -0.096 F 
ATOM     11  F3  UNL d   1      -3.062  -0.786  -0.578  0.00  0.00    -0.097 F 
ATOM     12  F4  UNL d   1      -3.866   0.072   1.884  0.00  0.00    -0.092 F 
ENDROOT
TORSDOF 0
ENDMDL
