MODEL 1
REMARK minimizedAffinity 17.9900932
REMARK minimizedRMSD -1
REMARK  0 active torsions:
REMARK  status: ('A' for Active; 'I' for Inactive)
ROOT
ATOM      1  C   UNL d   1       0.480  -1.782   1.401  0.00  0.00     0.124 A 
ATOM      2  C1  UNL d   1      -0.290  -1.276   2.439  0.00  0.00     0.062 A 
ATOM      3  C2  UNL d   1      -1.675  -1.211   2.316  0.00  0.00     0.162 A 
ATOM      4  C3  UNL d   1      -2.299  -1.656   1.150  0.00  0.00    -0.034 A 
ATOM      5  C4  UNL d   1      -1.518  -2.163   0.111  0.00  0.00     0.162 A 
ATOM      6  C5  UNL d   1      -0.134  -2.225   0.238  0.00  0.00     0.062 A 
ATOM      7  F   UNL d   1       0.608  -2.715  -0.765  0.00  0.00    -0.097 F 
ATOM      8  F1  UNL d   1      -2.086  -2.599  -1.024  0.00  0.00    -0.096 F 
ATOM      9  I   UNL d   1      -4.370  -1.561   0.963  0.00  0.00    -0.060 I 
ATOM     10  F2  UNL d   1      -2.394  -0.717   3.335  0.00  0.00    -0.096 F 
ATOM     11  F3  UNL d   1       0.301  -0.846   3.563  0.00  0.00    -0.097 F 
ATOM     12  F4  UNL d   1       1.813  -1.842   1.522  0.00  0.00    -0.092 F 
ENDROOT
TORSDOF 0
ENDMDL
