MODEL 1
REMARK minimizedAffinity 3.74869227
REMARK minimizedRMSD -1
REMARK  0 active torsions:
REMARK  status: ('A' for Active; 'I' for Inactive)
ROOT
ATOM      1  C   UNL d   1      -3.529   2.758  -1.270  0.00  0.00     0.124 A 
ATOM      2  C1  UNL d   1      -2.738   2.019  -2.139  0.00  0.00     0.062 A 
ATOM      3  C2  UNL d   1      -2.193   2.619  -3.270  0.00  0.00     0.162 A 
ATOM      4  C3  UNL d   1      -2.435   3.967  -3.539  0.00  0.00    -0.034 A 
ATOM      5  C4  UNL d   1      -3.233   4.702  -2.660  0.00  0.00     0.162 A 
ATOM      6  C5  UNL d   1      -3.775   4.098  -1.531  0.00  0.00     0.062 A 
ATOM      7  F   UNL d   1      -4.539   4.813  -0.692  0.00  0.00    -0.097 F 
ATOM      8  F1  UNL d   1      -3.486   6.000  -2.888  0.00  0.00    -0.096 F 
ATOM      9  I   UNL d   1      -1.622   4.868  -5.229  0.00  0.00    -0.060 I 
ATOM     10  F2  UNL d   1      -1.432   1.882  -4.093  0.00  0.00    -0.096 F 
ATOM     11  F3  UNL d   1      -2.499   0.724  -1.890  0.00  0.00    -0.097 F 
ATOM     12  F4  UNL d   1      -4.053   2.177  -0.183  0.00  0.00    -0.092 F 
ENDROOT
TORSDOF 0
ENDMDL
