MODEL 1
REMARK minimizedAffinity 11.7471485
REMARK minimizedRMSD -1
REMARK  0 active torsions:
REMARK  status: ('A' for Active; 'I' for Inactive)
ROOT
ATOM      1  C   UNL d   1      -3.708   4.844  -3.767  0.00  0.00     0.124 A 
ATOM      2  C1  UNL d   1      -3.657   4.775  -2.382  0.00  0.00     0.062 A 
ATOM      3  C2  UNL d   1      -3.311   3.582  -1.753  0.00  0.00     0.162 A 
ATOM      4  C3  UNL d   1      -3.011   2.449  -2.509  0.00  0.00    -0.034 A 
ATOM      5  C4  UNL d   1      -3.065   2.526  -3.902  0.00  0.00     0.162 A 
ATOM      6  C5  UNL d   1      -3.412   3.720  -4.526  0.00  0.00     0.062 A 
ATOM      7  F   UNL d   1      -3.460   3.785  -5.864  0.00  0.00    -0.097 F 
ATOM      8  F1  UNL d   1      -2.783   1.456  -4.659  0.00  0.00    -0.096 F 
ATOM      9  I   UNL d   1      -2.493   0.664  -1.573  0.00  0.00    -0.060 I 
ATOM     10  F2  UNL d   1      -3.270   3.544  -0.413  0.00  0.00    -0.096 F 
ATOM     11  F3  UNL d   1      -3.944   5.859  -1.647  0.00  0.00    -0.097 F 
ATOM     12  F4  UNL d   1      -4.043   5.992  -4.370  0.00  0.00    -0.092 F 
ENDROOT
TORSDOF 0
ENDMDL
