MODEL 1
REMARK minimizedAffinity 5.86290407
REMARK minimizedRMSD -1
REMARK  0 active torsions:
REMARK  status: ('A' for Active; 'I' for Inactive)
ROOT
ATOM      1  C   UNL d   1       1.173  -2.187   1.183  0.00  0.00     0.124 A 
ATOM      2  C1  UNL d   1      -0.149  -1.840   1.423  0.00  0.00     0.062 A 
ATOM      3  C2  UNL d   1      -1.007  -1.573   0.360  0.00  0.00     0.162 A 
ATOM      4  C3  UNL d   1      -0.545  -1.653  -0.953  0.00  0.00    -0.034 A 
ATOM      5  C4  UNL d   1       0.786  -2.002  -1.187  0.00  0.00     0.162 A 
ATOM      6  C5  UNL d   1       1.640  -2.267  -0.121  0.00  0.00     0.062 A 
ATOM      7  F   UNL d   1       2.917  -2.602  -0.356  0.00  0.00    -0.097 F 
ATOM      8  F1  UNL d   1       1.262  -2.088  -2.438  0.00  0.00    -0.096 F 
ATOM      9  I   UNL d   1      -1.825  -1.255  -2.546  0.00  0.00    -0.060 I 
ATOM     10  F2  UNL d   1      -2.280  -1.240   0.622  0.00  0.00    -0.096 F 
ATOM     11  F3  UNL d   1      -0.601  -1.760   2.683  0.00  0.00    -0.097 F 
ATOM     12  F4  UNL d   1       1.997  -2.442   2.208  0.00  0.00    -0.092 F 
ENDROOT
TORSDOF 0
ENDMDL
