MODEL 1
REMARK minimizedAffinity 13.2642603
REMARK minimizedRMSD -1
REMARK  0 active torsions:
REMARK  status: ('A' for Active; 'I' for Inactive)
ROOT
ATOM      1  C   UNL d   1      -2.024  -0.626   1.462  0.00  0.00     0.124 A 
ATOM      2  C1  UNL d   1      -1.586  -1.054   0.216  0.00  0.00     0.062 A 
ATOM      3  C2  UNL d   1      -0.330  -1.638   0.078  0.00  0.00     0.162 A 
ATOM      4  C3  UNL d   1       0.497  -1.799   1.190  0.00  0.00    -0.034 A 
ATOM      5  C4  UNL d   1       0.050  -1.366   2.439  0.00  0.00     0.162 A 
ATOM      6  C5  UNL d   1      -1.206  -0.783   2.572  0.00  0.00     0.062 A 
ATOM      7  F   UNL d   1      -1.627  -0.370   3.777  0.00  0.00    -0.097 F 
ATOM      8  F1  UNL d   1       0.820  -1.505   3.529  0.00  0.00    -0.096 F 
ATOM      9  I   UNL d   1       2.376  -2.672   0.988  0.00  0.00    -0.060 I 
ATOM     10  F2  UNL d   1       0.067  -2.041  -1.137  0.00  0.00    -0.096 F 
ATOM     11  F3  UNL d   1      -2.374  -0.903  -0.858  0.00  0.00    -0.097 F 
ATOM     12  F4  UNL d   1      -3.232  -0.064   1.592  0.00  0.00    -0.092 F 
ENDROOT
TORSDOF 0
ENDMDL
