MODEL 1
REMARK minimizedAffinity 12.7815628
REMARK minimizedRMSD -1
REMARK  0 active torsions:
REMARK  status: ('A' for Active; 'I' for Inactive)
ROOT
ATOM      1  C   UNL d   1      -3.829   2.151  -1.076  0.00  0.00     0.124 A 
ATOM      2  C1  UNL d   1      -2.706   2.365  -1.864  0.00  0.00     0.062 A 
ATOM      3  C2  UNL d   1      -2.666   3.438  -2.749  0.00  0.00     0.162 A 
ATOM      4  C3  UNL d   1      -3.752   4.307  -2.851  0.00  0.00    -0.034 A 
ATOM      5  C4  UNL d   1      -4.878   4.085  -2.057  0.00  0.00     0.162 A 
ATOM      6  C5  UNL d   1      -4.914   3.011  -1.174  0.00  0.00     0.062 A 
ATOM      7  F   UNL d   1      -6.000   2.806  -0.414  0.00  0.00    -0.097 F 
ATOM      8  F1  UNL d   1      -5.940   4.901  -2.130  0.00  0.00    -0.096 F 
ATOM      9  I   UNL d   1      -3.695   5.914  -4.173  0.00  0.00    -0.060 I 
ATOM     10  F2  UNL d   1      -1.567   3.621  -3.497  0.00  0.00    -0.096 F 
ATOM     11  F3  UNL d   1      -1.657   1.535  -1.772  0.00  0.00    -0.097 F 
ATOM     12  F4  UNL d   1      -3.866   1.117  -0.226  0.00  0.00    -0.092 F 
ENDROOT
TORSDOF 0
ENDMDL
