MODEL 1
REMARK minimizedAffinity 13.7067165
REMARK minimizedRMSD -1
REMARK  0 active torsions:
REMARK  status: ('A' for Active; 'I' for Inactive)
ROOT
ATOM      1  C   UNL d   1      -2.487   4.841  -3.294  0.00  0.00     0.124 A 
ATOM      2  C1  UNL d   1      -2.848   4.840  -1.954  0.00  0.00     0.062 A 
ATOM      3  C2  UNL d   1      -3.091   3.638  -1.295  0.00  0.00     0.162 A 
ATOM      4  C3  UNL d   1      -2.972   2.426  -1.976  0.00  0.00    -0.034 A 
ATOM      5  C4  UNL d   1      -2.610   2.435  -3.324  0.00  0.00     0.162 A 
ATOM      6  C5  UNL d   1      -2.368   3.639  -3.977  0.00  0.00     0.062 A 
ATOM      7  F   UNL d   1      -2.019   3.639  -5.272  0.00  0.00    -0.097 F 
ATOM      8  F1  UNL d   1      -2.486   1.289  -4.008  0.00  0.00    -0.096 F 
ATOM      9  I   UNL d   1      -3.334   0.627  -0.995  0.00  0.00    -0.060 I 
ATOM     10  F2  UNL d   1      -3.438   3.667   0.000  0.00  0.00    -0.096 F 
ATOM     11  F3  UNL d   1      -2.965   6.000  -1.291  0.00  0.00    -0.097 F 
ATOM     12  F4  UNL d   1      -2.255   5.999  -3.925  0.00  0.00    -0.092 F 
ENDROOT
TORSDOF 0
ENDMDL
