MODEL 1
REMARK minimizedAffinity 5.90504074
REMARK minimizedRMSD -1
REMARK  0 active torsions:
REMARK  status: ('A' for Active; 'I' for Inactive)
ROOT
ATOM      1  C   UNL d   1      -0.455  -1.757   1.037  0.00  0.00     0.124 A 
ATOM      2  C1  UNL d   1       0.861  -2.077   0.729  0.00  0.00     0.062 A 
ATOM      3  C2  UNL d   1       1.301  -2.035  -0.591  0.00  0.00     0.162 A 
ATOM      4  C3  UNL d   1       0.425  -1.672  -1.614  0.00  0.00    -0.034 A 
ATOM      5  C4  UNL d   1      -0.897  -1.353  -1.296  0.00  0.00     0.162 A 
ATOM      6  C5  UNL d   1      -1.332  -1.396   0.024  0.00  0.00     0.062 A 
ATOM      7  F   UNL d   1      -2.603  -1.087   0.320  0.00  0.00    -0.097 F 
ATOM      8  F1  UNL d   1      -1.766  -1.000  -2.255  0.00  0.00    -0.096 F 
ATOM      9  I   UNL d   1       1.078  -1.609  -3.588  0.00  0.00    -0.060 I 
ATOM     10  F2  UNL d   1       2.577  -2.349  -0.859  0.00  0.00    -0.096 F 
ATOM     11  F3  UNL d   1       1.710  -2.427   1.706  0.00  0.00    -0.097 F 
ATOM     12  F4  UNL d   1      -0.875  -1.799   2.307  0.00  0.00    -0.092 F 
ENDROOT
TORSDOF 0
ENDMDL
