MODEL 1
REMARK minimizedAffinity -0.251717716
REMARK minimizedRMSD -1
REMARK  0 active torsions:
REMARK  status: ('A' for Active; 'I' for Inactive)
ROOT
ATOM      1  C   UNL d   1      -2.237   1.530  -1.618  0.00  0.00     0.124 A 
ATOM      2  C1  UNL d   1      -1.967   1.088  -2.906  0.00  0.00     0.062 A 
ATOM      3  C2  UNL d   1      -2.077   1.962  -3.984  0.00  0.00     0.162 A 
ATOM      4  C3  UNL d   1      -2.458   3.288  -3.778  0.00  0.00    -0.034 A 
ATOM      5  C4  UNL d   1      -2.730   3.725  -2.480  0.00  0.00     0.162 A 
ATOM      6  C5  UNL d   1      -2.618   2.847  -1.407  0.00  0.00     0.062 A 
ATOM      7  F   UNL d   1      -2.880   3.276  -0.163  0.00  0.00    -0.097 F 
ATOM      8  F1  UNL d   1      -3.099   4.993  -2.247  0.00  0.00    -0.096 F 
ATOM      9  I   UNL d   1      -2.624   4.599  -5.386  0.00  0.00    -0.060 I 
ATOM     10  F2  UNL d   1      -1.809   1.508  -5.217  0.00  0.00    -0.096 F 
ATOM     11  F3  UNL d   1      -1.599  -0.184  -3.113  0.00  0.00    -0.097 F 
ATOM     12  F4  UNL d   1      -2.131   0.686  -0.584  0.00  0.00    -0.092 F 
ENDROOT
TORSDOF 0
ENDMDL
