MODEL 1
REMARK minimizedAffinity -1.43017125
REMARK minimizedRMSD -1
REMARK  0 active torsions:
REMARK  status: ('A' for Active; 'I' for Inactive)
ROOT
ATOM      1  C   UNL d   1      -2.796   4.693  -3.092  0.00  0.00     0.124 A 
ATOM      2  C1  UNL d   1      -3.346   4.129  -1.949  0.00  0.00     0.062 A 
ATOM      3  C2  UNL d   1      -3.045   2.815  -1.602  0.00  0.00     0.162 A 
ATOM      4  C3  UNL d   1      -2.188   2.056  -2.400  0.00  0.00    -0.034 A 
ATOM      5  C4  UNL d   1      -1.639   2.630  -3.548  0.00  0.00     0.162 A 
ATOM      6  C5  UNL d   1      -1.944   3.944  -3.890  0.00  0.00     0.062 A 
ATOM      7  F   UNL d   1      -1.411   4.487  -4.994  0.00  0.00    -0.097 F 
ATOM      8  F1  UNL d   1      -0.812   1.928  -4.337  0.00  0.00    -0.096 F 
ATOM      9  I   UNL d   1      -1.735   0.091  -1.885  0.00  0.00    -0.060 I 
ATOM     10  F2  UNL d   1      -3.590   2.296  -0.493  0.00  0.00    -0.096 F 
ATOM     11  F3  UNL d   1      -4.170   4.851  -1.177  0.00  0.00    -0.097 F 
ATOM     12  F4  UNL d   1      -3.088   5.958  -3.423  0.00  0.00    -0.092 F 
ENDROOT
TORSDOF 0
ENDMDL
