MODEL 1
REMARK minimizedAffinity 1.93961966
REMARK minimizedRMSD -1
REMARK  0 active torsions:
REMARK  status: ('A' for Active; 'I' for Inactive)
ROOT
ATOM      1  C   UNL d   1      -3.309   3.033  -2.308  0.00  0.00     0.124 A 
ATOM      2  C1  UNL d   1      -2.377   2.119  -2.779  0.00  0.00     0.062 A 
ATOM      3  C2  UNL d   1      -1.433   2.508  -3.725  0.00  0.00     0.162 A 
ATOM      4  C3  UNL d   1      -1.415   3.817  -4.206  0.00  0.00    -0.034 A 
ATOM      5  C4  UNL d   1      -2.357   4.730  -3.728  0.00  0.00     0.162 A 
ATOM      6  C5  UNL d   1      -3.299   4.337  -2.782  0.00  0.00     0.062 A 
ATOM      7  F   UNL d   1      -4.199   5.221  -2.328  0.00  0.00    -0.097 F 
ATOM      8  F1  UNL d   1      -2.369   5.997  -4.169  0.00  0.00    -0.096 F 
ATOM      9  I   UNL d   1      -0.005   4.402  -5.620  0.00  0.00    -0.060 I 
ATOM     10  F2  UNL d   1      -0.543   1.604  -4.163  0.00  0.00    -0.096 F 
ATOM     11  F3  UNL d   1      -2.385   0.859  -2.323  0.00  0.00    -0.097 F 
ATOM     12  F4  UNL d   1      -4.217   2.656  -1.398  0.00  0.00    -0.092 F 
ENDROOT
TORSDOF 0
ENDMDL
