MODEL 1
REMARK minimizedAffinity 4.4085083
REMARK minimizedRMSD -1
REMARK  0 active torsions:
REMARK  status: ('A' for Active; 'I' for Inactive)
ROOT
ATOM      1  C   UNL d   1       4.962  -1.732  -0.190  0.00  0.00    -0.002 A 
ATOM      2  C1  UNL d   1       3.702  -1.900   0.367  0.00  0.00     0.010 A 
ATOM      3  C2  UNL d   1       2.886  -2.962  -0.029  0.00  0.00     0.041 A 
ATOM      4  C3  UNL d   1       3.364  -3.863  -1.001  0.00  0.00    -0.075 A 
ATOM      5  S   UNL d   1       2.541  -5.238  -1.637  0.00  0.00     0.015 SA
ATOM      6  C4  UNL d   1       3.843  -5.636  -2.662  0.00  0.00     0.022 A 
ATOM      7  C5  UNL d   1       4.888  -4.752  -2.535  0.00  0.00     0.026 A 
ATOM      8  C6  UNL d   1       4.630  -3.716  -1.575  0.00  0.00    -0.082 A 
ATOM      9  C7  UNL d   1       5.432  -2.628  -1.154  0.00  0.00     0.045 A 
ENDROOT
TORSDOF 0
ENDMDL
