MODEL 1
REMARK minimizedAffinity 11.6619663
REMARK minimizedRMSD -1
REMARK  0 active torsions:
REMARK  status: ('A' for Active; 'I' for Inactive)
ROOT
ATOM      1  C   UNL d   1       0.185   1.885   1.820  0.00  0.00    -0.002 A 
ATOM      2  C1  UNL d   1      -0.345   0.824   1.100  0.00  0.00     0.010 A 
ATOM      3  C2  UNL d   1      -0.690   0.979  -0.244  0.00  0.00     0.041 A 
ATOM      4  C3  UNL d   1      -0.490   2.231  -0.859  0.00  0.00    -0.075 A 
ATOM      5  S   UNL d   1      -0.838   2.653  -2.494  0.00  0.00     0.015 SA
ATOM      6  C4  UNL d   1      -0.290   4.252  -2.275  0.00  0.00     0.022 A 
ATOM      7  C5  UNL d   1       0.151   4.476  -0.992  0.00  0.00     0.026 A 
ATOM      8  C6  UNL d   1       0.043   3.314  -0.155  0.00  0.00    -0.082 A 
ATOM      9  C7  UNL d   1       0.382   3.125   1.206  0.00  0.00     0.045 A 
ENDROOT
TORSDOF 0
ENDMDL
