MODEL 1
REMARK minimizedAffinity 1.58075643
REMARK minimizedRMSD -1
REMARK  0 active torsions:
REMARK  status: ('A' for Active; 'I' for Inactive)
ROOT
ATOM      1  C   UNL d   1       1.581  -5.008   0.167  0.00  0.00    -0.002 A 
ATOM      2  C1  UNL d   1       1.351  -5.342  -1.160  0.00  0.00     0.010 A 
ATOM      3  C2  UNL d   1       2.246  -4.946  -2.157  0.00  0.00     0.041 A 
ATOM      4  C3  UNL d   1       3.387  -4.205  -1.793  0.00  0.00    -0.075 A 
ATOM      5  S   UNL d   1       4.621  -3.614  -2.842  0.00  0.00     0.015 SA
ATOM      6  C4  UNL d   1       5.482  -2.906  -1.553  0.00  0.00     0.022 A 
ATOM      7  C5  UNL d   1       4.858  -3.106  -0.344  0.00  0.00     0.026 A 
ATOM      8  C6  UNL d   1       3.641  -3.858  -0.463  0.00  0.00    -0.082 A 
ATOM      9  C7  UNL d   1       2.714  -4.273   0.524  0.00  0.00     0.045 A 
ENDROOT
TORSDOF 0
ENDMDL
