MODEL 1
REMARK minimizedAffinity 2.51170135
REMARK minimizedRMSD -1
REMARK  1 active torsions:
REMARK  status: ('A' for Active; 'I' for Inactive)
REMARK    1  A    between atoms: C1_2  and  C2_3 
ROOT
ATOM      1  C2  UNL d   1       3.669   4.800   5.244  0.00  0.00    -0.073 A 
ATOM      2  C3  UNL d   1       3.780   5.121   3.886  0.00  0.00    -0.002 A 
ATOM      3  C4  UNL d   1       2.704   5.693   3.206  0.00  0.00     0.004 A 
ATOM      4  C5  UNL d   1       1.510   5.957   3.877  0.00  0.00    -0.004 A 
ATOM      5  C6  UNL d   1       1.383   5.654   5.237  0.00  0.00    -0.075 A 
ATOM      6  C7  UNL d   1       0.105   5.929   5.973  0.00  0.00     0.076 C 
ATOM      7  C8  UNL d   1       2.468   5.077   5.912  0.00  0.00     0.001 A 
ENDROOT
BRANCH   1   8
ATOM      8  C1  UNL d   1       4.830   4.188   5.983  0.00  0.00     0.053 C 
ATOM      9  C   UNL d   1       5.438   3.020   5.224  0.00  0.00     0.018 C 
ENDBRANCH   1   8
TORSDOF 1
ENDMDL
