MODEL 1
REMARK minimizedAffinity -5.00675583
REMARK minimizedRMSD -1
REMARK  1 active torsions:
REMARK  status: ('A' for Active; 'I' for Inactive)
REMARK    1  A    between atoms: C1_2  and  C2_3 
ROOT
ATOM      1  C2  UNL d   1       2.690   3.381   4.902  0.00  0.00    -0.073 A 
ATOM      2  C3  UNL d   1       3.721   4.244   4.517  0.00  0.00    -0.002 A 
ATOM      3  C4  UNL d   1       3.433   5.547   4.105  0.00  0.00     0.004 A 
ATOM      4  C5  UNL d   1       2.114   6.000   4.082  0.00  0.00    -0.004 A 
ATOM      5  C6  UNL d   1       1.071   5.155   4.475  0.00  0.00    -0.075 A 
ATOM      6  C7  UNL d   1      -0.354   5.627   4.454  0.00  0.00     0.076 C 
ATOM      7  C8  UNL d   1       1.368   3.848   4.884  0.00  0.00     0.001 A 
ENDROOT
BRANCH   1   8
ATOM      8  C1  UNL d   1       2.996   1.976   5.353  0.00  0.00     0.053 C 
ATOM      9  C   UNL d   1       4.370   1.871   5.997  0.00  0.00     0.018 C 
ENDBRANCH   1   8
TORSDOF 1
ENDMDL
