MODEL 1
REMARK minimizedAffinity -4.49802351
REMARK minimizedRMSD -1
REMARK  1 active torsions:
REMARK  status: ('A' for Active; 'I' for Inactive)
REMARK    1  A    between atoms: C1_2  and  C2_3 
ROOT
ATOM      1  C2  UNL d   1       1.678   5.295   4.750  0.00  0.00    -0.073 A 
ATOM      2  C3  UNL d   1       2.902   5.942   4.543  0.00  0.00    -0.002 A 
ATOM      3  C4  UNL d   1       4.102   5.283   4.813  0.00  0.00     0.004 A 
ATOM      4  C5  UNL d   1       4.092   3.971   5.286  0.00  0.00    -0.004 A 
ATOM      5  C6  UNL d   1       2.879   3.304   5.489  0.00  0.00    -0.075 A 
ATOM      6  C7  UNL d   1       2.851   1.893   5.999  0.00  0.00     0.076 C 
ATOM      7  C8  UNL d   1       1.678   3.973   5.218  0.00  0.00     0.001 A 
ENDROOT
BRANCH   1   8
ATOM      8  C1  UNL d   1       0.380   6.000   4.454  0.00  0.00     0.053 C 
ATOM      9  C   UNL d   1       0.052   5.989   2.969  0.00  0.00     0.018 C 
ENDBRANCH   1   8
TORSDOF 1
ENDMDL
