MODEL 1
REMARK minimizedAffinity 1.49252176
REMARK minimizedRMSD -1
REMARK  1 active torsions:
REMARK  status: ('A' for Active; 'I' for Inactive)
REMARK    1  A    between atoms: C1_2  and  C2_3 
ROOT
ATOM      1  C2  UNL d   1       2.754  -0.695  -0.367  0.00  0.00    -0.073 A 
ATOM      2  C3  UNL d   1       1.856   0.228   0.180  0.00  0.00    -0.002 A 
ATOM      3  C4  UNL d   1       2.141   1.594   0.144  0.00  0.00     0.004 A 
ATOM      4  C5  UNL d   1       3.320   2.050  -0.444  0.00  0.00    -0.004 A 
ATOM      5  C6  UNL d   1       4.224   1.144  -1.007  0.00  0.00    -0.075 A 
ATOM      6  C7  UNL d   1       5.499   1.618  -1.642  0.00  0.00     0.076 C 
ATOM      7  C8  UNL d   1       3.933  -0.227  -0.964  0.00  0.00     0.001 A 
ENDROOT
BRANCH   1   8
ATOM      8  C1  UNL d   1       2.448  -2.171  -0.336  0.00  0.00     0.053 C 
ATOM      9  C   UNL d   1       1.163  -2.502  -1.078  0.00  0.00     0.018 C 
ENDBRANCH   1   8
TORSDOF 1
ENDMDL
