MODEL 1
REMARK minimizedAffinity -4.96332169
REMARK minimizedRMSD -1
REMARK  1 active torsions:
REMARK  status: ('A' for Active; 'I' for Inactive)
REMARK    1  A    between atoms: C1_2  and  C2_3 
ROOT
ATOM      1  C2  UNL d   1       2.121   4.988   4.423  0.00  0.00    -0.073 A 
ATOM      2  C3  UNL d   1       3.453   5.332   4.163  0.00  0.00    -0.002 A 
ATOM      3  C4  UNL d   1       4.486   4.458   4.503  0.00  0.00     0.004 A 
ATOM      4  C5  UNL d   1       4.199   3.230   5.099  0.00  0.00    -0.004 A 
ATOM      5  C6  UNL d   1       2.874   2.863   5.357  0.00  0.00    -0.075 A 
ATOM      6  C7  UNL d   1       2.548   1.547   5.999  0.00  0.00     0.076 C 
ATOM      7  C8  UNL d   1       1.842   3.748   5.014  0.00  0.00     0.001 A 
ENDROOT
BRANCH   1   8
ATOM      8  C1  UNL d   1       1.002   5.926   4.052  0.00  0.00     0.053 C 
ATOM      9  C   UNL d   1      -0.358   5.251   4.130  0.00  0.00     0.018 C 
ENDBRANCH   1   8
TORSDOF 1
ENDMDL
