MODEL 1
REMARK minimizedAffinity 6.34164333
REMARK minimizedRMSD -1
REMARK  1 active torsions:
REMARK  status: ('A' for Active; 'I' for Inactive)
REMARK    1  A    between atoms: C1_2  and  C2_3 
ROOT
ATOM      1  C2  UNL d   1       3.848   0.399  -1.686  0.00  0.00    -0.076 A 
ATOM      2  C3  UNL d   1       2.767  -0.121  -0.954  0.00  0.00     0.004 A 
ATOM      3  C4  UNL d   1       2.618  -1.495  -0.773  0.00  0.00    -0.003 A 
ATOM      4  C5  UNL d   1       3.548  -2.372  -1.321  0.00  0.00     0.000 A 
ATOM      5  C6  UNL d   1       4.637  -1.872  -2.035  0.00  0.00     0.000 A 
ATOM      6  C7  UNL d   1       4.811  -0.489  -2.213  0.00  0.00    -0.073 A 
ATOM      7  C8  UNL d   1       6.000  -0.005  -2.997  0.00  0.00     0.078 C 
ENDROOT
BRANCH   1   8
ATOM      8  C1  UNL d   1       3.943   1.897  -1.871  0.00  0.00     0.053 C 
ATOM      9  C   UNL d   1       3.754   2.658  -0.569  0.00  0.00     0.018 C 
ENDBRANCH   1   8
TORSDOF 1
ENDMDL
