MODEL 1
REMARK minimizedAffinity 12.3450861
REMARK minimizedRMSD -1
REMARK  1 active torsions:
REMARK  status: ('A' for Active; 'I' for Inactive)
REMARK    1  A    between atoms: C1_2  and  C2_3 
ROOT
ATOM      1  C2  UNL d   1      -3.819   1.841   2.204  0.00  0.00    -0.076 A 
ATOM      2  C3  UNL d   1      -3.158   2.574   1.203  0.00  0.00     0.004 A 
ATOM      3  C4  UNL d   1      -3.872   3.356   0.297  0.00  0.00    -0.003 A 
ATOM      4  C5  UNL d   1      -5.259   3.419   0.378  0.00  0.00     0.000 A 
ATOM      5  C6  UNL d   1      -5.930   2.713   1.375  0.00  0.00     0.000 A 
ATOM      6  C7  UNL d   1      -5.224   1.932   2.307  0.00  0.00    -0.073 A 
ATOM      7  C8  UNL d   1      -5.999   1.187   3.358  0.00  0.00     0.078 C 
ENDROOT
BRANCH   1   8
ATOM      8  C1  UNL d   1      -2.995   0.989   3.142  0.00  0.00     0.053 C 
ATOM      9  C   UNL d   1      -1.716   0.481   2.495  0.00  0.00     0.018 C 
ENDBRANCH   1   8
TORSDOF 1
ENDMDL
