MODEL 1
REMARK minimizedAffinity 6.24353743
REMARK minimizedRMSD -1
REMARK  1 active torsions:
REMARK  status: ('A' for Active; 'I' for Inactive)
REMARK    1  A    between atoms: C1_2  and  C2_3 
ROOT
ATOM      1  C2  UNL d   1      -2.395   3.848  -2.910  0.00  0.00    -0.076 A 
ATOM      2  C3  UNL d   1      -2.216   5.100  -2.294  0.00  0.00     0.004 A 
ATOM      3  C4  UNL d   1      -0.954   5.685  -2.212  0.00  0.00    -0.003 A 
ATOM      4  C5  UNL d   1       0.150   5.029  -2.745  0.00  0.00     0.000 A 
ATOM      5  C6  UNL d   1      -0.011   3.795  -3.375  0.00  0.00     0.000 A 
ATOM      6  C7  UNL d   1      -1.280   3.199  -3.480  0.00  0.00    -0.073 A 
ATOM      7  C8  UNL d   1      -1.395   1.864  -4.165  0.00  0.00     0.078 C 
ENDROOT
BRANCH   1   8
ATOM      8  C1  UNL d   1      -3.783   3.250  -2.945  0.00  0.00     0.053 C 
ATOM      9  C   UNL d   1      -4.324   2.950  -1.556  0.00  0.00     0.018 C 
ENDBRANCH   1   8
TORSDOF 1
ENDMDL
