MODEL 1
REMARK minimizedAffinity 10.0267591
REMARK minimizedRMSD -1
REMARK  1 active torsions:
REMARK  status: ('A' for Active; 'I' for Inactive)
REMARK    1  A    between atoms: C1_2  and  C2_3 
ROOT
ATOM      1  C2  UNL d   1      -3.772  -0.261   1.882  0.00  0.00    -0.076 A 
ATOM      2  C3  UNL d   1      -5.043   0.230   1.537  0.00  0.00     0.004 A 
ATOM      3  C4  UNL d   1      -5.277   1.600   1.427  0.00  0.00    -0.003 A 
ATOM      4  C5  UNL d   1      -4.243   2.500   1.658  0.00  0.00     0.000 A 
ATOM      5  C6  UNL d   1      -2.972   2.030   1.983  0.00  0.00     0.000 A 
ATOM      6  C7  UNL d   1      -2.715   0.651   2.083  0.00  0.00    -0.073 A 
ATOM      7  C8  UNL d   1      -1.326   0.200   2.443  0.00  0.00     0.078 C 
ENDROOT
BRANCH   1   8
ATOM      8  C1  UNL d   1      -3.585  -1.756   2.013  0.00  0.00     0.053 C 
ATOM      9  C   UNL d   1      -3.288  -2.426   0.681  0.00  0.00     0.018 C 
ENDBRANCH   1   8
TORSDOF 1
ENDMDL
