MODEL 1
REMARK minimizedAffinity 4.10934687
REMARK minimizedRMSD -1
REMARK  1 active torsions:
REMARK  status: ('A' for Active; 'I' for Inactive)
REMARK    1  A    between atoms: C1_2  and  C2_3 
ROOT
ATOM      1  C2  UNL d   1      -1.423   5.970  -0.644  0.00  0.00    -0.076 A 
ATOM      2  C3  UNL d   1      -0.224   5.936   0.089  0.00  0.00     0.004 A 
ATOM      3  C4  UNL d   1      -0.236   5.944   1.483  0.00  0.00    -0.003 A 
ATOM      4  C5  UNL d   1      -1.446   5.984   2.166  0.00  0.00     0.000 A 
ATOM      5  C6  UNL d   1      -2.645   5.999   1.455  0.00  0.00     0.000 A 
ATOM      6  C7  UNL d   1      -2.652   5.976   0.049  0.00  0.00    -0.073 A 
ATOM      7  C8  UNL d   1      -3.975   6.000  -0.667  0.00  0.00     0.078 C 
ENDROOT
BRANCH   1   8
ATOM      8  C1  UNL d   1      -1.348   5.987  -2.154  0.00  0.00     0.053 C 
ATOM      9  C   UNL d   1      -1.220   4.593  -2.748  0.00  0.00     0.018 C 
ENDBRANCH   1   8
TORSDOF 1
ENDMDL
