MODEL 1
REMARK minimizedAffinity 12.0354576
REMARK minimizedRMSD -1
REMARK  1 active torsions:
REMARK  status: ('A' for Active; 'I' for Inactive)
REMARK    1  A    between atoms: C1_2  and  C2_3 
ROOT
ATOM      1  C2  UNL d   1      -3.820   0.720   1.945  0.00  0.00    -0.076 A 
ATOM      2  C3  UNL d   1      -2.424   0.689   1.783  0.00  0.00     0.004 A 
ATOM      3  C4  UNL d   1      -1.721   1.828   1.393  0.00  0.00    -0.003 A 
ATOM      4  C5  UNL d   1      -2.404   3.017   1.158  0.00  0.00     0.000 A 
ATOM      5  C6  UNL d   1      -3.786   3.070   1.330  0.00  0.00     0.000 A 
ATOM      6  C7  UNL d   1      -4.508   1.935   1.739  0.00  0.00    -0.073 A 
ATOM      7  C8  UNL d   1      -5.999   2.048   1.903  0.00  0.00     0.078 C 
ENDROOT
BRANCH   1   8
ATOM      8  C1  UNL d   1      -4.531  -0.553   2.343  0.00  0.00     0.053 C 
ATOM      9  C   UNL d   1      -4.166  -1.729   1.450  0.00  0.00     0.018 C 
ENDBRANCH   1   8
TORSDOF 1
ENDMDL
