MODEL 1
REMARK minimizedAffinity 7.17042351
REMARK minimizedRMSD -1
REMARK  1 active torsions:
REMARK  status: ('A' for Active; 'I' for Inactive)
REMARK    1  A    between atoms: C1_2  and  C2_3 
ROOT
ATOM      1  C2  UNL d   1      -0.814   4.144  -3.318  0.00  0.00    -0.076 A 
ATOM      2  C3  UNL d   1      -2.170   3.788  -3.421  0.00  0.00     0.004 A 
ATOM      3  C4  UNL d   1      -2.549   2.551  -3.940  0.00  0.00    -0.003 A 
ATOM      4  C5  UNL d   1      -1.578   1.650  -4.364  0.00  0.00     0.000 A 
ATOM      5  C6  UNL d   1      -0.228   1.980  -4.252  0.00  0.00     0.000 A 
ATOM      6  C7  UNL d   1       0.171   3.216  -3.716  0.00  0.00    -0.073 A 
ATOM      7  C8  UNL d   1       1.641   3.522  -3.625  0.00  0.00     0.078 C 
ENDROOT
BRANCH   1   8
ATOM      8  C1  UNL d   1      -0.464   5.510  -2.772  0.00  0.00     0.053 C 
ATOM      9  C   UNL d   1      -0.961   5.714  -1.349  0.00  0.00     0.018 C 
ENDBRANCH   1   8
TORSDOF 1
ENDMDL
