MODEL 1
REMARK minimizedAffinity 8.08679008
REMARK minimizedRMSD -1
REMARK  1 active torsions:
REMARK  status: ('A' for Active; 'I' for Inactive)
REMARK    1  A    between atoms: C1_2  and  C2_3 
ROOT
ATOM      1  C2  UNL d   1      -1.874   3.719  -3.359  0.00  0.00    -0.076 A 
ATOM      2  C3  UNL d   1      -2.868   4.418  -2.653  0.00  0.00     0.004 A 
ATOM      3  C4  UNL d   1      -2.554   5.549  -1.902  0.00  0.00    -0.003 A 
ATOM      4  C5  UNL d   1      -1.239   6.000  -1.845  0.00  0.00     0.000 A 
ATOM      5  C6  UNL d   1      -0.243   5.328  -2.553  0.00  0.00     0.000 A 
ATOM      6  C7  UNL d   1      -0.546   4.196  -3.328  0.00  0.00    -0.073 A 
ATOM      7  C8  UNL d   1       0.569   3.507  -4.066  0.00  0.00     0.078 C 
ENDROOT
BRANCH   1   8
ATOM      8  C1  UNL d   1      -2.270   2.483  -4.135  0.00  0.00     0.053 C 
ATOM      9  C   UNL d   1      -1.080   1.594  -4.462  0.00  0.00     0.018 C 
ENDBRANCH   1   8
TORSDOF 1
ENDMDL
