MODEL 1
REMARK minimizedAffinity 13.6596422
REMARK minimizedRMSD -1
REMARK  1 active torsions:
REMARK  status: ('A' for Active; 'I' for Inactive)
REMARK    1  A    between atoms: C1_2  and  C2_3 
ROOT
ATOM      1  C2  UNL d   1       0.571   3.172  -3.732  0.00  0.00    -0.076 A 
ATOM      2  C3  UNL d   1       0.633   1.996  -4.500  0.00  0.00     0.004 A 
ATOM      3  C4  UNL d   1      -0.430   1.094  -4.518  0.00  0.00    -0.003 A 
ATOM      4  C5  UNL d   1      -1.573   1.354  -3.769  0.00  0.00     0.000 A 
ATOM      5  C6  UNL d   1      -1.658   2.525  -3.016  0.00  0.00     0.000 A 
ATOM      6  C7  UNL d   1      -0.602   3.452  -2.999  0.00  0.00    -0.073 A 
ATOM      7  C8  UNL d   1      -0.746   4.695  -2.164  0.00  0.00     0.078 C 
ENDROOT
BRANCH   1   8
ATOM      8  C1  UNL d   1       1.765   4.099  -3.729  0.00  0.00     0.053 C 
ATOM      9  C   UNL d   1       2.823   3.689  -4.743  0.00  0.00     0.018 C 
ENDBRANCH   1   8
TORSDOF 1
ENDMDL
