MODEL 1
REMARK minimizedAffinity 9.60172176
REMARK minimizedRMSD -1
REMARK  1 active torsions:
REMARK  status: ('A' for Active; 'I' for Inactive)
REMARK    1  A    between atoms: C1_2  and  C2_3 
ROOT
ATOM      1  C2  UNL d   1       4.017  -1.979  -2.459  0.00  0.00    -0.076 A 
ATOM      2  C3  UNL d   1       5.213  -1.569  -3.072  0.00  0.00     0.004 A 
ATOM      3  C4  UNL d   1       5.787  -0.335  -2.771  0.00  0.00    -0.003 A 
ATOM      4  C5  UNL d   1       5.174   0.509  -1.851  0.00  0.00     0.000 A 
ATOM      5  C6  UNL d   1       3.996   0.110  -1.220  0.00  0.00     0.000 A 
ATOM      6  C7  UNL d   1       3.413  -1.138  -1.500  0.00  0.00    -0.073 A 
ATOM      7  C8  UNL d   1       2.139  -1.514  -0.795  0.00  0.00     0.078 C 
ENDROOT
BRANCH   1   8
ATOM      8  C1  UNL d   1       3.427  -3.317  -2.845  0.00  0.00     0.053 C 
ATOM      9  C   UNL d   1       3.062  -3.389  -4.320  0.00  0.00     0.018 C 
ENDBRANCH   1   8
TORSDOF 1
ENDMDL
