MODEL 1
REMARK minimizedAffinity 4.12317848
REMARK minimizedRMSD -1
REMARK  1 active torsions:
REMARK  status: ('A' for Active; 'I' for Inactive)
REMARK    1  A    between atoms: C1_2  and  C2_3 
ROOT
ATOM      1  C2  UNL d   1       3.787   0.717  -1.818  0.00  0.00    -0.076 A 
ATOM      2  C3  UNL d   1       2.660   0.463  -1.017  0.00  0.00     0.004 A 
ATOM      3  C4  UNL d   1       2.415  -0.811  -0.507  0.00  0.00    -0.003 A 
ATOM      4  C5  UNL d   1       3.294  -1.851  -0.789  0.00  0.00     0.000 A 
ATOM      5  C6  UNL d   1       4.426  -1.613  -1.567  0.00  0.00     0.000 A 
ATOM      6  C7  UNL d   1       4.696  -0.331  -2.076  0.00  0.00    -0.073 A 
ATOM      7  C8  UNL d   1       5.929  -0.132  -2.915  0.00  0.00     0.078 C 
ENDROOT
BRANCH   1   8
ATOM      8  C1  UNL d   1       3.985   2.112  -2.367  0.00  0.00     0.053 C 
ATOM      9  C   UNL d   1       4.866   2.970  -1.471  0.00  0.00     0.018 C 
ENDBRANCH   1   8
TORSDOF 1
ENDMDL
