MODEL 1
REMARK minimizedAffinity 6.37042475
REMARK minimizedRMSD -1
REMARK  1 active torsions:
REMARK  status: ('A' for Active; 'I' for Inactive)
REMARK    1  A    between atoms: C1_2  and  C2_3 
ROOT
ATOM      1  C2  UNL d   1       4.095  -1.277  -2.007  0.00  0.00    -0.076 A 
ATOM      2  C3  UNL d   1       3.828  -2.285  -2.951  0.00  0.00     0.004 A 
ATOM      3  C4  UNL d   1       2.781  -3.185  -2.762  0.00  0.00    -0.003 A 
ATOM      4  C5  UNL d   1       1.983  -3.091  -1.627  0.00  0.00     0.000 A 
ATOM      5  C6  UNL d   1       2.222  -2.087  -0.689  0.00  0.00     0.000 A 
ATOM      6  C7  UNL d   1       3.264  -1.162  -0.873  0.00  0.00    -0.073 A 
ATOM      7  C8  UNL d   1       3.481  -0.103   0.173  0.00  0.00     0.078 C 
ENDROOT
BRANCH   1   8
ATOM      8  C1  UNL d   1       5.262  -0.347  -2.252  0.00  0.00     0.053 C 
ATOM      9  C   UNL d   1       6.000  -0.665  -3.543  0.00  0.00     0.018 C 
ENDBRANCH   1   8
TORSDOF 1
ENDMDL
