MODEL 1
REMARK minimizedAffinity 11.0023842
REMARK minimizedRMSD -1
REMARK  1 active torsions:
REMARK  status: ('A' for Active; 'I' for Inactive)
REMARK    1  A    between atoms: C1_2  and  C2_3 
ROOT
ATOM      1  C2  UNL d   1      -0.533   3.405  -2.644  0.00  0.00    -0.076 A 
ATOM      2  C3  UNL d   1       0.814   3.280  -3.026  0.00  0.00     0.004 A 
ATOM      3  C4  UNL d   1       1.266   2.148  -3.702  0.00  0.00    -0.003 A 
ATOM      4  C5  UNL d   1       0.378   1.123  -4.008  0.00  0.00     0.000 A 
ATOM      5  C6  UNL d   1      -0.965   1.238  -3.653  0.00  0.00     0.000 A 
ATOM      6  C7  UNL d   1      -1.441   2.379  -2.986  0.00  0.00    -0.073 A 
ATOM      7  C8  UNL d   1      -2.898   2.448  -2.621  0.00  0.00     0.078 C 
ENDROOT
BRANCH   1   8
ATOM      8  C1  UNL d   1      -0.960   4.643  -1.889  0.00  0.00     0.053 C 
ATOM      9  C   UNL d   1      -0.851   4.473  -0.382  0.00  0.00     0.018 C 
ENDBRANCH   1   8
TORSDOF 1
ENDMDL
