MODEL 1
REMARK minimizedAffinity 2.85176969
REMARK minimizedRMSD -1
REMARK  1 active torsions:
REMARK  status: ('A' for Active; 'I' for Inactive)
REMARK    1  A    between atoms: C1_2  and  C2_3 
ROOT
ATOM      1  C2  UNL d   1       3.306  -1.496   0.094  0.00  0.00    -0.076 A 
ATOM      2  C3  UNL d   1       2.877  -2.791  -0.243  0.00  0.00     0.004 A 
ATOM      3  C4  UNL d   1       1.831  -3.402   0.445  0.00  0.00    -0.003 A 
ATOM      4  C5  UNL d   1       1.195  -2.727   1.481  0.00  0.00     0.000 A 
ATOM      5  C6  UNL d   1       1.596  -1.435   1.818  0.00  0.00     0.000 A 
ATOM      6  C7  UNL d   1       2.638  -0.798   1.123  0.00  0.00    -0.073 A 
ATOM      7  C8  UNL d   1       3.033   0.595   1.532  0.00  0.00     0.078 C 
ENDROOT
BRANCH   1   8
ATOM      8  C1  UNL d   1       4.465  -0.894  -0.670  0.00  0.00     0.053 C 
ATOM      9  C   UNL d   1       4.026  -0.227  -1.964  0.00  0.00     0.018 C 
ENDBRANCH   1   8
TORSDOF 1
ENDMDL
