MODEL 1
REMARK minimizedAffinity -2.24355435
REMARK minimizedRMSD -1
REMARK  0 active torsions:
REMARK  status: ('A' for Active; 'I' for Inactive)
ROOT
ATOM      1  C   UNL d   1      -2.034  -5.630  -5.013  0.00  0.00     0.020 A 
ATOM      2  C1  UNL d   1      -2.986  -5.370  -5.998  0.00  0.00     0.020 A 
ATOM      3  C2  UNL d   1      -3.996  -4.434  -5.764  0.00  0.00     0.034 A 
ATOM      4  C3  UNL d   1      -4.057  -3.756  -4.541  0.00  0.00     0.017 A 
ATOM      5  C4  UNL d   1      -3.101  -4.018  -3.553  0.00  0.00     0.017 A 
ATOM      6  C5  UNL d   1      -2.092  -4.955  -3.793  0.00  0.00     0.034 A 
ATOM      7 Cl   UNL d   1      -3.111  -3.220  -2.019  0.00  0.00    -0.070 Cl
ATOM      8 Cl1  UNL d   1      -5.333  -2.612  -4.320  0.00  0.00    -0.070 Cl
ENDROOT
TORSDOF 0
ENDMDL
