MODEL 1
REMARK minimizedAffinity -1.91477954
REMARK minimizedRMSD -1
REMARK  0 active torsions:
REMARK  status: ('A' for Active; 'I' for Inactive)
ROOT
ATOM      1  C   UNL d   1      -2.227  -4.228  -5.615  0.00  0.00     0.020 A 
ATOM      2  C1  UNL d   1      -3.012  -4.940  -4.708  0.00  0.00     0.020 A 
ATOM      3  C2  UNL d   1      -4.171  -4.364  -4.186  0.00  0.00     0.034 A 
ATOM      4  C3  UNL d   1      -4.550  -3.072  -4.569  0.00  0.00     0.017 A 
ATOM      5  C4  UNL d   1      -3.762  -2.358  -5.479  0.00  0.00     0.017 A 
ATOM      6  C5  UNL d   1      -2.602  -2.940  -6.000  0.00  0.00     0.034 A 
ATOM      7 Cl   UNL d   1      -4.165  -0.760  -6.000  0.00  0.00    -0.070 Cl
ATOM      8 Cl1  UNL d   1      -5.997  -2.422  -3.883  0.00  0.00    -0.070 Cl
ENDROOT
TORSDOF 0
ENDMDL
