MODEL 1
REMARK minimizedAffinity -0.543225944
REMARK minimizedRMSD -1
REMARK  0 active torsions:
REMARK  status: ('A' for Active; 'I' for Inactive)
ROOT
ATOM      1  C   UNL d   1      -5.438  -4.683  -6.000  0.00  0.00     0.020 A 
ATOM      2  C1  UNL d   1      -6.000  -3.954  -4.953  0.00  0.00     0.020 A 
ATOM      3  C2  UNL d   1      -5.250  -3.690  -3.805  0.00  0.00     0.034 A 
ATOM      4  C3  UNL d   1      -3.934  -4.155  -3.701  0.00  0.00     0.017 A 
ATOM      5  C4  UNL d   1      -3.371  -4.887  -4.752  0.00  0.00     0.017 A 
ATOM      6  C5  UNL d   1      -4.126  -5.148  -5.900  0.00  0.00     0.034 A 
ATOM      7 Cl   UNL d   1      -1.754  -5.494  -4.697  0.00  0.00    -0.070 Cl
ATOM      8 Cl1  UNL d   1      -3.066  -3.791  -2.252  0.00  0.00    -0.070 Cl
ENDROOT
TORSDOF 0
ENDMDL
