MODEL 1
REMARK minimizedAffinity 2.34484601
REMARK minimizedRMSD -1
REMARK  0 active torsions:
REMARK  status: ('A' for Active; 'I' for Inactive)
ROOT
ATOM      1  C   UNL d   1      -2.909  -0.952  -0.417  0.00  0.00     0.020 A 
ATOM      2  C1  UNL d   1      -2.979  -2.228   0.141  0.00  0.00     0.020 A 
ATOM      3  C2  UNL d   1      -1.910  -2.723   0.890  0.00  0.00     0.034 A 
ATOM      4  C3  UNL d   1      -0.765  -1.941   1.084  0.00  0.00     0.017 A 
ATOM      5  C4  UNL d   1      -0.696  -0.660   0.524  0.00  0.00     0.017 A 
ATOM      6  C5  UNL d   1      -1.770  -0.170  -0.225  0.00  0.00     0.034 A 
ATOM      7 Cl   UNL d   1       0.683   0.364   0.720  0.00  0.00    -0.070 Cl
ATOM      8 Cl1  UNL d   1       0.520  -2.615   2.022  0.00  0.00    -0.070 Cl
ENDROOT
TORSDOF 0
ENDMDL
