MODEL 1
REMARK minimizedAffinity -0.605252028
REMARK minimizedRMSD -1
REMARK  0 active torsions:
REMARK  status: ('A' for Active; 'I' for Inactive)
ROOT
ATOM      1  C   UNL d   1      -2.053  -5.381  -5.849  0.00  0.00     0.020 A 
ATOM      2  C1  UNL d   1      -1.947  -4.004  -5.662  0.00  0.00     0.020 A 
ATOM      3  C2  UNL d   1      -3.099  -3.220  -5.575  0.00  0.00     0.034 A 
ATOM      4  C3  UNL d   1      -4.363  -3.812  -5.675  0.00  0.00     0.017 A 
ATOM      5  C4  UNL d   1      -4.469  -5.195  -5.864  0.00  0.00     0.017 A 
ATOM      6  C5  UNL d   1      -3.312  -5.976  -5.950  0.00  0.00     0.034 A 
ATOM      7 Cl   UNL d   1      -5.994  -5.998  -5.997  0.00  0.00    -0.070 Cl
ATOM      8 Cl1  UNL d   1      -5.745  -2.782  -5.559  0.00  0.00    -0.070 Cl
ENDROOT
TORSDOF 0
ENDMDL
