MODEL 1
REMARK minimizedAffinity -0.677910328
REMARK minimizedRMSD -1
REMARK  0 active torsions:
REMARK  status: ('A' for Active; 'I' for Inactive)
ROOT
ATOM      1  C   UNL d   1      -6.000  -3.002  -5.458  0.00  0.00     0.020 A 
ATOM      2  C1  UNL d   1      -5.701  -2.528  -4.182  0.00  0.00     0.020 A 
ATOM      3  C2  UNL d   1      -4.666  -3.110  -3.445  0.00  0.00     0.034 A 
ATOM      4  C3  UNL d   1      -3.927  -4.168  -3.985  0.00  0.00     0.017 A 
ATOM      5  C4  UNL d   1      -4.228  -4.644  -5.267  0.00  0.00     0.017 A 
ATOM      6  C5  UNL d   1      -5.265  -4.058  -6.000  0.00  0.00     0.034 A 
ATOM      7 Cl   UNL d   1      -3.361  -5.946  -6.000  0.00  0.00    -0.070 Cl
ATOM      8 Cl1  UNL d   1      -2.662  -4.840  -3.019  0.00  0.00    -0.070 Cl
ENDROOT
TORSDOF 0
ENDMDL
