MODEL 1
REMARK minimizedAffinity 1.06715083
REMARK minimizedRMSD -1
REMARK  0 active torsions:
REMARK  status: ('A' for Active; 'I' for Inactive)
ROOT
ATOM      1  C   UNL d   1      -6.000  -3.735  -4.882  0.00  0.00     0.020 A 
ATOM      2  C1  UNL d   1      -5.327  -4.231  -5.998  0.00  0.00     0.020 A 
ATOM      3  C2  UNL d   1      -3.940  -4.388  -5.965  0.00  0.00     0.034 A 
ATOM      4  C3  UNL d   1      -3.221  -4.048  -4.813  0.00  0.00     0.017 A 
ATOM      5  C4  UNL d   1      -3.896  -3.549  -3.694  0.00  0.00     0.017 A 
ATOM      6  C5  UNL d   1      -5.285  -3.395  -3.732  0.00  0.00     0.034 A 
ATOM      7 Cl   UNL d   1      -3.077  -3.108  -2.237  0.00  0.00    -0.070 Cl
ATOM      8 Cl1  UNL d   1      -1.507  -4.267  -4.843  0.00  0.00    -0.070 Cl
ENDROOT
TORSDOF 0
ENDMDL
