MODEL 1
REMARK minimizedAffinity -1.82521868
REMARK minimizedRMSD -1
REMARK  0 active torsions:
REMARK  status: ('A' for Active; 'I' for Inactive)
ROOT
ATOM      1  C   UNL d   1      -2.346  -4.808  -4.020  0.00  0.00     0.020 A 
ATOM      2  C1  UNL d   1      -2.524  -4.887  -5.401  0.00  0.00     0.020 A 
ATOM      3  C2  UNL d   1      -3.657  -4.324  -5.992  0.00  0.00     0.034 A 
ATOM      4  C3  UNL d   1      -4.617  -3.681  -5.202  0.00  0.00     0.017 A 
ATOM      5  C4  UNL d   1      -4.438  -3.603  -3.816  0.00  0.00     0.017 A 
ATOM      6  C5  UNL d   1      -3.301  -4.168  -3.230  0.00  0.00     0.034 A 
ATOM      7 Cl   UNL d   1      -5.578  -2.825  -2.776  0.00  0.00    -0.070 Cl
ATOM      8 Cl1  UNL d   1      -5.994  -3.007  -6.000  0.00  0.00    -0.070 Cl
ENDROOT
TORSDOF 0
ENDMDL
