MODEL 1
REMARK minimizedAffinity -1.44760895
REMARK minimizedRMSD -1
REMARK  0 active torsions:
REMARK  status: ('A' for Active; 'I' for Inactive)
ROOT
ATOM      1  C   UNL d   1      -1.884  -4.398  -4.830  0.00  0.00     0.020 A 
ATOM      2  C1  UNL d   1      -2.004  -5.518  -5.651  0.00  0.00     0.020 A 
ATOM      3  C2  UNL d   1      -3.270  -5.996  -5.999  0.00  0.00     0.034 A 
ATOM      4  C3  UNL d   1      -4.419  -5.352  -5.527  0.00  0.00     0.017 A 
ATOM      5  C4  UNL d   1      -4.297  -4.227  -4.703  0.00  0.00     0.017 A 
ATOM      6  C5  UNL d   1      -3.028  -3.754  -4.357  0.00  0.00     0.034 A 
ATOM      7 Cl   UNL d   1      -5.670  -3.380  -4.081  0.00  0.00    -0.070 Cl
ATOM      8 Cl1  UNL d   1      -5.952  -5.997  -5.998  0.00  0.00    -0.070 Cl
ENDROOT
TORSDOF 0
ENDMDL
