MODEL 1
REMARK minimizedAffinity -1.22826195
REMARK minimizedRMSD -1
REMARK  0 active torsions:
REMARK  status: ('A' for Active; 'I' for Inactive)
ROOT
ATOM      1  C   UNL d   1      -5.086  -4.655  -6.000  0.00  0.00     0.020 A 
ATOM      2  C1  UNL d   1      -5.635  -4.021  -4.886  0.00  0.00     0.020 A 
ATOM      3  C2  UNL d   1      -4.853  -3.804  -3.750  0.00  0.00     0.034 A 
ATOM      4  C3  UNL d   1      -3.517  -4.220  -3.725  0.00  0.00     0.017 A 
ATOM      5  C4  UNL d   1      -2.966  -4.856  -4.843  0.00  0.00     0.017 A 
ATOM      6  C5  UNL d   1      -3.754  -5.071  -5.978  0.00  0.00     0.034 A 
ATOM      7 Cl   UNL d   1      -1.326  -5.399  -4.887  0.00  0.00    -0.070 Cl
ATOM      8 Cl1  UNL d   1      -2.609  -3.919  -2.286  0.00  0.00    -0.070 Cl
ENDROOT
TORSDOF 0
ENDMDL
