MODEL 1
REMARK minimizedAffinity -2.08300948
REMARK minimizedRMSD -1
REMARK  0 active torsions:
REMARK  status: ('A' for Active; 'I' for Inactive)
ROOT
ATOM      1  C   UNL d   1      -5.457  -4.840  -6.000  0.00  0.00     0.020 A 
ATOM      2  C1  UNL d   1      -5.999  -4.101  -4.949  0.00  0.00     0.020 A 
ATOM      3  C2  UNL d   1      -5.217  -3.795  -3.834  0.00  0.00     0.034 A 
ATOM      4  C3  UNL d   1      -3.888  -4.229  -3.766  0.00  0.00     0.017 A 
ATOM      5  C4  UNL d   1      -3.344  -4.971  -4.821  0.00  0.00     0.017 A 
ATOM      6  C5  UNL d   1      -4.132  -5.274  -5.936  0.00  0.00     0.034 A 
ATOM      7 Cl   UNL d   1      -1.712  -5.541  -4.809  0.00  0.00    -0.070 Cl
ATOM      8 Cl1  UNL d   1      -2.978  -3.815  -2.356  0.00  0.00    -0.070 Cl
ENDROOT
TORSDOF 0
ENDMDL
