MODEL 1
REMARK minimizedAffinity 4.50875568
REMARK minimizedRMSD -1
REMARK  0 active torsions:
REMARK  status: ('A' for Active; 'I' for Inactive)
ROOT
ATOM      1  C   UNL d   1      -1.316  -6.000  -4.802  0.00  0.00     0.020 A 
ATOM      2  C1  UNL d   1      -1.931  -5.638  -6.000  0.00  0.00     0.020 A 
ATOM      3  C2  UNL d   1      -2.959  -4.693  -6.000  0.00  0.00     0.034 A 
ATOM      4  C3  UNL d   1      -3.375  -4.106  -4.799  0.00  0.00     0.017 A 
ATOM      5  C4  UNL d   1      -2.757  -4.469  -3.597  0.00  0.00     0.017 A 
ATOM      6  C5  UNL d   1      -1.729  -5.416  -3.603  0.00  0.00     0.034 A 
ATOM      7 Cl   UNL d   1      -3.216  -3.788  -2.076  0.00  0.00    -0.070 Cl
ATOM      8 Cl1  UNL d   1      -4.652  -2.944  -4.873  0.00  0.00    -0.070 Cl
ENDROOT
TORSDOF 0
ENDMDL
