MODEL 1
REMARK minimizedAffinity 2.68457317
REMARK minimizedRMSD -1
REMARK  0 active torsions:
REMARK  status: ('A' for Active; 'I' for Inactive)
ROOT
ATOM      1  C   UNL d   1      -1.825  -5.999  -5.538  0.00  0.00     0.020 A 
ATOM      2  C1  UNL d   1      -1.465  -5.210  -4.446  0.00  0.00     0.020 A 
ATOM      3  C2  UNL d   1      -2.423  -4.412  -3.816  0.00  0.00     0.034 A 
ATOM      4  C3  UNL d   1      -3.744  -4.401  -4.277  0.00  0.00     0.017 A 
ATOM      5  C4  UNL d   1      -4.104  -5.194  -5.373  0.00  0.00     0.017 A 
ATOM      6  C5  UNL d   1      -3.142  -5.991  -6.000  0.00  0.00     0.034 A 
ATOM      7 Cl   UNL d   1      -5.715  -5.233  -5.999  0.00  0.00    -0.070 Cl
ATOM      8 Cl1  UNL d   1      -4.875  -3.391  -3.450  0.00  0.00    -0.070 Cl
ENDROOT
TORSDOF 0
ENDMDL
