MODEL 1
REMARK minimizedAffinity 9.76900959
REMARK minimizedRMSD -1
REMARK  0 active torsions:
REMARK  status: ('A' for Active; 'I' for Inactive)
ROOT
ATOM      1  C   UNL d   1      -5.999  -4.083  -5.999  0.00  0.00     0.020 A 
ATOM      2  C1  UNL d   1      -5.161  -5.021  -5.397  0.00  0.00     0.020 A 
ATOM      3  C2  UNL d   1      -4.323  -4.637  -4.349  0.00  0.00     0.034 A 
ATOM      4  C3  UNL d   1      -4.321  -3.312  -3.898  0.00  0.00     0.017 A 
ATOM      5  C4  UNL d   1      -5.162  -2.371  -4.503  0.00  0.00     0.017 A 
ATOM      6  C5  UNL d   1      -6.000  -2.761  -5.553  0.00  0.00     0.034 A 
ATOM      7 Cl   UNL d   1      -5.215  -0.718  -4.002  0.00  0.00    -0.070 Cl
ATOM      8 Cl1  UNL d   1      -3.259  -2.908  -2.597  0.00  0.00    -0.070 Cl
ENDROOT
TORSDOF 0
ENDMDL
