MODEL 1
REMARK minimizedAffinity -0.35205394
REMARK minimizedRMSD -1
REMARK  0 active torsions:
REMARK  status: ('A' for Active; 'I' for Inactive)
ROOT
ATOM      1  C   UNL d   1      -2.139  -5.999  -5.596  0.00  0.00     0.020 A 
ATOM      2  C1  UNL d   1      -1.674  -5.099  -4.638  0.00  0.00     0.020 A 
ATOM      3  C2  UNL d   1      -2.545  -4.160  -4.082  0.00  0.00     0.034 A 
ATOM      4  C3  UNL d   1      -3.885  -4.118  -4.483  0.00  0.00     0.017 A 
ATOM      5  C4  UNL d   1      -4.351  -5.022  -5.445  0.00  0.00     0.017 A 
ATOM      6  C5  UNL d   1      -3.475  -5.961  -5.999  0.00  0.00     0.034 A 
ATOM      7 Cl   UNL d   1      -5.991  -5.032  -5.990  0.00  0.00    -0.070 Cl
ATOM      8 Cl1  UNL d   1      -4.906  -2.931  -3.753  0.00  0.00    -0.070 Cl
ENDROOT
TORSDOF 0
ENDMDL
