MODEL 1
REMARK minimizedAffinity 0.321677357
REMARK minimizedRMSD -1
REMARK  0 active torsions:
REMARK  status: ('A' for Active; 'I' for Inactive)
ROOT
ATOM      1  C   UNL d   1      -3.548  -5.285  -5.366  0.00  0.00     0.020 A 
ATOM      2  C1  UNL d   1      -2.403  -5.770  -5.999  0.00  0.00     0.020 A 
ATOM      3  C2  UNL d   1      -1.236  -5.983  -5.263  0.00  0.00     0.034 A 
ATOM      4  C3  UNL d   1      -1.210  -5.711  -3.890  0.00  0.00     0.017 A 
ATOM      5  C4  UNL d   1      -2.359  -5.225  -3.256  0.00  0.00     0.017 A 
ATOM      6  C5  UNL d   1      -3.525  -5.013  -3.998  0.00  0.00     0.034 A 
ATOM      7 Cl   UNL d   1      -2.404  -4.867  -1.566  0.00  0.00    -0.070 Cl
ATOM      8 Cl1  UNL d   1       0.268  -5.999  -3.042  0.00  0.00    -0.070 Cl
ENDROOT
TORSDOF 0
ENDMDL
