MODEL 1
REMARK minimizedAffinity 0.307635874
REMARK minimizedRMSD -1
REMARK  0 active torsions:
REMARK  status: ('A' for Active; 'I' for Inactive)
ROOT
ATOM      1  C   UNL d   1      -6.000  -2.894  -4.699  0.00  0.00     0.020 A 
ATOM      2  C1  UNL d   1      -5.984  -3.710  -5.829  0.00  0.00     0.020 A 
ATOM      3  C2  UNL d   1      -4.963  -4.647  -6.000  0.00  0.00     0.034 A 
ATOM      4  C3  UNL d   1      -3.952  -4.769  -5.039  0.00  0.00     0.017 A 
ATOM      5  C4  UNL d   1      -3.969  -3.949  -3.905  0.00  0.00     0.017 A 
ATOM      6  C5  UNL d   1      -4.994  -3.013  -3.739  0.00  0.00     0.034 A 
ATOM      7 Cl   UNL d   1      -2.757  -4.042  -2.676  0.00  0.00    -0.070 Cl
ATOM      8 Cl1  UNL d   1      -2.720  -5.949  -5.314  0.00  0.00    -0.070 Cl
ENDROOT
TORSDOF 0
ENDMDL
