MODEL 1
REMARK minimizedAffinity 0.320796341
REMARK minimizedRMSD -1
REMARK  0 active torsions:
REMARK  status: ('A' for Active; 'I' for Inactive)
ROOT
ATOM      1  C   UNL d   1      -2.252  -6.000  -5.099  0.00  0.00     0.020 A 
ATOM      2  C1  UNL d   1      -3.306  -5.855  -6.000  0.00  0.00     0.020 A 
ATOM      3  C2  UNL d   1      -4.406  -5.063  -5.665  0.00  0.00     0.034 A 
ATOM      4  C3  UNL d   1      -4.455  -4.413  -4.427  0.00  0.00     0.017 A 
ATOM      5  C4  UNL d   1      -3.396  -4.558  -3.524  0.00  0.00     0.017 A 
ATOM      6  C5  UNL d   1      -2.296  -5.353  -3.864  0.00  0.00     0.034 A 
ATOM      7 Cl   UNL d   1      -3.384  -3.787  -1.977  0.00  0.00    -0.070 Cl
ATOM      8 Cl1  UNL d   1      -5.846  -3.448  -4.079  0.00  0.00    -0.070 Cl
ENDROOT
TORSDOF 0
ENDMDL
