MODEL 1
REMARK minimizedAffinity -1.46628511
REMARK minimizedRMSD -1
REMARK  0 active torsions:
REMARK  status: ('A' for Active; 'I' for Inactive)
ROOT
ATOM      1  C   UNL d   1      -5.228  -4.644  -5.213  0.00  0.00     0.020 A 
ATOM      2  C1  UNL d   1      -4.557  -5.579  -6.000  0.00  0.00     0.020 A 
ATOM      3  C2  UNL d   1      -3.266  -5.984  -5.654  0.00  0.00     0.034 A 
ATOM      4  C3  UNL d   1      -2.642  -5.454  -4.519  0.00  0.00     0.017 A 
ATOM      5  C4  UNL d   1      -3.317  -4.516  -3.729  0.00  0.00     0.017 A 
ATOM      6  C5  UNL d   1      -4.610  -4.114  -4.080  0.00  0.00     0.034 A 
ATOM      7 Cl   UNL d   1      -2.613  -3.817  -2.314  0.00  0.00    -0.070 Cl
ATOM      8 Cl1  UNL d   1      -1.045  -6.000  -4.150  0.00  0.00    -0.070 Cl
ENDROOT
TORSDOF 0
ENDMDL
