MODEL 1
REMARK minimizedAffinity -0.845587969
REMARK minimizedRMSD -1
REMARK  0 active torsions:
REMARK  status: ('A' for Active; 'I' for Inactive)
ROOT
ATOM      1  C   UNL d   1      -1.997  -5.464  -5.493  0.00  0.00     0.020 A 
ATOM      2  C1  UNL d   1      -1.905  -4.243  -4.826  0.00  0.00     0.020 A 
ATOM      3  C2  UNL d   1      -3.064  -3.531  -4.508  0.00  0.00     0.034 A 
ATOM      4  C3  UNL d   1      -4.320  -4.041  -4.857  0.00  0.00     0.017 A 
ATOM      5  C4  UNL d   1      -4.411  -5.266  -5.526  0.00  0.00     0.017 A 
ATOM      6  C5  UNL d   1      -3.248  -5.974  -5.842  0.00  0.00     0.034 A 
ATOM      7 Cl   UNL d   1      -5.926  -5.959  -5.989  0.00  0.00    -0.070 Cl
ATOM      8 Cl1  UNL d   1      -5.711  -3.108  -4.432  0.00  0.00    -0.070 Cl
ENDROOT
TORSDOF 0
ENDMDL
