MODEL 1
REMARK minimizedAffinity 3.36241555
REMARK minimizedRMSD -1
REMARK  0 active torsions:
REMARK  status: ('A' for Active; 'I' for Inactive)
ROOT
ATOM      1  C   UNL d   1      -5.994  -5.466   5.415  0.00  0.00     0.023 A 
ATOM      2  C1  UNL d   1      -5.242  -5.701   4.264  0.00  0.00     0.003 A 
ATOM      3  C2  UNL d   1      -4.493  -4.668   3.695  0.00  0.00     0.048 A 
ATOM      4  C3  UNL d   1      -4.500  -3.404   4.283  0.00  0.00     0.023 A 
ATOM      5  C4  UNL d   1      -5.251  -3.165   5.435  0.00  0.00     0.048 A 
ATOM      6  C5  UNL d   1      -5.999  -4.200   6.000  0.00  0.00     0.003 A 
ATOM      7  I   UNL d   1      -3.386  -1.866   3.439  0.00  0.00    -0.146 I 
ENDROOT
TORSDOF 0
ENDMDL
