MODEL 1
REMARK minimizedAffinity 9.79122257
REMARK minimizedRMSD -1
REMARK  0 active torsions:
REMARK  status: ('A' for Active; 'I' for Inactive)
ROOT
ATOM      1  C   UNL d   1       2.429  -0.041   1.365  0.00  0.00     0.023 A 
ATOM      2  C1  UNL d   1       3.426  -0.010   2.340  0.00  0.00     0.003 A 
ATOM      3  C2  UNL d   1       4.300   1.076   2.413  0.00  0.00     0.048 A 
ATOM      4  C3  UNL d   1       4.172   2.129   1.509  0.00  0.00     0.023 A 
ATOM      5  C4  UNL d   1       3.175   2.104   0.532  0.00  0.00     0.048 A 
ATOM      6  C5  UNL d   1       2.304   1.015   0.462  0.00  0.00     0.003 A 
ATOM      7  I   UNL d   1       5.472   3.747   1.616  0.00  0.00    -0.146 I 
ENDROOT
TORSDOF 0
ENDMDL
