MODEL 1
REMARK minimizedAffinity 10.3138847
REMARK minimizedRMSD -1
REMARK  0 active torsions:
REMARK  status: ('A' for Active; 'I' for Inactive)
ROOT
ATOM      1  C   UNL d   1       2.423   2.820  -3.266  0.00  0.00     0.023 A 
ATOM      2  C1  UNL d   1       2.598   3.930  -2.440  0.00  0.00     0.003 A 
ATOM      3  C2  UNL d   1       3.622   4.842  -2.702  0.00  0.00     0.048 A 
ATOM      4  C3  UNL d   1       4.467   4.640  -3.792  0.00  0.00     0.023 A 
ATOM      5  C4  UNL d   1       4.295   3.531  -4.623  0.00  0.00     0.048 A 
ATOM      6  C5  UNL d   1       3.270   2.621  -4.357  0.00  0.00     0.003 A 
ATOM      7  I   UNL d   1       5.991   5.997  -4.184  0.00  0.00    -0.146 I 
ENDROOT
TORSDOF 0
ENDMDL
