MODEL 1
REMARK minimizedAffinity 14.4259815
REMARK minimizedRMSD -1
REMARK  0 active torsions:
REMARK  status: ('A' for Active; 'I' for Inactive)
ROOT
ATOM      1  C   UNL d   1      -1.703   0.945   3.423  0.00  0.00     0.023 A 
ATOM      2  C1  UNL d   1      -1.345   0.283   2.249  0.00  0.00     0.003 A 
ATOM      3  C2  UNL d   1      -0.325  -0.671   2.267  0.00  0.00     0.048 A 
ATOM      4  C3  UNL d   1       0.332  -0.958   3.463  0.00  0.00     0.023 A 
ATOM      5  C4  UNL d   1      -0.024  -0.298   4.641  0.00  0.00     0.048 A 
ATOM      6  C5  UNL d   1      -1.043   0.655   4.617  0.00  0.00     0.003 A 
ATOM      7  I   UNL d   1       1.850  -2.377   3.493  0.00  0.00    -0.146 I 
ENDROOT
TORSDOF 0
ENDMDL
