MODEL 1
REMARK minimizedAffinity 13.8808413
REMARK minimizedRMSD -1
REMARK  0 active torsions:
REMARK  status: ('A' for Active; 'I' for Inactive)
ROOT
ATOM      1  C   UNL d   1      -0.364  -0.703   2.739  0.00  0.00     0.023 A 
ATOM      2  C1  UNL d   1      -0.782  -1.597   1.753  0.00  0.00     0.003 A 
ATOM      3  C2  UNL d   1      -2.006  -1.406   1.109  0.00  0.00     0.048 A 
ATOM      4  C3  UNL d   1      -2.807  -0.318   1.455  0.00  0.00     0.023 A 
ATOM      5  C4  UNL d   1      -2.392   0.580   2.440  0.00  0.00     0.048 A 
ATOM      6  C5  UNL d   1      -1.168   0.384   3.082  0.00  0.00     0.003 A 
ATOM      7  I   UNL d   1      -4.629  -0.031   0.498  0.00  0.00    -0.146 I 
ENDROOT
TORSDOF 0
ENDMDL
