MODEL 1
REMARK minimizedAffinity 8.64343357
REMARK minimizedRMSD -1
REMARK  0 active torsions:
REMARK  status: ('A' for Active; 'I' for Inactive)
ROOT
ATOM      1  C   UNL d   1      -1.737  -0.024   3.334  0.00  0.00     0.023 A 
ATOM      2  C1  UNL d   1      -1.546   0.711   4.504  0.00  0.00     0.003 A 
ATOM      3  C2  UNL d   1      -2.628   1.354   5.111  0.00  0.00     0.048 A 
ATOM      4  C3  UNL d   1      -3.897   1.256   4.542  0.00  0.00     0.023 A 
ATOM      5  C4  UNL d   1      -4.093   0.521   3.372  0.00  0.00     0.048 A 
ATOM      6  C5  UNL d   1      -3.009  -0.119   2.769  0.00  0.00     0.003 A 
ATOM      7  I   UNL d   1      -5.508   2.212   5.443  0.00  0.00    -0.146 I 
ENDROOT
TORSDOF 0
ENDMDL
