MODEL 1
REMARK minimizedAffinity 13.3695097
REMARK minimizedRMSD -1
REMARK  0 active torsions:
REMARK  status: ('A' for Active; 'I' for Inactive)
ROOT
ATOM      1  C   UNL d   1       0.382   3.622  -2.338  0.00  0.00     0.023 A 
ATOM      2  C1  UNL d   1       1.584   2.969  -2.613  0.00  0.00     0.003 A 
ATOM      3  C2  UNL d   1       2.796   3.650  -2.484  0.00  0.00     0.048 A 
ATOM      4  C3  UNL d   1       2.800   4.984  -2.079  0.00  0.00     0.023 A 
ATOM      5  C4  UNL d   1       1.600   5.642  -1.802  0.00  0.00     0.048 A 
ATOM      6  C5  UNL d   1       0.391   4.957  -1.934  0.00  0.00     0.003 A 
ATOM      7  I   UNL d   1       4.603   6.000  -1.886  0.00  0.00    -0.146 I 
ENDROOT
TORSDOF 0
ENDMDL
