MODEL 1
REMARK minimizedAffinity 7.54830933
REMARK minimizedRMSD -1
REMARK  0 active torsions:
REMARK  status: ('A' for Active; 'I' for Inactive)
ROOT
ATOM      1  C   UNL d   1      -5.609   1.032   0.737  0.00  0.00     0.023 A 
ATOM      2  C1  UNL d   1      -5.752   1.763  -0.442  0.00  0.00     0.003 A 
ATOM      3  C2  UNL d   1      -5.864   1.100  -1.666  0.00  0.00     0.048 A 
ATOM      4  C3  UNL d   1      -5.833  -0.294  -1.703  0.00  0.00     0.023 A 
ATOM      5  C4  UNL d   1      -5.692  -1.029  -0.525  0.00  0.00     0.048 A 
ATOM      6  C5  UNL d   1      -5.580  -0.362   0.696  0.00  0.00     0.003 A 
ATOM      7  I   UNL d   1      -6.000  -1.282  -3.524  0.00  0.00    -0.146 I 
ENDROOT
TORSDOF 0
ENDMDL
