MODEL 1
REMARK minimizedAffinity 18.8573265
REMARK minimizedRMSD -1
REMARK  0 active torsions:
REMARK  status: ('A' for Active; 'I' for Inactive)
ROOT
ATOM      1  C   UNL d   1       3.383   2.446  -3.610  0.00  0.00     0.023 A 
ATOM      2  C1  UNL d   1       2.216   2.376  -2.849  0.00  0.00     0.003 A 
ATOM      3  C2  UNL d   1       1.055   3.013  -3.289  0.00  0.00     0.048 A 
ATOM      4  C3  UNL d   1       1.067   3.718  -4.492  0.00  0.00     0.023 A 
ATOM      5  C4  UNL d   1       2.232   3.791  -5.257  0.00  0.00     0.048 A 
ATOM      6  C5  UNL d   1       3.391   3.153  -4.812  0.00  0.00     0.003 A 
ATOM      7  I   UNL d   1      -0.661   4.668  -5.149  0.00  0.00    -0.146 I 
ENDROOT
TORSDOF 0
ENDMDL
