MODEL 1
REMARK minimizedAffinity 10.3652334
REMARK minimizedRMSD -1
REMARK  0 active torsions:
REMARK  status: ('A' for Active; 'I' for Inactive)
ROOT
ATOM      1  C   UNL d   1       1.977   3.223  -1.907  0.00  0.00     0.023 A 
ATOM      2  C1  UNL d   1       1.772   4.602  -1.950  0.00  0.00     0.003 A 
ATOM      3  C2  UNL d   1       0.718   5.129  -2.700  0.00  0.00     0.048 A 
ATOM      4  C3  UNL d   1      -0.126   4.271  -3.404  0.00  0.00     0.023 A 
ATOM      5  C4  UNL d   1       0.075   2.890  -3.363  0.00  0.00     0.048 A 
ATOM      6  C5  UNL d   1       1.130   2.368  -2.612  0.00  0.00     0.003 A 
ATOM      7  I   UNL d   1      -1.695   5.053  -4.521  0.00  0.00    -0.146 I 
ENDROOT
TORSDOF 0
ENDMDL
