MODEL 1
REMARK minimizedAffinity 13.0917969
REMARK minimizedRMSD -1
REMARK  0 active torsions:
REMARK  status: ('A' for Active; 'I' for Inactive)
ROOT
ATOM      1  C   UNL d   1      -2.117   5.307  -3.679  0.00  0.00     0.023 A 
ATOM      2  C1  UNL d   1      -1.442   4.531  -4.621  0.00  0.00     0.003 A 
ATOM      3  C2  UNL d   1      -0.392   3.701  -4.222  0.00  0.00     0.048 A 
ATOM      4  C3  UNL d   1      -0.024   3.651  -2.878  0.00  0.00     0.023 A 
ATOM      5  C4  UNL d   1      -0.697   4.425  -1.931  0.00  0.00     0.048 A 
ATOM      6  C5  UNL d   1      -1.745   5.254  -2.336  0.00  0.00     0.003 A 
ATOM      7  I   UNL d   1       1.538   2.416  -2.281  0.00  0.00    -0.146 I 
ENDROOT
TORSDOF 0
ENDMDL
