MODEL 1
REMARK minimizedAffinity 12.1060543
REMARK minimizedRMSD -1
REMARK  0 active torsions:
REMARK  status: ('A' for Active; 'I' for Inactive)
ROOT
ATOM      1  C   UNL d   1       4.359   3.352  -4.575  0.00  0.00     0.023 A 
ATOM      2  C1  UNL d   1       3.633   3.315  -3.385  0.00  0.00     0.003 A 
ATOM      3  C2  UNL d   1       4.088   4.015  -2.265  0.00  0.00     0.048 A 
ATOM      4  C3  UNL d   1       5.270   4.751  -2.344  0.00  0.00     0.023 A 
ATOM      5  C4  UNL d   1       5.999   4.792  -3.533  0.00  0.00     0.048 A 
ATOM      6  C5  UNL d   1       5.541   4.090  -4.649  0.00  0.00     0.003 A 
ATOM      7  I   UNL d   1       5.949   5.794  -0.679  0.00  0.00    -0.146 I 
ENDROOT
TORSDOF 0
ENDMDL
