MODEL 1
REMARK minimizedAffinity 8.21637535
REMARK minimizedRMSD -1
REMARK  0 active torsions:
REMARK  status: ('A' for Active; 'I' for Inactive)
ROOT
ATOM      1  C   UNL d   1       4.206   3.363  -4.963  0.00  0.00     0.023 A 
ATOM      2  C1  UNL d   1       3.444   3.373  -3.795  0.00  0.00     0.003 A 
ATOM      3  C2  UNL d   1       3.957   3.945  -2.629  0.00  0.00     0.048 A 
ATOM      4  C3  UNL d   1       5.234   4.507  -2.639  0.00  0.00     0.023 A 
ATOM      5  C4  UNL d   1       6.000   4.500  -3.805  0.00  0.00     0.048 A 
ATOM      6  C5  UNL d   1       5.483   3.926  -4.968  0.00  0.00     0.003 A 
ATOM      7  I   UNL d   1       6.000   5.360  -0.905  0.00  0.00    -0.146 I 
ENDROOT
TORSDOF 0
ENDMDL
