MODEL 1
REMARK minimizedAffinity 10.420681
REMARK minimizedRMSD -1
REMARK  0 active torsions:
REMARK  status: ('A' for Active; 'I' for Inactive)
ROOT
ATOM      1  C   UNL d   1       0.593   3.078  -2.629  0.00  0.00     0.023 A 
ATOM      2  C1  UNL d   1       1.717   2.266  -2.782  0.00  0.00     0.003 A 
ATOM      3  C2  UNL d   1       2.992   2.785  -2.547  0.00  0.00     0.048 A 
ATOM      4  C3  UNL d   1       3.136   4.117  -2.159  0.00  0.00     0.023 A 
ATOM      5  C4  UNL d   1       2.014   4.933  -2.004  0.00  0.00     0.048 A 
ATOM      6  C5  UNL d   1       0.741   4.410  -2.241  0.00  0.00     0.003 A 
ATOM      7  I   UNL d   1       5.032   4.891  -1.809  0.00  0.00    -0.146 I 
ENDROOT
TORSDOF 0
ENDMDL
