MODEL 1
REMARK minimizedAffinity 9.3541317
REMARK minimizedRMSD -1
REMARK  0 active torsions:
REMARK  status: ('A' for Active; 'I' for Inactive)
ROOT
ATOM      1  C   UNL d   1       3.033   3.762  -2.394  0.00  0.00     0.023 A 
ATOM      2  C1  UNL d   1       2.169   2.738  -2.782  0.00  0.00     0.003 A 
ATOM      3  C2  UNL d   1       0.834   3.022  -3.075  0.00  0.00     0.048 A 
ATOM      4  C3  UNL d   1       0.370   4.333  -2.980  0.00  0.00     0.023 A 
ATOM      5  C4  UNL d   1       1.230   5.362  -2.594  0.00  0.00     0.048 A 
ATOM      6  C5  UNL d   1       2.564   5.073  -2.300  0.00  0.00     0.003 A 
ATOM      7  I   UNL d   1      -1.617   4.759  -3.418  0.00  0.00    -0.146 I 
ENDROOT
TORSDOF 0
ENDMDL
