MODEL 1
REMARK minimizedAffinity 7.20018959
REMARK minimizedRMSD -1
REMARK  0 active torsions:
REMARK  status: ('A' for Active; 'I' for Inactive)
ROOT
ATOM      1  C   UNL d   1      -5.344   1.358   0.458  0.00  0.00     0.023 A 
ATOM      2  C1  UNL d   1      -5.633   1.981  -0.757  0.00  0.00     0.003 A 
ATOM      3  C2  UNL d   1      -5.821   1.214  -1.909  0.00  0.00     0.048 A 
ATOM      4  C3  UNL d   1      -5.720  -0.175  -1.839  0.00  0.00     0.023 A 
ATOM      5  C4  UNL d   1      -5.432  -0.803  -0.626  0.00  0.00     0.048 A 
ATOM      6  C5  UNL d   1      -5.244  -0.032   0.523  0.00  0.00     0.003 A 
ATOM      7  I   UNL d   1      -6.000  -1.318  -3.552  0.00  0.00    -0.146 I 
ENDROOT
TORSDOF 0
ENDMDL
