MODEL 1
REMARK minimizedAffinity -4.21307659
REMARK minimizedRMSD -1
REMARK  1 active torsions:
REMARK  status: ('A' for Active; 'I' for Inactive)
REMARK    1  A    between atoms: C1_2  and  C2_3 
ROOT
ATOM      1  C2  UNL d   1       0.182   0.357   0.142  0.00  0.00    -0.076 A 
ATOM      2  C3  UNL d   1       1.340  -0.438   0.096  0.00  0.00     0.004 A 
ATOM      3  C4  UNL d   1       1.300  -1.785   0.451  0.00  0.00    -0.003 A 
ATOM      4  C5  UNL d   1       0.100  -2.359   0.858  0.00  0.00     0.000 A 
ATOM      5  C6  UNL d   1      -1.062  -1.589   0.893  0.00  0.00     0.000 A 
ATOM      6  C7  UNL d   1      -1.042  -0.234   0.522  0.00  0.00    -0.073 A 
ATOM      7  C8  UNL d   1      -2.324   0.551   0.584  0.00  0.00     0.078 C 
ENDROOT
BRANCH   1   8
ATOM      8  C1  UNL d   1       0.292   1.819  -0.230  0.00  0.00     0.053 C 
ATOM      9  C   UNL d   1       0.804   2.023  -1.647  0.00  0.00     0.018 C 
ENDBRANCH   1   8
TORSDOF 1
ENDMDL
