MODEL 1
REMARK minimizedAffinity -2.33746481
REMARK minimizedRMSD -1
REMARK  1 active torsions:
REMARK  status: ('A' for Active; 'I' for Inactive)
REMARK    1  A    between atoms: C1_2  and  C2_3 
ROOT
ATOM      1  C2  UNL d   1      -0.321  -1.072   0.742  0.00  0.00    -0.076 A 
ATOM      2  C3  UNL d   1      -1.466  -0.269   0.604  0.00  0.00     0.004 A 
ATOM      3  C4  UNL d   1      -1.387   1.001   0.033  0.00  0.00    -0.003 A 
ATOM      4  C5  UNL d   1      -0.162   1.487  -0.410  0.00  0.00     0.000 A 
ATOM      5  C6  UNL d   1       0.981   0.696  -0.296  0.00  0.00     0.000 A 
ATOM      6  C7  UNL d   1       0.916  -0.592   0.262  0.00  0.00    -0.073 A 
ATOM      7  C8  UNL d   1       2.182  -1.399   0.365  0.00  0.00     0.078 C 
ENDROOT
BRANCH   1   8
ATOM      8  C1  UNL d   1      -0.463  -2.429   1.394  0.00  0.00     0.053 C 
ATOM      9  C   UNL d   1      -1.883  -2.968   1.316  0.00  0.00     0.018 C 
ENDBRANCH   1   8
TORSDOF 1
ENDMDL
