MODEL 1
REMARK minimizedAffinity -2.1900723
REMARK minimizedRMSD -1
REMARK  1 active torsions:
REMARK  status: ('A' for Active; 'I' for Inactive)
REMARK    1  A    between atoms: C1_2  and  C2_3 
ROOT
ATOM      1  C2  UNL d   1       0.324   0.228  -0.018  0.00  0.00    -0.076 A 
ATOM      2  C3  UNL d   1       1.253  -0.790  -0.295  0.00  0.00     0.004 A 
ATOM      3  C4  UNL d   1       1.032  -2.099   0.130  0.00  0.00    -0.003 A 
ATOM      4  C5  UNL d   1      -0.123  -2.412   0.838  0.00  0.00     0.000 A 
ATOM      5  C6  UNL d   1      -1.064  -1.418   1.107  0.00  0.00     0.000 A 
ATOM      6  C7  UNL d   1      -0.864  -0.097   0.672  0.00  0.00    -0.073 A 
ATOM      7  C8  UNL d   1      -1.909   0.935   0.994  0.00  0.00     0.078 C 
ENDROOT
BRANCH   1   8
ATOM      8  C1  UNL d   1       0.630   1.634  -0.481  0.00  0.00     0.053 C 
ATOM      9  C   UNL d   1       0.710   1.745  -1.995  0.00  0.00     0.018 C 
ENDBRANCH   1   8
TORSDOF 1
ENDMDL
