MODEL 1
REMARK minimizedAffinity -3.21549368
REMARK minimizedRMSD -1
REMARK  1 active torsions:
REMARK  status: ('A' for Active; 'I' for Inactive)
REMARK    1  A    between atoms: C1_2  and  C2_3 
ROOT
ATOM      1  C2  UNL d   1      -0.690  -0.760   0.251  0.00  0.00    -0.076 A 
ATOM      2  C3  UNL d   1       0.566  -0.985  -0.338  0.00  0.00     0.004 A 
ATOM      3  C4  UNL d   1       1.275   0.056  -0.935  0.00  0.00    -0.003 A 
ATOM      4  C5  UNL d   1       0.740   1.339  -0.953  0.00  0.00     0.000 A 
ATOM      5  C6  UNL d   1      -0.498   1.584  -0.359  0.00  0.00     0.000 A 
ATOM      6  C7  UNL d   1      -1.218   0.549   0.262  0.00  0.00    -0.073 A 
ATOM      7  C8  UNL d   1      -2.551   0.869   0.882  0.00  0.00     0.078 C 
ENDROOT
BRANCH   1   8
ATOM      8  C1  UNL d   1      -1.426  -1.932   0.860  0.00  0.00     0.053 C 
ATOM      9  C   UNL d   1      -0.684  -2.534   2.043  0.00  0.00     0.018 C 
ENDBRANCH   1   8
TORSDOF 1
ENDMDL
