MODEL 1
REMARK minimizedAffinity -2.5031743
REMARK minimizedRMSD -1
REMARK  1 active torsions:
REMARK  status: ('A' for Active; 'I' for Inactive)
REMARK    1  A    between atoms: C1_2  and  C2_3 
ROOT
ATOM      1  C2  UNL d   1      -0.981  -0.391   0.408  0.00  0.00    -0.076 A 
ATOM      2  C3  UNL d   1       0.096   0.492   0.223  0.00  0.00     0.004 A 
ATOM      3  C4  UNL d   1       1.403   0.018   0.122  0.00  0.00    -0.003 A 
ATOM      4  C5  UNL d   1       1.653  -1.347   0.202  0.00  0.00     0.000 A 
ATOM      5  C6  UNL d   1       0.594  -2.239   0.367  0.00  0.00     0.000 A 
ATOM      6  C7  UNL d   1      -0.731  -1.779   0.455  0.00  0.00    -0.073 A 
ATOM      7  C8  UNL d   1      -1.834  -2.785   0.639  0.00  0.00     0.078 C 
ENDROOT
BRANCH   1   8
ATOM      8  C1  UNL d   1      -2.374   0.183   0.538  0.00  0.00     0.053 C 
ATOM      9  C   UNL d   1      -2.403   1.459   1.365  0.00  0.00     0.018 C 
ENDBRANCH   1   8
TORSDOF 1
ENDMDL
