MODEL 1
REMARK minimizedAffinity -2.66491866
REMARK minimizedRMSD -1
REMARK  1 active torsions:
REMARK  status: ('A' for Active; 'I' for Inactive)
REMARK    1  A    between atoms: C1_2  and  C2_3 
ROOT
ATOM      1  C2  UNL d   1       0.062   0.417  -0.604  0.00  0.00    -0.076 A 
ATOM      2  C3  UNL d   1       0.619  -0.818  -0.979  0.00  0.00     0.004 A 
ATOM      3  C4  UNL d   1       0.350  -1.977  -0.253  0.00  0.00    -0.003 A 
ATOM      4  C5  UNL d   1      -0.483  -1.920   0.859  0.00  0.00     0.000 A 
ATOM      5  C6  UNL d   1      -1.059  -0.707   1.235  0.00  0.00     0.000 A 
ATOM      6  C7  UNL d   1      -0.810   0.468   0.504  0.00  0.00    -0.073 A 
ATOM      7  C8  UNL d   1      -1.453   1.750   0.958  0.00  0.00     0.078 C 
ENDROOT
BRANCH   1   8
ATOM      8  C1  UNL d   1       0.412   1.645  -1.414  0.00  0.00     0.053 C 
ATOM      9  C   UNL d   1       0.296   1.409  -2.911  0.00  0.00     0.018 C 
ENDBRANCH   1   8
TORSDOF 1
ENDMDL
