MODEL 1
REMARK minimizedAffinity -4.95064449
REMARK minimizedRMSD -1
REMARK  1 active torsions:
REMARK  status: ('A' for Active; 'I' for Inactive)
REMARK    1  A    between atoms: C1_2  and  C2_3 
ROOT
ATOM      1  C2  UNL d   1       0.134   0.720  -0.133  0.00  0.00    -0.076 A 
ATOM      2  C3  UNL d   1       0.525  -0.630  -0.158  0.00  0.00     0.004 A 
ATOM      3  C4  UNL d   1      -0.319  -1.630   0.319  0.00  0.00    -0.003 A 
ATOM      4  C5  UNL d   1      -1.570  -1.298   0.829  0.00  0.00     0.000 A 
ATOM      5  C6  UNL d   1      -1.981   0.035   0.845  0.00  0.00     0.000 A 
ATOM      6  C7  UNL d   1      -1.149   1.054   0.353  0.00  0.00    -0.073 A 
ATOM      7  C8  UNL d   1      -1.641   2.475   0.401  0.00  0.00     0.078 C 
ENDROOT
BRANCH   1   8
ATOM      8  C1  UNL d   1       1.103   1.765  -0.639  0.00  0.00     0.053 C 
ATOM      9  C   UNL d   1       0.949   2.029  -2.129  0.00  0.00     0.018 C 
ENDBRANCH   1   8
TORSDOF 1
ENDMDL
