MODEL 1
REMARK minimizedAffinity -5.07900858
REMARK minimizedRMSD -1
REMARK  1 active torsions:
REMARK  status: ('A' for Active; 'I' for Inactive)
REMARK    1  A    between atoms: C1_2  and  C2_3 
ROOT
ATOM      1  C2  UNL d   1       0.917   0.575  -0.354  0.00  0.00    -0.076 A 
ATOM      2  C3  UNL d   1       1.477  -0.686  -0.625  0.00  0.00     0.004 A 
ATOM      3  C4  UNL d   1       0.980  -1.838  -0.016  0.00  0.00    -0.003 A 
ATOM      4  C5  UNL d   1      -0.085  -1.747   0.873  0.00  0.00     0.000 A 
ATOM      5  C6  UNL d   1      -0.664  -0.507   1.140  0.00  0.00     0.000 A 
ATOM      6  C7  UNL d   1      -0.185   0.662   0.523  0.00  0.00    -0.073 A 
ATOM      7  C8  UNL d   1      -0.843   1.974   0.852  0.00  0.00     0.078 C 
ENDROOT
BRANCH   1   8
ATOM      8  C1  UNL d   1       1.516   1.792  -1.022  0.00  0.00     0.053 C 
ATOM      9  C   UNL d   1       1.030   1.968  -2.453  0.00  0.00     0.018 C 
ENDBRANCH   1   8
TORSDOF 1
ENDMDL
