MODEL 1
REMARK minimizedAffinity -2.60090709
REMARK minimizedRMSD -1
REMARK  1 active torsions:
REMARK  status: ('A' for Active; 'I' for Inactive)
REMARK    1  A    between atoms: C1_2  and  C2_3 
ROOT
ATOM      1  C2  UNL d   1       0.124  -0.125  -0.343  0.00  0.00    -0.076 A 
ATOM      2  C3  UNL d   1      -1.269  -0.072  -0.162  0.00  0.00     0.004 A 
ATOM      3  C4  UNL d   1      -1.944  -1.088   0.513  0.00  0.00    -0.003 A 
ATOM      4  C5  UNL d   1      -1.237  -2.173   1.018  0.00  0.00     0.000 A 
ATOM      5  C6  UNL d   1       0.148  -2.234   0.863  0.00  0.00     0.000 A 
ATOM      6  C7  UNL d   1       0.845  -1.210   0.200  0.00  0.00    -0.073 A 
ATOM      7  C8  UNL d   1       2.338  -1.329   0.056  0.00  0.00     0.078 C 
ENDROOT
BRANCH   1   8
ATOM      8  C1  UNL d   1       0.798   0.992  -1.107  0.00  0.00     0.053 C 
ATOM      9  C   UNL d   1       0.140   1.257  -2.453  0.00  0.00     0.018 C 
ENDBRANCH   1   8
TORSDOF 1
ENDMDL
