MODEL 1
REMARK minimizedAffinity -5.37605238
REMARK minimizedRMSD -1
REMARK  1 active torsions:
REMARK  status: ('A' for Active; 'I' for Inactive)
REMARK    1  A    between atoms: C1_2  and  C2_3 
ROOT
ATOM      1  C2  UNL d   1      -0.481   0.052   0.469  0.00  0.00    -0.076 A 
ATOM      2  C3  UNL d   1      -0.052  -1.265   0.231  0.00  0.00     0.004 A 
ATOM      3  C4  UNL d   1      -0.748  -2.353   0.756  0.00  0.00    -0.003 A 
ATOM      4  C5  UNL d   1      -1.884  -2.141   1.528  0.00  0.00     0.000 A 
ATOM      5  C6  UNL d   1      -2.334  -0.841   1.760  0.00  0.00     0.000 A 
ATOM      6  C7  UNL d   1      -1.654   0.265   1.225  0.00  0.00    -0.073 A 
ATOM      7  C8  UNL d   1      -2.180   1.645   1.512  0.00  0.00     0.078 C 
ENDROOT
BRANCH   1   8
ATOM      8  C1  UNL d   1       0.330   1.193  -0.104  0.00  0.00     0.053 C 
ATOM      9  C   UNL d   1       0.411   1.145  -1.621  0.00  0.00     0.018 C 
ENDBRANCH   1   8
TORSDOF 1
ENDMDL
