MODEL 1
REMARK minimizedAffinity -4.2718997
REMARK minimizedRMSD -1
REMARK  1 active torsions:
REMARK  status: ('A' for Active; 'I' for Inactive)
REMARK    1  A    between atoms: C1_2  and  C2_3 
ROOT
ATOM      1  C2  UNL d   1       0.172   0.040   0.030  0.00  0.00    -0.076 A 
ATOM      2  C3  UNL d   1      -1.181   0.370   0.225  0.00  0.00     0.004 A 
ATOM      3  C4  UNL d   1      -2.085  -0.570   0.715  0.00  0.00    -0.003 A 
ATOM      4  C5  UNL d   1      -1.651  -1.856   1.020  0.00  0.00     0.000 A 
ATOM      5  C6  UNL d   1      -0.310  -2.195   0.849  0.00  0.00     0.000 A 
ATOM      6  C7  UNL d   1       0.618  -1.255   0.371  0.00  0.00    -0.073 A 
ATOM      7  C8  UNL d   1       2.052  -1.677   0.201  0.00  0.00     0.078 C 
ENDROOT
BRANCH   1   8
ATOM      8  C1  UNL d   1       1.101   1.093  -0.531  0.00  0.00     0.053 C 
ATOM      9  C   UNL d   1       1.006   1.208  -2.044  0.00  0.00     0.018 C 
ENDBRANCH   1   8
TORSDOF 1
ENDMDL
