MODEL 1
REMARK minimizedAffinity -3.06022358
REMARK minimizedRMSD -1
REMARK  1 active torsions:
REMARK  status: ('A' for Active; 'I' for Inactive)
REMARK    1  A    between atoms: C1_2  and  C2_3 
ROOT
ATOM      1  C2  UNL d   1      -1.783  -0.777   0.249  0.00  0.00    -0.076 A 
ATOM      2  C3  UNL d   1      -2.960  -0.040   0.464  0.00  0.00     0.004 A 
ATOM      3  C4  UNL d   1      -2.911   1.267   0.945  0.00  0.00    -0.003 A 
ATOM      4  C5  UNL d   1      -1.682   1.859   1.218  0.00  0.00     0.000 A 
ATOM      5  C6  UNL d   1      -0.504   1.148   0.995  0.00  0.00     0.000 A 
ATOM      6  C7  UNL d   1      -0.535  -0.165   0.494  0.00  0.00    -0.073 A 
ATOM      7  C8  UNL d   1       0.767  -0.886   0.278  0.00  0.00     0.078 C 
ENDROOT
BRANCH   1   8
ATOM      8  C1  UNL d   1      -1.900  -2.200  -0.248  0.00  0.00     0.053 C 
ATOM      9  C   UNL d   1      -2.254  -2.274  -1.725  0.00  0.00     0.018 C 
ENDBRANCH   1   8
TORSDOF 1
ENDMDL
