MODEL 1
REMARK minimizedAffinity -3.77775908
REMARK minimizedRMSD -1
REMARK  1 active torsions:
REMARK  status: ('A' for Active; 'I' for Inactive)
REMARK    1  A    between atoms: C1_2  and  C2_3 
ROOT
ATOM      1  C2  UNL d   1      -0.770  -1.460   0.348  0.00  0.00    -0.076 A 
ATOM      2  C3  UNL d   1       0.614  -1.685   0.252  0.00  0.00     0.004 A 
ATOM      3  C4  UNL d   1       1.516  -0.623   0.255  0.00  0.00    -0.003 A 
ATOM      4  C5  UNL d   1       1.048   0.683   0.355  0.00  0.00     0.000 A 
ATOM      5  C6  UNL d   1      -0.320   0.925   0.469  0.00  0.00     0.000 A 
ATOM      6  C7  UNL d   1      -1.242  -0.136   0.483  0.00  0.00    -0.073 A 
ATOM      7  C8  UNL d   1      -2.707   0.182   0.602  0.00  0.00     0.078 C 
ENDROOT
BRANCH   1   8
ATOM      8  C1  UNL d   1      -1.702  -2.650   0.312  0.00  0.00     0.053 C 
ATOM      9  C   UNL d   1      -1.981  -3.214   1.696  0.00  0.00     0.018 C 
ENDBRANCH   1   8
TORSDOF 1
ENDMDL
