MODEL 1
REMARK minimizedAffinity -4.53133202
REMARK minimizedRMSD -1
REMARK  1 active torsions:
REMARK  status: ('A' for Active; 'I' for Inactive)
REMARK    1  A    between atoms: C1_2  and  C2_3 
ROOT
ATOM      1  C2  UNL d   1      -4.965  -2.817  -3.779  0.00  0.00    -0.076 A 
ATOM      2  C3  UNL d   1      -3.964  -3.748  -3.453  0.00  0.00     0.004 A 
ATOM      3  C4  UNL d   1      -3.001  -4.122  -4.388  0.00  0.00    -0.003 A 
ATOM      4  C5  UNL d   1      -3.022  -3.571  -5.665  0.00  0.00     0.000 A 
ATOM      5  C6  UNL d   1      -3.998  -2.633  -6.000  0.00  0.00     0.000 A 
ATOM      6  C7  UNL d   1      -4.967  -2.232  -5.064  0.00  0.00    -0.073 A 
ATOM      7  C8  UNL d   1      -5.999  -1.221  -5.481  0.00  0.00     0.078 C 
ENDROOT
BRANCH   1   8
ATOM      8  C1  UNL d   1      -6.000  -2.469  -2.733  0.00  0.00     0.053 C 
ATOM      9  C   UNL d   1      -5.770  -1.097  -2.120  0.00  0.00     0.018 C 
ENDBRANCH   1   8
TORSDOF 1
ENDMDL
