MODEL 1
REMARK minimizedAffinity 4.1993165
REMARK minimizedRMSD -1
REMARK  0 active torsions:
REMARK  status: ('A' for Active; 'I' for Inactive)
ROOT
ATOM      1  C1  DEN d   1       0.038   0.012   2.538  0.00  0.00     0.130 A 
ATOM      2  C2  DEN d   1       0.434   1.239   3.223  0.00  0.00    -0.031 A 
ATOM      3  C3  DEN d   1       1.191   2.072   2.267  0.00  0.00     0.027 A 
ATOM      4  C4  DEN d   1       1.780   1.585  -0.197  0.00  0.00     0.027 A 
ATOM      5  C5  DEN d   1       1.670   0.665  -1.216  0.00  0.00    -0.003 A 
ATOM      6  C6  DEN d   1       1.043  -0.541  -1.048  0.00  0.00     0.001 A 
ATOM      7  C7  DEN d   1       0.462  -0.841   0.156  0.00  0.00     0.017 A 
ATOM      8  C8  DEN d   1       0.575   0.078   1.191  0.00  0.00    -0.094 A 
ATOM      9  C9  DEN d   1       1.203   1.297   0.997  0.00  0.00    -0.072 A 
ENDROOT
TORSDOF 0
ENDMDL
