MODEL 1
REMARK minimizedAffinity 6.51781988
REMARK minimizedRMSD -1
REMARK  0 active torsions:
REMARK  status: ('A' for Active; 'I' for Inactive)
ROOT
ATOM      1  C1  DEN d   1       2.081  -1.113  -1.781  0.00  0.00     0.130 A 
ATOM      2  C2  DEN d   1       3.362  -0.416  -1.848  0.00  0.00    -0.031 A 
ATOM      3  C3  DEN d   1       3.339   0.678  -0.857  0.00  0.00     0.027 A 
ATOM      4  C4  DEN d   1       1.455   1.354   0.770  0.00  0.00     0.027 A 
ATOM      5  C5  DEN d   1       0.174   1.065   1.187  0.00  0.00    -0.003 A 
ATOM      6  C6  DEN d   1      -0.567   0.060   0.625  0.00  0.00     0.001 A 
ATOM      7  C7  DEN d   1      -0.017  -0.723  -0.356  0.00  0.00     0.017 A 
ATOM      8  C8  DEN d   1       1.271  -0.433  -0.786  0.00  0.00    -0.094 A 
ATOM      9  C9  DEN d   1       2.009   0.580  -0.197  0.00  0.00    -0.072 A 
ENDROOT
TORSDOF 0
ENDMDL
