MODEL 1
REMARK minimizedAffinity -0.624514878
REMARK minimizedRMSD -1
REMARK  0 active torsions:
REMARK  status: ('A' for Active; 'I' for Inactive)
ROOT
ATOM      1  C1  DEN d   1       2.713   1.234  -0.232  0.00  0.00     0.130 A 
ATOM      2  C2  DEN d   1       2.440   2.457   0.518  0.00  0.00    -0.031 A 
ATOM      3  C3  DEN d   1       1.100   2.332   1.124  0.00  0.00     0.027 A 
ATOM      4  C4  DEN d   1      -0.570   0.372   0.979  0.00  0.00     0.027 A 
ATOM      5  C5  DEN d   1      -0.788  -0.880   0.447  0.00  0.00    -0.003 A 
ATOM      6  C6  DEN d   1       0.123  -1.495  -0.370  0.00  0.00     0.001 A 
ATOM      7  C7  DEN d   1       1.316  -0.879  -0.641  0.00  0.00     0.017 A 
ATOM      8  C8  DEN d   1       1.540   0.386  -0.114  0.00  0.00    -0.094 A 
ATOM      9  C9  DEN d   1       0.611   0.987   0.719  0.00  0.00    -0.072 A 
ENDROOT
TORSDOF 0
ENDMDL
