MODEL 1
REMARK minimizedAffinity 0.697315335
REMARK minimizedRMSD -1
REMARK  0 active torsions:
REMARK  status: ('A' for Active; 'I' for Inactive)
ROOT
ATOM      1  C1  DEN d   1      -1.284  -2.317   1.605  0.00  0.00     0.130 A 
ATOM      2  C2  DEN d   1      -1.602  -2.262   3.029  0.00  0.00    -0.031 A 
ATOM      3  C3  DEN d   1      -1.238  -0.920   3.526  0.00  0.00     0.027 A 
ATOM      4  C4  DEN d   1      -0.223   1.069   2.234  0.00  0.00     0.027 A 
ATOM      5  C5  DEN d   1       0.233   1.494   1.006  0.00  0.00    -0.003 A 
ATOM      6  C6  DEN d   1       0.247   0.675  -0.092  0.00  0.00     0.001 A 
ATOM      7  C7  DEN d   1      -0.246  -0.600   0.006  0.00  0.00     0.017 A 
ATOM      8  C8  DEN d   1      -0.701  -1.038   1.243  0.00  0.00    -0.094 A 
ATOM      9  C9  DEN d   1      -0.718  -0.191   2.338  0.00  0.00    -0.072 A 
ENDROOT
TORSDOF 0
ENDMDL
