MODEL 1
REMARK minimizedAffinity -3.07591438
REMARK minimizedRMSD -1
REMARK  0 active torsions:
REMARK  status: ('A' for Active; 'I' for Inactive)
ROOT
ATOM      1  C1  DEN d   1       1.087  -0.937  -0.365  0.00  0.00     0.130 A 
ATOM      2  C2  DEN d   1       2.337  -0.378  -0.871  0.00  0.00    -0.031 A 
ATOM      3  C3  DEN d   1       2.474   0.992  -0.336  0.00  0.00     0.027 A 
ATOM      4  C4  DEN d   1       0.883   2.291   1.223  0.00  0.00     0.027 A 
ATOM      5  C5  DEN d   1      -0.310   2.235   1.909  0.00  0.00    -0.003 A 
ATOM      6  C6  DEN d   1      -1.131   1.140   1.858  0.00  0.00     0.001 A 
ATOM      7  C7  DEN d   1      -0.747   0.037   1.141  0.00  0.00     0.017 A 
ATOM      8  C8  DEN d   1       0.451   0.089   0.441  0.00  0.00    -0.094 A 
ATOM      9  C9  DEN d   1       1.272   1.201   0.515  0.00  0.00    -0.072 A 
ENDROOT
TORSDOF 0
ENDMDL
