MODEL 1
REMARK minimizedAffinity -0.662496567
REMARK minimizedRMSD -1
REMARK  0 active torsions:
REMARK  status: ('A' for Active; 'I' for Inactive)
ROOT
ATOM      1  C1  DEN d   1       2.467   0.846  -0.615  0.00  0.00     0.130 A 
ATOM      2  C2  DEN d   1       2.262  -0.543  -1.013  0.00  0.00    -0.031 A 
ATOM      3  C3  DEN d   1       1.169  -1.099  -0.190  0.00  0.00     0.027 A 
ATOM      4  C4  DEN d   1      -0.223   0.054   1.650  0.00  0.00     0.027 A 
ATOM      5  C5  DEN d   1      -0.407   1.226   2.349  0.00  0.00    -0.003 A 
ATOM      6  C6  DEN d   1       0.369   2.334   2.135  0.00  0.00     0.001 A 
ATOM      7  C7  DEN d   1       1.337   2.308   1.167  0.00  0.00     0.017 A 
ATOM      8  C8  DEN d   1       1.534   1.127   0.463  0.00  0.00    -0.094 A 
ATOM      9  C9  DEN d   1       0.731   0.022   0.685  0.00  0.00    -0.072 A 
ENDROOT
TORSDOF 0
ENDMDL
