MODEL 1
REMARK minimizedAffinity 9.06754112
REMARK minimizedRMSD -1
REMARK  0 active torsions:
REMARK  status: ('A' for Active; 'I' for Inactive)
ROOT
ATOM      1  C1  DEN d   1       2.232   3.375  -2.616  0.00  0.00     0.130 A 
ATOM      2  C2  DEN d   1       1.394   3.751  -3.751  0.00  0.00    -0.031 A 
ATOM      3  C3  DEN d   1       2.278   4.015  -4.903  0.00  0.00     0.027 A 
ATOM      4  C4  DEN d   1       4.850   3.874  -5.042  0.00  0.00     0.027 A 
ATOM      5  C5  DEN d   1       5.999   3.607  -4.331  0.00  0.00    -0.003 A 
ATOM      6  C6  DEN d   1       5.976   3.280  -3.001  0.00  0.00     0.001 A 
ATOM      7  C7  DEN d   1       4.775   3.167  -2.351  0.00  0.00     0.017 A 
ATOM      8  C8  DEN d   1       3.613   3.442  -3.059  0.00  0.00    -0.094 A 
ATOM      9  C9  DEN d   1       3.656   3.759  -4.406  0.00  0.00    -0.072 A 
ENDROOT
TORSDOF 0
ENDMDL
