MODEL 1
REMARK minimizedAffinity 11.7128534
REMARK minimizedRMSD -1
REMARK  0 active torsions:
REMARK  status: ('A' for Active; 'I' for Inactive)
ROOT
ATOM      1  C1  DEN d   1       1.088   0.163  -0.381  0.00  0.00     0.130 A 
ATOM      2  C2  DEN d   1       0.034  -0.026   0.612  0.00  0.00    -0.031 A 
ATOM      3  C3  DEN d   1      -0.885   1.127   0.527  0.00  0.00     0.027 A 
ATOM      4  C4  DEN d   1      -0.783   3.172  -1.041  0.00  0.00     0.027 A 
ATOM      5  C5  DEN d   1      -0.066   3.779  -2.048  0.00  0.00    -0.003 A 
ATOM      6  C6  DEN d   1       1.094   3.246  -2.542  0.00  0.00     0.001 A 
ATOM      7  C7  DEN d   1       1.549   2.047  -2.062  0.00  0.00     0.017 A 
ATOM      8  C8  DEN d   1       0.835   1.431  -1.041  0.00  0.00    -0.094 A 
ATOM      9  C9  DEN d   1      -0.342   1.980  -0.563  0.00  0.00    -0.072 A 
ENDROOT
TORSDOF 0
ENDMDL
