MODEL 1
REMARK minimizedAffinity -3.34430599
REMARK minimizedRMSD -1
REMARK  0 active torsions:
REMARK  status: ('A' for Active; 'I' for Inactive)
ROOT
ATOM      1  C1  DEN d   1       4.357   4.124  -4.849  0.00  0.00     0.130 A 
ATOM      2  C2  DEN d   1       4.580   3.742  -3.457  0.00  0.00    -0.031 A 
ATOM      3  C3  DEN d   1       3.419   4.199  -2.667  0.00  0.00     0.027 A 
ATOM      4  C4  DEN d   1       1.307   5.448  -3.460  0.00  0.00     0.027 A 
ATOM      5  C5  DEN d   1       0.672   6.000  -4.550  0.00  0.00    -0.003 A 
ATOM      6  C6  DEN d   1       1.232   5.996  -5.801  0.00  0.00     0.001 A 
ATOM      7  C7  DEN d   1       2.443   5.387  -6.000  0.00  0.00     0.017 A 
ATOM      8  C8  DEN d   1       3.092   4.835  -4.903  0.00  0.00    -0.094 A 
ATOM      9  C9  DEN d   1       2.504   4.839  -3.650  0.00  0.00    -0.072 A 
ENDROOT
TORSDOF 0
ENDMDL
