MODEL 1
REMARK minimizedAffinity -2.81557298
REMARK minimizedRMSD -1
REMARK  0 active torsions:
REMARK  status: ('A' for Active; 'I' for Inactive)
ROOT
ATOM      1  C1  DEN d   1       1.027   1.015   0.695  0.00  0.00     0.130 A 
ATOM      2  C2  DEN d   1      -0.390   0.786   0.959  0.00  0.00    -0.031 A 
ATOM      3  C3  DEN d   1      -0.603   0.874   2.418  0.00  0.00     0.027 A 
ATOM      4  C4  DEN d   1       1.115   1.348   4.282  0.00  0.00     0.027 A 
ATOM      5  C5  DEN d   1       2.443   1.597   4.548  0.00  0.00    -0.003 A 
ATOM      6  C6  DEN d   1       3.391   1.635   3.559  0.00  0.00     0.001 A 
ATOM      7  C7  DEN d   1       3.016   1.466   2.253  0.00  0.00     0.017 A 
ATOM      8  C8  DEN d   1       1.679   1.208   1.978  0.00  0.00    -0.094 A 
ATOM      9  C9  DEN d   1       0.735   1.185   2.990  0.00  0.00    -0.072 A 
ENDROOT
TORSDOF 0
ENDMDL
