MODEL 1
REMARK minimizedAffinity -1.97630537
REMARK minimizedRMSD -1
REMARK  0 active torsions:
REMARK  status: ('A' for Active; 'I' for Inactive)
ROOT
ATOM      1  C1  DEN d   1       0.863   1.478   4.001  0.00  0.00     0.130 A 
ATOM      2  C2  DEN d   1       2.026   2.130   3.407  0.00  0.00    -0.031 A 
ATOM      3  C3  DEN d   1       2.086   1.746   1.982  0.00  0.00     0.027 A 
ATOM      4  C4  DEN d   1       0.496   0.218   0.645  0.00  0.00     0.027 A 
ATOM      5  C5  DEN d   1      -0.628  -0.574   0.722  0.00  0.00    -0.003 A 
ATOM      6  C6  DEN d   1      -1.309  -0.763   1.896  0.00  0.00     0.001 A 
ATOM      7  C7  DEN d   1      -0.898  -0.116   3.031  0.00  0.00     0.017 A 
ATOM      8  C8  DEN d   1       0.239   0.679   2.962  0.00  0.00    -0.094 A 
ATOM      9  C9  DEN d   1       0.906   0.867   1.764  0.00  0.00    -0.072 A 
ENDROOT
TORSDOF 0
ENDMDL
