MODEL 1
REMARK minimizedAffinity 3.07620692
REMARK minimizedRMSD -1
REMARK  0 active torsions:
REMARK  status: ('A' for Active; 'I' for Inactive)
ROOT
ATOM      1  C1  DEN d   1       0.660   1.511   0.864  0.00  0.00     0.130 A 
ATOM      2  C2  DEN d   1      -0.037   0.241   1.046  0.00  0.00    -0.031 A 
ATOM      3  C3  DEN d   1      -0.231  -0.369  -0.285  0.00  0.00     0.027 A 
ATOM      4  C4  DEN d   1       0.482   0.524  -2.597  0.00  0.00     0.027 A 
ATOM      5  C5  DEN d   1       1.093   1.566  -3.259  0.00  0.00    -0.003 A 
ATOM      6  C6  DEN d   1       1.569   2.670  -2.601  0.00  0.00     0.001 A 
ATOM      7  C7  DEN d   1       1.481   2.736  -1.235  0.00  0.00     0.017 A 
ATOM      8  C8  DEN d   1       0.860   1.692  -0.563  0.00  0.00    -0.094 A 
ATOM      9  C9  DEN d   1       0.397   0.580  -1.244  0.00  0.00    -0.072 A 
ENDROOT
TORSDOF 0
ENDMDL
