MODEL 1
REMARK minimizedAffinity 10.1379318
REMARK minimizedRMSD -1
REMARK  0 active torsions:
REMARK  status: ('A' for Active; 'I' for Inactive)
ROOT
ATOM      1  C1  DEN d   1       0.824  -1.142  -2.273  0.00  0.00     0.130 A 
ATOM      2  C2  DEN d   1       1.656   0.025  -1.989  0.00  0.00    -0.031 A 
ATOM      3  C3  DEN d   1       1.542   0.956  -3.129  0.00  0.00     0.027 A 
ATOM      4  C4  DEN d   1       0.160   0.708  -5.294  0.00  0.00     0.027 A 
ATOM      5  C5  DEN d   1      -0.696  -0.115  -5.991  0.00  0.00    -0.003 A 
ATOM      6  C6  DEN d   1      -1.075  -1.343  -5.517  0.00  0.00     0.001 A 
ATOM      7  C7  DEN d   1      -0.633  -1.764  -4.291  0.00  0.00     0.017 A 
ATOM      8  C8  DEN d   1       0.236  -0.942  -3.585  0.00  0.00    -0.094 A 
ATOM      9  C9  DEN d   1       0.599   0.301  -4.076  0.00  0.00    -0.072 A 
ENDROOT
TORSDOF 0
ENDMDL
