MODEL 1
REMARK minimizedAffinity -2.29324126
REMARK minimizedRMSD -1
REMARK  0 active torsions:
REMARK  status: ('A' for Active; 'I' for Inactive)
ROOT
ATOM      1  C1  DEN d   1      -2.940   5.935  -2.159  0.00  0.00     0.130 A 
ATOM      2  C2  DEN d   1      -4.172   5.977  -2.942  0.00  0.00    -0.031 A 
ATOM      3  C3  DEN d   1      -3.804   5.995  -4.372  0.00  0.00     0.027 A 
ATOM      4  C4  DEN d   1      -1.458   5.956  -5.443  0.00  0.00     0.027 A 
ATOM      5  C5  DEN d   1      -0.105   5.932  -5.184  0.00  0.00    -0.003 A 
ATOM      6  C6  DEN d   1       0.394   5.940  -3.908  0.00  0.00     0.001 A 
ATOM      7  C7  DEN d   1      -0.467   5.929  -2.843  0.00  0.00     0.017 A 
ATOM      8  C8  DEN d   1      -1.832   5.962  -3.096  0.00  0.00    -0.094 A 
ATOM      9  C9  DEN d   1      -2.317   5.940  -4.393  0.00  0.00    -0.072 A 
ENDROOT
TORSDOF 0
ENDMDL
