MODEL 1
REMARK minimizedAffinity 9.21902847
REMARK minimizedRMSD -1
REMARK  0 active torsions:
REMARK  status: ('A' for Active; 'I' for Inactive)
ROOT
ATOM      1  C2' OXE d   1       0.994  -0.017   2.778  0.00  0.00     0.078 C 
ATOM      2  C1' OXE d   1       0.376   2.563   1.859  0.00  0.00     0.078 C 
ATOM      3  C1  OXE d   1      -0.760   1.584   2.024  0.00  0.00    -0.078 A 
ATOM      4  C2  OXE d   1      -0.442   0.310   2.430  0.00  0.00    -0.078 A 
ATOM      5  C3  OXE d   1      -1.458  -0.616   2.650  0.00  0.00     0.003 A 
ATOM      6  C4  OXE d   1      -2.782  -0.310   2.315  0.00  0.00    -0.002 A 
ATOM      7  C5  OXE d   1      -3.122   0.970   1.863  0.00  0.00    -0.002 A 
ATOM      8  C6  OXE d   1      -2.131   1.939   1.752  0.00  0.00     0.003 A 
ENDROOT
TORSDOF 0
ENDMDL
