MODEL 1
REMARK minimizedAffinity 9.02531815
REMARK minimizedRMSD -1
REMARK  0 active torsions:
REMARK  status: ('A' for Active; 'I' for Inactive)
ROOT
ATOM      1  C2' OXE d   1       3.745   4.464   0.280  0.00  0.00     0.078 C 
ATOM      2  C1' OXE d   1       4.024   5.996   2.616  0.00  0.00     0.078 C 
ATOM      3  C1  OXE d   1       4.490   4.562   2.655  0.00  0.00    -0.078 A 
ATOM      4  C2  OXE d   1       4.307   3.806   1.522  0.00  0.00    -0.078 A 
ATOM      5  C3  OXE d   1       4.768   2.494   1.487  0.00  0.00     0.003 A 
ATOM      6  C4  OXE d   1       5.278   1.890   2.643  0.00  0.00    -0.002 A 
ATOM      7  C5  OXE d   1       5.436   2.630   3.819  0.00  0.00    -0.002 A 
ATOM      8  C6  OXE d   1       5.088   3.976   3.830  0.00  0.00     0.003 A 
ENDROOT
TORSDOF 0
ENDMDL
