MODEL 1
REMARK minimizedAffinity 10.3228312
REMARK minimizedRMSD -1
REMARK  0 active torsions:
REMARK  status: ('A' for Active; 'I' for Inactive)
ROOT
ATOM      1  C2' OXE d   1      -1.463  -0.760  -4.738  0.00  0.00     0.078 C 
ATOM      2  C1' OXE d   1      -0.491  -3.216  -5.689  0.00  0.00     0.078 C 
ATOM      3  C1  OXE d   1       0.515  -2.200  -5.206  0.00  0.00    -0.078 A 
ATOM      4  C2  OXE d   1       0.033  -0.984  -4.786  0.00  0.00    -0.078 A 
ATOM      5  C3  OXE d   1       0.913  -0.032  -4.280  0.00  0.00     0.003 A 
ATOM      6  C4  OXE d   1       2.296  -0.243  -4.338  0.00  0.00    -0.002 A 
ATOM      7  C5  OXE d   1       2.810  -1.459  -4.799  0.00  0.00    -0.002 A 
ATOM      8  C6  OXE d   1       1.933  -2.463  -5.196  0.00  0.00     0.003 A 
ENDROOT
TORSDOF 0
ENDMDL
