MODEL 1
REMARK minimizedAffinity 8.43053913
REMARK minimizedRMSD -1
REMARK  0 active torsions:
REMARK  status: ('A' for Active; 'I' for Inactive)
ROOT
ATOM      1  C2' OXE d   1      -1.147  -2.808  -1.609  0.00  0.00     0.078 C 
ATOM      2  C1' OXE d   1      -0.685  -1.570  -4.086  0.00  0.00     0.078 C 
ATOM      3  C1  OXE d   1      -1.178  -2.995  -4.093  0.00  0.00    -0.078 A 
ATOM      4  C2  OXE d   1      -1.357  -3.608  -2.877  0.00  0.00    -0.078 A 
ATOM      5  C3  OXE d   1      -1.863  -4.904  -2.826  0.00  0.00     0.003 A 
ATOM      6  C4  OXE d   1      -2.046  -5.641  -4.003  0.00  0.00    -0.002 A 
ATOM      7  C5  OXE d   1      -1.832  -5.048  -5.252  0.00  0.00    -0.002 A 
ATOM      8  C6  OXE d   1      -1.440  -3.715  -5.315  0.00  0.00     0.003 A 
ENDROOT
TORSDOF 0
ENDMDL
