MODEL 1
REMARK minimizedAffinity 10.7709446
REMARK minimizedRMSD -1
REMARK  0 active torsions:
REMARK  status: ('A' for Active; 'I' for Inactive)
ROOT
ATOM      1  C2' OXE d   1       5.216   2.011   3.097  0.00  0.00     0.078 C 
ATOM      2  C1' OXE d   1       5.851   4.194   4.743  0.00  0.00     0.078 C 
ATOM      3  C1  OXE d   1       5.115   4.474   3.457  0.00  0.00    -0.078 A 
ATOM      4  C2  OXE d   1       4.850   3.405   2.635  0.00  0.00    -0.078 A 
ATOM      5  C3  OXE d   1       4.125   3.600   1.463  0.00  0.00     0.003 A 
ATOM      6  C4  OXE d   1       3.799   4.893   1.038  0.00  0.00    -0.002 A 
ATOM      7  C5  OXE d   1       4.096   6.000   1.840  0.00  0.00    -0.002 A 
ATOM      8  C6  OXE d   1       4.714   5.804   3.070  0.00  0.00     0.003 A 
ENDROOT
TORSDOF 0
ENDMDL
