MODEL 1
REMARK minimizedAffinity 7.47208166
REMARK minimizedRMSD -1
REMARK  0 active torsions:
REMARK  status: ('A' for Active; 'I' for Inactive)
ROOT
ATOM      1  C2' OXE d   1      -1.502  -3.370  -4.938  0.00  0.00     0.078 C 
ATOM      2  C1' OXE d   1      -1.089  -2.233  -2.405  0.00  0.00     0.078 C 
ATOM      3  C1  OXE d   1      -0.756  -1.396  -3.614  0.00  0.00    -0.078 A 
ATOM      4  C2  OXE d   1      -0.916  -1.977  -4.849  0.00  0.00    -0.078 A 
ATOM      5  C3  OXE d   1      -0.675  -1.230  -5.999  0.00  0.00     0.003 A 
ATOM      6  C4  OXE d   1      -0.125   0.054  -5.908  0.00  0.00    -0.002 A 
ATOM      7  C5  OXE d   1       0.085   0.650  -4.660  0.00  0.00    -0.002 A 
ATOM      8  C6  OXE d   1      -0.265  -0.044  -3.506  0.00  0.00     0.003 A 
ENDROOT
TORSDOF 0
ENDMDL
