MODEL 1
REMARK minimizedAffinity 4.55867004
REMARK minimizedRMSD -1
REMARK  0 active torsions:
REMARK  status: ('A' for Active; 'I' for Inactive)
ROOT
ATOM      1  C2' OXE d   1      -1.052   1.347   2.434  0.00  0.00     0.078 C 
ATOM      2  C1' OXE d   1      -1.139  -1.202   1.261  0.00  0.00     0.078 C 
ATOM      3  C1  OXE d   1      -0.066  -0.936   2.288  0.00  0.00    -0.078 A 
ATOM      4  C2  OXE d   1      -0.002   0.329   2.823  0.00  0.00    -0.078 A 
ATOM      5  C3  OXE d   1       0.933   0.612   3.814  0.00  0.00     0.003 A 
ATOM      6  C4  OXE d   1       1.907  -0.333   4.160  0.00  0.00    -0.002 A 
ATOM      7  C5  OXE d   1       1.884  -1.614   3.599  0.00  0.00    -0.002 A 
ATOM      8  C6  OXE d   1       0.880  -1.945   2.695  0.00  0.00     0.003 A 
ENDROOT
TORSDOF 0
ENDMDL
