MODEL 1
REMARK minimizedAffinity 5.3138051
REMARK minimizedRMSD -1
REMARK  0 active torsions:
REMARK  status: ('A' for Active; 'I' for Inactive)
ROOT
ATOM      1  C2' OXE d   1       3.761  -4.744   6.000  0.00  0.00     0.078 C 
ATOM      2  C1' OXE d   1       5.174  -2.362   5.543  0.00  0.00     0.078 C 
ATOM      3  C1  OXE d   1       3.828  -2.519   4.882  0.00  0.00    -0.078 A 
ATOM      4  C2  OXE d   1       3.164  -3.707   5.073  0.00  0.00    -0.078 A 
ATOM      5  C3  OXE d   1       1.894  -3.882   4.531  0.00  0.00     0.003 A 
ATOM      6  C4  OXE d   1       1.354  -2.922   3.666  0.00  0.00    -0.002 A 
ATOM      7  C5  OXE d   1       2.031  -1.721   3.426  0.00  0.00    -0.002 A 
ATOM      8  C6  OXE d   1       3.247  -1.487   4.059  0.00  0.00     0.003 A 
ENDROOT
TORSDOF 0
ENDMDL
