MODEL 1
REMARK minimizedAffinity 15.3693781
REMARK minimizedRMSD -1
REMARK  0 active torsions:
REMARK  status: ('A' for Active; 'I' for Inactive)
ROOT
ATOM      1  C2' OXE d   1       4.204  -1.598  -2.489  0.00  0.00     0.078 C 
ATOM      2  C1' OXE d   1       3.739   0.614  -4.154  0.00  0.00     0.078 C 
ATOM      3  C1  OXE d   1       2.552  -0.223  -3.748  0.00  0.00    -0.078 A 
ATOM      4  C2  OXE d   1       2.795  -1.330  -2.972  0.00  0.00    -0.078 A 
ATOM      5  C3  OXE d   1       1.729  -2.106  -2.524  0.00  0.00     0.003 A 
ATOM      6  C4  OXE d   1       0.430  -1.857  -2.983  0.00  0.00    -0.002 A 
ATOM      7  C5  OXE d   1       0.166  -0.758  -3.806  0.00  0.00    -0.002 A 
ATOM      8  C6  OXE d   1       1.207   0.092  -4.163  0.00  0.00     0.003 A 
ENDROOT
TORSDOF 0
ENDMDL
