MODEL 1
REMARK minimizedAffinity 17.841198
REMARK minimizedRMSD -1
REMARK  0 active torsions:
REMARK  status: ('A' for Active; 'I' for Inactive)
ROOT
ATOM      1  C2' OXE d   1       2.083  -0.688  -4.123  0.00  0.00     0.078 C 
ATOM      2  C1' OXE d   1      -0.004  -0.734  -6.000  0.00  0.00     0.078 C 
ATOM      3  C1  OXE d   1      -0.335  -1.084  -4.571  0.00  0.00    -0.078 A 
ATOM      4  C2  OXE d   1       0.701  -1.104  -3.668  0.00  0.00    -0.078 A 
ATOM      5  C3  OXE d   1       0.441  -1.367  -2.326  0.00  0.00     0.003 A 
ATOM      6  C4  OXE d   1      -0.839  -1.761  -1.916  0.00  0.00    -0.002 A 
ATOM      7  C5  OXE d   1      -1.900  -1.785  -2.827  0.00  0.00    -0.002 A 
ATOM      8  C6  OXE d   1      -1.675  -1.409  -4.146  0.00  0.00     0.003 A 
ENDROOT
TORSDOF 0
ENDMDL
