MODEL 1
REMARK minimizedAffinity 10.0520382
REMARK minimizedRMSD -1
REMARK  0 active torsions:
REMARK  status: ('A' for Active; 'I' for Inactive)
ROOT
ATOM      1  C2' OXE d   1       1.499  -2.240   3.259  0.00  0.00     0.078 C 
ATOM      2  C1' OXE d   1       2.952  -0.023   4.183  0.00  0.00     0.078 C 
ATOM      3  C1  OXE d   1       3.373  -1.389   4.663  0.00  0.00    -0.078 A 
ATOM      4  C2  OXE d   1       2.627  -2.464   4.242  0.00  0.00    -0.078 A 
ATOM      5  C3  OXE d   1       3.006  -3.752   4.611  0.00  0.00     0.003 A 
ATOM      6  C4  OXE d   1       4.045  -3.950   5.528  0.00  0.00    -0.002 A 
ATOM      7  C5  OXE d   1       4.792  -2.866   6.000  0.00  0.00    -0.002 A 
ATOM      8  C6  OXE d   1       4.497  -1.586   5.544  0.00  0.00     0.003 A 
ENDROOT
TORSDOF 0
ENDMDL
