MODEL 1
REMARK minimizedAffinity 5.2741456
REMARK minimizedRMSD -1
REMARK  0 active torsions:
REMARK  status: ('A' for Active; 'I' for Inactive)
ROOT
ATOM      1  C2' OXE d   1       4.101  -4.086   5.032  0.00  0.00     0.078 C 
ATOM      2  C1' OXE d   1       2.316  -2.691   3.375  0.00  0.00     0.078 C 
ATOM      3  C1  OXE d   1       1.746  -3.740   4.297  0.00  0.00    -0.078 A 
ATOM      4  C2  OXE d   1       2.633  -4.450   5.070  0.00  0.00    -0.078 A 
ATOM      5  C3  OXE d   1       2.155  -5.392   5.978  0.00  0.00     0.003 A 
ATOM      6  C4  OXE d   1       0.797  -5.730   6.000  0.00  0.00    -0.002 A 
ATOM      7  C5  OXE d   1      -0.118  -5.046   5.191  0.00  0.00    -0.002 A 
ATOM      8  C6  OXE d   1       0.334  -4.022   4.367  0.00  0.00     0.003 A 
ENDROOT
TORSDOF 0
ENDMDL
