MODEL 1
REMARK minimizedAffinity -0.108876519
REMARK minimizedRMSD -1
REMARK  1 active torsions:
REMARK  status: ('A' for Active; 'I' for Inactive)
REMARK    1  A    between atoms: C3_4  and  O_7 
ROOT
ATOM      1  C   UNL d   1       0.610   2.919  -0.352  0.00  0.00    -0.033 A 
ATOM      2  C1  UNL d   1      -0.496   3.552  -0.923  0.00  0.00     0.039 A 
ATOM      3  C2  UNL d   1      -1.567   2.794  -1.400  0.00  0.00    -0.080 A 
ATOM      4  C3  UNL d   1      -1.520   1.406  -1.299  0.00  0.00     0.150 A 
ATOM      5  C4  UNL d   1      -0.424   0.769  -0.727  0.00  0.00    -0.007 A 
ATOM      6  C5  UNL d   1       0.645   1.528  -0.252  0.00  0.00     0.039 A 
ENDROOT
BRANCH   4   7
ATOM      7  O   UNL d   1      -2.539   0.624  -1.755  0.00  0.00    -0.526 OA
ATOM      8  H5  UNL d   1      -3.216   1.199  -2.150  0.00  0.00     0.418 HD
ENDBRANCH   4   7
TORSDOF 1
ENDMDL
