MODEL 1
REMARK minimizedAffinity 7.46100187
REMARK minimizedRMSD -1
REMARK  1 active torsions:
REMARK  status: ('A' for Active; 'I' for Inactive)
REMARK    1  A    between atoms: C3_4  and  O_7 
ROOT
ATOM      1  C   UNL d   1      -1.116   6.000   0.321  0.00  0.00    -0.033 A 
ATOM      2  C1  UNL d   1      -0.236   5.707  -0.722  0.00  0.00     0.039 A 
ATOM      3  C2  UNL d   1       0.345   4.440  -0.812  0.00  0.00    -0.080 A 
ATOM      4  C3  UNL d   1       0.037   3.477   0.145  0.00  0.00     0.150 A 
ATOM      5  C4  UNL d   1      -0.842   3.761   1.184  0.00  0.00    -0.007 A 
ATOM      6  C5  UNL d   1      -1.421   5.027   1.273  0.00  0.00     0.039 A 
ENDROOT
BRANCH   4   7
ATOM      7  O   UNL d   1       0.583   2.229   0.101  0.00  0.00    -0.526 OA
ATOM      8  H5  UNL d   1       1.193   2.186  -0.655  0.00  0.00     0.418 HD
ENDBRANCH   4   7
TORSDOF 1
ENDMDL
