MODEL 1
REMARK minimizedAffinity 6.92602539
REMARK minimizedRMSD -1
REMARK  1 active torsions:
REMARK  status: ('A' for Active; 'I' for Inactive)
REMARK    1  A    between atoms: C3_4  and  O_7 
ROOT
ATOM      1  C   UNL d   1       4.521  -3.156   0.808  0.00  0.00    -0.033 A 
ATOM      2  C1  UNL d   1       5.486  -3.876   0.100  0.00  0.00     0.039 A 
ATOM      3  C2  UNL d   1       5.968  -3.390  -1.117  0.00  0.00    -0.080 A 
ATOM      4  C3  UNL d   1       5.479  -2.184  -1.613  0.00  0.00     0.150 A 
ATOM      5  C4  UNL d   1       4.521  -1.461  -0.911  0.00  0.00    -0.007 A 
ATOM      6  C5  UNL d   1       4.040  -1.948   0.303  0.00  0.00     0.039 A 
ENDROOT
BRANCH   4   7
ATOM      7  O   UNL d   1       5.917  -1.672  -2.798  0.00  0.00    -0.526 OA
ATOM      8  H5  UNL d   1       6.556  -2.294  -3.185  0.00  0.00     0.418 HD
ENDBRANCH   4   7
TORSDOF 1
ENDMDL
