MODEL 1
REMARK minimizedAffinity 4.50239086
REMARK minimizedRMSD -1
REMARK  1 active torsions:
REMARK  status: ('A' for Active; 'I' for Inactive)
REMARK    1  A    between atoms: C3_4  and  O_7 
ROOT
ATOM      1  C   UNL d   1       5.506  -3.954  -0.596  0.00  0.00    -0.033 A 
ATOM      2  C1  UNL d   1       4.564  -3.892   0.433  0.00  0.00     0.039 A 
ATOM      3  C2  UNL d   1       3.731  -2.777   0.552  0.00  0.00    -0.080 A 
ATOM      4  C3  UNL d   1       3.849  -1.735  -0.363  0.00  0.00     0.150 A 
ATOM      5  C4  UNL d   1       4.783  -1.793  -1.392  0.00  0.00    -0.007 A 
ATOM      6  C5  UNL d   1       5.614  -2.906  -1.509  0.00  0.00     0.039 A 
ENDROOT
BRANCH   4   7
ATOM      7  O   UNL d   1       3.062  -0.625  -0.284  0.00  0.00    -0.526 OA
ATOM      8  H5  UNL d   1       2.485  -0.712   0.493  0.00  0.00     0.418 HD
ENDBRANCH   4   7
TORSDOF 1
ENDMDL
