MODEL 1
REMARK minimizedAffinity 4.73483133
REMARK minimizedRMSD -1
REMARK  1 active torsions:
REMARK  status: ('A' for Active; 'I' for Inactive)
REMARK    1  A    between atoms: C3_4  and  O_7 
ROOT
ATOM      1  C   UNL d   1      -0.373   5.999  -0.380  0.00  0.00    -0.033 A 
ATOM      2  C1  UNL d   1       0.538   4.993  -0.707  0.00  0.00     0.039 A 
ATOM      3  C2  UNL d   1       0.718   3.906   0.151  0.00  0.00    -0.080 A 
ATOM      4  C3  UNL d   1      -0.019   3.837   1.330  0.00  0.00     0.150 A 
ATOM      5  C4  UNL d   1      -0.931   4.835   1.660  0.00  0.00    -0.007 A 
ATOM      6  C5  UNL d   1      -1.109   5.919   0.803  0.00  0.00     0.039 A 
ENDROOT
BRANCH   4   7
ATOM      7  O   UNL d   1       0.126   2.799   2.201  0.00  0.00    -0.526 OA
ATOM      8  H5  UNL d   1       0.810   2.201   1.857  0.00  0.00     0.418 HD
ENDBRANCH   4   7
TORSDOF 1
ENDMDL
