MODEL 1
REMARK minimizedAffinity 0.362584084
REMARK minimizedRMSD -1
REMARK  2 active torsions:
REMARK  status: ('A' for Active; 'I' for Inactive)
REMARK    1  A    between atoms: C1_2  and  C2_3 
REMARK    2  A    between atoms: C2_3  and  C3_4 
ROOT
ATOM      1  C3  UNL d   1       0.286   4.136  -4.467  0.00  0.00    -0.075 A 
ATOM      2  C4  UNL d   1      -0.079   4.490  -5.774  0.00  0.00     0.002 A 
ATOM      3  C5  UNL d   1      -1.097   5.418  -5.998  0.00  0.00     0.002 A 
ATOM      4  C6  UNL d   1      -1.768   5.995  -4.922  0.00  0.00    -0.004 A 
ATOM      5  C7  UNL d   1      -1.424   5.638  -3.620  0.00  0.00     0.002 A 
ATOM      6  C8  UNL d   1      -0.403   4.713  -3.393  0.00  0.00     0.002 A 
ENDROOT
BRANCH   1   7
ATOM      7  C2  UNL d   1       1.406   3.155  -4.217  0.00  0.00     0.056 C 
BRANCH   7   8
ATOM      8  C1  UNL d   1       1.853   3.078  -2.754  0.00  0.00     0.007 C 
ATOM      9  C   UNL d   1       3.329   2.738  -2.593  0.00  0.00     0.009 C 
ENDBRANCH   7   8
ENDBRANCH   1   7
TORSDOF 2
ENDMDL
