MODEL 1
REMARK minimizedAffinity 2.35441756
REMARK minimizedRMSD -1
REMARK  2 active torsions:
REMARK  status: ('A' for Active; 'I' for Inactive)
REMARK    1  A    between atoms: C1_2  and  C2_3 
REMARK    2  A    between atoms: C2_3  and  C3_4 
ROOT
ATOM      1  C3  UNL d   1      -0.542   4.029  -5.733  0.00  0.00    -0.075 A 
ATOM      2  C4  UNL d   1      -1.577   3.093  -5.878  0.00  0.00     0.002 A 
ATOM      3  C5  UNL d   1      -2.901   3.514  -6.000  0.00  0.00     0.002 A 
ATOM      4  C6  UNL d   1      -3.209   4.873  -5.969  0.00  0.00    -0.004 A 
ATOM      5  C7  UNL d   1      -2.191   5.810  -5.809  0.00  0.00     0.002 A 
ATOM      6  C8  UNL d   1      -0.865   5.392  -5.691  0.00  0.00     0.002 A 
ENDROOT
BRANCH   1   7
ATOM      7  C2  UNL d   1       0.896   3.581  -5.631  0.00  0.00     0.056 C 
BRANCH   7   8
ATOM      8  C1  UNL d   1       1.109   2.094  -5.932  0.00  0.00     0.007 C 
ATOM      9  C   UNL d   1       2.579   1.699  -6.000  0.00  0.00     0.009 C 
ENDBRANCH   7   8
ENDBRANCH   1   7
TORSDOF 2
ENDMDL
