MODEL 1
REMARK minimizedAffinity 0.784878731
REMARK minimizedRMSD -1
REMARK  2 active torsions:
REMARK  status: ('A' for Active; 'I' for Inactive)
REMARK    1  A    between atoms: C1_2  and  C2_3 
REMARK    2  A    between atoms: C2_3  and  C3_4 
ROOT
ATOM      1  C3  UNL d   1      -0.896   4.195  -5.980  0.00  0.00    -0.075 A 
ATOM      2  C4  UNL d   1       0.213   5.053  -5.968  0.00  0.00     0.002 A 
ATOM      3  C5  UNL d   1       1.509   4.536  -5.982  0.00  0.00     0.002 A 
ATOM      4  C6  UNL d   1       1.712   3.158  -5.997  0.00  0.00    -0.004 A 
ATOM      5  C7  UNL d   1       0.618   2.296  -5.992  0.00  0.00     0.002 A 
ATOM      6  C8  UNL d   1      -0.680   2.811  -5.983  0.00  0.00     0.002 A 
ENDROOT
BRANCH   1   7
ATOM      7  C2  UNL d   1      -2.301   4.749  -5.995  0.00  0.00     0.056 C 
BRANCH   7   8
ATOM      8  C1  UNL d   1      -2.555   5.834  -4.944  0.00  0.00     0.007 C 
ATOM      9  C   UNL d   1      -1.757   5.628  -3.663  0.00  0.00     0.009 C 
ENDBRANCH   7   8
ENDBRANCH   1   7
TORSDOF 2
ENDMDL
