MODEL 1
REMARK minimizedAffinity 2.61729026
REMARK minimizedRMSD -1
REMARK  2 active torsions:
REMARK  status: ('A' for Active; 'I' for Inactive)
REMARK    1  A    between atoms: C1_2  and  C2_3 
REMARK    2  A    between atoms: C2_3  and  C3_4 
ROOT
ATOM      1  C3  UNL d   1       0.069   4.475  -5.560  0.00  0.00    -0.075 A 
ATOM      2  C4  UNL d   1      -0.456   5.453  -4.703  0.00  0.00     0.002 A 
ATOM      3  C5  UNL d   1      -1.783   5.384  -4.278  0.00  0.00     0.002 A 
ATOM      4  C6  UNL d   1      -2.603   4.344  -4.712  0.00  0.00    -0.004 A 
ATOM      5  C7  UNL d   1      -2.096   3.376  -5.576  0.00  0.00     0.002 A 
ATOM      6  C8  UNL d   1      -0.768   3.441  -5.999  0.00  0.00     0.002 A 
ENDROOT
BRANCH   1   7
ATOM      7  C2  UNL d   1       1.513   4.529  -6.000  0.00  0.00     0.056 C 
BRANCH   7   8
ATOM      8  C1  UNL d   1       2.216   3.167  -5.999  0.00  0.00     0.007 C 
ATOM      9  C   UNL d   1       3.734   3.275  -5.944  0.00  0.00     0.009 C 
ENDBRANCH   7   8
ENDBRANCH   1   7
TORSDOF 2
ENDMDL
