MODEL 1
REMARK minimizedAffinity 3.90990305
REMARK minimizedRMSD -1
REMARK  2 active torsions:
REMARK  status: ('A' for Active; 'I' for Inactive)
REMARK    1  A    between atoms: C1_2  and  C2_3 
REMARK    2  A    between atoms: C2_3  and  C3_4 
ROOT
ATOM      1  C3  UNL d   1      -2.104   3.461  -5.982  0.00  0.00    -0.075 A 
ATOM      2  C4  UNL d   1      -3.506   3.424  -5.989  0.00  0.00     0.002 A 
ATOM      3  C5  UNL d   1      -4.246   4.607  -6.000  0.00  0.00     0.002 A 
ATOM      4  C6  UNL d   1      -3.595   5.839  -5.993  0.00  0.00    -0.004 A 
ATOM      5  C7  UNL d   1      -2.203   5.887  -5.969  0.00  0.00     0.002 A 
ATOM      6  C8  UNL d   1      -1.460   4.705  -5.962  0.00  0.00     0.002 A 
ENDROOT
BRANCH   1   7
ATOM      7  C2  UNL d   1      -1.297   2.184  -6.000  0.00  0.00     0.056 C 
BRANCH   7   8
ATOM      8  C1  UNL d   1       0.084   2.310  -5.347  0.00  0.00     0.007 C 
ATOM      9  C   UNL d   1       0.018   2.594  -3.853  0.00  0.00     0.009 C 
ENDBRANCH   7   8
ENDBRANCH   1   7
TORSDOF 2
ENDMDL
