MODEL 1
REMARK minimizedAffinity -0.706365943
REMARK minimizedRMSD -1
REMARK  2 active torsions:
REMARK  status: ('A' for Active; 'I' for Inactive)
REMARK    1  A    between atoms: C1_2  and  C2_3 
REMARK    2  A    between atoms: C2_3  and  C3_4 
ROOT
ATOM      1  C3  UNL d   1      -1.427   4.484  -5.956  0.00  0.00    -0.075 A 
ATOM      2  C4  UNL d   1      -2.048   5.741  -5.934  0.00  0.00     0.002 A 
ATOM      3  C5  UNL d   1      -3.439   5.844  -5.932  0.00  0.00     0.002 A 
ATOM      4  C6  UNL d   1      -4.226   4.695  -5.961  0.00  0.00    -0.004 A 
ATOM      5  C7  UNL d   1      -3.620   3.441  -5.999  0.00  0.00     0.002 A 
ATOM      6  C8  UNL d   1      -2.228   3.335  -5.997  0.00  0.00     0.002 A 
ENDROOT
BRANCH   1   7
ATOM      7  C2  UNL d   1       0.078   4.365  -5.929  0.00  0.00     0.056 C 
BRANCH   7   8
ATOM      8  C1  UNL d   1       0.587   2.930  -5.759  0.00  0.00     0.007 C 
ATOM      9  C   UNL d   1       0.869   2.561  -4.309  0.00  0.00     0.009 C 
ENDBRANCH   7   8
ENDBRANCH   1   7
TORSDOF 2
ENDMDL
