MODEL 1
REMARK minimizedAffinity 2.6905582
REMARK minimizedRMSD -1
REMARK  2 active torsions:
REMARK  status: ('A' for Active; 'I' for Inactive)
REMARK    1  A    between atoms: C1_2  and  C2_3 
REMARK    2  A    between atoms: C2_3  and  C3_4 
ROOT
ATOM      1  C3  UNL d   1       0.709   4.219  -5.982  0.00  0.00    -0.075 A 
ATOM      2  C4  UNL d   1      -0.280   3.225  -5.964  0.00  0.00     0.002 A 
ATOM      3  C5  UNL d   1      -1.632   3.571  -5.974  0.00  0.00     0.002 A 
ATOM      4  C6  UNL d   1      -2.011   4.912  -5.992  0.00  0.00    -0.004 A 
ATOM      5  C7  UNL d   1      -1.037   5.907  -5.994  0.00  0.00     0.002 A 
ATOM      6  C8  UNL d   1       0.317   5.564  -5.988  0.00  0.00     0.002 A 
ENDROOT
BRANCH   1   7
ATOM      7  C2  UNL d   1       2.174   3.851  -6.000  0.00  0.00     0.056 C 
BRANCH   7   8
ATOM      8  C1  UNL d   1       3.120   5.056  -5.986  0.00  0.00     0.007 C 
ATOM      9  C   UNL d   1       4.584   4.668  -5.829  0.00  0.00     0.009 C 
ENDBRANCH   7   8
ENDBRANCH   1   7
TORSDOF 2
ENDMDL
