MODEL 1
REMARK minimizedAffinity -4.06043339
REMARK minimizedRMSD -1
REMARK  2 active torsions:
REMARK  status: ('A' for Active; 'I' for Inactive)
REMARK    1  A    between atoms: C1_2  and  C2_3 
REMARK    2  A    between atoms: C2_3  and  C3_4 
ROOT
ATOM      1  C3  UNL d   1       0.632   3.392  -5.981  0.00  0.00    -0.075 A 
ATOM      2  C4  UNL d   1      -0.400   2.442  -5.964  0.00  0.00     0.002 A 
ATOM      3  C5  UNL d   1      -1.735   2.847  -5.979  0.00  0.00     0.002 A 
ATOM      4  C6  UNL d   1      -2.055   4.203  -6.000  0.00  0.00    -0.004 A 
ATOM      5  C7  UNL d   1      -1.038   5.155  -6.000  0.00  0.00     0.002 A 
ATOM      6  C8  UNL d   1       0.299   4.753  -5.990  0.00  0.00     0.002 A 
ENDROOT
BRANCH   1   7
ATOM      7  C2  UNL d   1       2.079   2.960  -5.995  0.00  0.00     0.056 C 
BRANCH   7   8
ATOM      8  C1  UNL d   1       3.077   4.123  -5.990  0.00  0.00     0.007 C 
ATOM      9  C   UNL d   1       4.370   3.802  -5.252  0.00  0.00     0.009 C 
ENDBRANCH   7   8
ENDBRANCH   1   7
TORSDOF 2
ENDMDL
