MODEL 1
REMARK minimizedAffinity -1.94654906
REMARK minimizedRMSD -1
REMARK  2 active torsions:
REMARK  status: ('A' for Active; 'I' for Inactive)
REMARK    1  A    between atoms: C1_2  and  C2_3 
REMARK    2  A    between atoms: C2_3  and  C3_4 
ROOT
ATOM      1  C3  UNL d   1      -1.643   3.415  -5.956  0.00  0.00    -0.075 A 
ATOM      2  C4  UNL d   1      -1.185   4.740  -5.987  0.00  0.00     0.002 A 
ATOM      3  C5  UNL d   1      -2.086   5.803  -5.920  0.00  0.00     0.002 A 
ATOM      4  C6  UNL d   1      -3.454   5.556  -5.831  0.00  0.00    -0.004 A 
ATOM      5  C7  UNL d   1      -3.922   4.244  -5.816  0.00  0.00     0.002 A 
ATOM      6  C8  UNL d   1      -3.022   3.178  -5.879  0.00  0.00     0.002 A 
ENDROOT
BRANCH   1   7
ATOM      7  C2  UNL d   1      -0.671   2.260  -5.998  0.00  0.00     0.056 C 
BRANCH   7   8
ATOM      8  C1  UNL d   1       0.801   2.684  -5.998  0.00  0.00     0.007 C 
ATOM      9  C   UNL d   1       1.574   2.169  -4.791  0.00  0.00     0.009 C 
ENDBRANCH   7   8
ENDBRANCH   1   7
TORSDOF 2
ENDMDL
