MODEL 1
REMARK minimizedAffinity 8.09008884
REMARK minimizedRMSD -1
REMARK  2 active torsions:
REMARK  status: ('A' for Active; 'I' for Inactive)
REMARK    1  A    between atoms: C1_2  and  C2_3 
REMARK    2  A    between atoms: C2_3  and  C3_4 
ROOT
ATOM      1  C3  UNL d   1      -0.597  -2.711  -0.897  0.00  0.00    -0.075 A 
ATOM      2  C4  UNL d   1       0.800  -2.790  -0.990  0.00  0.00     0.002 A 
ATOM      3  C5  UNL d   1       1.605  -1.801  -0.424  0.00  0.00     0.002 A 
ATOM      4  C6  UNL d   1       1.025  -0.718   0.232  0.00  0.00    -0.004 A 
ATOM      5  C7  UNL d   1      -0.362  -0.620   0.316  0.00  0.00     0.002 A 
ATOM      6  C8  UNL d   1      -1.170  -1.610  -0.246  0.00  0.00     0.002 A 
ENDROOT
BRANCH   1   7
ATOM      7  C2  UNL d   1      -1.473  -3.793  -1.482  0.00  0.00     0.056 C 
BRANCH   7   8
ATOM      8  C1  UNL d   1      -2.164  -4.671  -0.434  0.00  0.00     0.007 C 
ATOM      9  C   UNL d   1      -3.639  -4.911  -0.729  0.00  0.00     0.009 C 
ENDBRANCH   7   8
ENDBRANCH   1   7
TORSDOF 2
ENDMDL
