MODEL 1
REMARK minimizedAffinity -1.96069086
REMARK minimizedRMSD -1
REMARK  2 active torsions:
REMARK  status: ('A' for Active; 'I' for Inactive)
REMARK    1  A    between atoms: C1_2  and  C2_3 
REMARK    2  A    between atoms: C2_3  and  C3_4 
ROOT
ATOM      1  C3  UNL d   1       0.001   3.409  -5.984  0.00  0.00    -0.075 A 
ATOM      2  C4  UNL d   1      -1.139   2.592  -5.967  0.00  0.00     0.002 A 
ATOM      3  C5  UNL d   1      -2.415   3.155  -5.980  0.00  0.00     0.002 A 
ATOM      4  C6  UNL d   1      -2.568   4.540  -5.999  0.00  0.00    -0.004 A 
ATOM      5  C7  UNL d   1      -1.444   5.362  -6.000  0.00  0.00     0.002 A 
ATOM      6  C8  UNL d   1      -0.165   4.801  -5.991  0.00  0.00     0.002 A 
ENDROOT
BRANCH   1   7
ATOM      7  C2  UNL d   1       1.385   2.805  -6.000  0.00  0.00     0.056 C 
BRANCH   7   8
ATOM      8  C1  UNL d   1       2.516   3.838  -5.975  0.00  0.00     0.007 C 
ATOM      9  C   UNL d   1       3.903   3.210  -5.985  0.00  0.00     0.009 C 
ENDBRANCH   7   8
ENDBRANCH   1   7
TORSDOF 2
ENDMDL
