MODEL 1
REMARK minimizedAffinity -2.11452532
REMARK minimizedRMSD -1
REMARK  2 active torsions:
REMARK  status: ('A' for Active; 'I' for Inactive)
REMARK    1  A    between atoms: C1_2  and  C2_3 
REMARK    2  A    between atoms: C2_3  and  C3_4 
ROOT
ATOM      1  C3  UNL d   1      -1.212   3.405  -5.931  0.00  0.00    -0.075 A 
ATOM      2  C4  UNL d   1      -2.482   2.810  -5.976  0.00  0.00     0.002 A 
ATOM      3  C5  UNL d   1      -3.633   3.598  -5.995  0.00  0.00     0.002 A 
ATOM      4  C6  UNL d   1      -3.530   4.987  -5.961  0.00  0.00    -0.004 A 
ATOM      5  C7  UNL d   1      -2.275   5.588  -5.899  0.00  0.00     0.002 A 
ATOM      6  C8  UNL d   1      -1.121   4.802  -5.884  0.00  0.00     0.002 A 
ENDROOT
BRANCH   1   7
ATOM      7  C2  UNL d   1       0.038   2.558  -5.939  0.00  0.00     0.056 C 
BRANCH   7   8
ATOM      8  C1  UNL d   1       1.339   3.366  -5.871  0.00  0.00     0.007 C 
ATOM      9  C   UNL d   1       2.588   2.504  -5.998  0.00  0.00     0.009 C 
ENDBRANCH   7   8
ENDBRANCH   1   7
TORSDOF 2
ENDMDL
