MODEL 1
REMARK minimizedAffinity -3.59352636
REMARK minimizedRMSD -1
REMARK  2 active torsions:
REMARK  status: ('A' for Active; 'I' for Inactive)
REMARK    1  A    between atoms: C2'_3  and  C1'_4 
REMARK    2  A    between atoms: C1'_4  and  C1_5 
ROOT
ATOM      1  C1  I4B d   1       0.032  -0.572  -0.421  0.00  0.00    -0.075 A 
ATOM      2  C2  I4B d   1       0.529   0.529  -1.074  0.00  0.00     0.003 A 
ATOM      3  C3  I4B d   1       0.114   1.829  -0.696  0.00  0.00     0.002 A 
ATOM      4  C4  I4B d   1      -0.831   1.979   0.298  0.00  0.00    -0.004 A 
ATOM      5  C5  I4B d   1      -1.316   0.863   0.974  0.00  0.00     0.002 A 
ATOM      6  C6  I4B d   1      -0.873  -0.420   0.621  0.00  0.00     0.003 A 
ENDROOT
BRANCH   1   7
ATOM      7  C1' I4B d   1       0.467  -1.932  -0.868  0.00  0.00     0.060 C 
BRANCH   7   8
ATOM      8  C2' I4B d   1      -0.757  -2.824  -0.905  0.00  0.00    -0.013 C 
ATOM      9  C4' I4B d   1      -1.428  -2.773  -2.252  0.00  0.00     0.013 C 
ATOM     10  C3' I4B d   1      -0.323  -4.219  -0.569  0.00  0.00     0.013 C 
ENDBRANCH   7   8
ENDBRANCH   1   7
TORSDOF 2
ENDMDL
