MODEL 1
REMARK minimizedAffinity -4.67977476
REMARK minimizedRMSD -1
REMARK  2 active torsions:
REMARK  status: ('A' for Active; 'I' for Inactive)
REMARK    1  A    between atoms: C2'_3  and  C1'_4 
REMARK    2  A    between atoms: C1'_4  and  C1_5 
ROOT
ATOM      1  C1  I4B d   1       0.097  -0.201  -0.198  0.00  0.00    -0.075 A 
ATOM      2  C2  I4B d   1       0.578  -0.266   1.086  0.00  0.00     0.003 A 
ATOM      3  C3  I4B d   1       0.206   0.715   2.037  0.00  0.00     0.002 A 
ATOM      4  C4  I4B d   1      -0.602   1.764   1.650  0.00  0.00    -0.004 A 
ATOM      5  C5  I4B d   1      -1.107   1.816   0.354  0.00  0.00     0.002 A 
ATOM      6  C6  I4B d   1      -0.765   0.821  -0.573  0.00  0.00     0.003 A 
ENDROOT
BRANCH   1   7
ATOM      7  C1' I4B d   1       0.536  -1.236  -1.185  0.00  0.00     0.060 C 
BRANCH   7   8
ATOM      8  C2' I4B d   1      -0.191  -2.526  -0.864  0.00  0.00    -0.013 C 
ATOM      9  C4' I4B d   1      -1.383  -2.718  -1.764  0.00  0.00     0.013 C 
ATOM     10  C3' I4B d   1       0.785  -3.655  -1.009  0.00  0.00     0.013 C 
ENDBRANCH   7   8
ENDBRANCH   1   7
TORSDOF 2
ENDMDL
