MODEL 1
REMARK minimizedAffinity -5.09081936
REMARK minimizedRMSD -1
REMARK  2 active torsions:
REMARK  status: ('A' for Active; 'I' for Inactive)
REMARK    1  A    between atoms: C2'_3  and  C1'_4 
REMARK    2  A    between atoms: C1'_4  and  C1_5 
ROOT
ATOM      1  C1  I4B d   1       0.107   0.094  -0.133  0.00  0.00    -0.075 A 
ATOM      2  C2  I4B d   1      -0.665   1.166  -0.507  0.00  0.00     0.003 A 
ATOM      3  C3  I4B d   1      -1.095   2.107   0.459  0.00  0.00     0.002 A 
ATOM      4  C4  I4B d   1      -0.776   1.911   1.787  0.00  0.00    -0.004 A 
ATOM      5  C5  I4B d   1       0.025   0.836   2.162  0.00  0.00     0.002 A 
ATOM      6  C6  I4B d   1       0.480  -0.071   1.194  0.00  0.00     0.003 A 
ENDROOT
BRANCH   1   7
ATOM      7  C1' I4B d   1       0.516  -0.898  -1.175  0.00  0.00     0.060 C 
BRANCH   7   8
ATOM      8  C2' I4B d   1      -0.066  -2.244  -0.792  0.00  0.00    -0.013 C 
ATOM      9  C4' I4B d   1      -1.123  -2.679  -1.773  0.00  0.00     0.013 C 
ATOM     10  C3' I4B d   1       1.058  -3.235  -0.732  0.00  0.00     0.013 C 
ENDBRANCH   7   8
ENDBRANCH   1   7
TORSDOF 2
ENDMDL
