MODEL 1
REMARK minimizedAffinity -4.46683884
REMARK minimizedRMSD -1
REMARK  2 active torsions:
REMARK  status: ('A' for Active; 'I' for Inactive)
REMARK    1  A    between atoms: C2'_3  and  C1'_4 
REMARK    2  A    between atoms: C1'_4  and  C1_5 
ROOT
ATOM      1  C1  I4B d   1      -0.321  -1.147  -0.490  0.00  0.00    -0.075 A 
ATOM      2  C2  I4B d   1      -1.511  -1.787  -0.731  0.00  0.00     0.003 A 
ATOM      3  C3  I4B d   1      -1.520  -3.121  -1.206  0.00  0.00     0.002 A 
ATOM      4  C4  I4B d   1      -0.324  -3.755  -1.473  0.00  0.00    -0.004 A 
ATOM      5  C5  I4B d   1       0.882  -3.113  -1.206  0.00  0.00     0.002 A 
ATOM      6  C6  I4B d   1       0.884  -1.805  -0.700  0.00  0.00     0.003 A 
ENDROOT
BRANCH   1   7
ATOM      7  C1' I4B d   1      -0.348   0.272  -0.019  0.00  0.00     0.060 C 
BRANCH   7   8
ATOM      8  C2' I4B d   1      -0.460   0.261   1.492  0.00  0.00    -0.013 C 
ATOM      9  C4' I4B d   1       0.862  -0.065   2.134  0.00  0.00     0.013 C 
ATOM     10  C3' I4B d   1      -0.958   1.607   1.929  0.00  0.00     0.013 C 
ENDBRANCH   7   8
ENDBRANCH   1   7
TORSDOF 2
ENDMDL
