MODEL 1
REMARK minimizedAffinity -4.04921198
REMARK minimizedRMSD -1
REMARK  2 active torsions:
REMARK  status: ('A' for Active; 'I' for Inactive)
REMARK    1  A    between atoms: C2'_3  and  C1'_4 
REMARK    2  A    between atoms: C1'_4  and  C1_5 
ROOT
ATOM      1  C1  I4B d   1       0.001   0.704   0.554  0.00  0.00    -0.075 A 
ATOM      2  C2  I4B d   1      -0.026   1.218  -0.719  0.00  0.00     0.003 A 
ATOM      3  C3  I4B d   1      -0.100   2.618  -0.920  0.00  0.00     0.002 A 
ATOM      4  C4  I4B d   1      -0.195   3.457   0.171  0.00  0.00    -0.004 A 
ATOM      5  C5  I4B d   1      -0.145   2.936   1.460  0.00  0.00     0.002 A 
ATOM      6  C6  I4B d   1      -0.033   1.551   1.654  0.00  0.00     0.003 A 
ENDROOT
BRANCH   1   7
ATOM      7  C1' I4B d   1       0.047  -0.781   0.730  0.00  0.00     0.060 C 
BRANCH   7   8
ATOM      8  C2' I4B d   1      -0.041  -1.417  -0.643  0.00  0.00    -0.013 C 
ATOM      9  C4' I4B d   1       1.103  -2.367  -0.878  0.00  0.00     0.013 C 
ATOM     10  C3' I4B d   1      -1.360  -2.123  -0.743  0.00  0.00     0.013 C 
ENDBRANCH   7   8
ENDBRANCH   1   7
TORSDOF 2
ENDMDL
