MODEL 1
REMARK minimizedAffinity 4.99331999
REMARK minimizedRMSD -1
REMARK  2 active torsions:
REMARK  status: ('A' for Active; 'I' for Inactive)
REMARK    1  A    between atoms: C2'_3  and  C1'_4 
REMARK    2  A    between atoms: C1'_4  and  C1_5 
ROOT
ATOM      1  C1  I4B d   1      -1.672  -3.619  -2.517  0.00  0.00    -0.075 A 
ATOM      2  C2  I4B d   1      -2.687  -2.707  -2.366  0.00  0.00     0.003 A 
ATOM      3  C3  I4B d   1      -2.997  -1.806  -3.412  0.00  0.00     0.002 A 
ATOM      4  C4  I4B d   1      -2.239  -1.817  -4.566  0.00  0.00    -0.004 A 
ATOM      5  C5  I4B d   1      -1.226  -2.758  -4.727  0.00  0.00     0.002 A 
ATOM      6  C6  I4B d   1      -0.948  -3.673  -3.701  0.00  0.00     0.003 A 
ENDROOT
BRANCH   1   7
ATOM      7  C1' I4B d   1      -1.350  -4.535  -1.379  0.00  0.00     0.060 C 
BRANCH   7   8
ATOM      8  C2' I4B d   1      -0.017  -4.107  -0.798  0.00  0.00    -0.013 C 
ATOM      9  C4' I4B d   1      -0.164  -2.873   0.052  0.00  0.00     0.013 C 
ATOM     10  C3' I4B d   1       0.529  -5.253  -0.000  0.00  0.00     0.013 C 
ENDBRANCH   7   8
ENDBRANCH   1   7
TORSDOF 2
ENDMDL
