MODEL 1
REMARK minimizedAffinity 4.52621794
REMARK minimizedRMSD -1
REMARK  2 active torsions:
REMARK  status: ('A' for Active; 'I' for Inactive)
REMARK    1  A    between atoms: C1_2  and  C2_3 
REMARK    2  A    between atoms: C2_3  and  C3_4 
ROOT
ATOM      1  C3  UNL d   1       0.886   1.311  -0.249  0.00  0.00    -0.075 A 
ATOM      2  C4  UNL d   1       0.499   2.605  -0.626  0.00  0.00     0.002 A 
ATOM      3  C5  UNL d   1      -0.796   3.059  -0.374  0.00  0.00     0.002 A 
ATOM      4  C6  UNL d   1      -1.722   2.224   0.248  0.00  0.00    -0.004 A 
ATOM      5  C7  UNL d   1      -1.353   0.930   0.612  0.00  0.00     0.002 A 
ATOM      6  C8  UNL d   1      -0.057   0.475   0.365  0.00  0.00     0.002 A 
ENDROOT
BRANCH   1   7
ATOM      7  C2  UNL d   1       2.294   0.824  -0.492  0.00  0.00     0.056 C 
BRANCH   7   8
ATOM      8  C1  UNL d   1       2.374  -0.472  -1.306  0.00  0.00     0.007 C 
ATOM      9  C   UNL d   1       2.777  -0.245  -2.757  0.00  0.00     0.009 C 
ENDBRANCH   7   8
ENDBRANCH   1   7
TORSDOF 2
ENDMDL
