MODEL 1
REMARK minimizedAffinity 3.84189987
REMARK minimizedRMSD -1
REMARK  2 active torsions:
REMARK  status: ('A' for Active; 'I' for Inactive)
REMARK    1  A    between atoms: C1_2  and  C2_3 
REMARK    2  A    between atoms: C2_3  and  C3_4 
ROOT
ATOM      1  C3  UNL d   1      -1.503   3.538  -5.870  0.00  0.00    -0.075 A 
ATOM      2  C4  UNL d   1      -0.933   4.819  -5.907  0.00  0.00     0.002 A 
ATOM      3  C5  UNL d   1      -1.743   5.953  -5.965  0.00  0.00     0.002 A 
ATOM      4  C6  UNL d   1      -3.130   5.821  -5.997  0.00  0.00    -0.004 A 
ATOM      5  C7  UNL d   1      -3.706   4.553  -5.978  0.00  0.00     0.002 A 
ATOM      6  C8  UNL d   1      -2.898   3.417  -5.915  0.00  0.00     0.002 A 
ENDROOT
BRANCH   1   7
ATOM      7  C2  UNL d   1      -0.632   2.308  -5.777  0.00  0.00     0.056 C 
BRANCH   7   8
ATOM      8  C1  UNL d   1       0.861   2.583  -5.987  0.00  0.00     0.007 C 
ATOM      9  C   UNL d   1       1.762   1.650  -5.189  0.00  0.00     0.009 C 
ENDBRANCH   7   8
ENDBRANCH   1   7
TORSDOF 2
ENDMDL
