MODEL 1
REMARK minimizedAffinity 5.25460577
REMARK minimizedRMSD -1
REMARK  2 active torsions:
REMARK  status: ('A' for Active; 'I' for Inactive)
REMARK    1  A    between atoms: C1_2  and  C2_3 
REMARK    2  A    between atoms: C2_3  and  C3_4 
ROOT
ATOM      1  C3  UNL d   1      -1.437   3.604  -5.968  0.00  0.00    -0.075 A 
ATOM      2  C4  UNL d   1      -2.809   3.315  -5.981  0.00  0.00     0.002 A 
ATOM      3  C5  UNL d   1      -3.750   4.345  -5.993  0.00  0.00     0.002 A 
ATOM      4  C6  UNL d   1      -3.332   5.674  -5.983  0.00  0.00    -0.004 A 
ATOM      5  C7  UNL d   1      -1.971   5.973  -5.954  0.00  0.00     0.002 A 
ATOM      6  C8  UNL d   1      -1.028   4.944  -5.946  0.00  0.00     0.002 A 
ENDROOT
BRANCH   1   7
ATOM      7  C2  UNL d   1      -0.414   2.494  -5.984  0.00  0.00     0.056 C 
BRANCH   7   8
ATOM      8  C1  UNL d   1       0.833   2.782  -5.141  0.00  0.00     0.007 C 
ATOM      9  C   UNL d   1       2.123   2.757  -5.950  0.00  0.00     0.009 C 
ENDBRANCH   7   8
ENDBRANCH   1   7
TORSDOF 2
ENDMDL
