MODEL 1
REMARK minimizedAffinity 6.36996317
REMARK minimizedRMSD -1
REMARK  2 active torsions:
REMARK  status: ('A' for Active; 'I' for Inactive)
REMARK    1  A    between atoms: C1_2  and  C2_3 
REMARK    2  A    between atoms: C2_3  and  C3_4 
ROOT
ATOM      1  C3  UNL d   1       0.637   1.242  -0.017  0.00  0.00    -0.075 A 
ATOM      2  C4  UNL d   1       0.200   2.526  -0.374  0.00  0.00     0.002 A 
ATOM      3  C5  UNL d   1      -1.093   2.946  -0.062  0.00  0.00     0.002 A 
ATOM      4  C6  UNL d   1      -1.968   2.087   0.600  0.00  0.00    -0.004 A 
ATOM      5  C7  UNL d   1      -1.550   0.803   0.944  0.00  0.00     0.002 A 
ATOM      6  C8  UNL d   1      -0.255   0.382   0.637  0.00  0.00     0.002 A 
ENDROOT
BRANCH   1   7
ATOM      7  C2  UNL d   1       2.045   0.792  -0.325  0.00  0.00     0.056 C 
BRANCH   7   8
ATOM      8  C1  UNL d   1       2.123  -0.541  -1.078  0.00  0.00     0.007 C 
ATOM      9  C   UNL d   1       2.882  -0.443  -2.395  0.00  0.00     0.009 C 
ENDBRANCH   7   8
ENDBRANCH   1   7
TORSDOF 2
ENDMDL
