MODEL 1
REMARK minimizedAffinity 1.07632828
REMARK minimizedRMSD -1
REMARK  2 active torsions:
REMARK  status: ('A' for Active; 'I' for Inactive)
REMARK    1  A    between atoms: C1_2  and  C2_3 
REMARK    2  A    between atoms: C2_3  and  C3_4 
ROOT
ATOM      1  C3  UNL d   1      -2.920   3.673  -5.995  0.00  0.00    -0.075 A 
ATOM      2  C4  UNL d   1      -2.606   5.040  -6.000  0.00  0.00     0.002 A 
ATOM      3  C5  UNL d   1      -3.620   5.999  -5.987  0.00  0.00     0.002 A 
ATOM      4  C6  UNL d   1      -4.956   5.605  -5.980  0.00  0.00    -0.004 A 
ATOM      5  C7  UNL d   1      -5.279   4.250  -5.991  0.00  0.00     0.002 A 
ATOM      6  C8  UNL d   1      -4.267   3.288  -6.000  0.00  0.00     0.002 A 
ENDROOT
BRANCH   1   7
ATOM      7  C2  UNL d   1      -1.828   2.630  -5.979  0.00  0.00     0.056 C 
BRANCH   7   8
ATOM      8  C1  UNL d   1      -0.616   3.009  -5.121  0.00  0.00     0.007 C 
ATOM      9  C   UNL d   1      -0.984   3.375  -3.690  0.00  0.00     0.009 C 
ENDBRANCH   7   8
ENDBRANCH   1   7
TORSDOF 2
ENDMDL
