MODEL 1
REMARK minimizedAffinity 10.6463051
REMARK minimizedRMSD -1
REMARK  2 active torsions:
REMARK  status: ('A' for Active; 'I' for Inactive)
REMARK    1  A    between atoms: C1_2  and  C2_3 
REMARK    2  A    between atoms: C2_3  and  C3_4 
ROOT
ATOM      1  C3  UNL d   1       1.842  -0.081  -0.526  0.00  0.00    -0.075 A 
ATOM      2  C4  UNL d   1       2.646   0.934  -1.065  0.00  0.00     0.002 A 
ATOM      3  C5  UNL d   1       3.474   0.675  -2.158  0.00  0.00     0.002 A 
ATOM      4  C6  UNL d   1       3.516  -0.599  -2.718  0.00  0.00    -0.004 A 
ATOM      5  C7  UNL d   1       2.734  -1.619  -2.180  0.00  0.00     0.002 A 
ATOM      6  C8  UNL d   1       1.901  -1.363  -1.089  0.00  0.00     0.002 A 
ENDROOT
BRANCH   1   7
ATOM      7  C2  UNL d   1       0.921   0.199   0.638  0.00  0.00     0.056 C 
BRANCH   7   8
ATOM      8  C1  UNL d   1      -0.255   1.120   0.296  0.00  0.00     0.007 C 
ATOM      9  C   UNL d   1      -1.558   0.703   0.964  0.00  0.00     0.009 C 
ENDBRANCH   7   8
ENDBRANCH   1   7
TORSDOF 2
ENDMDL
