MODEL 1
REMARK minimizedAffinity 7.55662298
REMARK minimizedRMSD -1
REMARK  2 active torsions:
REMARK  status: ('A' for Active; 'I' for Inactive)
REMARK    1  A    between atoms: C1_2  and  C2_3 
REMARK    2  A    between atoms: C2_3  and  C3_4 
ROOT
ATOM      1  C3  UNL d   1      -3.542   3.529  -5.910  0.00  0.00    -0.075 A 
ATOM      2  C4  UNL d   1      -3.398   4.924  -5.945  0.00  0.00     0.002 A 
ATOM      3  C5  UNL d   1      -4.518   5.753  -5.886  0.00  0.00     0.002 A 
ATOM      4  C6  UNL d   1      -5.794   5.201  -5.800  0.00  0.00    -0.004 A 
ATOM      5  C7  UNL d   1      -5.950   3.816  -5.782  0.00  0.00     0.002 A 
ATOM      6  C8  UNL d   1      -4.830   2.984  -5.837  0.00  0.00     0.002 A 
ENDROOT
BRANCH   1   7
ATOM      7  C2  UNL d   1      -2.331   2.627  -5.945  0.00  0.00     0.056 C 
BRANCH   7   8
ATOM      8  C1  UNL d   1      -0.994   3.375  -5.925  0.00  0.00     0.007 C 
ATOM      9  C   UNL d   1       0.213   2.449  -5.986  0.00  0.00     0.009 C 
ENDBRANCH   7   8
ENDBRANCH   1   7
TORSDOF 2
ENDMDL
