MODEL 1
REMARK minimizedAffinity 9.36001492
REMARK minimizedRMSD -1
REMARK  2 active torsions:
REMARK  status: ('A' for Active; 'I' for Inactive)
REMARK    1  A    between atoms: C1_2  and  C2_3 
REMARK    2  A    between atoms: C2_3  and  C3_4 
ROOT
ATOM      1  C3  UNL d   1       0.710   2.786   2.496  0.00  0.00    -0.075 A 
ATOM      2  C4  UNL d   1       0.730   3.235   3.825  0.00  0.00     0.002 A 
ATOM      3  C5  UNL d   1      -0.460   3.535   4.489  0.00  0.00     0.002 A 
ATOM      4  C6  UNL d   1      -1.681   3.401   3.832  0.00  0.00    -0.004 A 
ATOM      5  C7  UNL d   1      -1.711   2.971   2.507  0.00  0.00     0.002 A 
ATOM      6  C8  UNL d   1      -0.523   2.666   1.841  0.00  0.00     0.002 A 
ENDROOT
BRANCH   1   7
ATOM      7  C2  UNL d   1       1.992   2.431   1.781  0.00  0.00     0.056 C 
BRANCH   7   8
ATOM      8  C1  UNL d   1       3.234   3.128   2.345  0.00  0.00     0.007 C 
ATOM      9  C   UNL d   1       4.521   2.351   2.103  0.00  0.00     0.009 C 
ENDBRANCH   7   8
ENDBRANCH   1   7
TORSDOF 2
ENDMDL
