MODEL 1
REMARK minimizedAffinity 13.577651
REMARK minimizedRMSD -1
REMARK  2 active torsions:
REMARK  status: ('A' for Active; 'I' for Inactive)
REMARK    1  A    between atoms: C1_2  and  C2_3 
REMARK    2  A    between atoms: C2_3  and  C3_4 
ROOT
ATOM      1  C3  UNL d   1      -1.214   1.218   0.503  0.00  0.00    -0.075 A 
ATOM      2  C4  UNL d   1      -0.327   0.133   0.568  0.00  0.00     0.002 A 
ATOM      3  C5  UNL d   1       0.906   0.186  -0.081  0.00  0.00     0.002 A 
ATOM      4  C6  UNL d   1       1.264   1.317  -0.811  0.00  0.00    -0.004 A 
ATOM      5  C7  UNL d   1       0.385   2.394  -0.896  0.00  0.00     0.002 A 
ATOM      6  C8  UNL d   1      -0.848   2.345  -0.244  0.00  0.00     0.002 A 
ENDROOT
BRANCH   1   7
ATOM      7  C2  UNL d   1      -2.538   1.178   1.229  0.00  0.00     0.056 C 
BRANCH   7   8
ATOM      8  C1  UNL d   1      -2.917   2.499   1.906  0.00  0.00     0.007 C 
ATOM      9  C   UNL d   1      -2.439   2.593   3.349  0.00  0.00     0.009 C 
ENDBRANCH   7   8
ENDBRANCH   1   7
TORSDOF 2
ENDMDL
