MODEL 1
REMARK minimizedAffinity 9.19902802
REMARK minimizedRMSD -1
REMARK  2 active torsions:
REMARK  status: ('A' for Active; 'I' for Inactive)
REMARK    1  A    between atoms: C1_2  and  C2_3 
REMARK    2  A    between atoms: C2_3  and  C3_4 
ROOT
ATOM      1  C3  UNL d   1       1.230   0.541  -0.319  0.00  0.00    -0.075 A 
ATOM      2  C4  UNL d   1       0.118  -0.087   0.259  0.00  0.00     0.002 A 
ATOM      3  C5  UNL d   1      -0.977   0.664   0.688  0.00  0.00     0.002 A 
ATOM      4  C6  UNL d   1      -0.970   2.051   0.553  0.00  0.00    -0.004 A 
ATOM      5  C7  UNL d   1       0.136   2.687  -0.006  0.00  0.00     0.002 A 
ATOM      6  C8  UNL d   1       1.231   1.938  -0.439  0.00  0.00     0.002 A 
ENDROOT
BRANCH   1   7
ATOM      7  C2  UNL d   1       2.405  -0.268  -0.812  0.00  0.00     0.056 C 
BRANCH   7   8
ATOM      8  C1  UNL d   1       2.973   0.208  -2.153  0.00  0.00     0.007 C 
ATOM      9  C   UNL d   1       3.075  -0.902  -3.190  0.00  0.00     0.009 C 
ENDBRANCH   7   8
ENDBRANCH   1   7
TORSDOF 2
ENDMDL
