MODEL 1
REMARK minimizedAffinity 12.0477486
REMARK minimizedRMSD -1
REMARK  0 active torsions:
REMARK  status: ('A' for Active; 'I' for Inactive)
ROOT
ATOM      1  C4' PXY d   1       0.592  -4.075  -1.536  0.00  0.00     0.077 C 
ATOM      2  C1' PXY d   1       4.437   0.155  -0.675  0.00  0.00     0.077 C 
ATOM      3  C1  PXY d   1       3.428  -0.951  -0.914  0.00  0.00    -0.082 A 
ATOM      4  C2  PXY d   1       2.692  -1.393   0.093  0.00  0.00     0.003 A 
ATOM      5  C3  PXY d   1       1.797  -2.414  -0.098  0.00  0.00     0.003 A 
ATOM      6  C4  PXY d   1       1.617  -2.953  -1.344  0.00  0.00    -0.082 A 
ATOM      7  C5  PXY d   1       2.357  -2.501  -2.378  0.00  0.00     0.003 A 
ATOM      8  C6  PXY d   1       3.289  -1.491  -2.155  0.00  0.00     0.003 A 
ENDROOT
TORSDOF 0
ENDMDL
