MODEL 1
REMARK minimizedAffinity 9.69939137
REMARK minimizedRMSD -1
REMARK  0 active torsions:
REMARK  status: ('A' for Active; 'I' for Inactive)
ROOT
ATOM      1  C4' PXY d   1       2.984  -1.633  -0.052  0.00  0.00     0.077 C 
ATOM      2  C1' PXY d   1       5.999   3.256  -0.704  0.00  0.00     0.077 C 
ATOM      3  C1  PXY d   1       5.197   1.981  -0.533  0.00  0.00    -0.082 A 
ATOM      4  C2  PXY d   1       5.760   0.925   0.033  0.00  0.00     0.003 A 
ATOM      5  C3  PXY d   1       5.059  -0.246   0.166  0.00  0.00     0.003 A 
ATOM      6  C4  PXY d   1       3.752  -0.321  -0.236  0.00  0.00    -0.082 A 
ATOM      7  C5  PXY d   1       3.168   0.755  -0.804  0.00  0.00     0.003 A 
ATOM      8  C6  PXY d   1       3.909   1.921  -0.968  0.00  0.00     0.003 A 
ENDROOT
TORSDOF 0
ENDMDL
