MODEL 1
REMARK minimizedAffinity 1.76957321
REMARK minimizedRMSD -1
REMARK  0 active torsions:
REMARK  status: ('A' for Active; 'I' for Inactive)
ROOT
ATOM      1  C4' PXY d   1       5.745   1.539  -0.454  0.00  0.00     0.077 C 
ATOM      2  C1' PXY d   1       0.128   1.274   0.884  0.00  0.00     0.077 C 
ATOM      3  C1  PXY d   1       1.601   1.331   0.530  0.00  0.00    -0.082 A 
ATOM      4  C2  PXY d   1       2.374   2.244   1.093  0.00  0.00     0.003 A 
ATOM      5  C3  PXY d   1       3.701   2.330   0.760  0.00  0.00     0.003 A 
ATOM      6  C4  PXY d   1       4.254   1.438  -0.119  0.00  0.00    -0.082 A 
ATOM      7  C5  PXY d   1       3.474   0.496  -0.690  0.00  0.00     0.003 A 
ATOM      8  C6  PXY d   1       2.120   0.452  -0.370  0.00  0.00     0.003 A 
ENDROOT
TORSDOF 0
ENDMDL
