MODEL 1
REMARK minimizedAffinity 1.60646486
REMARK minimizedRMSD -1
REMARK  0 active torsions:
REMARK  status: ('A' for Active; 'I' for Inactive)
ROOT
ATOM      1  C4' PXY d   1       2.367  -1.652  -0.278  0.00  0.00     0.077 C 
ATOM      2  C1' PXY d   1       5.428   3.250  -0.163  0.00  0.00     0.077 C 
ATOM      3  C1  PXY d   1       4.619   1.968  -0.182  0.00  0.00    -0.082 A 
ATOM      4  C2  PXY d   1       5.084   0.911  -0.828  0.00  0.00     0.003 A 
ATOM      5  C3  PXY d   1       4.350  -0.246  -0.883  0.00  0.00     0.003 A 
ATOM      6  C4  PXY d   1       3.154  -0.340  -0.224  0.00  0.00    -0.082 A 
ATOM      7  C5  PXY d   1       2.678   0.731   0.447  0.00  0.00     0.003 A 
ATOM      8  C6  PXY d   1       3.418   1.909   0.455  0.00  0.00     0.003 A 
ENDROOT
TORSDOF 0
ENDMDL
