MODEL 1
REMARK minimizedAffinity 6.30383492
REMARK minimizedRMSD -1
REMARK  0 active torsions:
REMARK  status: ('A' for Active; 'I' for Inactive)
ROOT
ATOM      1  C4' PXY d   1       4.559   0.382  -0.195  0.00  0.00     0.077 C 
ATOM      2  C1' PXY d   1       0.661  -3.809  -1.008  0.00  0.00     0.077 C 
ATOM      3  C1  PXY d   1       1.688  -2.711  -0.808  0.00  0.00    -0.082 A 
ATOM      4  C2  PXY d   1       2.134  -2.449   0.410  0.00  0.00     0.003 A 
ATOM      5  C3  PXY d   1       3.038  -1.438   0.613  0.00  0.00     0.003 A 
ATOM      6  C4  PXY d   1       3.530  -0.724  -0.447  0.00  0.00    -0.082 A 
ATOM      7  C5  PXY d   1       3.087  -0.994  -1.693  0.00  0.00     0.003 A 
ATOM      8  C6  PXY d   1       2.138  -1.996  -1.873  0.00  0.00     0.003 A 
ENDROOT
TORSDOF 0
ENDMDL
