MODEL 1
REMARK minimizedAffinity 7.1797452
REMARK minimizedRMSD -1
REMARK  0 active torsions:
REMARK  status: ('A' for Active; 'I' for Inactive)
ROOT
ATOM      1  C4' PXY d   1       1.749  -2.515  -0.552  0.00  0.00     0.077 C 
ATOM      2  C1' PXY d   1       5.578   1.761   0.133  0.00  0.00     0.077 C 
ATOM      3  C1  PXY d   1       4.582   0.631  -0.041  0.00  0.00    -0.082 A 
ATOM      4  C2  PXY d   1       3.656   0.715  -0.983  0.00  0.00     0.003 A 
ATOM      5  C3  PXY d   1       2.728  -0.283  -1.133  0.00  0.00     0.003 A 
ATOM      6  C4  PXY d   1       2.781  -1.402  -0.346  0.00  0.00    -0.082 A 
ATOM      7  C5  PXY d   1       3.729  -1.500   0.609  0.00  0.00     0.003 A 
ATOM      8  C6  PXY d   1       4.637  -0.457   0.773  0.00  0.00     0.003 A 
ENDROOT
TORSDOF 0
ENDMDL
