MODEL 1
REMARK minimizedAffinity 3.85215235
REMARK minimizedRMSD -1
REMARK  0 active torsions:
REMARK  status: ('A' for Active; 'I' for Inactive)
ROOT
ATOM      1  C4' PXY d   1       6.000   2.226  -1.108  0.00  0.00     0.077 C 
ATOM      2  C1' PXY d   1       2.126  -2.054  -1.405  0.00  0.00     0.077 C 
ATOM      3  C1  PXY d   1       3.148  -0.937  -1.337  0.00  0.00    -0.082 A 
ATOM      4  C2  PXY d   1       3.329  -0.283  -0.201  0.00  0.00     0.003 A 
ATOM      5  C3  PXY d   1       4.226   0.751  -0.130  0.00  0.00     0.003 A 
ATOM      6  C4  PXY d   1       4.985   1.085  -1.220  0.00  0.00    -0.082 A 
ATOM      7  C5  PXY d   1       4.815   0.416  -2.380  0.00  0.00     0.003 A 
ATOM      8  C6  PXY d   1       3.869  -0.604  -2.442  0.00  0.00     0.003 A 
ENDROOT
TORSDOF 0
ENDMDL
