MODEL 1
REMARK minimizedAffinity 2.04850507
REMARK minimizedRMSD -1
REMARK  0 active torsions:
REMARK  status: ('A' for Active; 'I' for Inactive)
ROOT
ATOM      1  C4' PXY d   1       1.618  -2.941  -0.759  0.00  0.00     0.077 C 
ATOM      2  C1' PXY d   1       5.395   1.426  -1.045  0.00  0.00     0.077 C 
ATOM      3  C1  PXY d   1       4.403   0.282  -0.983  0.00  0.00    -0.082 A 
ATOM      4  C2  PXY d   1       3.796   0.003   0.160  0.00  0.00     0.003 A 
ATOM      5  C3  PXY d   1       2.919  -1.048   0.242  0.00  0.00     0.003 A 
ATOM      6  C4  PXY d   1       2.621  -1.789  -0.870  0.00  0.00    -0.082 A 
ATOM      7  C5  PXY d   1       3.227  -1.504  -2.042  0.00  0.00     0.003 A 
ATOM      8  C6  PXY d   1       4.145  -0.459  -2.094  0.00  0.00     0.003 A 
ENDROOT
TORSDOF 0
ENDMDL
