MODEL 1
REMARK minimizedAffinity 5.01946211
REMARK minimizedRMSD -1
REMARK  0 active torsions:
REMARK  status: ('A' for Active; 'I' for Inactive)
ROOT
ATOM      1  C4' PXY d   1       4.762   1.468  -1.173  0.00  0.00     0.077 C 
ATOM      2  C1' PXY d   1       1.135  -2.999  -0.625  0.00  0.00     0.077 C 
ATOM      3  C1  PXY d   1       2.076  -1.820  -0.772  0.00  0.00    -0.082 A 
ATOM      4  C2  PXY d   1       3.358  -2.034  -1.019  0.00  0.00     0.003 A 
ATOM      5  C3  PXY d   1       4.229  -0.980  -1.123  0.00  0.00     0.003 A 
ATOM      6  C4  PXY d   1       3.774   0.308  -1.027  0.00  0.00    -0.082 A 
ATOM      7  C5  PXY d   1       2.465   0.534  -0.786  0.00  0.00     0.003 A 
ATOM      8  C6  PXY d   1       1.604  -0.550  -0.643  0.00  0.00     0.003 A 
ENDROOT
TORSDOF 0
ENDMDL
