MODEL 1
REMARK minimizedAffinity 1.06993532
REMARK minimizedRMSD -1
REMARK  1 active torsions:
REMARK  status: ('A' for Active; 'I' for Inactive)
REMARK    1  A    between atoms: C3_4  and  O_7 
ROOT
ATOM      1  C   UNL d   1       1.159   3.205   0.951  0.00  0.00    -0.033 A 
ATOM      2  C1  UNL d   1       1.173   1.835   1.218  0.00  0.00     0.039 A 
ATOM      3  C2  UNL d   1       0.155   1.016   0.727  0.00  0.00    -0.080 A 
ATOM      4  C3  UNL d   1      -0.870   1.578  -0.029  0.00  0.00     0.150 A 
ATOM      5  C4  UNL d   1      -0.888   2.942  -0.302  0.00  0.00    -0.007 A 
ATOM      6  C5  UNL d   1       0.129   3.759   0.190  0.00  0.00     0.039 A 
ENDROOT
BRANCH   4   7
ATOM      7  O   UNL d   1      -1.888   0.820  -0.525  0.00  0.00    -0.526 OA
ATOM      8  H5  UNL d   1      -1.759  -0.098  -0.233  0.00  0.00     0.418 HD
ENDBRANCH   4   7
TORSDOF 1
ENDMDL
