MODEL 1
REMARK minimizedAffinity 2.45065212
REMARK minimizedRMSD -1
REMARK  1 active torsions:
REMARK  status: ('A' for Active; 'I' for Inactive)
REMARK    1  A    between atoms: C3_4  and  O_7 
ROOT
ATOM      1  C   UNL d   1       1.250  -2.587  -0.337  0.00  0.00    -0.033 A 
ATOM      2  C1  UNL d   1       0.690  -1.320  -0.160  0.00  0.00     0.039 A 
ATOM      3  C2  UNL d   1       1.515  -0.199  -0.055  0.00  0.00    -0.080 A 
ATOM      4  C3  UNL d   1       2.896  -0.357  -0.128  0.00  0.00     0.150 A 
ATOM      5  C4  UNL d   1       3.461  -1.615  -0.308  0.00  0.00    -0.007 A 
ATOM      6  C5  UNL d   1       2.635  -2.734  -0.413  0.00  0.00     0.039 A 
ENDROOT
BRANCH   4   7
ATOM      7  O   UNL d   1       3.741   0.708  -0.025  0.00  0.00    -0.526 OA
ATOM      8  H5  UNL d   1       3.211   1.508   0.125  0.00  0.00     0.418 HD
ENDBRANCH   4   7
TORSDOF 1
ENDMDL
