MODEL 1
REMARK minimizedAffinity -2.78189874
REMARK minimizedRMSD -1
REMARK  1 active torsions:
REMARK  status: ('A' for Active; 'I' for Inactive)
REMARK    1  A    between atoms: C3_4  and  O_7 
ROOT
ATOM      1  C   UNL d   1      -5.250   5.933   5.040  0.00  0.00    -0.033 A 
ATOM      2  C1  UNL d   1      -5.999   5.975   3.863  0.00  0.00     0.039 A 
ATOM      3  C2  UNL d   1      -5.356   5.997   2.624  0.00  0.00    -0.080 A 
ATOM      4  C3  UNL d   1      -3.965   5.975   2.576  0.00  0.00     0.150 A 
ATOM      5  C4  UNL d   1      -3.212   5.929   3.745  0.00  0.00    -0.007 A 
ATOM      6  C5  UNL d   1      -3.856   5.908   4.981  0.00  0.00     0.039 A 
ENDROOT
BRANCH   4   7
ATOM      7  O   UNL d   1      -3.293   6.000   1.390  0.00  0.00    -0.526 OA
ATOM      8  H5  UNL d   1      -3.942   6.060   0.670  0.00  0.00     0.418 HD
ENDBRANCH   4   7
TORSDOF 1
ENDMDL
