MODEL 1
REMARK minimizedAffinity -2.96031404
REMARK minimizedRMSD -1
REMARK  1 active torsions:
REMARK  status: ('A' for Active; 'I' for Inactive)
REMARK    1  A    between atoms: C3_4  and  O_7 
ROOT
ATOM      1  C   UNL d   1      -4.832  -1.181   0.027  0.00  0.00    -0.033 A 
ATOM      2  C1  UNL d   1      -5.835  -0.990   0.980  0.00  0.00     0.039 A 
ATOM      3  C2  UNL d   1      -5.993   0.256   1.590  0.00  0.00    -0.080 A 
ATOM      4  C3  UNL d   1      -5.144   1.302   1.238  0.00  0.00     0.150 A 
ATOM      5  C4  UNL d   1      -4.145   1.120   0.287  0.00  0.00    -0.007 A 
ATOM      6  C5  UNL d   1      -3.988  -0.125  -0.320  0.00  0.00     0.039 A 
ENDROOT
BRANCH   4   7
ATOM      7  O   UNL d   1      -5.257   2.534   1.809  0.00  0.00    -0.526 OA
ATOM      8  H5  UNL d   1      -5.971   2.504   2.468  0.00  0.00     0.418 HD
ENDBRANCH   4   7
TORSDOF 1
ENDMDL
