MODEL 1
REMARK minimizedAffinity -2.61320901
REMARK minimizedRMSD -1
REMARK  1 active torsions:
REMARK  status: ('A' for Active; 'I' for Inactive)
REMARK    1  A    between atoms: C3_4  and  O_7 
ROOT
ATOM      1  C   UNL d   1       1.093  -0.197  -1.333  0.00  0.00    -0.033 A 
ATOM      2  C1  UNL d   1       0.043  -1.056  -1.003  0.00  0.00     0.039 A 
ATOM      3  C2  UNL d   1       0.264  -2.433  -0.924  0.00  0.00    -0.080 A 
ATOM      4  C3  UNL d   1       1.536  -2.937  -1.177  0.00  0.00     0.150 A 
ATOM      5  C4  UNL d   1       2.588  -2.086  -1.502  0.00  0.00    -0.007 A 
ATOM      6  C5  UNL d   1       2.366  -0.712  -1.581  0.00  0.00     0.039 A 
ENDROOT
BRANCH   4   7
ATOM      7  O   UNL d   1       1.799  -4.273  -1.117  0.00  0.00    -0.526 OA
ATOM      8  H5  UNL d   1       0.972  -4.740  -0.909  0.00  0.00     0.418 HD
ENDBRANCH   4   7
TORSDOF 1
ENDMDL
