MODEL 1
REMARK minimizedAffinity -0.534874499
REMARK minimizedRMSD -1
REMARK  0 active torsions:
REMARK  status: ('A' for Active; 'I' for Inactive)
ROOT
ATOM      1  C2' OXE d   1       0.731  -2.337  -0.925  0.00  0.00     0.078 C 
ATOM      2  C1' OXE d   1       0.878   0.243  -2.021  0.00  0.00     0.078 C 
ATOM      3  C1  OXE d   1       0.627   0.122  -0.539  0.00  0.00    -0.078 A 
ATOM      4  C2  OXE d   1       0.510  -1.145  -0.019  0.00  0.00    -0.078 A 
ATOM      5  C3  OXE d   1       0.332  -1.314   1.351  0.00  0.00     0.003 A 
ATOM      6  C4  OXE d   1       0.118  -0.206   2.180  0.00  0.00    -0.002 A 
ATOM      7  C5  OXE d   1       0.193   1.092   1.664  0.00  0.00    -0.002 A 
ATOM      8  C6  OXE d   1       0.488   1.274   0.318  0.00  0.00     0.003 A 
ENDROOT
TORSDOF 0
ENDMDL
