MODEL 1
REMARK minimizedAffinity -5.63674402
REMARK minimizedRMSD -1
REMARK  0 active torsions:
REMARK  status: ('A' for Active; 'I' for Inactive)
ROOT
ATOM      1  C2' OXE d   1       0.317   0.295   1.964  0.00  0.00     0.078 C 
ATOM      2  C1' OXE d   1       0.451  -0.503  -0.724  0.00  0.00     0.078 C 
ATOM      3  C1  OXE d   1       0.046   0.920  -0.432  0.00  0.00    -0.078 A 
ATOM      4  C2  OXE d   1      -0.063   1.288   0.887  0.00  0.00    -0.078 A 
ATOM      5  C3  OXE d   1      -0.380   2.604   1.212  0.00  0.00     0.003 A 
ATOM      6  C4  OXE d   1      -0.739   3.514   0.210  0.00  0.00    -0.002 A 
ATOM      7  C5  OXE d   1      -0.674   3.148  -1.138  0.00  0.00    -0.002 A 
ATOM      8  C6  OXE d   1      -0.243   1.870  -1.478  0.00  0.00     0.003 A 
ENDROOT
TORSDOF 0
ENDMDL
