MODEL 1
REMARK minimizedAffinity -2.34038639
REMARK minimizedRMSD -1
REMARK  0 active torsions:
REMARK  status: ('A' for Active; 'I' for Inactive)
ROOT
ATOM      1  C2' OXE d   1       2.078  -4.033  -0.641  0.00  0.00     0.078 C 
ATOM      2  C1' OXE d   1      -0.637  -4.708  -0.869  0.00  0.00     0.078 C 
ATOM      3  C1  OXE d   1      -0.272  -3.245  -0.893  0.00  0.00    -0.078 A 
ATOM      4  C2  OXE d   1       1.055  -2.922  -0.734  0.00  0.00    -0.078 A 
ATOM      5  C3  OXE d   1       1.453  -1.590  -0.804  0.00  0.00     0.003 A 
ATOM      6  C4  OXE d   1       0.499  -0.568  -0.881  0.00  0.00    -0.002 A 
ATOM      7  C5  OXE d   1      -0.860  -0.873  -1.004  0.00  0.00    -0.002 A 
ATOM      8  C6  OXE d   1      -1.258  -2.205  -1.055  0.00  0.00     0.003 A 
ENDROOT
TORSDOF 0
ENDMDL
