MODEL 1
REMARK minimizedAffinity -4.64326
REMARK minimizedRMSD -1
REMARK  0 active torsions:
REMARK  status: ('A' for Active; 'I' for Inactive)
ROOT
ATOM      1  C2' OXE d   1      -0.644  -1.009  -1.099  0.00  0.00     0.078 C 
ATOM      2  C1' OXE d   1      -0.574   1.756  -1.581  0.00  0.00     0.078 C 
ATOM      3  C1  OXE d   1      -0.619   1.293  -0.146  0.00  0.00    -0.078 A 
ATOM      4  C2  OXE d   1      -0.700  -0.060   0.079  0.00  0.00    -0.078 A 
ATOM      5  C3  OXE d   1      -0.688  -0.543   1.385  0.00  0.00     0.003 A 
ATOM      6  C4  OXE d   1      -0.750   0.341   2.468  0.00  0.00    -0.002 A 
ATOM      7  C5  OXE d   1      -0.709   1.724   2.259  0.00  0.00    -0.002 A 
ATOM      8  C6  OXE d   1      -0.600   2.214   0.963  0.00  0.00     0.003 A 
ENDROOT
TORSDOF 0
ENDMDL
