MODEL 1
REMARK minimizedAffinity -4.4866457
REMARK minimizedRMSD -1
REMARK  0 active torsions:
REMARK  status: ('A' for Active; 'I' for Inactive)
ROOT
ATOM      1  C2' OXE d   1       0.691  -0.675  -0.887  0.00  0.00     0.078 C 
ATOM      2  C1' OXE d   1      -0.456   1.749  -1.717  0.00  0.00     0.078 C 
ATOM      3  C1  OXE d   1      -0.494   1.420  -0.245  0.00  0.00    -0.078 A 
ATOM      4  C2  OXE d   1       0.028   0.210   0.146  0.00  0.00    -0.078 A 
ATOM      5  C3  OXE d   1       0.067  -0.119   1.498  0.00  0.00     0.003 A 
ATOM      6  C4  OXE d   1      -0.557   0.701   2.445  0.00  0.00    -0.002 A 
ATOM      7  C5  OXE d   1      -1.129   1.919   2.063  0.00  0.00    -0.002 A 
ATOM      8  C6  OXE d   1      -1.069   2.312   0.731  0.00  0.00     0.003 A 
ENDROOT
TORSDOF 0
ENDMDL
