MODEL 1
REMARK minimizedAffinity -5.16523314
REMARK minimizedRMSD -1
REMARK  0 active torsions:
REMARK  status: ('A' for Active; 'I' for Inactive)
ROOT
ATOM      1  C2' OXE d   1       0.577  -0.718  -1.010  0.00  0.00     0.078 C 
ATOM      2  C1' OXE d   1      -0.232   1.857  -1.782  0.00  0.00     0.078 C 
ATOM      3  C1  OXE d   1      -0.172   1.552  -0.307  0.00  0.00    -0.078 A 
ATOM      4  C2  OXE d   1       0.180   0.275   0.061  0.00  0.00    -0.078 A 
ATOM      5  C3  OXE d   1       0.304  -0.044   1.410  0.00  0.00     0.003 A 
ATOM      6  C4  OXE d   1      -0.075   0.877   2.394  0.00  0.00    -0.002 A 
ATOM      7  C5  OXE d   1      -0.474   2.170   2.040  0.00  0.00    -0.002 A 
ATOM      8  C6  OXE d   1      -0.487   2.536   0.699  0.00  0.00     0.003 A 
ENDROOT
TORSDOF 0
ENDMDL
