MODEL 1
REMARK minimizedAffinity -4.02877235
REMARK minimizedRMSD -1
REMARK  0 active torsions:
REMARK  status: ('A' for Active; 'I' for Inactive)
ROOT
ATOM      1  C2' OXE d   1       1.032  -0.488   1.906  0.00  0.00     0.078 C 
ATOM      2  C1' OXE d   1       0.063   2.145   1.814  0.00  0.00     0.078 C 
ATOM      3  C1  OXE d   1       0.267   1.424   0.505  0.00  0.00    -0.078 A 
ATOM      4  C2  OXE d   1       0.785   0.152   0.557  0.00  0.00    -0.078 A 
ATOM      5  C3  OXE d   1       0.942  -0.578  -0.618  0.00  0.00     0.003 A 
ATOM      6  C4  OXE d   1       0.721   0.026  -1.862  0.00  0.00    -0.002 A 
ATOM      7  C5  OXE d   1       0.231   1.334  -1.939  0.00  0.00    -0.002 A 
ATOM      8  C6  OXE d   1      -0.042   2.030  -0.767  0.00  0.00     0.003 A 
ENDROOT
TORSDOF 0
ENDMDL
