MODEL 1
REMARK minimizedAffinity -1.24601293
REMARK minimizedRMSD -1
REMARK  0 active torsions:
REMARK  status: ('A' for Active; 'I' for Inactive)
ROOT
ATOM      1  C2' OXE d   1       0.380  -1.127  -0.334  0.00  0.00     0.078 C 
ATOM      2  C1' OXE d   1       0.086  -0.826   2.441  0.00  0.00     0.078 C 
ATOM      3  C1  OXE d   1      -0.102   0.396   1.577  0.00  0.00    -0.078 A 
ATOM      4  C2  OXE d   1       0.090   0.249   0.225  0.00  0.00    -0.078 A 
ATOM      5  C3  OXE d   1      -0.124   1.332  -0.624  0.00  0.00     0.003 A 
ATOM      6  C4  OXE d   1      -0.382   2.604  -0.098  0.00  0.00    -0.002 A 
ATOM      7  C5  OXE d   1      -0.542   2.784   1.280  0.00  0.00    -0.002 A 
ATOM      8  C6  OXE d   1      -0.448   1.684   2.126  0.00  0.00     0.003 A 
ENDROOT
TORSDOF 0
ENDMDL
