MODEL 1
REMARK minimizedAffinity -3.54441738
REMARK minimizedRMSD -1
REMARK  0 active torsions:
REMARK  status: ('A' for Active; 'I' for Inactive)
ROOT
ATOM      1  C2' OXE d   1       0.993  -0.055  -1.119  0.00  0.00     0.078 C 
ATOM      2  C1' OXE d   1       0.756  -0.597   1.626  0.00  0.00     0.078 C 
ATOM      3  C1  OXE d   1       0.294   0.752   1.132  0.00  0.00    -0.078 A 
ATOM      4  C2  OXE d   1       0.457   1.025  -0.205  0.00  0.00    -0.078 A 
ATOM      5  C3  OXE d   1      -0.002   2.233  -0.722  0.00  0.00     0.003 A 
ATOM      6  C4  OXE d   1      -0.488   3.231   0.132  0.00  0.00    -0.002 A 
ATOM      7  C5  OXE d   1      -0.625   2.988   1.503  0.00  0.00    -0.002 A 
ATOM      8  C6  OXE d   1      -0.279   1.741   2.011  0.00  0.00     0.003 A 
ENDROOT
TORSDOF 0
ENDMDL
