MODEL 1
REMARK minimizedAffinity -2.35519624
REMARK minimizedRMSD -1
REMARK  0 active torsions:
REMARK  status: ('A' for Active; 'I' for Inactive)
ROOT
ATOM      1  C2' OXE d   1      -1.446  -0.793   0.738  0.00  0.00     0.078 C 
ATOM      2  C1' OXE d   1       1.178  -0.114   0.005  0.00  0.00     0.078 C 
ATOM      3  C1  OXE d   1       0.613  -1.409  -0.523  0.00  0.00    -0.078 A 
ATOM      4  C2  OXE d   1      -0.655  -1.756  -0.121  0.00  0.00    -0.078 A 
ATOM      5  C3  OXE d   1      -1.244  -2.914  -0.622  0.00  0.00     0.003 A 
ATOM      6  C4  OXE d   1      -0.502  -3.804  -1.407  0.00  0.00    -0.002 A 
ATOM      7  C5  OXE d   1       0.805  -3.489  -1.795  0.00  0.00    -0.002 A 
ATOM      8  C6  OXE d   1       1.361  -2.278  -1.397  0.00  0.00     0.003 A 
ENDROOT
TORSDOF 0
ENDMDL
