MODEL 1
REMARK minimizedAffinity 0.104752071
REMARK minimizedRMSD -1
REMARK  0 active torsions:
REMARK  status: ('A' for Active; 'I' for Inactive)
ROOT
ATOM      1  C2' OXE d   1       0.835  -1.249  -0.560  0.00  0.00     0.078 C 
ATOM      2  C1' OXE d   1       0.064   1.062  -1.955  0.00  0.00     0.078 C 
ATOM      3  C1  OXE d   1       0.193   1.156  -0.456  0.00  0.00    -0.078 A 
ATOM      4  C2  OXE d   1       0.525   0.008   0.223  0.00  0.00    -0.078 A 
ATOM      5  C3  OXE d   1       0.711   0.053   1.602  0.00  0.00     0.003 A 
ATOM      6  C4  OXE d   1       0.413   1.217   2.321  0.00  0.00    -0.002 A 
ATOM      7  C5  OXE d   1       0.035   2.386   1.652  0.00  0.00    -0.002 A 
ATOM      8  C6  OXE d   1      -0.039   2.384   0.264  0.00  0.00     0.003 A 
ENDROOT
TORSDOF 0
ENDMDL
