MODEL 1
REMARK minimizedAffinity 0.307884902
REMARK minimizedRMSD -1
REMARK  0 active torsions:
REMARK  status: ('A' for Active; 'I' for Inactive)
ROOT
ATOM      1  C2' OXE d   1       0.523  -0.823   2.833  0.00  0.00     0.078 C 
ATOM      2  C1' OXE d   1      -0.303   1.780   2.181  0.00  0.00     0.078 C 
ATOM      3  C1  OXE d   1      -0.028   0.824   1.047  0.00  0.00    -0.078 A 
ATOM      4  C2  OXE d   1       0.421  -0.433   1.374  0.00  0.00    -0.078 A 
ATOM      5  C3  OXE d   1       0.638  -1.371   0.369  0.00  0.00     0.003 A 
ATOM      6  C4  OXE d   1       0.551  -0.999  -0.978  0.00  0.00    -0.002 A 
ATOM      7  C5  OXE d   1       0.134   0.288  -1.334  0.00  0.00    -0.002 A 
ATOM      8  C6  OXE d   1      -0.199   1.197  -0.335  0.00  0.00     0.003 A 
ENDROOT
TORSDOF 0
ENDMDL
