MODEL 1
REMARK minimizedAffinity 5.69892311
REMARK minimizedRMSD -1
REMARK  0 active torsions:
REMARK  status: ('A' for Active; 'I' for Inactive)
ROOT
ATOM      1  C1  BNZ d   1       5.988   2.625  -0.676  0.00  0.00     0.000 A 
ATOM      2  C2  BNZ d   1       6.000   3.991  -0.575  0.00  0.00     0.000 A 
ATOM      3  C3  BNZ d   1       5.985   4.776  -1.694  0.00  0.00     0.000 A 
ATOM      4  C4  BNZ d   1       6.000   4.196  -2.911  0.00  0.00     0.000 A 
ATOM      5  C5  BNZ d   1       5.998   2.820  -3.030  0.00  0.00     0.000 A 
ATOM      6  C6  BNZ d   1       5.973   2.033  -1.901  0.00  0.00     0.000 A 
ENDROOT
TORSDOF 0
ENDMDL
