MODEL 1
REMARK minimizedAffinity 1.30732667
REMARK minimizedRMSD -1
REMARK  0 active torsions:
REMARK  status: ('A' for Active; 'I' for Inactive)
ROOT
ATOM      1  C1  BNZ d   1       3.226   1.458  -1.574  0.00  0.00     0.000 A 
ATOM      2  C2  BNZ d   1       2.816   1.246  -0.285  0.00  0.00     0.000 A 
ATOM      3  C3  BNZ d   1       3.554   1.708   0.769  0.00  0.00     0.000 A 
ATOM      4  C4  BNZ d   1       4.719   2.345   0.534  0.00  0.00     0.000 A 
ATOM      5  C5  BNZ d   1       5.151   2.558  -0.760  0.00  0.00     0.000 A 
ATOM      6  C6  BNZ d   1       4.386   2.126  -1.819  0.00  0.00     0.000 A 
ENDROOT
TORSDOF 0
ENDMDL
