MODEL 1
REMARK minimizedAffinity 4.19909811
REMARK minimizedRMSD -1
REMARK  0 active torsions:
REMARK  status: ('A' for Active; 'I' for Inactive)
ROOT
ATOM      1  C1  BNZ d   1      -2.740  -0.714  -4.152  0.00  0.00     0.000 A 
ATOM      2  C2  BNZ d   1      -1.852  -0.410  -3.155  0.00  0.00     0.000 A 
ATOM      3  C3  BNZ d   1      -1.063  -1.380  -2.601  0.00  0.00     0.000 A 
ATOM      4  C4  BNZ d   1      -1.191  -2.656  -3.017  0.00  0.00     0.000 A 
ATOM      5  C5  BNZ d   1      -2.088  -2.980  -4.015  0.00  0.00     0.000 A 
ATOM      6  C6  BNZ d   1      -2.853  -1.995  -4.597  0.00  0.00     0.000 A 
ENDROOT
TORSDOF 0
ENDMDL
