MODEL 1
REMARK minimizedAffinity -2.56852126
REMARK minimizedRMSD -1
REMARK  0 active torsions:
REMARK  status: ('A' for Active; 'I' for Inactive)
ROOT
ATOM      1  C1  BNZ d   1       4.005   1.912  -2.250  0.00  0.00     0.000 A 
ATOM      2  C2  BNZ d   1       3.048   1.332  -1.461  0.00  0.00     0.000 A 
ATOM      3  C3  BNZ d   1       3.142   1.378  -0.098  0.00  0.00     0.000 A 
ATOM      4  C4  BNZ d   1       4.212   1.968   0.473  0.00  0.00     0.000 A 
ATOM      5  C5  BNZ d   1       5.190   2.550  -0.309  0.00  0.00     0.000 A 
ATOM      6  C6  BNZ d   1       5.072   2.536  -1.680  0.00  0.00     0.000 A 
ENDROOT
TORSDOF 0
ENDMDL
