MODEL 1
REMARK minimizedAffinity 4.17707062
REMARK minimizedRMSD -1
REMARK  0 active torsions:
REMARK  status: ('A' for Active; 'I' for Inactive)
ROOT
ATOM      1  C1  BNZ d   1       5.986  -0.907   4.879  0.00  0.00     0.000 A 
ATOM      2  C2  BNZ d   1       5.390  -0.382   5.995  0.00  0.00     0.000 A 
ATOM      3  C3  BNZ d   1       4.059  -0.071   5.996  0.00  0.00     0.000 A 
ATOM      4  C4  BNZ d   1       3.335  -0.247   4.872  0.00  0.00     0.000 A 
ATOM      5  C5  BNZ d   1       3.924  -0.767   3.736  0.00  0.00     0.000 A 
ATOM      6  C6  BNZ d   1       5.255  -1.115   3.750  0.00  0.00     0.000 A 
ENDROOT
TORSDOF 0
ENDMDL
