MODEL 1
REMARK minimizedAffinity 5.09930658
REMARK minimizedRMSD -1
REMARK  0 active torsions:
REMARK  status: ('A' for Active; 'I' for Inactive)
ROOT
ATOM      1  C1  BNZ d   1       2.527  -0.588   0.435  0.00  0.00     0.000 A 
ATOM      2  C2  BNZ d   1       2.532   0.252  -0.647  0.00  0.00     0.000 A 
ATOM      3  C3  BNZ d   1       3.223   1.431  -0.614  0.00  0.00     0.000 A 
ATOM      4  C4  BNZ d   1       3.874   1.787   0.513  0.00  0.00     0.000 A 
ATOM      5  C5  BNZ d   1       3.870   0.955   1.615  0.00  0.00     0.000 A 
ATOM      6  C6  BNZ d   1       3.205  -0.249   1.565  0.00  0.00     0.000 A 
ENDROOT
TORSDOF 0
ENDMDL
