MODEL 1
REMARK minimizedAffinity -1.18784976
REMARK minimizedRMSD -1
REMARK  0 active torsions:
REMARK  status: ('A' for Active; 'I' for Inactive)
ROOT
ATOM      1  C1  BNZ d   1       5.026   2.321   0.306  0.00  0.00     0.000 A 
ATOM      2  C2  BNZ d   1       6.000   2.626  -0.606  0.00  0.00     0.000 A 
ATOM      3  C3  BNZ d   1       5.736   2.599  -1.947  0.00  0.00     0.000 A 
ATOM      4  C4  BNZ d   1       4.512   2.229  -2.375  0.00  0.00     0.000 A 
ATOM      5  C5  BNZ d   1       3.521   1.909  -1.467  0.00  0.00     0.000 A 
ATOM      6  C6  BNZ d   1       3.779   1.976  -0.117  0.00  0.00     0.000 A 
ENDROOT
TORSDOF 0
ENDMDL
