MODEL 1
REMARK minimizedAffinity 1.75509703
REMARK minimizedRMSD -1
REMARK  0 active torsions:
REMARK  status: ('A' for Active; 'I' for Inactive)
ROOT
ATOM      1  C1  BNZ d   1       0.762   3.512   1.873  0.00  0.00     0.000 A 
ATOM      2  C2  BNZ d   1       0.132   3.197   3.047  0.00  0.00     0.000 A 
ATOM      3  C3  BNZ d   1       0.850   2.813   4.145  0.00  0.00     0.000 A 
ATOM      4  C4  BNZ d   1       2.191   2.704   4.055  0.00  0.00     0.000 A 
ATOM      5  C5  BNZ d   1       2.840   3.009   2.875  0.00  0.00     0.000 A 
ATOM      6  C6  BNZ d   1       2.117   3.434   1.784  0.00  0.00     0.000 A 
ENDROOT
TORSDOF 0
ENDMDL
