MODEL 1
REMARK minimizedAffinity 9.76001263
REMARK minimizedRMSD -1
REMARK  0 active torsions:
REMARK  status: ('A' for Active; 'I' for Inactive)
ROOT
ATOM      1  C1  BNZ d   1       3.932   1.576  -1.336  0.00  0.00     0.000 A 
ATOM      2  C2  BNZ d   1       4.956   2.241  -1.957  0.00  0.00     0.000 A 
ATOM      3  C3  BNZ d   1       6.000   2.749  -1.235  0.00  0.00     0.000 A 
ATOM      4  C4  BNZ d   1       5.998   2.627   0.108  0.00  0.00     0.000 A 
ATOM      5  C5  BNZ d   1       4.968   1.969   0.749  0.00  0.00     0.000 A 
ATOM      6  C6  BNZ d   1       3.939   1.425   0.016  0.00  0.00     0.000 A 
ENDROOT
TORSDOF 0
ENDMDL
