MODEL 1
REMARK minimizedAffinity 1.7177664
REMARK minimizedRMSD -1
REMARK  0 active torsions:
REMARK  status: ('A' for Active; 'I' for Inactive)
ROOT
ATOM      1  C1  BNZ d   1       5.998   2.989  -2.064  0.00  0.00     0.000 A 
ATOM      2  C2  BNZ d   1       5.018   2.298  -2.726  0.00  0.00     0.000 A 
ATOM      3  C3  BNZ d   1       4.027   1.657  -2.036  0.00  0.00     0.000 A 
ATOM      4  C4  BNZ d   1       4.039   1.675  -0.688  0.00  0.00     0.000 A 
ATOM      5  C5  BNZ d   1       5.025   2.359  -0.007  0.00  0.00     0.000 A 
ATOM      6  C6  BNZ d   1       6.000   3.035  -0.704  0.00  0.00     0.000 A 
ENDROOT
TORSDOF 0
ENDMDL
