MODEL 1
REMARK minimizedAffinity 10.5046587
REMARK minimizedRMSD -1
REMARK  2 active torsions:
REMARK  status: ('A' for Active; 'I' for Inactive)
REMARK    1  A    between atoms: C2'_3  and  C1'_4 
REMARK    2  A    between atoms: C1'_4  and  C1_5 
ROOT
ATOM      1  C1  I4B d   1       3.547  -0.049   1.422  0.00  0.00    -0.075 A 
ATOM      2  C2  I4B d   1       4.443  -0.505   0.487  0.00  0.00     0.003 A 
ATOM      3  C3  I4B d   1       5.637  -1.145   0.897  0.00  0.00     0.002 A 
ATOM      4  C4  I4B d   1       5.918  -1.262   2.243  0.00  0.00    -0.004 A 
ATOM      5  C5  I4B d   1       4.999  -0.820   3.190  0.00  0.00     0.002 A 
ATOM      6  C6  I4B d   1       3.800  -0.221   2.777  0.00  0.00     0.003 A 
ENDROOT
BRANCH   1   7
ATOM      7  C1' I4B d   1       2.311   0.651   0.955  0.00  0.00     0.060 C 
BRANCH   7   8
ATOM      8  C2' I4B d   1       2.714   2.022   0.450  0.00  0.00    -0.013 C 
ATOM      9  C4' I4B d   1       3.344   2.842   1.545  0.00  0.00     0.013 C 
ATOM     10  C3' I4B d   1       3.660   1.833  -0.698  0.00  0.00     0.013 C 
ENDBRANCH   7   8
ENDBRANCH   1   7
TORSDOF 2
ENDMDL
