MODEL 1
REMARK minimizedAffinity 11.6916847
REMARK minimizedRMSD -1
REMARK  2 active torsions:
REMARK  status: ('A' for Active; 'I' for Inactive)
REMARK    1  A    between atoms: C2'_3  and  C1'_4 
REMARK    2  A    between atoms: C1'_4  and  C1_5 
ROOT
ATOM      1  C1  I4B d   1      -4.787   2.281   5.328  0.00  0.00    -0.075 A 
ATOM      2  C2  I4B d   1      -4.239   2.056   4.090  0.00  0.00     0.003 A 
ATOM      3  C3  I4B d   1      -4.335   0.777   3.490  0.00  0.00     0.002 A 
ATOM      4  C4  I4B d   1      -4.939  -0.254   4.180  0.00  0.00    -0.004 A 
ATOM      5  C5  I4B d   1      -5.515  -0.018   5.425  0.00  0.00     0.002 A 
ATOM      6  C6  I4B d   1      -5.450   1.261   5.998  0.00  0.00     0.003 A 
ENDROOT
BRANCH   1   7
ATOM      7  C1' I4B d   1      -4.639   3.635   5.947  0.00  0.00     0.060 C 
BRANCH   7   8
ATOM      8  C2' I4B d   1      -5.825   4.476   5.521  0.00  0.00    -0.013 C 
ATOM      9  C4' I4B d   1      -5.676   5.902   5.982  0.00  0.00     0.013 C 
ATOM     10  C3' I4B d   1      -5.936   4.397   4.028  0.00  0.00     0.013 C 
ENDBRANCH   7   8
ENDBRANCH   1   7
TORSDOF 2
ENDMDL
