MODEL 1
REMARK minimizedAffinity 19.1542072
REMARK minimizedRMSD -1
REMARK  2 active torsions:
REMARK  status: ('A' for Active; 'I' for Inactive)
REMARK    1  A    between atoms: C2'_3  and  C1'_4 
REMARK    2  A    between atoms: C1'_4  and  C1_5 
ROOT
ATOM      1  C1  I4B d   1      -3.305  -2.958  -3.081  0.00  0.00    -0.075 A 
ATOM      2  C2  I4B d   1      -3.097  -2.899  -4.437  0.00  0.00     0.003 A 
ATOM      3  C3  I4B d   1      -4.198  -2.829  -5.324  0.00  0.00     0.002 A 
ATOM      4  C4  I4B d   1      -5.482  -2.871  -4.819  0.00  0.00    -0.004 A 
ATOM      5  C5  I4B d   1      -5.691  -2.908  -3.443  0.00  0.00     0.002 A 
ATOM      6  C6  I4B d   1      -4.595  -2.939  -2.568  0.00  0.00     0.003 A 
ENDROOT
BRANCH   1   7
ATOM      7  C1' I4B d   1      -2.120  -3.065  -2.174  0.00  0.00     0.060 C 
BRANCH   7   8
ATOM      8  C2' I4B d   1      -2.323  -2.097  -1.026  0.00  0.00    -0.013 C 
ATOM      9  C4' I4B d   1      -1.430  -2.438   0.138  0.00  0.00     0.013 C 
ATOM     10  C3' I4B d   1      -2.048  -0.713  -1.533  0.00  0.00     0.013 C 
ENDBRANCH   7   8
ENDBRANCH   1   7
TORSDOF 2
ENDMDL
