MODEL 1
REMARK minimizedAffinity 20.6041355
REMARK minimizedRMSD -1
REMARK  2 active torsions:
REMARK  status: ('A' for Active; 'I' for Inactive)
REMARK    1  A    between atoms: C2'_3  and  C1'_4 
REMARK    2  A    between atoms: C1'_4  and  C1_5 
ROOT
ATOM      1  C1  I4B d   1      -2.979  -2.691  -2.326  0.00  0.00    -0.075 A 
ATOM      2  C2  I4B d   1      -2.448  -3.145  -3.507  0.00  0.00     0.003 A 
ATOM      3  C3  I4B d   1      -1.146  -2.752  -3.901  0.00  0.00     0.002 A 
ATOM      4  C4  I4B d   1      -0.436  -1.868  -3.115  0.00  0.00    -0.004 A 
ATOM      5  C5  I4B d   1      -0.967  -1.427  -1.906  0.00  0.00     0.002 A 
ATOM      6  C6  I4B d   1      -2.241  -1.850  -1.503  0.00  0.00     0.003 A 
ENDROOT
BRANCH   1   7
ATOM      7  C1' I4B d   1      -4.369  -3.101  -1.956  0.00  0.00     0.060 C 
BRANCH   7   8
ATOM      8  C2' I4B d   1      -4.971  -3.833  -3.138  0.00  0.00    -0.013 C 
ATOM      9  C4' I4B d   1      -5.662  -5.098  -2.702  0.00  0.00     0.013 C 
ATOM     10  C3' I4B d   1      -5.927  -2.901  -3.822  0.00  0.00     0.013 C 
ENDBRANCH   7   8
ENDBRANCH   1   7
TORSDOF 2
ENDMDL
