MODEL 1
REMARK minimizedAffinity 17.1225376
REMARK minimizedRMSD -1
REMARK  2 active torsions:
REMARK  status: ('A' for Active; 'I' for Inactive)
REMARK    1  A    between atoms: C2'_3  and  C1'_4 
REMARK    2  A    between atoms: C1'_4  and  C1_5 
ROOT
ATOM      1  C1  I4B d   1       1.576   0.578   1.415  0.00  0.00    -0.075 A 
ATOM      2  C2  I4B d   1       2.463  -0.457   1.583  0.00  0.00     0.003 A 
ATOM      3  C3  I4B d   1       3.798  -0.332   1.129  0.00  0.00     0.002 A 
ATOM      4  C4  I4B d   1       4.188   0.817   0.472  0.00  0.00    -0.004 A 
ATOM      5  C5  I4B d   1       3.294   1.874   0.323  0.00  0.00     0.002 A 
ATOM      6  C6  I4B d   1       1.983   1.759   0.809  0.00  0.00     0.003 A 
ENDROOT
BRANCH   1   7
ATOM      7  C1' I4B d   1       0.165   0.399   1.878  0.00  0.00     0.060 C 
BRANCH   7   8
ATOM      8  C2' I4B d   1      -0.099  -1.087   2.011  0.00  0.00    -0.013 C 
ATOM      9  C4' I4B d   1      -0.604  -1.430   3.388  0.00  0.00     0.013 C 
ATOM     10  C3' I4B d   1      -1.091  -1.478   0.957  0.00  0.00     0.013 C 
ENDBRANCH   7   8
ENDBRANCH   1   7
TORSDOF 2
ENDMDL
