MODEL 1
REMARK minimizedAffinity 9.83207226
REMARK minimizedRMSD -1
REMARK  2 active torsions:
REMARK  status: ('A' for Active; 'I' for Inactive)
REMARK    1  A    between atoms: C2'_3  and  C1'_4 
REMARK    2  A    between atoms: C1'_4  and  C1_5 
ROOT
ATOM      1  C1  I4B d   1       2.697   0.292   1.008  0.00  0.00    -0.075 A 
ATOM      2  C2  I4B d   1       3.159   1.501   0.550  0.00  0.00     0.003 A 
ATOM      3  C3  I4B d   1       2.335   2.650   0.618  0.00  0.00     0.002 A 
ATOM      4  C4  I4B d   1       1.048   2.537   1.103  0.00  0.00    -0.004 A 
ATOM      5  C5  I4B d   1       0.590   1.315   1.588  0.00  0.00     0.002 A 
ATOM      6  C6  I4B d   1       1.423   0.188   1.552  0.00  0.00     0.003 A 
ENDROOT
BRANCH   1   7
ATOM      7  C1' I4B d   1       3.581  -0.909   0.890  0.00  0.00     0.060 C 
BRANCH   7   8
ATOM      8  C2' I4B d   1       4.869  -0.615   1.632  0.00  0.00    -0.013 C 
ATOM      9  C4' I4B d   1       4.816  -1.138   3.044  0.00  0.00     0.013 C 
ATOM     10  C3' I4B d   1       5.997  -1.238   0.866  0.00  0.00     0.013 C 
ENDBRANCH   7   8
ENDBRANCH   1   7
TORSDOF 2
ENDMDL
