MODEL 1
REMARK minimizedAffinity 14.035696
REMARK minimizedRMSD -1
REMARK  2 active torsions:
REMARK  status: ('A' for Active; 'I' for Inactive)
REMARK    1  A    between atoms: C2'_3  and  C1'_4 
REMARK    2  A    between atoms: C1'_4  and  C1_5 
ROOT
ATOM      1  C1  I4B d   1      -3.652  -3.180  -2.418  0.00  0.00    -0.075 A 
ATOM      2  C2  I4B d   1      -3.684  -4.427  -1.844  0.00  0.00     0.003 A 
ATOM      3  C3  I4B d   1      -4.866  -5.205  -1.895  0.00  0.00     0.002 A 
ATOM      4  C4  I4B d   1      -6.000  -4.681  -2.482  0.00  0.00    -0.004 A 
ATOM      5  C5  I4B d   1      -5.958  -3.426  -3.084  0.00  0.00     0.002 A 
ATOM      6  C6  I4B d   1      -4.773  -2.676  -3.062  0.00  0.00     0.003 A 
ENDROOT
BRANCH   1   7
ATOM      7  C1' I4B d   1      -2.397  -2.372  -2.316  0.00  0.00     0.060 C 
BRANCH   7   8
ATOM      8  C2' I4B d   1      -2.419  -1.642  -0.989  0.00  0.00    -0.013 C 
ATOM      9  C4' I4B d   1      -3.822  -1.526  -0.453  0.00  0.00     0.013 C 
ATOM     10  C3' I4B d   1      -1.535  -2.388  -0.034  0.00  0.00     0.013 C 
ENDBRANCH   7   8
ENDBRANCH   1   7
TORSDOF 2
ENDMDL
