MODEL 1
REMARK minimizedAffinity 7.88322401
REMARK minimizedRMSD -1
REMARK  2 active torsions:
REMARK  status: ('A' for Active; 'I' for Inactive)
REMARK    1  A    between atoms: C2'_3  and  C1'_4 
REMARK    2  A    between atoms: C1'_4  and  C1_5 
ROOT
ATOM      1  C1  I4B d   1      -5.346   2.262   5.111  0.00  0.00    -0.075 A 
ATOM      2  C2  I4B d   1      -4.708   2.350   3.899  0.00  0.00     0.003 A 
ATOM      3  C3  I4B d   1      -4.630   1.219   3.051  0.00  0.00     0.002 A 
ATOM      4  C4  I4B d   1      -5.156   0.015   3.473  0.00  0.00    -0.004 A 
ATOM      5  C5  I4B d   1      -5.823  -0.066   4.693  0.00  0.00     0.002 A 
ATOM      6  C6  I4B d   1      -5.929   1.067   5.511  0.00  0.00     0.003 A 
ENDROOT
BRANCH   1   7
ATOM      7  C1' I4B d   1      -5.381   3.468   5.996  0.00  0.00     0.060 C 
BRANCH   7   8
ATOM      8  C2' I4B d   1      -4.350   4.453   5.484  0.00  0.00    -0.013 C 
ATOM      9  C4' I4B d   1      -4.676   5.858   5.916  0.00  0.00     0.013 C 
ATOM     10  C3' I4B d   1      -3.007   4.026   5.998  0.00  0.00     0.013 C 
ENDBRANCH   7   8
ENDBRANCH   1   7
TORSDOF 2
ENDMDL
