MODEL 1
REMARK minimizedAffinity 3.38785028
REMARK minimizedRMSD -1
REMARK  2 active torsions:
REMARK  status: ('A' for Active; 'I' for Inactive)
REMARK    1  A    between atoms: C2'_3  and  C1'_4 
REMARK    2  A    between atoms: C1'_4  and  C1_5 
ROOT
ATOM      1  C1  I4B d   1      -5.170   0.915   4.138  0.00  0.00    -0.075 A 
ATOM      2  C2  I4B d   1      -5.988   1.042   5.234  0.00  0.00     0.003 A 
ATOM      3  C3  I4B d   1      -5.973   2.233   6.000  0.00  0.00     0.002 A 
ATOM      4  C4  I4B d   1      -5.095   3.244   5.667  0.00  0.00    -0.004 A 
ATOM      5  C5  I4B d   1      -4.284   3.123   4.543  0.00  0.00     0.002 A 
ATOM      6  C6  I4B d   1      -4.330   1.957   3.766  0.00  0.00     0.003 A 
ENDROOT
BRANCH   1   7
ATOM      7  C1' I4B d   1      -5.188  -0.368   3.371  0.00  0.00     0.060 C 
BRANCH   7   8
ATOM      8  C2' I4B d   1      -3.936  -0.420   2.519  0.00  0.00    -0.013 C 
ATOM      9  C4' I4B d   1      -2.718  -0.709   3.355  0.00  0.00     0.013 C 
ATOM     10  C3' I4B d   1      -4.134  -1.472   1.469  0.00  0.00     0.013 C 
ENDBRANCH   7   8
ENDBRANCH   1   7
TORSDOF 2
ENDMDL
