MODEL 1
REMARK minimizedAffinity 24.2915573
REMARK minimizedRMSD -1
REMARK  2 active torsions:
REMARK  status: ('A' for Active; 'I' for Inactive)
REMARK    1  A    between atoms: C2'_3  and  C1'_4 
REMARK    2  A    between atoms: C1'_4  and  C1_5 
ROOT
ATOM      1  C1  I4B d   1       3.551  -0.623   3.287  0.00  0.00    -0.075 A 
ATOM      2  C2  I4B d   1       3.433  -0.111   2.019  0.00  0.00     0.003 A 
ATOM      3  C3  I4B d   1       2.168   0.296   1.529  0.00  0.00     0.002 A 
ATOM      4  C4  I4B d   1       1.048   0.127   2.317  0.00  0.00    -0.004 A 
ATOM      5  C5  I4B d   1       1.173  -0.371   3.611  0.00  0.00     0.002 A 
ATOM      6  C6  I4B d   1       2.434  -0.737   4.104  0.00  0.00     0.003 A 
ENDROOT
BRANCH   1   7
ATOM      7  C1' I4B d   1       4.897  -1.073   3.760  0.00  0.00     0.060 C 
BRANCH   7   8
ATOM      8  C2' I4B d   1       5.219  -0.321   5.035  0.00  0.00    -0.013 C 
ATOM      9  C4' I4B d   1       5.988  -1.186   5.999  0.00  0.00     0.013 C 
ATOM     10  C3' I4B d   1       6.000   0.905   4.665  0.00  0.00     0.013 C 
ENDBRANCH   7   8
ENDBRANCH   1   7
TORSDOF 2
ENDMDL
