MODEL 1
REMARK minimizedAffinity 16.3817863
REMARK minimizedRMSD -1
REMARK  2 active torsions:
REMARK  status: ('A' for Active; 'I' for Inactive)
REMARK    1  A    between atoms: C2'_3  and  C1'_4 
REMARK    2  A    between atoms: C1'_4  and  C1_5 
ROOT
ATOM      1  C1  I4B d   1      -4.478   0.746   3.811  0.00  0.00    -0.075 A 
ATOM      2  C2  I4B d   1      -5.153   0.424   4.962  0.00  0.00     0.003 A 
ATOM      3  C3  I4B d   1      -5.287   1.378   6.000  0.00  0.00     0.002 A 
ATOM      4  C4  I4B d   1      -4.690   2.616   5.867  0.00  0.00    -0.004 A 
ATOM      5  C5  I4B d   1      -4.026   2.948   4.690  0.00  0.00     0.002 A 
ATOM      6  C6  I4B d   1      -3.929   2.011   3.650  0.00  0.00     0.003 A 
ENDROOT
BRANCH   1   7
ATOM      7  C1' I4B d   1      -4.327  -0.296   2.749  0.00  0.00     0.060 C 
BRANCH   7   8
ATOM      8  C2' I4B d   1      -2.849  -0.455   2.456  0.00  0.00    -0.013 C 
ATOM      9  C4' I4B d   1      -2.077  -0.781   3.707  0.00  0.00     0.013 C 
ATOM     10  C3' I4B d   1      -2.694  -1.535   1.427  0.00  0.00     0.013 C 
ENDBRANCH   7   8
ENDBRANCH   1   7
TORSDOF 2
ENDMDL
