MODEL 1
REMARK minimizedAffinity 10.2331123
REMARK minimizedRMSD -1
REMARK  2 active torsions:
REMARK  status: ('A' for Active; 'I' for Inactive)
REMARK    1  A    between atoms: C2'_3  and  C1'_4 
REMARK    2  A    between atoms: C1'_4  and  C1_5 
ROOT
ATOM      1  C1  I4B d   1      -3.943  -3.770  -1.971  0.00  0.00    -0.075 A 
ATOM      2  C2  I4B d   1      -3.849  -4.992  -1.354  0.00  0.00     0.003 A 
ATOM      3  C3  I4B d   1      -4.835  -5.983  -1.580  0.00  0.00     0.002 A 
ATOM      4  C4  I4B d   1      -5.917  -5.693  -2.386  0.00  0.00    -0.004 A 
ATOM      5  C5  I4B d   1      -5.999  -4.461  -3.030  0.00  0.00     0.002 A 
ATOM      6  C6  I4B d   1      -4.999  -3.497  -2.831  0.00  0.00     0.003 A 
ENDROOT
BRANCH   1   7
ATOM      7  C1' I4B d   1      -2.901  -2.735  -1.684  0.00  0.00     0.060 C 
BRANCH   7   8
ATOM      8  C2' I4B d   1      -2.558  -2.815  -0.210  0.00  0.00    -0.013 C 
ATOM      9  C4' I4B d   1      -1.174  -2.285   0.057  0.00  0.00     0.013 C 
ATOM     10  C3' I4B d   1      -3.592  -2.037   0.549  0.00  0.00     0.013 C 
ENDBRANCH   7   8
ENDBRANCH   1   7
TORSDOF 2
ENDMDL
