MODEL 1
REMARK minimizedAffinity -5.19068909
REMARK minimizedRMSD -1
REMARK  1 active torsions:
REMARK  status: ('A' for Active; 'I' for Inactive)
REMARK    1  A    between atoms: C3_4  and  O_7 
ROOT
ATOM      1  C   UNL d   1       0.671  -2.299   2.229  0.00  0.00    -0.033 A 
ATOM      2  C1  UNL d   1       1.344  -2.042   1.033  0.00  0.00     0.039 A 
ATOM      3  C2  UNL d   1       0.837  -1.102   0.133  0.00  0.00    -0.080 A 
ATOM      4  C3  UNL d   1      -0.341  -0.427   0.440  0.00  0.00     0.150 A 
ATOM      5  C4  UNL d   1      -1.014  -0.675   1.632  0.00  0.00    -0.007 A 
ATOM      6  C5  UNL d   1      -0.508  -1.615   2.529  0.00  0.00     0.039 A 
ENDROOT
BRANCH   4   7
ATOM      7  O   UNL d   1      -0.876   0.495  -0.409  0.00  0.00    -0.526 OA
ATOM      8  H5  UNL d   1      -0.319   0.542  -1.204  0.00  0.00     0.418 HD
ENDBRANCH   4   7
TORSDOF 1
ENDMDL
