MODEL 1
REMARK minimizedAffinity -2.68763447
REMARK minimizedRMSD -1
REMARK  1 active torsions:
REMARK  status: ('A' for Active; 'I' for Inactive)
REMARK    1  A    between atoms: C3_4  and  O_7 
ROOT
ATOM      1  C   UNL d   1      -2.535   2.005  -3.411  0.00  0.00    -0.033 A 
ATOM      2  C1  UNL d   1      -2.981   1.405  -2.232  0.00  0.00     0.039 A 
ATOM      3  C2  UNL d   1      -2.128   1.304  -1.131  0.00  0.00    -0.080 A 
ATOM      4  C3  UNL d   1      -0.833   1.807  -1.223  0.00  0.00     0.150 A 
ATOM      5  C4  UNL d   1      -0.383   2.409  -2.393  0.00  0.00    -0.007 A 
ATOM      6  C5  UNL d   1      -1.236   2.508  -3.491  0.00  0.00     0.039 A 
ENDROOT
BRANCH   4   7
ATOM      7  O   UNL d   1       0.038   1.728  -0.177  0.00  0.00    -0.526 OA
ATOM      8  H5  UNL d   1      -0.401   1.262   0.555  0.00  0.00     0.418 HD
ENDBRANCH   4   7
TORSDOF 1
ENDMDL
