MODEL 1
REMARK minimizedAffinity -4.87056255
REMARK minimizedRMSD -1
REMARK  1 active torsions:
REMARK  status: ('A' for Active; 'I' for Inactive)
REMARK    1  A    between atoms: C3_4  and  O_7 
ROOT
ATOM      1  C   UNL d   1      -0.418   0.055   0.348  0.00  0.00    -0.033 A 
ATOM      2  C1  UNL d   1       0.770  -0.024  -0.381  0.00  0.00     0.039 A 
ATOM      3  C2  UNL d   1       1.654  -1.083  -0.164  0.00  0.00    -0.080 A 
ATOM      4  C3  UNL d   1       1.339  -2.054   0.783  0.00  0.00     0.150 A 
ATOM      5  C4  UNL d   1       0.155  -1.983   1.510  0.00  0.00    -0.007 A 
ATOM      6  C5  UNL d   1      -0.726  -0.924   1.292  0.00  0.00     0.039 A 
ENDROOT
BRANCH   4   7
ATOM      7  O   UNL d   1       2.173  -3.103   1.033  0.00  0.00    -0.526 OA
ATOM      8  H5  UNL d   1       2.965  -3.005   0.478  0.00  0.00     0.418 HD
ENDBRANCH   4   7
TORSDOF 1
ENDMDL
