MODEL 1
REMARK minimizedAffinity -4.91809559
REMARK minimizedRMSD -1
REMARK  1 active torsions:
REMARK  status: ('A' for Active; 'I' for Inactive)
REMARK    1  A    between atoms: C3_4  and  O_7 
ROOT
ATOM      1  C   UNL d   1       0.222   0.218   0.308  0.00  0.00    -0.033 A 
ATOM      2  C1  UNL d   1      -0.528  -0.728   1.009  0.00  0.00     0.039 A 
ATOM      3  C2  UNL d   1      -0.027  -2.017   1.201  0.00  0.00    -0.080 A 
ATOM      4  C3  UNL d   1       1.225  -2.346   0.688  0.00  0.00     0.150 A 
ATOM      5  C4  UNL d   1       1.980  -1.408  -0.008  0.00  0.00    -0.007 A 
ATOM      6  C5  UNL d   1       1.477  -0.122  -0.200  0.00  0.00     0.039 A 
ENDROOT
BRANCH   4   7
ATOM      7  O   UNL d   1       1.754  -3.593   0.846  0.00  0.00    -0.526 OA
ATOM      8  H5  UNL d   1       1.110  -4.143   1.322  0.00  0.00     0.418 HD
ENDBRANCH   4   7
TORSDOF 1
ENDMDL
