MODEL 1
REMARK minimizedAffinity -5.59378815
REMARK minimizedRMSD -1
REMARK  1 active torsions:
REMARK  status: ('A' for Active; 'I' for Inactive)
REMARK    1  A    between atoms: C3_4  and  O_7 
ROOT
ATOM      1  C   UNL d   1       0.922  -2.741   2.673  0.00  0.00    -0.033 A 
ATOM      2  C1  UNL d   1      -0.228  -2.031   3.025  0.00  0.00     0.039 A 
ATOM      3  C2  UNL d   1      -0.739  -1.056   2.166  0.00  0.00    -0.080 A 
ATOM      4  C3  UNL d   1      -0.093  -0.803   0.959  0.00  0.00     0.150 A 
ATOM      5  C4  UNL d   1       1.050  -1.509   0.600  0.00  0.00    -0.007 A 
ATOM      6  C5  UNL d   1       1.560  -2.481   1.460  0.00  0.00     0.039 A 
ENDROOT
BRANCH   4   7
ATOM      7  O   UNL d   1      -0.552   0.142   0.090  0.00  0.00    -0.526 OA
ATOM      8  H5  UNL d   1      -1.331   0.569   0.483  0.00  0.00     0.418 HD
ENDBRANCH   4   7
TORSDOF 1
ENDMDL
