MODEL 1
REMARK minimizedAffinity -4.37321854
REMARK minimizedRMSD -1
REMARK  1 active torsions:
REMARK  status: ('A' for Active; 'I' for Inactive)
REMARK    1  A    between atoms: C3_4  and  O_7 
ROOT
ATOM      1  C   UNL d   1       0.040   0.517   0.453  0.00  0.00    -0.033 A 
ATOM      2  C1  UNL d   1      -0.663  -0.517   1.075  0.00  0.00     0.039 A 
ATOM      3  C2  UNL d   1      -0.105  -1.795   1.153  0.00  0.00    -0.080 A 
ATOM      4  C3  UNL d   1       1.155  -2.024   0.608  0.00  0.00     0.150 A 
ATOM      5  C4  UNL d   1       1.863  -0.998  -0.009  0.00  0.00    -0.007 A 
ATOM      6  C5  UNL d   1       1.303   0.277  -0.087  0.00  0.00     0.039 A 
ENDROOT
BRANCH   4   7
ATOM      7  O   UNL d   1       1.738  -3.256   0.656  0.00  0.00    -0.526 OA
ATOM      8  H5  UNL d   1       1.122  -3.872   1.086  0.00  0.00     0.418 HD
ENDBRANCH   4   7
TORSDOF 1
ENDMDL
