MODEL 1
REMARK minimizedAffinity -3.70281076
REMARK minimizedRMSD -1
REMARK  1 active torsions:
REMARK  status: ('A' for Active; 'I' for Inactive)
REMARK    1  A    between atoms: C3_4  and  O_7 
ROOT
ATOM      1  C   UNL d   1       2.222  -2.062   1.122  0.00  0.00    -0.033 A 
ATOM      2  C1  UNL d   1       2.633  -1.404  -0.040  0.00  0.00     0.039 A 
ATOM      3  C2  UNL d   1       1.852  -0.379  -0.577  0.00  0.00    -0.080 A 
ATOM      4  C3  UNL d   1       0.665  -0.021   0.056  0.00  0.00     0.150 A 
ATOM      5  C4  UNL d   1       0.252  -0.669   1.215  0.00  0.00    -0.007 A 
ATOM      6  C5  UNL d   1       1.032  -1.693   1.750  0.00  0.00     0.039 A 
ENDROOT
BRANCH   4   7
ATOM      7  O   UNL d   1      -0.133   0.970  -0.434  0.00  0.00    -0.526 OA
ATOM      8  H5  UNL d   1       0.264   1.308  -1.254  0.00  0.00     0.418 HD
ENDBRANCH   4   7
TORSDOF 1
ENDMDL
