MODEL 1
REMARK minimizedAffinity -2.7135644
REMARK minimizedRMSD -1
REMARK  1 active torsions:
REMARK  status: ('A' for Active; 'I' for Inactive)
REMARK    1  A    between atoms: C3_4  and  O_7 
ROOT
ATOM      1  C   UNL d   1      -0.901   0.864   0.272  0.00  0.00    -0.033 A 
ATOM      2  C1  UNL d   1       0.201   0.309  -0.381  0.00  0.00     0.039 A 
ATOM      3  C2  UNL d   1       0.661  -0.960  -0.024  0.00  0.00    -0.080 A 
ATOM      4  C3  UNL d   1       0.010  -1.663   0.986  0.00  0.00     0.150 A 
ATOM      5  C4  UNL d   1      -1.091  -1.118   1.638  0.00  0.00    -0.007 A 
ATOM      6  C5  UNL d   1      -1.548   0.149   1.281  0.00  0.00     0.039 A 
ENDROOT
BRANCH   4   7
ATOM      7  O   UNL d   1       0.425  -2.903   1.372  0.00  0.00    -0.526 OA
ATOM      8  H5  UNL d   1       1.213  -3.139   0.855  0.00  0.00     0.418 HD
ENDBRANCH   4   7
TORSDOF 1
ENDMDL
