MODEL 1
REMARK minimizedAffinity -5.5311327
REMARK minimizedRMSD -1
REMARK  1 active torsions:
REMARK  status: ('A' for Active; 'I' for Inactive)
REMARK    1  A    between atoms: C3_4  and  O_7 
ROOT
ATOM      1  C   UNL d   1      -0.974   0.041   0.757  0.00  0.00    -0.033 A 
ATOM      2  C1  UNL d   1       0.137   0.171  -0.078  0.00  0.00     0.039 A 
ATOM      3  C2  UNL d   1       1.104  -0.835  -0.118  0.00  0.00    -0.080 A 
ATOM      4  C3  UNL d   1       0.948  -1.965   0.680  0.00  0.00     0.150 A 
ATOM      5  C4  UNL d   1      -0.159  -2.103   1.511  0.00  0.00    -0.007 A 
ATOM      6  C5  UNL d   1      -1.123  -1.097   1.551  0.00  0.00     0.039 A 
ENDROOT
BRANCH   4   7
ATOM      7  O   UNL d   1       1.867  -2.971   0.678  0.00  0.00    -0.526 OA
ATOM      8  H5  UNL d   1       2.591  -2.726   0.079  0.00  0.00     0.418 HD
ENDBRANCH   4   7
TORSDOF 1
ENDMDL
