MODEL 1
REMARK minimizedAffinity -3.22577691
REMARK minimizedRMSD -1
REMARK  1 active torsions:
REMARK  status: ('A' for Active; 'I' for Inactive)
REMARK    1  A    between atoms: C3_4  and  O_7 
ROOT
ATOM      1  C   UNL d   1      -0.882   1.259   0.848  0.00  0.00    -0.033 A 
ATOM      2  C1  UNL d   1      -0.024   0.851  -0.175  0.00  0.00     0.039 A 
ATOM      3  C2  UNL d   1       0.362  -0.487  -0.273  0.00  0.00    -0.080 A 
ATOM      4  C3  UNL d   1      -0.116  -1.406   0.658  0.00  0.00     0.150 A 
ATOM      5  C4  UNL d   1      -0.974  -1.007   1.677  0.00  0.00    -0.007 A 
ATOM      6  C5  UNL d   1      -1.358   0.330   1.774  0.00  0.00     0.039 A 
ENDROOT
BRANCH   4   7
ATOM      7  O   UNL d   1       0.237  -2.721   0.606  0.00  0.00    -0.526 OA
ATOM      8  H5  UNL d   1       0.856  -2.845  -0.133  0.00  0.00     0.418 HD
ENDBRANCH   4   7
TORSDOF 1
ENDMDL
