MODEL 1
REMARK minimizedAffinity -4.32135201
REMARK minimizedRMSD -1
REMARK  1 active torsions:
REMARK  status: ('A' for Active; 'I' for Inactive)
REMARK    1  A    between atoms: C3_4  and  O_7 
ROOT
ATOM      1  C   UNL d   1      -0.185   0.830  -0.126  0.00  0.00    -0.033 A 
ATOM      2  C1  UNL d   1      -0.875  -0.101   0.653  0.00  0.00     0.039 A 
ATOM      3  C2  UNL d   1      -0.258  -1.298   1.022  0.00  0.00    -0.080 A 
ATOM      4  C3  UNL d   1       1.046  -1.552   0.607  0.00  0.00     0.150 A 
ATOM      5  C4  UNL d   1       1.740  -0.627  -0.166  0.00  0.00    -0.007 A 
ATOM      6  C5  UNL d   1       1.123   0.567  -0.534  0.00  0.00     0.039 A 
ENDROOT
BRANCH   4   7
ATOM      7  O   UNL d   1       1.687  -2.709   0.938  0.00  0.00    -0.526 OA
ATOM      8  H5  UNL d   1       1.075  -3.264   1.449  0.00  0.00     0.418 HD
ENDBRANCH   4   7
TORSDOF 1
ENDMDL
