MODEL 1
REMARK minimizedAffinity -4.92281532
REMARK minimizedRMSD -1
REMARK  1 active torsions:
REMARK  status: ('A' for Active; 'I' for Inactive)
REMARK    1  A    between atoms: C3_4  and  O_7 
ROOT
ATOM      1  C   UNL d   1       1.629  -2.747   0.712  0.00  0.00    -0.033 A 
ATOM      2  C1  UNL d   1       0.237  -2.850   0.736  0.00  0.00     0.039 A 
ATOM      3  C2  UNL d   1      -0.552  -1.750   0.393  0.00  0.00    -0.080 A 
ATOM      4  C3  UNL d   1       0.063  -0.556   0.027  0.00  0.00     0.150 A 
ATOM      5  C4  UNL d   1       1.449  -0.448  -0.003  0.00  0.00    -0.007 A 
ATOM      6  C5  UNL d   1       2.235  -1.546   0.341  0.00  0.00     0.039 A 
ENDROOT
BRANCH   4   7
ATOM      7  O   UNL d   1      -0.666   0.546  -0.312  0.00  0.00    -0.526 OA
ATOM      8  H5  UNL d   1      -1.609   0.331  -0.218  0.00  0.00     0.418 HD
ENDBRANCH   4   7
TORSDOF 1
ENDMDL
