MODEL 1
REMARK minimizedAffinity -4.41918278
REMARK minimizedRMSD -1
REMARK  1 active torsions:
REMARK  status: ('A' for Active; 'I' for Inactive)
REMARK    1  A    between atoms: C3_4  and  O_7 
ROOT
ATOM      1  C   UNL d   1       0.886  -2.565   1.764  0.00  0.00    -0.033 A 
ATOM      2  C1  UNL d   1      -0.190  -1.965   1.106  0.00  0.00     0.039 A 
ATOM      3  C2  UNL d   1       0.024  -0.865   0.273  0.00  0.00    -0.080 A 
ATOM      4  C3  UNL d   1       1.317  -0.377   0.105  0.00  0.00     0.150 A 
ATOM      5  C4  UNL d   1       2.394  -0.971   0.754  0.00  0.00    -0.007 A 
ATOM      6  C5  UNL d   1       2.178  -2.069   1.586  0.00  0.00     0.039 A 
ENDROOT
BRANCH   4   7
ATOM      7  O   UNL d   1       1.574   0.697  -0.695  0.00  0.00    -0.526 OA
ATOM      8  H5  UNL d   1       0.732   1.022  -1.055  0.00  0.00     0.418 HD
ENDBRANCH   4   7
TORSDOF 1
ENDMDL
