MODEL 1
REMARK minimizedAffinity -2.67825556
REMARK minimizedRMSD -1
REMARK  1 active torsions:
REMARK  status: ('A' for Active; 'I' for Inactive)
REMARK    1  A    between atoms: C3_4  and  O_7 
ROOT
ATOM      1  C   UNL d   1       0.003   1.406  -0.395  0.00  0.00    -0.033 A 
ATOM      2  C1  UNL d   1      -1.054   0.526  -0.153  0.00  0.00     0.039 A 
ATOM      3  C2  UNL d   1      -0.801  -0.831   0.058  0.00  0.00    -0.080 A 
ATOM      4  C3  UNL d   1       0.512  -1.294   0.027  0.00  0.00     0.150 A 
ATOM      5  C4  UNL d   1       1.570  -0.423  -0.210  0.00  0.00    -0.007 A 
ATOM      6  C5  UNL d   1       1.315   0.932  -0.422  0.00  0.00     0.039 A 
ENDROOT
BRANCH   4   7
ATOM      7  O   UNL d   1       0.808  -2.610   0.223  0.00  0.00    -0.526 OA
ATOM      8  H5  UNL d   1      -0.024  -3.098   0.346  0.00  0.00     0.418 HD
ENDBRANCH   4   7
TORSDOF 1
ENDMDL
