MODEL 1
REMARK minimizedAffinity -4.37725353
REMARK minimizedRMSD -1
REMARK  1 active torsions:
REMARK  status: ('A' for Active; 'I' for Inactive)
REMARK    1  A    between atoms: C3_4  and  O_7 
ROOT
ATOM      1  C   UNL d   1      -0.368   0.425   0.287  0.00  0.00    -0.033 A 
ATOM      2  C1  UNL d   1      -0.725  -0.464   1.302  0.00  0.00     0.039 A 
ATOM      3  C2  UNL d   1      -0.056  -1.683   1.433  0.00  0.00    -0.080 A 
ATOM      4  C3  UNL d   1       0.967  -2.000   0.544  0.00  0.00     0.150 A 
ATOM      5  C4  UNL d   1       1.331  -1.117  -0.468  0.00  0.00    -0.007 A 
ATOM      6  C5  UNL d   1       0.661   0.099  -0.597  0.00  0.00     0.039 A 
ENDROOT
BRANCH   4   7
ATOM      7  O   UNL d   1       1.645  -3.179   0.629  0.00  0.00    -0.526 OA
ATOM      8  H5  UNL d   1       1.266  -3.700   1.356  0.00  0.00     0.418 HD
ENDBRANCH   4   7
TORSDOF 1
ENDMDL
