MODEL 1
REMARK minimizedAffinity -4.30058575
REMARK minimizedRMSD -1
REMARK  1 active torsions:
REMARK  status: ('A' for Active; 'I' for Inactive)
REMARK    1  A    between atoms: C3_4  and  O_7 
ROOT
ATOM      1  C   UNL d   1      -0.364   1.121  -0.002  0.00  0.00    -0.033 A 
ATOM      2  C1  UNL d   1      -1.048   0.138   0.716  0.00  0.00     0.039 A 
ATOM      3  C2  UNL d   1      -0.432  -1.084   0.993  0.00  0.00    -0.080 A 
ATOM      4  C3  UNL d   1       0.868  -1.309   0.548  0.00  0.00     0.150 A 
ATOM      5  C4  UNL d   1       1.557  -0.333  -0.164  0.00  0.00    -0.007 A 
ATOM      6  C5  UNL d   1       0.939   0.886  -0.441  0.00  0.00     0.039 A 
ENDROOT
BRANCH   4   7
ATOM      7  O   UNL d   1       1.510  -2.487   0.790  0.00  0.00    -0.526 OA
ATOM      8  H5  UNL d   1       0.902  -3.077   1.267  0.00  0.00     0.418 HD
ENDBRANCH   4   7
TORSDOF 1
ENDMDL
