MODEL 1
REMARK minimizedAffinity 2.90104032
REMARK minimizedRMSD -1
REMARK  0 active torsions:
REMARK  status: ('A' for Active; 'I' for Inactive)
ROOT
ATOM      1  C   UNL d   1       3.911   1.314  -0.730  0.00  0.00     0.078 C 
ATOM      2  C1  UNL d   1       3.395  -0.060  -1.038  0.00  0.00    -0.077 A 
ATOM      3  C2  UNL d   1       2.805  -0.849  -0.043  0.00  0.00    -0.001 A 
ATOM      4  C3  UNL d   1       2.338  -2.130  -0.341  0.00  0.00     0.003 A 
ATOM      5  C4  UNL d   1       2.457  -2.634  -1.635  0.00  0.00    -0.005 A 
ATOM      6  C5  UNL d   1       3.045  -1.857  -2.632  0.00  0.00     0.003 A 
ATOM      7  C6  UNL d   1       3.512  -0.576  -2.335  0.00  0.00    -0.001 A 
ENDROOT
TORSDOF 0
ENDMDL
