MODEL 1
REMARK minimizedAffinity 10.916708
REMARK minimizedRMSD -1
REMARK  0 active torsions:
REMARK  status: ('A' for Active; 'I' for Inactive)
ROOT
ATOM      1  C   UNL d   1       3.053   0.509  -1.147  0.00  0.00     0.078 C 
ATOM      2  C1  UNL d   1       3.431  -0.617  -0.231  0.00  0.00    -0.077 A 
ATOM      3  C2  UNL d   1       4.395  -0.440   0.769  0.00  0.00    -0.001 A 
ATOM      4  C3  UNL d   1       4.745  -1.500   1.608  0.00  0.00     0.003 A 
ATOM      5  C4  UNL d   1       4.136  -2.744   1.454  0.00  0.00    -0.005 A 
ATOM      6  C5  UNL d   1       3.177  -2.930   0.461  0.00  0.00     0.003 A 
ATOM      7  C6  UNL d   1       2.826  -1.871  -0.379  0.00  0.00    -0.001 A 
ENDROOT
TORSDOF 0
ENDMDL
