MODEL 1
REMARK minimizedAffinity -0.777941048
REMARK minimizedRMSD -1
REMARK  0 active torsions:
REMARK  status: ('A' for Active; 'I' for Inactive)
ROOT
ATOM      1  C   UNL d   1       3.718   1.558   5.989  0.00  0.00     0.078 C 
ATOM      2  C1  UNL d   1       3.424   3.028   6.000  0.00  0.00    -0.077 A 
ATOM      3  C2  UNL d   1       2.105   3.500   5.998  0.00  0.00    -0.001 A 
ATOM      4  C3  UNL d   1       1.846   4.872   5.999  0.00  0.00     0.003 A 
ATOM      5  C4  UNL d   1       2.901   5.783   5.999  0.00  0.00    -0.005 A 
ATOM      6  C5  UNL d   1       4.216   5.323   5.998  0.00  0.00     0.003 A 
ATOM      7  C6  UNL d   1       4.477   3.952   5.998  0.00  0.00    -0.001 A 
ENDROOT
TORSDOF 0
ENDMDL
