MODEL 1
REMARK minimizedAffinity 6.74975061
REMARK minimizedRMSD -1
REMARK  0 active torsions:
REMARK  status: ('A' for Active; 'I' for Inactive)
ROOT
ATOM      1  C   UNL d   1       2.282   0.635  -0.370  0.00  0.00     0.078 C 
ATOM      2  C1  UNL d   1       3.573   1.206   0.137  0.00  0.00    -0.077 A 
ATOM      3  C2  UNL d   1       3.583   2.236   1.085  0.00  0.00    -0.001 A 
ATOM      4  C3  UNL d   1       4.792   2.765   1.540  0.00  0.00     0.003 A 
ATOM      5  C4  UNL d   1       6.000   2.271   1.051  0.00  0.00    -0.005 A 
ATOM      6  C5  UNL d   1       6.000   1.248   0.105  0.00  0.00     0.003 A 
ATOM      7  C6  UNL d   1       4.792   0.718  -0.351  0.00  0.00    -0.001 A 
ENDROOT
TORSDOF 0
ENDMDL
