MODEL 1
REMARK minimizedAffinity -0.734791458
REMARK minimizedRMSD -1
REMARK  0 active torsions:
REMARK  status: ('A' for Active; 'I' for Inactive)
ROOT
ATOM      1  C   UNL d   1       0.179  -2.942  -1.367  0.00  0.00     0.078 C 
ATOM      2  C1  UNL d   1       1.268  -2.023  -0.901  0.00  0.00    -0.077 A 
ATOM      3  C2  UNL d   1       2.189  -2.432   0.071  0.00  0.00    -0.001 A 
ATOM      4  C3  UNL d   1       3.192  -1.562   0.503  0.00  0.00     0.003 A 
ATOM      5  C4  UNL d   1       3.282  -0.278  -0.030  0.00  0.00    -0.005 A 
ATOM      6  C5  UNL d   1       2.368   0.139  -0.995  0.00  0.00     0.003 A 
ATOM      7  C6  UNL d   1       1.364  -0.730  -1.429  0.00  0.00    -0.001 A 
ENDROOT
TORSDOF 0
ENDMDL
