MODEL 1
REMARK minimizedAffinity 0.53439635
REMARK minimizedRMSD -1
REMARK  0 active torsions:
REMARK  status: ('A' for Active; 'I' for Inactive)
ROOT
ATOM      1  C   UNL d   1      -1.053   1.363  -1.189  0.00  0.00     0.078 C 
ATOM      2  C1  UNL d   1      -2.366   1.413  -0.467  0.00  0.00    -0.077 A 
ATOM      3  C2  UNL d   1      -3.538   1.799  -1.128  0.00  0.00    -0.001 A 
ATOM      4  C3  UNL d   1      -4.752   1.850  -0.441  0.00  0.00     0.003 A 
ATOM      5  C4  UNL d   1      -4.805   1.518   0.911  0.00  0.00    -0.005 A 
ATOM      6  C5  UNL d   1      -3.643   1.135   1.578  0.00  0.00     0.003 A 
ATOM      7  C6  UNL d   1      -2.429   1.083   0.892  0.00  0.00    -0.001 A 
ENDROOT
TORSDOF 0
ENDMDL
