MODEL 1
REMARK minimizedAffinity 0.776465595
REMARK minimizedRMSD -1
REMARK  0 active torsions:
REMARK  status: ('A' for Active; 'I' for Inactive)
ROOT
ATOM      1  C   UNL d   1       3.739   5.950   4.119  0.00  0.00     0.078 C 
ATOM      2  C1  UNL d   1       3.312   4.544   4.419  0.00  0.00    -0.077 A 
ATOM      3  C2  UNL d   1       3.272   4.068   5.735  0.00  0.00    -0.001 A 
ATOM      4  C3  UNL d   1       2.882   2.754   5.999  0.00  0.00     0.003 A 
ATOM      5  C4  UNL d   1       2.531   1.905   4.951  0.00  0.00    -0.005 A 
ATOM      6  C5  UNL d   1       2.570   2.369   3.638  0.00  0.00     0.003 A 
ATOM      7  C6  UNL d   1       2.960   3.682   3.372  0.00  0.00    -0.001 A 
ENDROOT
TORSDOF 0
ENDMDL
