MODEL 1
REMARK minimizedAffinity 4.56463575
REMARK minimizedRMSD -1
REMARK  0 active torsions:
REMARK  status: ('A' for Active; 'I' for Inactive)
ROOT
ATOM      1  C   UNL d   1      -1.103   0.998  -0.444  0.00  0.00     0.078 C 
ATOM      2  C1  UNL d   1      -2.527   0.969   0.025  0.00  0.00    -0.077 A 
ATOM      3  C2  UNL d   1      -2.919   1.651   1.183  0.00  0.00    -0.001 A 
ATOM      4  C3  UNL d   1      -4.246   1.607   1.613  0.00  0.00     0.003 A 
ATOM      5  C4  UNL d   1      -5.192   0.881   0.892  0.00  0.00    -0.005 A 
ATOM      6  C5  UNL d   1      -4.811   0.197  -0.260  0.00  0.00     0.003 A 
ATOM      7  C6  UNL d   1      -3.484   0.240  -0.692  0.00  0.00    -0.001 A 
ENDROOT
TORSDOF 0
ENDMDL
