MODEL 1
REMARK minimizedAffinity -4.07489872
REMARK minimizedRMSD -1
REMARK  0 active torsions:
REMARK  status: ('A' for Active; 'I' for Inactive)
ROOT
ATOM      1  C   UNL d   1       3.433   1.757   5.164  0.00  0.00     0.078 C 
ATOM      2  C1  UNL d   1       3.330   3.236   4.936  0.00  0.00    -0.077 A 
ATOM      3  C2  UNL d   1       2.927   4.098   5.963  0.00  0.00    -0.001 A 
ATOM      4  C3  UNL d   1       2.827   5.471   5.734  0.00  0.00     0.003 A 
ATOM      5  C4  UNL d   1       3.126   5.994   4.478  0.00  0.00    -0.005 A 
ATOM      6  C5  UNL d   1       3.525   5.145   3.449  0.00  0.00     0.003 A 
ATOM      7  C6  UNL d   1       3.626   3.771   3.676  0.00  0.00    -0.001 A 
ENDROOT
TORSDOF 0
ENDMDL
