MODEL 1
REMARK minimizedAffinity -2.52005816
REMARK minimizedRMSD -1
REMARK  0 active torsions:
REMARK  status: ('A' for Active; 'I' for Inactive)
ROOT
ATOM      1  C   UNL d   1       5.801   4.877   5.979  0.00  0.00     0.078 C 
ATOM      2  C1  UNL d   1       4.346   4.836   5.619  0.00  0.00    -0.077 A 
ATOM      3  C2  UNL d   1       3.567   6.000   5.634  0.00  0.00    -0.001 A 
ATOM      4  C3  UNL d   1       2.211   5.946   5.306  0.00  0.00     0.003 A 
ATOM      5  C4  UNL d   1       1.622   4.731   4.962  0.00  0.00    -0.005 A 
ATOM      6  C5  UNL d   1       2.389   3.568   4.946  0.00  0.00     0.003 A 
ATOM      7  C6  UNL d   1       3.745   3.619   5.274  0.00  0.00    -0.001 A 
ENDROOT
TORSDOF 0
ENDMDL
