MODEL 1
REMARK minimizedAffinity -4.01540613
REMARK minimizedRMSD -1
REMARK  1 active torsions:
REMARK  status: ('A' for Active; 'I' for Inactive)
REMARK    1  A    between atoms: C3_4  and  O_7 
ROOT
ATOM      1  C   UNL d   1       1.230  -0.832   2.922  0.00  0.00    -0.033 A 
ATOM      2  C1  UNL d   1      -0.005  -1.219   2.399  0.00  0.00     0.039 A 
ATOM      3  C2  UNL d   1      -0.443  -0.699   1.180  0.00  0.00    -0.080 A 
ATOM      4  C3  UNL d   1       0.364   0.205   0.494  0.00  0.00     0.150 A 
ATOM      5  C4  UNL d   1       1.597   0.592   1.007  0.00  0.00    -0.007 A 
ATOM      6  C5  UNL d   1       2.032   0.072   2.225  0.00  0.00     0.039 A 
ENDROOT
BRANCH   4   7
ATOM      7  O   UNL d   1      -0.023   0.742  -0.698  0.00  0.00    -0.526 OA
ATOM      8  H5  UNL d   1      -0.909   0.406  -0.914  0.00  0.00     0.418 HD
ENDBRANCH   4   7
TORSDOF 1
ENDMDL
