MODEL 1
REMARK minimizedAffinity -4.82057667
REMARK minimizedRMSD -1
REMARK  1 active torsions:
REMARK  status: ('A' for Active; 'I' for Inactive)
REMARK    1  A    between atoms: C3_4  and  O_7 
ROOT
ATOM      1  C   UNL d   1      -0.559  -0.206   1.862  0.00  0.00    -0.033 A 
ATOM      2  C1  UNL d   1       0.289  -0.977   2.660  0.00  0.00     0.039 A 
ATOM      3  C2  UNL d   1       1.323  -1.710   2.077  0.00  0.00    -0.080 A 
ATOM      4  C3  UNL d   1       1.499  -1.665   0.696  0.00  0.00     0.150 A 
ATOM      5  C4  UNL d   1       0.661  -0.896  -0.104  0.00  0.00    -0.007 A 
ATOM      6  C5  UNL d   1      -0.373  -0.165   0.480  0.00  0.00     0.039 A 
ENDROOT
BRANCH   4   7
ATOM      7  O   UNL d   1       2.492  -2.367   0.081  0.00  0.00    -0.526 OA
ATOM      8  H5  UNL d   1       2.974  -2.875   0.755  0.00  0.00     0.418 HD
ENDBRANCH   4   7
TORSDOF 1
ENDMDL
