MODEL 1
REMARK minimizedAffinity -1.63075912
REMARK minimizedRMSD -1
REMARK  1 active torsions:
REMARK  status: ('A' for Active; 'I' for Inactive)
REMARK    1  A    between atoms: C3_4  and  O_7 
ROOT
ATOM      1  C   UNL d   1       0.073  -0.680   2.806  0.00  0.00    -0.033 A 
ATOM      2  C1  UNL d   1      -0.477   0.073   1.767  0.00  0.00     0.039 A 
ATOM      3  C2  UNL d   1      -0.110  -0.187   0.445  0.00  0.00    -0.080 A 
ATOM      4  C3  UNL d   1       0.805  -1.201   0.176  0.00  0.00     0.150 A 
ATOM      5  C4  UNL d   1       1.354  -1.957   1.207  0.00  0.00    -0.007 A 
ATOM      6  C5  UNL d   1       0.987  -1.696   2.526  0.00  0.00     0.039 A 
ENDROOT
BRANCH   4   7
ATOM      7  O   UNL d   1       1.197  -1.488  -1.098  0.00  0.00    -0.526 OA
ATOM      8  H5  UNL d   1       0.758  -0.866  -1.702  0.00  0.00     0.418 HD
ENDBRANCH   4   7
TORSDOF 1
ENDMDL
