MODEL 1
REMARK minimizedAffinity -3.58709788
REMARK minimizedRMSD -1
REMARK  1 active torsions:
REMARK  status: ('A' for Active; 'I' for Inactive)
REMARK    1  A    between atoms: C3_4  and  O_7 
ROOT
ATOM      1  C   UNL d   1      -0.734  -0.284   0.044  0.00  0.00    -0.033 A 
ATOM      2  C1  UNL d   1       0.652  -0.133  -0.032  0.00  0.00     0.039 A 
ATOM      3  C2  UNL d   1       1.412  -0.044   1.136  0.00  0.00    -0.080 A 
ATOM      4  C3  UNL d   1       0.775  -0.109   2.372  0.00  0.00     0.150 A 
ATOM      5  C4  UNL d   1      -0.605  -0.264   2.455  0.00  0.00    -0.007 A 
ATOM      6  C5  UNL d   1      -1.362  -0.351   1.288  0.00  0.00     0.039 A 
ENDROOT
BRANCH   4   7
ATOM      7  O   UNL d   1       1.474  -0.022   3.539  0.00  0.00    -0.526 OA
ATOM      8  H5  UNL d   1       2.413   0.111   3.326  0.00  0.00     0.418 HD
ENDBRANCH   4   7
TORSDOF 1
ENDMDL
