MODEL 1
REMARK minimizedAffinity -2.46011114
REMARK minimizedRMSD -1
REMARK  1 active torsions:
REMARK  status: ('A' for Active; 'I' for Inactive)
REMARK    1  A    between atoms: C3_4  and  O_7 
ROOT
ATOM      1  C   UNL d   1       1.853  -0.556   1.916  0.00  0.00    -0.033 A 
ATOM      2  C1  UNL d   1       0.910  -1.241   2.684  0.00  0.00     0.039 A 
ATOM      3  C2  UNL d   1      -0.404  -1.367   2.229  0.00  0.00    -0.080 A 
ATOM      4  C3  UNL d   1      -0.761  -0.805   1.007  0.00  0.00     0.150 A 
ATOM      5  C4  UNL d   1       0.174  -0.124   0.235  0.00  0.00    -0.007 A 
ATOM      6  C5  UNL d   1       1.486   0.002   0.691  0.00  0.00     0.039 A 
ENDROOT
BRANCH   4   7
ATOM      7  O   UNL d   1      -2.033  -0.898   0.524  0.00  0.00    -0.526 OA
ATOM      8  H5  UNL d   1      -2.576  -1.370   1.177  0.00  0.00     0.418 HD
ENDBRANCH   4   7
TORSDOF 1
ENDMDL
