MODEL 1
REMARK minimizedAffinity -4.5666995
REMARK minimizedRMSD -1
REMARK  1 active torsions:
REMARK  status: ('A' for Active; 'I' for Inactive)
REMARK    1  A    between atoms: C3_4  and  O_7 
ROOT
ATOM      1  C   UNL d   1      -0.339  -0.301   0.286  0.00  0.00    -0.033 A 
ATOM      2  C1  UNL d   1      -0.991  -0.508   1.504  0.00  0.00     0.039 A 
ATOM      3  C2  UNL d   1      -0.249  -0.728   2.666  0.00  0.00    -0.080 A 
ATOM      4  C3  UNL d   1       1.141  -0.739   2.598  0.00  0.00     0.150 A 
ATOM      5  C4  UNL d   1       1.797  -0.530   1.389  0.00  0.00    -0.007 A 
ATOM      6  C5  UNL d   1       1.055  -0.311   0.229  0.00  0.00     0.039 A 
ENDROOT
BRANCH   4   7
ATOM      7  O   UNL d   1       1.907  -0.955   3.704  0.00  0.00    -0.526 OA
ATOM      8  H5  UNL d   1       1.318  -1.112   4.461  0.00  0.00     0.418 HD
ENDBRANCH   4   7
TORSDOF 1
ENDMDL
