MODEL 1
REMARK minimizedAffinity -3.96849418
REMARK minimizedRMSD -1
REMARK  1 active torsions:
REMARK  status: ('A' for Active; 'I' for Inactive)
REMARK    1  A    between atoms: C3_4  and  O_7 
ROOT
ATOM      1  C   UNL d   1       1.180  -0.671   1.738  0.00  0.00    -0.033 A 
ATOM      2  C1  UNL d   1       1.524  -0.622   0.386  0.00  0.00     0.039 A 
ATOM      3  C2  UNL d   1       0.530  -0.696  -0.592  0.00  0.00    -0.080 A 
ATOM      4  C3  UNL d   1      -0.802  -0.817  -0.205  0.00  0.00     0.150 A 
ATOM      5  C4  UNL d   1      -1.152  -0.861   1.141  0.00  0.00    -0.007 A 
ATOM      6  C5  UNL d   1      -0.158  -0.789   2.116  0.00  0.00     0.039 A 
ENDROOT
BRANCH   4   7
ATOM      7  O   UNL d   1      -1.807  -0.897  -1.123  0.00  0.00    -0.526 OA
ATOM      8  H5  UNL d   1      -1.414  -0.883  -2.011  0.00  0.00     0.418 HD
ENDBRANCH   4   7
TORSDOF 1
ENDMDL
