MODEL 1
REMARK minimizedAffinity -4.12090445
REMARK minimizedRMSD -1
REMARK  1 active torsions:
REMARK  status: ('A' for Active; 'I' for Inactive)
REMARK    1  A    between atoms: C3_4  and  O_7 
ROOT
ATOM      1  C   UNL d   1       0.173  -0.489  -1.615  0.00  0.00    -0.033 A 
ATOM      2  C1  UNL d   1      -0.698  -0.029  -0.626  0.00  0.00     0.039 A 
ATOM      3  C2  UNL d   1      -0.325  -0.089   0.718  0.00  0.00    -0.080 A 
ATOM      4  C3  UNL d   1       0.920  -0.610   1.059  0.00  0.00     0.150 A 
ATOM      5  C4  UNL d   1       1.795  -1.067   0.078  0.00  0.00    -0.007 A 
ATOM      6  C5  UNL d   1       1.420  -1.007  -1.263  0.00  0.00     0.039 A 
ENDROOT
BRANCH   4   7
ATOM      7  O   UNL d   1       1.327  -0.693   2.358  0.00  0.00    -0.526 OA
ATOM      8  H5  UNL d   1       0.609  -0.367   2.926  0.00  0.00     0.418 HD
ENDBRANCH   4   7
TORSDOF 1
ENDMDL
