MODEL 1
REMARK minimizedAffinity -3.17622781
REMARK minimizedRMSD -1
REMARK  0 active torsions:
REMARK  status: ('A' for Active; 'I' for Inactive)
ROOT
ATOM      1  C   UNL d   1       2.577  -1.710  -1.875  0.00  0.00     0.078 C 
ATOM      2  C1  UNL d   1       1.864  -0.543  -1.259  0.00  0.00    -0.077 A 
ATOM      3  C2  UNL d   1       2.196   0.771  -1.609  0.00  0.00    -0.001 A 
ATOM      4  C3  UNL d   1       1.531   1.848  -1.020  0.00  0.00     0.003 A 
ATOM      5  C4  UNL d   1       0.531   1.621  -0.077  0.00  0.00    -0.005 A 
ATOM      6  C5  UNL d   1       0.195   0.317   0.279  0.00  0.00     0.003 A 
ATOM      7  C6  UNL d   1       0.859  -0.761  -0.309  0.00  0.00    -0.001 A 
ENDROOT
TORSDOF 0
ENDMDL
