MODEL 1
REMARK minimizedAffinity -2.77870965
REMARK minimizedRMSD -1
REMARK  0 active torsions:
REMARK  status: ('A' for Active; 'I' for Inactive)
ROOT
ATOM      1  C   UNL d   1       0.770   1.633  -0.331  0.00  0.00     0.078 C 
ATOM      2  C1  UNL d   1       1.162   0.234  -0.702  0.00  0.00    -0.077 A 
ATOM      3  C2  UNL d   1       0.463  -0.869  -0.197  0.00  0.00    -0.001 A 
ATOM      4  C3  UNL d   1       0.845  -2.166  -0.543  0.00  0.00     0.003 A 
ATOM      5  C4  UNL d   1       1.929  -2.372  -1.395  0.00  0.00    -0.005 A 
ATOM      6  C5  UNL d   1       2.632  -1.281  -1.900  0.00  0.00     0.003 A 
ATOM      7  C6  UNL d   1       2.251   0.017  -1.555  0.00  0.00    -0.001 A 
ENDROOT
TORSDOF 0
ENDMDL
