MODEL 1
REMARK minimizedAffinity -3.39155245
REMARK minimizedRMSD -1
REMARK  0 active torsions:
REMARK  status: ('A' for Active; 'I' for Inactive)
ROOT
ATOM      1  C   UNL d   1      -1.179  -0.005   1.156  0.00  0.00     0.078 C 
ATOM      2  C1  UNL d   1      -0.077   0.406   0.225  0.00  0.00    -0.077 A 
ATOM      3  C2  UNL d   1       0.591  -0.539  -0.563  0.00  0.00    -0.001 A 
ATOM      4  C3  UNL d   1       1.621  -0.144  -1.418  0.00  0.00     0.003 A 
ATOM      5  C4  UNL d   1       1.992   1.197  -1.493  0.00  0.00    -0.005 A 
ATOM      6  C5  UNL d   1       1.334   2.145  -0.711  0.00  0.00     0.003 A 
ATOM      7  C6  UNL d   1       0.304   1.751   0.145  0.00  0.00    -0.001 A 
ENDROOT
TORSDOF 0
ENDMDL
