MODEL 1
REMARK minimizedAffinity -3.81426907
REMARK minimizedRMSD -1
REMARK  0 active torsions:
REMARK  status: ('A' for Active; 'I' for Inactive)
ROOT
ATOM      1  C   UNL d   1      -0.919   0.067   1.249  0.00  0.00     0.078 C 
ATOM      2  C1  UNL d   1       0.169   0.180   0.224  0.00  0.00    -0.077 A 
ATOM      3  C2  UNL d   1       0.864  -0.952  -0.220  0.00  0.00    -0.001 A 
ATOM      4  C3  UNL d   1       1.881  -0.830  -1.168  0.00  0.00     0.003 A 
ATOM      5  C4  UNL d   1       2.213   0.423  -1.680  0.00  0.00    -0.005 A 
ATOM      6  C5  UNL d   1       1.529   1.556  -1.243  0.00  0.00     0.003 A 
ATOM      7  C6  UNL d   1       0.512   1.435  -0.295  0.00  0.00    -0.001 A 
ENDROOT
TORSDOF 0
ENDMDL
