MODEL 1
REMARK minimizedAffinity -3.1719017
REMARK minimizedRMSD -1
REMARK  0 active torsions:
REMARK  status: ('A' for Active; 'I' for Inactive)
ROOT
ATOM      1  C   UNL d   1       2.119  -2.675  -1.316  0.00  0.00     0.078 C 
ATOM      2  C1  UNL d   1       1.564  -1.348  -0.893  0.00  0.00    -0.077 A 
ATOM      3  C2  UNL d   1       2.086  -0.152  -1.401  0.00  0.00    -0.001 A 
ATOM      4  C3  UNL d   1       1.566   1.076  -0.990  0.00  0.00     0.003 A 
ATOM      5  C4  UNL d   1       0.522   1.121  -0.068  0.00  0.00    -0.005 A 
ATOM      6  C5  UNL d   1      -0.003  -0.064   0.445  0.00  0.00     0.003 A 
ATOM      7  C6  UNL d   1       0.516  -1.293   0.035  0.00  0.00    -0.001 A 
ENDROOT
TORSDOF 0
ENDMDL
