MODEL 1
REMARK minimizedAffinity 2.93083119
REMARK minimizedRMSD -1
REMARK  0 active torsions:
REMARK  status: ('A' for Active; 'I' for Inactive)
ROOT
ATOM      1  C   UNL d   1      -5.942   2.404  -4.909  0.00  0.00     0.078 C 
ATOM      2  C1  UNL d   1      -5.133   3.611  -5.277  0.00  0.00    -0.077 A 
ATOM      3  C2  UNL d   1      -3.741   3.531  -5.415  0.00  0.00    -0.001 A 
ATOM      4  C3  UNL d   1      -2.999   4.665  -5.749  0.00  0.00     0.003 A 
ATOM      5  C4  UNL d   1      -3.639   5.887  -5.947  0.00  0.00    -0.005 A 
ATOM      6  C5  UNL d   1      -5.023   5.977  -5.810  0.00  0.00     0.003 A 
ATOM      7  C6  UNL d   1      -5.767   4.844  -5.476  0.00  0.00    -0.001 A 
ENDROOT
TORSDOF 0
ENDMDL
