MODEL 1
REMARK minimizedAffinity -2.65287328
REMARK minimizedRMSD -1
REMARK  0 active torsions:
REMARK  status: ('A' for Active; 'I' for Inactive)
ROOT
ATOM      1  C   UNL d   1       0.001  -0.322   0.643  0.00  0.00     0.078 C 
ATOM      2  C1  UNL d   1      -1.374   0.094   1.073  0.00  0.00    -0.077 A 
ATOM      3  C2  UNL d   1      -1.561   1.165   1.955  0.00  0.00    -0.001 A 
ATOM      4  C3  UNL d   1      -2.846   1.535   2.354  0.00  0.00     0.003 A 
ATOM      5  C4  UNL d   1      -3.954   0.838   1.878  0.00  0.00    -0.005 A 
ATOM      6  C5  UNL d   1      -3.778  -0.232   1.002  0.00  0.00     0.003 A 
ATOM      7  C6  UNL d   1      -2.494  -0.603   0.601  0.00  0.00    -0.001 A 
ENDROOT
TORSDOF 0
ENDMDL
