MODEL 1
REMARK minimizedAffinity -2.59622645
REMARK minimizedRMSD -1
REMARK  0 active torsions:
REMARK  status: ('A' for Active; 'I' for Inactive)
ROOT
ATOM      1  C   UNL d   1      -3.139   0.731   1.095  0.00  0.00     0.078 C 
ATOM      2  C1  UNL d   1      -1.711   0.558   0.672  0.00  0.00    -0.077 A 
ATOM      3  C2  UNL d   1      -1.205   1.225  -0.450  0.00  0.00    -0.001 A 
ATOM      4  C3  UNL d   1       0.124   1.047  -0.838  0.00  0.00     0.003 A 
ATOM      5  C4  UNL d   1       0.958   0.201  -0.111  0.00  0.00    -0.005 A 
ATOM      6  C5  UNL d   1       0.463  -0.469   1.006  0.00  0.00     0.003 A 
ATOM      7  C6  UNL d   1      -0.865  -0.293   1.396  0.00  0.00    -0.001 A 
ENDROOT
TORSDOF 0
ENDMDL
