MODEL 1
REMARK minimizedAffinity -3.6753726
REMARK minimizedRMSD -1
REMARK  0 active torsions:
REMARK  status: ('A' for Active; 'I' for Inactive)
ROOT
ATOM      1  C   UNL d   1      -1.074   0.179   1.483  0.00  0.00     0.078 C 
ATOM      2  C1  UNL d   1      -0.063   0.297   0.382  0.00  0.00    -0.077 A 
ATOM      3  C2  UNL d   1       0.584   1.512   0.124  0.00  0.00    -0.001 A 
ATOM      4  C3  UNL d   1       1.515   1.610  -0.911  0.00  0.00     0.003 A 
ATOM      5  C4  UNL d   1       1.808   0.497  -1.696  0.00  0.00    -0.005 A 
ATOM      6  C5  UNL d   1       1.169  -0.715  -1.448  0.00  0.00     0.003 A 
ATOM      7  C6  UNL d   1       0.236  -0.816  -0.414  0.00  0.00    -0.001 A 
ENDROOT
TORSDOF 0
ENDMDL
