MODEL 1
REMARK minimizedAffinity -3.42898655
REMARK minimizedRMSD -1
REMARK  0 active torsions:
REMARK  status: ('A' for Active; 'I' for Inactive)
ROOT
ATOM      1  C   UNL d   1      -0.129   0.374   0.752  0.00  0.00     0.078 C 
ATOM      2  C1  UNL d   1      -1.540   0.473   1.248  0.00  0.00    -0.077 A 
ATOM      3  C2  UNL d   1      -1.864   1.278   2.347  0.00  0.00    -0.001 A 
ATOM      4  C3  UNL d   1      -3.180   1.354   2.804  0.00  0.00     0.003 A 
ATOM      5  C4  UNL d   1      -4.184   0.625   2.168  0.00  0.00    -0.005 A 
ATOM      6  C5  UNL d   1      -3.872  -0.180   1.075  0.00  0.00     0.003 A 
ATOM      7  C6  UNL d   1      -2.556  -0.256   0.617  0.00  0.00    -0.001 A 
ENDROOT
TORSDOF 0
ENDMDL
