MODEL 1
REMARK minimizedAffinity -4.14180326
REMARK minimizedRMSD -1
REMARK  0 active torsions:
REMARK  status: ('A' for Active; 'I' for Inactive)
ROOT
ATOM      1  C   UNL d   1       2.006  -3.318  -1.138  0.00  0.00     0.078 C 
ATOM      2  C1  UNL d   1       1.650  -1.864  -1.047  0.00  0.00    -0.077 A 
ATOM      3  C2  UNL d   1       2.331  -0.906  -1.808  0.00  0.00    -0.001 A 
ATOM      4  C3  UNL d   1       1.995   0.445  -1.707  0.00  0.00     0.003 A 
ATOM      5  C4  UNL d   1       0.979   0.850  -0.844  0.00  0.00    -0.005 A 
ATOM      6  C5  UNL d   1       0.297  -0.096  -0.081  0.00  0.00     0.003 A 
ATOM      7  C6  UNL d   1       0.631  -1.447  -0.181  0.00  0.00    -0.001 A 
ENDROOT
TORSDOF 0
ENDMDL
