MODEL 1
REMARK minimizedAffinity -2.63770628
REMARK minimizedRMSD -1
REMARK  0 active torsions:
REMARK  status: ('A' for Active; 'I' for Inactive)
ROOT
ATOM      1  C   UNL d   1      -1.293   0.315   1.394  0.00  0.00     0.078 C 
ATOM      2  C1  UNL d   1      -0.247   0.153   0.332  0.00  0.00    -0.077 A 
ATOM      3  C2  UNL d   1       0.446   1.261  -0.172  0.00  0.00    -0.001 A 
ATOM      4  C3  UNL d   1       1.410   1.096  -1.168  0.00  0.00     0.003 A 
ATOM      5  C4  UNL d   1       1.690  -0.174  -1.668  0.00  0.00    -0.005 A 
ATOM      6  C5  UNL d   1       1.004  -1.281  -1.174  0.00  0.00     0.003 A 
ATOM      7  C6  UNL d   1       0.039  -1.119  -0.178  0.00  0.00    -0.001 A 
ENDROOT
TORSDOF 0
ENDMDL
