MODEL 1
REMARK minimizedAffinity -3.87846136
REMARK minimizedRMSD -1
REMARK  0 active torsions:
REMARK  status: ('A' for Active; 'I' for Inactive)
ROOT
ATOM      1  C   UNL d   1      -0.927   0.027   1.072  0.00  0.00     0.078 C 
ATOM      2  C1  UNL d   1       0.147  -0.363   0.101  0.00  0.00    -0.077 A 
ATOM      3  C2  UNL d   1       0.488  -1.707  -0.095  0.00  0.00    -0.001 A 
ATOM      4  C3  UNL d   1       1.496  -2.056  -0.995  0.00  0.00     0.003 A 
ATOM      5  C4  UNL d   1       2.173  -1.066  -1.705  0.00  0.00    -0.005 A 
ATOM      6  C5  UNL d   1       1.842   0.274  -1.514  0.00  0.00     0.003 A 
ATOM      7  C6  UNL d   1       0.834   0.624  -0.615  0.00  0.00    -0.001 A 
ENDROOT
TORSDOF 0
ENDMDL
