MODEL 1
REMARK minimizedAffinity -1.72173429
REMARK minimizedRMSD -1
REMARK  0 active torsions:
REMARK  status: ('A' for Active; 'I' for Inactive)
ROOT
ATOM      1  C   UNL d   1       2.112   0.573  -1.864  0.00  0.00     0.078 C 
ATOM      2  C1  UNL d   1       1.218  -0.140  -0.893  0.00  0.00    -0.077 A 
ATOM      3  C2  UNL d   1       0.962  -1.510  -1.021  0.00  0.00    -0.001 A 
ATOM      4  C3  UNL d   1       0.120  -2.159  -0.116  0.00  0.00     0.003 A 
ATOM      5  C4  UNL d   1      -0.472  -1.444   0.924  0.00  0.00    -0.005 A 
ATOM      6  C5  UNL d   1      -0.225  -0.080   1.058  0.00  0.00     0.003 A 
ATOM      7  C6  UNL d   1       0.616   0.570   0.153  0.00  0.00    -0.001 A 
ENDROOT
TORSDOF 0
ENDMDL
