MODEL 1
REMARK minimizedAffinity -4.00430632
REMARK minimizedRMSD -1
REMARK  0 active torsions:
REMARK  status: ('A' for Active; 'I' for Inactive)
ROOT
ATOM      1  C   UNL d   1       2.443  -2.799  -1.780  0.00  0.00     0.078 C 
ATOM      2  C1  UNL d   1       1.828  -1.467  -1.473  0.00  0.00    -0.077 A 
ATOM      3  C2  UNL d   1       0.699  -1.366  -0.651  0.00  0.00    -0.001 A 
ATOM      4  C3  UNL d   1       0.131  -0.120  -0.382  0.00  0.00     0.003 A 
ATOM      5  C4  UNL d   1       0.684   1.035  -0.931  0.00  0.00    -0.005 A 
ATOM      6  C5  UNL d   1       1.806   0.944  -1.752  0.00  0.00     0.003 A 
ATOM      7  C6  UNL d   1       2.376  -0.301  -2.023  0.00  0.00    -0.001 A 
ENDROOT
TORSDOF 0
ENDMDL
