MODEL 1
REMARK minimizedAffinity -2.12440515
REMARK minimizedRMSD -1
REMARK  0 active torsions:
REMARK  status: ('A' for Active; 'I' for Inactive)
ROOT
ATOM      1  C   UNL d   1       1.164  -2.206  -0.083  0.00  0.00     0.078 C 
ATOM      2  C1  UNL d   1       1.521  -0.970  -0.853  0.00  0.00    -0.077 A 
ATOM      3  C2  UNL d   1       1.595   0.278  -0.222  0.00  0.00    -0.001 A 
ATOM      4  C3  UNL d   1       1.920   1.421  -0.953  0.00  0.00     0.003 A 
ATOM      5  C4  UNL d   1       2.172   1.329  -2.321  0.00  0.00    -0.005 A 
ATOM      6  C5  UNL d   1       2.098   0.092  -2.959  0.00  0.00     0.003 A 
ATOM      7  C6  UNL d   1       1.773  -1.052  -2.229  0.00  0.00    -0.001 A 
ENDROOT
TORSDOF 0
ENDMDL
