MODEL 1
REMARK minimizedAffinity 3.23989201
REMARK minimizedRMSD -1
REMARK  0 active torsions:
REMARK  status: ('A' for Active; 'I' for Inactive)
ROOT
ATOM      1  O1  BZF d   1       2.646  -5.383  -3.639  0.00  0.00    -0.204 OA
ATOM      2  C2  BZF d   1       1.781  -4.398  -4.075  0.00  0.00     0.174 A 
ATOM      3  C3  BZF d   1       2.380  -3.603  -4.985  0.00  0.00    -0.012 A 
ATOM      4  C3A BZF d   1       3.673  -4.180  -5.195  0.00  0.00    -0.107 A 
ATOM      5  C4  BZF d   1       4.728  -3.853  -5.997  0.00  0.00     0.055 A 
ATOM      6  C5  BZF d   1       5.873  -4.579  -5.911  0.00  0.00    -0.016 A 
ATOM      7  C6  BZF d   1       6.000  -5.634  -5.032  0.00  0.00     0.022 A 
ATOM      8  C7  BZF d   1       4.979  -6.000  -4.219  0.00  0.00     0.029 A 
ATOM      9  C7A BZF d   1       3.809  -5.289  -4.327  0.00  0.00     0.058 A 
ENDROOT
TORSDOF 0
ENDMDL
