MODEL 1
REMARK minimizedAffinity 5.50698948
REMARK minimizedRMSD -1
REMARK  0 active torsions:
REMARK  status: ('A' for Active; 'I' for Inactive)
ROOT
ATOM      1  O1  BZF d   1       0.836  -1.154  -2.043  0.00  0.00    -0.204 OA
ATOM      2  C2  BZF d   1      -0.278  -1.247  -2.856  0.00  0.00     0.174 A 
ATOM      3  C3  BZF d   1      -1.277  -0.471  -2.389  0.00  0.00    -0.012 A 
ATOM      4  C3A BZF d   1      -0.725   0.217  -1.263  0.00  0.00    -0.107 A 
ATOM      5  C4  BZF d   1      -1.224   1.141  -0.390  0.00  0.00     0.055 A 
ATOM      6  C5  BZF d   1      -0.448   1.559   0.645  0.00  0.00    -0.016 A 
ATOM      7  C6  BZF d   1       0.828   1.071   0.839  0.00  0.00     0.022 A 
ATOM      8  C7  BZF d   1       1.368   0.157  -0.004  0.00  0.00     0.029 A 
ATOM      9  C7A BZF d   1       0.598  -0.243  -1.069  0.00  0.00     0.058 A 
ENDROOT
TORSDOF 0
ENDMDL
