MODEL 1
REMARK minimizedAffinity -2.19290113
REMARK minimizedRMSD -1
REMARK  0 active torsions:
REMARK  status: ('A' for Active; 'I' for Inactive)
ROOT
ATOM      1  O1  BZF d   1       0.432   2.824  -5.959  0.00  0.00    -0.204 OA
ATOM      2  C2  BZF d   1      -0.544   3.802  -5.957  0.00  0.00     0.174 A 
ATOM      3  C3  BZF d   1       0.009   5.031  -5.916  0.00  0.00    -0.012 A 
ATOM      4  C3A BZF d   1       1.421   4.810  -5.984  0.00  0.00    -0.107 A 
ATOM      5  C4  BZF d   1       2.502   5.645  -6.000  0.00  0.00     0.055 A 
ATOM      6  C5  BZF d   1       3.751   5.108  -5.998  0.00  0.00    -0.016 A 
ATOM      7  C6  BZF d   1       3.955   3.744  -5.976  0.00  0.00     0.022 A 
ATOM      8  C7  BZF d   1       2.914   2.876  -5.965  0.00  0.00     0.029 A 
ATOM      9  C7A BZF d   1       1.651   3.415  -6.000  0.00  0.00     0.058 A 
ENDROOT
TORSDOF 0
ENDMDL
