MODEL 1
REMARK minimizedAffinity -3.07083368
REMARK minimizedRMSD -1
REMARK  0 active torsions:
REMARK  status: ('A' for Active; 'I' for Inactive)
ROOT
ATOM      1  O1  BZF d   1      -0.118   5.638  -5.977  0.00  0.00    -0.204 OA
ATOM      2  C2  BZF d   1       0.698   4.523  -5.993  0.00  0.00     0.174 A 
ATOM      3  C3  BZF d   1      -0.036   3.393  -5.945  0.00  0.00    -0.012 A 
ATOM      4  C3A BZF d   1      -1.399   3.827  -5.990  0.00  0.00    -0.107 A 
ATOM      5  C4  BZF d   1      -2.595   3.167  -5.990  0.00  0.00     0.055 A 
ATOM      6  C5  BZF d   1      -3.746   3.888  -5.967  0.00  0.00    -0.016 A 
ATOM      7  C6  BZF d   1      -3.739   5.267  -5.939  0.00  0.00     0.022 A 
ATOM      8  C7  BZF d   1      -2.578   5.966  -5.944  0.00  0.00     0.029 A 
ATOM      9  C7A BZF d   1      -1.413   5.241  -6.000  0.00  0.00     0.058 A 
ENDROOT
TORSDOF 0
ENDMDL
