MODEL 1
REMARK minimizedAffinity 0.516927958
REMARK minimizedRMSD -1
REMARK  0 active torsions:
REMARK  status: ('A' for Active; 'I' for Inactive)
ROOT
ATOM      1  O1  BZF d   1       0.402   2.370  -5.918  0.00  0.00    -0.204 OA
ATOM      2  C2  BZF d   1       1.501   3.207  -5.920  0.00  0.00     0.174 A 
ATOM      3  C3  BZF d   1       1.120   4.498  -5.999  0.00  0.00    -0.012 A 
ATOM      4  C3A BZF d   1      -0.310   4.471  -5.957  0.00  0.00    -0.107 A 
ATOM      5  C4  BZF d   1      -1.269   5.443  -5.982  0.00  0.00     0.055 A 
ATOM      6  C5  BZF d   1      -2.578   5.080  -5.999  0.00  0.00    -0.016 A 
ATOM      7  C6  BZF d   1      -2.964   3.756  -5.996  0.00  0.00     0.022 A 
ATOM      8  C7  BZF d   1      -2.050   2.756  -5.966  0.00  0.00     0.029 A 
ATOM      9  C7A BZF d   1      -0.726   3.120  -5.916  0.00  0.00     0.058 A 
ENDROOT
TORSDOF 0
ENDMDL
