MODEL 1
REMARK minimizedAffinity -3.81441808
REMARK minimizedRMSD -1
REMARK  0 active torsions:
REMARK  status: ('A' for Active; 'I' for Inactive)
ROOT
ATOM      1  O1  BZF d   1      -1.761   5.998  -5.916  0.00  0.00    -0.204 OA
ATOM      2  C2  BZF d   1      -3.042   5.479  -5.919  0.00  0.00     0.174 A 
ATOM      3  C3  BZF d   1      -3.013   4.133  -6.000  0.00  0.00    -0.012 A 
ATOM      4  C3A BZF d   1      -1.626   3.784  -5.957  0.00  0.00    -0.107 A 
ATOM      5  C4  BZF d   1      -0.957   2.593  -5.983  0.00  0.00     0.055 A 
ATOM      6  C5  BZF d   1       0.402   2.600  -5.999  0.00  0.00    -0.016 A 
ATOM      7  C6  BZF d   1       1.123   3.777  -5.995  0.00  0.00     0.022 A 
ATOM      8  C7  BZF d   1       0.503   4.982  -5.964  0.00  0.00     0.029 A 
ATOM      9  C7A BZF d   1      -0.870   4.978  -5.914  0.00  0.00     0.058 A 
ENDROOT
TORSDOF 0
ENDMDL
