MODEL 1
REMARK minimizedAffinity -0.146961063
REMARK minimizedRMSD -1
REMARK  0 active torsions:
REMARK  status: ('A' for Active; 'I' for Inactive)
ROOT
ATOM      1  O1  BZF d   1       1.587   4.697  -5.866  0.00  0.00    -0.204 OA
ATOM      2  C2  BZF d   1       1.105   5.991  -5.884  0.00  0.00     0.174 A 
ATOM      3  C3  BZF d   1      -0.240   6.000  -5.987  0.00  0.00    -0.012 A 
ATOM      4  C3A BZF d   1      -0.629   4.624  -5.944  0.00  0.00    -0.107 A 
ATOM      5  C4  BZF d   1      -1.837   3.988  -5.988  0.00  0.00     0.055 A 
ATOM      6  C5  BZF d   1      -1.868   2.630  -5.999  0.00  0.00    -0.016 A 
ATOM      7  C6  BZF d   1      -0.713   1.876  -5.972  0.00  0.00     0.022 A 
ATOM      8  C7  BZF d   1       0.508   2.462  -5.923  0.00  0.00     0.029 A 
ATOM      9  C7A BZF d   1       0.542   3.834  -5.879  0.00  0.00     0.058 A 
ENDROOT
TORSDOF 0
ENDMDL
