MODEL 1
REMARK minimizedAffinity 0.427160829
REMARK minimizedRMSD -1
REMARK  0 active torsions:
REMARK  status: ('A' for Active; 'I' for Inactive)
ROOT
ATOM      1  O1  BZF d   1      -0.979   5.192  -5.946  0.00  0.00    -0.204 OA
ATOM      2  C2  BZF d   1      -1.840   4.112  -5.939  0.00  0.00     0.174 A 
ATOM      3  C3  BZF d   1      -1.153   2.953  -6.000  0.00  0.00    -0.012 A 
ATOM      4  C3A BZF d   1       0.226   3.329  -5.955  0.00  0.00    -0.107 A 
ATOM      5  C4  BZF d   1       1.394   2.621  -5.966  0.00  0.00     0.055 A 
ATOM      6  C5  BZF d   1       2.574   3.294  -5.986  0.00  0.00    -0.016 A 
ATOM      7  C6  BZF d   1       2.624   4.672  -6.000  0.00  0.00     0.022 A 
ATOM      8  C7  BZF d   1       1.493   5.418  -5.985  0.00  0.00     0.029 A 
ATOM      9  C7A BZF d   1       0.299   4.741  -5.932  0.00  0.00     0.058 A 
ENDROOT
TORSDOF 0
ENDMDL
