MODEL 1
REMARK minimizedAffinity -0.654215515
REMARK minimizedRMSD -1
REMARK  0 active torsions:
REMARK  status: ('A' for Active; 'I' for Inactive)
ROOT
ATOM      1  O1  BZF d   1      -0.423   5.917  -5.978  0.00  0.00    -0.204 OA
ATOM      2  C2  BZF d   1       0.633   5.027  -5.993  0.00  0.00     0.174 A 
ATOM      3  C3  BZF d   1       0.187   3.755  -5.944  0.00  0.00    -0.012 A 
ATOM      4  C3A BZF d   1      -1.239   3.854  -5.989  0.00  0.00    -0.107 A 
ATOM      5  C4  BZF d   1      -2.245   2.931  -5.988  0.00  0.00     0.055 A 
ATOM      6  C5  BZF d   1      -3.535   3.359  -5.966  0.00  0.00    -0.016 A 
ATOM      7  C6  BZF d   1      -3.854   4.700  -5.938  0.00  0.00     0.022 A 
ATOM      8  C7  BZF d   1      -2.891   5.654  -5.943  0.00  0.00     0.029 A 
ATOM      9  C7A BZF d   1      -1.587   5.225  -6.000  0.00  0.00     0.058 A 
ENDROOT
TORSDOF 0
ENDMDL
