MODEL 1
REMARK minimizedAffinity -0.0573487841
REMARK minimizedRMSD -1
REMARK  0 active torsions:
REMARK  status: ('A' for Active; 'I' for Inactive)
ROOT
ATOM      1  O1  BZF d   1       5.638   3.387  -5.804  0.00  0.00    -0.204 OA
ATOM      2  C2  BZF d   1       5.999   4.720  -5.805  0.00  0.00     0.174 A 
ATOM      3  C3  BZF d   1       4.912   5.510  -5.920  0.00  0.00    -0.012 A 
ATOM      4  C3A BZF d   1       3.794   4.617  -5.902  0.00  0.00    -0.107 A 
ATOM      5  C4  BZF d   1       2.443   4.803  -5.967  0.00  0.00     0.055 A 
ATOM      6  C5  BZF d   1       1.627   3.716  -5.999  0.00  0.00    -0.016 A 
ATOM      7  C6  BZF d   1       2.129   2.431  -5.973  0.00  0.00     0.022 A 
ATOM      8  C7  BZF d   1       3.462   2.197  -5.904  0.00  0.00     0.029 A 
ATOM      9  C7A BZF d   1       4.287   3.293  -5.838  0.00  0.00     0.058 A 
ENDROOT
TORSDOF 0
ENDMDL
