MODEL 1
REMARK minimizedAffinity 2.35156822
REMARK minimizedRMSD -1
REMARK  0 active torsions:
REMARK  status: ('A' for Active; 'I' for Inactive)
ROOT
ATOM      1  O1  BZF d   1      -3.707   5.965  -5.989  0.00  0.00    -0.204 OA
ATOM      2  C2  BZF d   1      -4.702   5.030  -5.775  0.00  0.00     0.174 A 
ATOM      3  C3  BZF d   1      -4.172   3.810  -5.553  0.00  0.00    -0.012 A 
ATOM      4  C3A BZF d   1      -2.755   4.011  -5.542  0.00  0.00    -0.107 A 
ATOM      5  C4  BZF d   1      -1.690   3.178  -5.353  0.00  0.00     0.055 A 
ATOM      6  C5  BZF d   1      -0.432   3.676  -5.478  0.00  0.00    -0.016 A 
ATOM      7  C6  BZF d   1      -0.203   4.999  -5.795  0.00  0.00     0.022 A 
ATOM      8  C7  BZF d   1      -1.227   5.865  -5.987  0.00  0.00     0.029 A 
ATOM      9  C7A BZF d   1      -2.500   5.372  -5.829  0.00  0.00     0.058 A 
ENDROOT
TORSDOF 0
ENDMDL
