MODEL 1
REMARK minimizedAffinity 7.40563059
REMARK minimizedRMSD -1
REMARK  0 active torsions:
REMARK  status: ('A' for Active; 'I' for Inactive)
ROOT
ATOM      1  O1  BZF d   1       1.469   0.734  -5.999  0.00  0.00    -0.204 OA
ATOM      2  C2  BZF d   1       0.297   0.008  -5.905  0.00  0.00     0.174 A 
ATOM      3  C3  BZF d   1      -0.763   0.827  -5.750  0.00  0.00    -0.012 A 
ATOM      4  C3A BZF d   1      -0.231   2.152  -5.838  0.00  0.00    -0.107 A 
ATOM      5  C4  BZF d   1      -0.792   3.395  -5.776  0.00  0.00     0.055 A 
ATOM      6  C5  BZF d   1       0.015   4.488  -5.824  0.00  0.00    -0.016 A 
ATOM      7  C6  BZF d   1       1.386   4.374  -5.929  0.00  0.00     0.022 A 
ATOM      8  C7  BZF d   1       1.988   3.161  -6.000  0.00  0.00     0.029 A 
ATOM      9  C7A BZF d   1       1.173   2.056  -5.985  0.00  0.00     0.058 A 
ENDROOT
TORSDOF 0
ENDMDL
