MODEL 1
REMARK minimizedAffinity 11.1381884
REMARK minimizedRMSD -1
REMARK  0 active torsions:
REMARK  status: ('A' for Active; 'I' for Inactive)
ROOT
ATOM      1  O1  BZF d   1      -5.110   4.711   0.693  0.00  0.00    -0.204 OA
ATOM      2  C2  BZF d   1      -5.292   5.998   0.224  0.00  0.00     0.174 A 
ATOM      3  C3  BZF d   1      -5.600   5.989  -1.089  0.00  0.00    -0.012 A 
ATOM      4  C3A BZF d   1      -5.703   4.607  -1.442  0.00  0.00    -0.107 A 
ATOM      5  C4  BZF d   1      -6.000   3.954  -2.605  0.00  0.00     0.055 A 
ATOM      6  C5  BZF d   1      -5.944   2.597  -2.633  0.00  0.00    -0.016 A 
ATOM      7  C6  BZF d   1      -5.590   1.861  -1.521  0.00  0.00     0.022 A 
ATOM      8  C7  BZF d   1      -5.292   2.464  -0.344  0.00  0.00     0.029 A 
ATOM      9  C7A BZF d   1      -5.379   3.834  -0.303  0.00  0.00     0.058 A 
ENDROOT
TORSDOF 0
ENDMDL
