MODEL 1
REMARK minimizedAffinity 2.99449658
REMARK minimizedRMSD -1
REMARK  0 active torsions:
REMARK  status: ('A' for Active; 'I' for Inactive)
ROOT
ATOM      1  O1  BZF d   1      -4.134  -5.500  -4.141  0.00  0.00    -0.204 OA
ATOM      2  C2  BZF d   1      -2.873  -6.000  -4.402  0.00  0.00     0.174 A 
ATOM      3  C3  BZF d   1      -2.118  -6.000  -3.284  0.00  0.00    -0.012 A 
ATOM      4  C3A BZF d   1      -2.990  -5.554  -2.241  0.00  0.00    -0.107 A 
ATOM      5  C4  BZF d   1      -2.826  -5.359  -0.899  0.00  0.00     0.055 A 
ATOM      6  C5  BZF d   1      -3.856  -4.846  -0.176  0.00  0.00    -0.016 A 
ATOM      7  C6  BZF d   1      -5.059  -4.510  -0.762  0.00  0.00     0.022 A 
ATOM      8  C7  BZF d   1      -5.270  -4.690  -2.089  0.00  0.00     0.029 A 
ATOM      9  C7A BZF d   1      -4.243  -5.240  -2.816  0.00  0.00     0.058 A 
ENDROOT
TORSDOF 0
ENDMDL
