MODEL 1
REMARK minimizedAffinity 3.30812335
REMARK minimizedRMSD -1
REMARK  0 active torsions:
REMARK  status: ('A' for Active; 'I' for Inactive)
ROOT
ATOM      1  O1  BZF d   1      -4.269   3.756  -5.898  0.00  0.00    -0.204 OA
ATOM      2  C2  BZF d   1      -4.983   4.938  -5.865  0.00  0.00     0.174 A 
ATOM      3  C3  BZF d   1      -4.151   5.999  -5.827  0.00  0.00    -0.012 A 
ATOM      4  C3A BZF d   1      -2.834   5.448  -5.929  0.00  0.00    -0.107 A 
ATOM      5  C4  BZF d   1      -1.586   6.000  -5.961  0.00  0.00     0.055 A 
ATOM      6  C5  BZF d   1      -0.502   5.180  -5.992  0.00  0.00    -0.016 A 
ATOM      7  C6  BZF d   1      -0.630   3.807  -5.986  0.00  0.00     0.022 A 
ATOM      8  C7  BZF d   1      -1.848   3.213  -5.960  0.00  0.00     0.029 A 
ATOM      9  C7A BZF d   1      -2.946   4.039  -5.962  0.00  0.00     0.058 A 
ENDROOT
TORSDOF 0
ENDMDL
