MODEL 1
REMARK minimizedAffinity 9.09505177
REMARK minimizedRMSD -1
REMARK  0 active torsions:
REMARK  status: ('A' for Active; 'I' for Inactive)
ROOT
ATOM      1  O1  BZF d   1      -1.570  -1.338   1.822  0.00  0.00    -0.204 OA
ATOM      2  C2  BZF d   1      -1.188  -2.471   2.515  0.00  0.00     0.174 A 
ATOM      3  C3  BZF d   1      -2.171  -2.880   3.342  0.00  0.00    -0.012 A 
ATOM      4  C3A BZF d   1      -3.269  -1.999   3.087  0.00  0.00    -0.107 A 
ATOM      5  C4  BZF d   1      -4.537  -1.908   3.587  0.00  0.00     0.055 A 
ATOM      6  C5  BZF d   1      -5.336  -0.888   3.180  0.00  0.00    -0.016 A 
ATOM      7  C6  BZF d   1      -4.900   0.061   2.278  0.00  0.00     0.022 A 
ATOM      8  C7  BZF d   1      -3.653   0.010   1.751  0.00  0.00     0.029 A 
ATOM      9  C7A BZF d   1      -2.854  -1.039   2.135  0.00  0.00     0.058 A 
ENDROOT
TORSDOF 0
ENDMDL
