MODEL 1
REMARK minimizedAffinity 3.27806067
REMARK minimizedRMSD -1
REMARK  0 active torsions:
REMARK  status: ('A' for Active; 'I' for Inactive)
ROOT
ATOM      1  O1  BZF d   1      -0.889   2.516   0.588  0.00  0.00    -0.204 OA
ATOM      2  C2  BZF d   1      -1.290   1.462   1.386  0.00  0.00     0.174 A 
ATOM      3  C3  BZF d   1      -0.699   0.315   0.997  0.00  0.00    -0.012 A 
ATOM      4  C3A BZF d   1       0.195   0.690  -0.056  0.00  0.00    -0.107 A 
ATOM      5  C4  BZF d   1       1.074  -0.007  -0.835  0.00  0.00     0.055 A 
ATOM      6  C5  BZF d   1       1.742   0.645  -1.822  0.00  0.00    -0.016 A 
ATOM      7  C6  BZF d   1       1.551   1.991  -2.062  0.00  0.00     0.022 A 
ATOM      8  C7  BZF d   1       0.694   2.725  -1.312  0.00  0.00     0.029 A 
ATOM      9  C7A BZF d   1       0.042   2.076  -0.292  0.00  0.00     0.058 A 
ENDROOT
TORSDOF 0
ENDMDL
