MODEL 1
REMARK minimizedAffinity 7.90015793
REMARK minimizedRMSD -1
REMARK  0 active torsions:
REMARK  status: ('A' for Active; 'I' for Inactive)
ROOT
ATOM      1  O1  BZF d   1       1.691  -0.573  -0.635  0.00  0.00    -0.204 OA
ATOM      2  C2  BZF d   1       0.806   0.369  -1.125  0.00  0.00     0.174 A 
ATOM      3  C3  BZF d   1       0.778   0.343  -2.473  0.00  0.00    -0.012 A 
ATOM      4  C3A BZF d   1       1.634  -0.741  -2.846  0.00  0.00    -0.107 A 
ATOM      5  C4  BZF d   1       2.001  -1.277  -4.048  0.00  0.00     0.055 A 
ATOM      6  C5  BZF d   1       2.911  -2.285  -4.071  0.00  0.00    -0.016 A 
ATOM      7  C6  BZF d   1       3.478  -2.779  -2.914  0.00  0.00     0.022 A 
ATOM      8  C7  BZF d   1       3.141  -2.283  -1.698  0.00  0.00     0.029 A 
ATOM      9  C7A BZF d   1       2.197  -1.286  -1.669  0.00  0.00     0.058 A 
ENDROOT
TORSDOF 0
ENDMDL
