MODEL 1
REMARK minimizedAffinity 0.614469767
REMARK minimizedRMSD -1
REMARK  0 active torsions:
REMARK  status: ('A' for Active; 'I' for Inactive)
ROOT
ATOM      1  C   UNL d   1      -2.587  -3.294  -5.118  0.00  0.00     0.172 C 
ATOM      2  N   UNL d   1      -1.903  -4.079  -4.117  0.00  0.00    -0.070 N 
ATOM      3  C1  UNL d   1      -2.505  -4.854  -3.162  0.00  0.00    -0.004 A 
ATOM      4  C2  UNL d   1      -1.513  -5.438  -2.406  0.00  0.00    -0.047 A 
ATOM      5  C3  UNL d   1      -0.271  -4.998  -2.923  0.00  0.00    -0.047 A 
ATOM      6  C4  UNL d   1      -0.542  -4.157  -3.982  0.00  0.00    -0.004 A 
ENDROOT
TORSDOF 0
ENDMDL
