MODEL 1
REMARK minimizedAffinity 5.21533871
REMARK minimizedRMSD -1
REMARK  0 active torsions:
REMARK  status: ('A' for Active; 'I' for Inactive)
ROOT
ATOM      1  C   UNL d   1      -2.650  -4.782  -3.464  0.00  0.00     0.172 C 
ATOM      2  N   UNL d   1      -3.481  -4.151  -4.462  0.00  0.00    -0.070 N 
ATOM      3  C1  UNL d   1      -3.379  -2.852  -4.881  0.00  0.00    -0.004 A 
ATOM      4  C2  UNL d   1      -4.348  -2.639  -5.838  0.00  0.00    -0.047 A 
ATOM      5  C3  UNL d   1      -5.057  -3.853  -6.000  0.00  0.00    -0.047 A 
ATOM      6  C4  UNL d   1      -4.500  -4.772  -5.136  0.00  0.00    -0.004 A 
ENDROOT
TORSDOF 0
ENDMDL
