MODEL 1
REMARK minimizedAffinity 6.67142534
REMARK minimizedRMSD -1
REMARK  0 active torsions:
REMARK  status: ('A' for Active; 'I' for Inactive)
ROOT
ATOM      1  C   UNL d   1      -5.934  -1.716  -5.999  0.00  0.00     0.172 C 
ATOM      2  N   UNL d   1      -4.787  -2.592  -5.980  0.00  0.00    -0.070 N 
ATOM      3  C1  UNL d   1      -3.478  -2.193  -5.942  0.00  0.00    -0.004 A 
ATOM      4  C2  UNL d   1      -2.692  -3.325  -5.935  0.00  0.00    -0.047 A 
ATOM      5  C3  UNL d   1      -3.558  -4.443  -5.972  0.00  0.00    -0.047 A 
ATOM      6  C4  UNL d   1      -4.850  -3.961  -5.999  0.00  0.00    -0.004 A 
ENDROOT
TORSDOF 0
ENDMDL
