MODEL 1
REMARK minimizedAffinity 6.63373709
REMARK minimizedRMSD -1
REMARK  0 active torsions:
REMARK  status: ('A' for Active; 'I' for Inactive)
ROOT
ATOM      1  C   UNL d   1      -2.242   1.386   2.314  0.00  0.00     0.172 C 
ATOM      2  N   UNL d   1      -0.900   1.383   2.847  0.00  0.00    -0.070 N 
ATOM      3  C1  UNL d   1      -0.425   2.222   3.820  0.00  0.00    -0.004 A 
ATOM      4  C2  UNL d   1       0.896   1.901   4.046  0.00  0.00    -0.047 A 
ATOM      5  C3  UNL d   1       1.227   0.833   3.179  0.00  0.00    -0.047 A 
ATOM      6  C4  UNL d   1       0.097   0.533   2.447  0.00  0.00    -0.004 A 
ENDROOT
TORSDOF 0
ENDMDL
