MODEL 1
REMARK minimizedAffinity 3.23716521
REMARK minimizedRMSD -1
REMARK  0 active torsions:
REMARK  status: ('A' for Active; 'I' for Inactive)
ROOT
ATOM      1  C   UNL d   1      -0.028  -4.345  -2.736  0.00  0.00     0.172 C 
ATOM      2  N   UNL d   1       0.947  -3.476  -2.119  0.00  0.00    -0.070 N 
ATOM      3  C1  UNL d   1       1.891  -3.858  -1.203  0.00  0.00    -0.004 A 
ATOM      4  C2  UNL d   1       2.623  -2.741  -0.862  0.00  0.00    -0.047 A 
ATOM      5  C3  UNL d   1       2.101  -1.651  -1.597  0.00  0.00    -0.047 A 
ATOM      6  C4  UNL d   1       1.064  -2.134  -2.367  0.00  0.00    -0.004 A 
ENDROOT
TORSDOF 0
ENDMDL
