MODEL 1
REMARK minimizedAffinity 6.67171192
REMARK minimizedRMSD -1
REMARK  0 active torsions:
REMARK  status: ('A' for Active; 'I' for Inactive)
ROOT
ATOM      1  C   UNL d   1       2.780  -2.372  -0.658  0.00  0.00     0.172 C 
ATOM      2  N   UNL d   1       2.520  -1.406  -1.700  0.00  0.00    -0.070 N 
ATOM      3  C1  UNL d   1       2.570  -1.651  -3.046  0.00  0.00    -0.004 A 
ATOM      4  C2  UNL d   1       2.259  -0.478  -3.700  0.00  0.00    -0.047 A 
ATOM      5  C3  UNL d   1       2.015   0.505  -2.713  0.00  0.00    -0.047 A 
ATOM      6  C4  UNL d   1       2.183  -0.096  -1.484  0.00  0.00    -0.004 A 
ENDROOT
TORSDOF 0
ENDMDL
