MODEL 1
REMARK minimizedAffinity 7.13994694
REMARK minimizedRMSD -1
REMARK  0 active torsions:
REMARK  status: ('A' for Active; 'I' for Inactive)
ROOT
ATOM      1  C   UNL d   1      -3.032   1.024   2.997  0.00  0.00     0.172 C 
ATOM      2  N   UNL d   1      -3.726   1.755   4.031  0.00  0.00    -0.070 N 
ATOM      3  C1  UNL d   1      -3.340   1.847   5.341  0.00  0.00    -0.004 A 
ATOM      4  C2  UNL d   1      -4.262   2.630   6.000  0.00  0.00    -0.047 A 
ATOM      5  C3  UNL d   1      -5.238   3.022   5.053  0.00  0.00    -0.047 A 
ATOM      6  C4  UNL d   1      -4.882   2.467   3.842  0.00  0.00    -0.004 A 
ENDROOT
TORSDOF 0
ENDMDL
