MODEL 1
REMARK minimizedAffinity 5.41814041
REMARK minimizedRMSD -1
REMARK  0 active torsions:
REMARK  status: ('A' for Active; 'I' for Inactive)
ROOT
ATOM      1  C   UNL d   1      -3.699  -4.637  -3.218  0.00  0.00     0.172 C 
ATOM      2  N   UNL d   1      -2.565  -3.769  -3.000  0.00  0.00    -0.070 N 
ATOM      3  C1  UNL d   1      -2.607  -2.402  -2.938  0.00  0.00    -0.004 A 
ATOM      4  C2  UNL d   1      -1.324  -1.950  -2.717  0.00  0.00    -0.047 A 
ATOM      5  C3  UNL d   1      -0.482  -3.085  -2.647  0.00  0.00    -0.047 A 
ATOM      6  C4  UNL d   1      -1.276  -4.198  -2.825  0.00  0.00    -0.004 A 
ENDROOT
TORSDOF 0
ENDMDL
