MODEL 1
REMARK minimizedAffinity 11.7373695
REMARK minimizedRMSD -1
REMARK  0 active torsions:
REMARK  status: ('A' for Active; 'I' for Inactive)
ROOT
ATOM      1  C   UNL d   1      -4.884   3.708   6.000  0.00  0.00     0.172 C 
ATOM      2  N   UNL d   1      -4.414   2.611   5.187  0.00  0.00    -0.070 N 
ATOM      3  C1  UNL d   1      -4.959   2.209   3.996  0.00  0.00    -0.004 A 
ATOM      4  C2  UNL d   1      -4.226   1.135   3.538  0.00  0.00    -0.047 A 
ATOM      5  C3  UNL d   1      -3.207   0.883   4.487  0.00  0.00    -0.047 A 
ATOM      6  C4  UNL d   1      -3.346   1.811   5.497  0.00  0.00    -0.004 A 
ENDROOT
TORSDOF 0
ENDMDL
