MODEL 1
REMARK minimizedAffinity 12.4458895
REMARK minimizedRMSD -1
REMARK  0 active torsions:
REMARK  status: ('A' for Active; 'I' for Inactive)
ROOT
ATOM      1  C   UNL d   1      -5.933   3.782  -5.999  0.00  0.00     0.172 C 
ATOM      2  N   UNL d   1      -4.572   3.452  -5.647  0.00  0.00    -0.070 N 
ATOM      3  C1  UNL d   1      -3.723   4.240  -4.916  0.00  0.00    -0.004 A 
ATOM      4  C2  UNL d   1      -2.524   3.572  -4.799  0.00  0.00    -0.047 A 
ATOM      5  C3  UNL d   1      -2.656   2.341  -5.484  0.00  0.00    -0.047 A 
ATOM      6  C4  UNL d   1      -3.934   2.292  -5.999  0.00  0.00    -0.004 A 
ENDROOT
TORSDOF 0
ENDMDL
