MODEL 1
REMARK minimizedAffinity 4.14025307
REMARK minimizedRMSD -1
REMARK  0 active torsions:
REMARK  status: ('A' for Active; 'I' for Inactive)
ROOT
ATOM      1  C   UNL d   1       1.294  -3.617  -3.529  0.00  0.00     0.172 C 
ATOM      2  N   UNL d   1       1.740  -2.885  -2.366  0.00  0.00    -0.070 N 
ATOM      3  C1  UNL d   1       1.998  -1.541  -2.318  0.00  0.00    -0.004 A 
ATOM      4  C2  UNL d   1       2.397  -1.233  -1.036  0.00  0.00    -0.047 A 
ATOM      5  C3  UNL d   1       2.380  -2.434  -0.287  0.00  0.00    -0.047 A 
ATOM      6  C4  UNL d   1       1.969  -3.441  -1.135  0.00  0.00    -0.004 A 
ENDROOT
TORSDOF 0
ENDMDL
