MODEL 1
REMARK minimizedAffinity 7.18029165
REMARK minimizedRMSD -1
REMARK  0 active torsions:
REMARK  status: ('A' for Active; 'I' for Inactive)
ROOT
ATOM      1  C   UNL d   1       1.424   1.169   5.655  0.00  0.00     0.172 C 
ATOM      2  N   UNL d   1       0.577   1.067   4.490  0.00  0.00    -0.070 N 
ATOM      3  C1  UNL d   1       0.360  -0.069   3.757  0.00  0.00    -0.004 A 
ATOM      4  C2  UNL d   1      -0.505   0.249   2.732  0.00  0.00    -0.047 A 
ATOM      5  C3  UNL d   1      -0.818   1.624   2.853  0.00  0.00    -0.047 A 
ATOM      6  C4  UNL d   1      -0.134   2.106   3.949  0.00  0.00    -0.004 A 
ENDROOT
TORSDOF 0
ENDMDL
