MODEL 1
REMARK minimizedAffinity 1.17071259
REMARK minimizedRMSD -1
REMARK  0 active torsions:
REMARK  status: ('A' for Active; 'I' for Inactive)
ROOT
ATOM      1  C   UNL d   1      -0.679  -6.000  -5.628  0.00  0.00     0.172 C 
ATOM      2  N   UNL d   1       0.297  -5.783  -4.586  0.00  0.00    -0.070 N 
ATOM      3  C1  UNL d   1       0.027  -5.333  -3.321  0.00  0.00    -0.004 A 
ATOM      4  C2  UNL d   1       1.220  -5.262  -2.635  0.00  0.00    -0.047 A 
ATOM      5  C3  UNL d   1       2.242  -5.683  -3.518  0.00  0.00    -0.047 A 
ATOM      6  C4  UNL d   1       1.643  -6.000  -4.718  0.00  0.00    -0.004 A 
ENDROOT
TORSDOF 0
ENDMDL
