MODEL 1
REMARK minimizedAffinity -1.07283771
REMARK minimizedRMSD -1
REMARK  0 active torsions:
REMARK  status: ('A' for Active; 'I' for Inactive)
ROOT
ATOM      1  C   UNL d   1       1.117  -1.767   3.708  0.00  0.00     0.172 C 
ATOM      2  N   UNL d   1       0.308  -0.972   2.814  0.00  0.00    -0.070 N 
ATOM      3  C1  UNL d   1      -1.053  -0.832   2.880  0.00  0.00    -0.004 A 
ATOM      4  C2  UNL d   1      -1.441   0.004   1.856  0.00  0.00    -0.047 A 
ATOM      5  C3  UNL d   1      -0.274   0.379   1.150  0.00  0.00    -0.047 A 
ATOM      6  C4  UNL d   1       0.795  -0.239   1.764  0.00  0.00    -0.004 A 
ENDROOT
TORSDOF 0
ENDMDL
