MODEL 1
REMARK minimizedAffinity -0.0256661773
REMARK minimizedRMSD -1
REMARK  0 active torsions:
REMARK  status: ('A' for Active; 'I' for Inactive)
ROOT
ATOM      1  C   UNL d   1      -0.927  -0.169   2.786  0.00  0.00     0.172 C 
ATOM      2  N   UNL d   1      -1.402   0.048   1.439  0.00  0.00    -0.070 N 
ATOM      3  C1  UNL d   1      -1.625   1.268   0.858  0.00  0.00    -0.004 A 
ATOM      4  C2  UNL d   1      -2.071   1.048  -0.427  0.00  0.00    -0.047 A 
ATOM      5  C3  UNL d   1      -2.119  -0.353  -0.625  0.00  0.00    -0.047 A 
ATOM      6  C4  UNL d   1      -1.700  -0.947   0.546  0.00  0.00    -0.004 A 
ENDROOT
TORSDOF 0
ENDMDL
