MODEL 1
REMARK minimizedAffinity -1.64466298
REMARK minimizedRMSD -1
REMARK  0 active torsions:
REMARK  status: ('A' for Active; 'I' for Inactive)
ROOT
ATOM      1  C   UNL d   1       1.234  -1.456   4.599  0.00  0.00     0.172 C 
ATOM      2  N   UNL d   1      -0.041  -1.370   3.926  0.00  0.00    -0.070 N 
ATOM      3  C1  UNL d   1      -0.427  -0.372   3.071  0.00  0.00    -0.004 A 
ATOM      4  C2  UNL d   1      -1.706  -0.655   2.642  0.00  0.00    -0.047 A 
ATOM      5  C3  UNL d   1      -2.102  -1.865   3.261  0.00  0.00    -0.047 A 
ATOM      6  C4  UNL d   1      -1.052  -2.286   4.050  0.00  0.00    -0.004 A 
ENDROOT
TORSDOF 0
ENDMDL
