MODEL 1
REMARK minimizedAffinity -1.78298676
REMARK minimizedRMSD -1
REMARK  0 active torsions:
REMARK  status: ('A' for Active; 'I' for Inactive)
ROOT
ATOM      1  C   UNL d   1      -0.752  -5.294  -6.000  0.00  0.00     0.172 C 
ATOM      2  N   UNL d   1       0.245  -5.567  -4.992  0.00  0.00    -0.070 N 
ATOM      3  C1  UNL d   1       0.001  -5.765  -3.659  0.00  0.00    -0.004 A 
ATOM      4  C2  UNL d   1       1.209  -5.996  -3.038  0.00  0.00    -0.047 A 
ATOM      5  C3  UNL d   1       2.215  -5.934  -4.032  0.00  0.00    -0.047 A 
ATOM      6  C4  UNL d   1       1.590  -5.668  -5.232  0.00  0.00    -0.004 A 
ENDROOT
TORSDOF 0
ENDMDL
