MODEL 1
REMARK minimizedAffinity -1.96765602
REMARK minimizedRMSD -1
REMARK  0 active torsions:
REMARK  status: ('A' for Active; 'I' for Inactive)
ROOT
ATOM      1  C   UNL d   1       3.005  -3.972  -4.424  0.00  0.00     0.172 C 
ATOM      2  N   UNL d   1       1.857  -4.796  -4.128  0.00  0.00    -0.070 N 
ATOM      3  C1  UNL d   1       0.943  -5.250  -5.040  0.00  0.00    -0.004 A 
ATOM      4  C2  UNL d   1       0.005  -5.999  -4.363  0.00  0.00    -0.047 A 
ATOM      5  C3  UNL d   1       0.368  -5.994  -2.995  0.00  0.00    -0.047 A 
ATOM      6  C4  UNL d   1       1.518  -5.242  -2.877  0.00  0.00    -0.004 A 
ENDROOT
TORSDOF 0
ENDMDL
