MODEL 1
REMARK minimizedAffinity -3.1428771
REMARK minimizedRMSD -1
REMARK  0 active torsions:
REMARK  status: ('A' for Active; 'I' for Inactive)
ROOT
ATOM      1  C   UNL d   1       1.298  -1.458   3.757  0.00  0.00     0.172 C 
ATOM      2  N   UNL d   1      -0.037  -1.267   3.242  0.00  0.00    -0.070 N 
ATOM      3  C1  UNL d   1      -0.386  -0.426   2.220  0.00  0.00    -0.004 A 
ATOM      4  C2  UNL d   1      -1.747  -0.532   2.031  0.00  0.00    -0.047 A 
ATOM      5  C3  UNL d   1      -2.233  -1.469   2.974  0.00  0.00    -0.047 A 
ATOM      6  C4  UNL d   1      -1.154  -1.909   3.711  0.00  0.00    -0.004 A 
ENDROOT
TORSDOF 0
ENDMDL
