MODEL 1
REMARK minimizedAffinity -1.39707744
REMARK minimizedRMSD -1
REMARK  0 active torsions:
REMARK  status: ('A' for Active; 'I' for Inactive)
ROOT
ATOM      1  C   UNL d   1      -0.815   0.015   1.592  0.00  0.00     0.172 C 
ATOM      2  N   UNL d   1      -0.693  -0.870   2.727  0.00  0.00    -0.070 N 
ATOM      3  C1  UNL d   1      -1.707  -1.607   3.277  0.00  0.00    -0.004 A 
ATOM      4  C2  UNL d   1      -1.186  -2.317   4.337  0.00  0.00    -0.047 A 
ATOM      5  C3  UNL d   1       0.189  -1.995   4.427  0.00  0.00    -0.047 A 
ATOM      6  C4  UNL d   1       0.467  -1.097   3.419  0.00  0.00    -0.004 A 
ENDROOT
TORSDOF 0
ENDMDL
