MODEL 1
REMARK minimizedAffinity -2.13411951
REMARK minimizedRMSD -1
REMARK  0 active torsions:
REMARK  status: ('A' for Active; 'I' for Inactive)
ROOT
ATOM      1  C   UNL d   1       2.653  -1.766   5.579  0.00  0.00     0.172 C 
ATOM      2  N   UNL d   1       1.696  -1.636   4.505  0.00  0.00    -0.070 N 
ATOM      3  C1  UNL d   1       1.910  -0.986   3.319  0.00  0.00    -0.004 A 
ATOM      4  C2  UNL d   1       0.759  -1.088   2.569  0.00  0.00    -0.047 A 
ATOM      5  C3  UNL d   1      -0.180  -1.824   3.330  0.00  0.00    -0.047 A 
ATOM      6  C4  UNL d   1       0.426  -2.151   4.525  0.00  0.00    -0.004 A 
ENDROOT
TORSDOF 0
ENDMDL
