MODEL 1
REMARK minimizedAffinity -0.50350219
REMARK minimizedRMSD -1
REMARK  0 active torsions:
REMARK  status: ('A' for Active; 'I' for Inactive)
ROOT
ATOM      1  C   UNL d   1       1.065  -0.608   1.498  0.00  0.00     0.172 C 
ATOM      2  N   UNL d   1       0.032  -0.808   2.487  0.00  0.00    -0.070 N 
ATOM      3  C1  UNL d   1      -1.294  -1.026   2.223  0.00  0.00    -0.004 A 
ATOM      4  C2  UNL d   1      -1.947  -1.168   3.428  0.00  0.00    -0.047 A 
ATOM      5  C3  UNL d   1      -0.980  -1.029   4.452  0.00  0.00    -0.047 A 
ATOM      6  C4  UNL d   1       0.236  -0.807   3.842  0.00  0.00    -0.004 A 
ENDROOT
TORSDOF 0
ENDMDL
