MODEL 1
REMARK minimizedAffinity 0.543961763
REMARK minimizedRMSD -1
REMARK  0 active torsions:
REMARK  status: ('A' for Active; 'I' for Inactive)
ROOT
ATOM      1  C   UNL d   1      -0.474  -0.380  -5.966  0.00  0.00     0.172 C 
ATOM      2  N   UNL d   1       0.949  -0.227  -5.774  0.00  0.00    -0.070 N 
ATOM      3  C1  UNL d   1       1.844  -1.247  -5.595  0.00  0.00    -0.004 A 
ATOM      4  C2  UNL d   1       3.096  -0.689  -5.449  0.00  0.00    -0.047 A 
ATOM      5  C3  UNL d   1       2.947   0.715  -5.541  0.00  0.00    -0.047 A 
ATOM      6  C4  UNL d   1       1.607   0.974  -5.743  0.00  0.00    -0.004 A 
ENDROOT
TORSDOF 0
ENDMDL
