MODEL 1
REMARK minimizedAffinity 4.00084734
REMARK minimizedRMSD -1
REMARK  0 active torsions:
REMARK  status: ('A' for Active; 'I' for Inactive)
ROOT
ATOM      1  C   UNL d   1       1.125  -1.107   3.221  0.00  0.00     0.172 C 
ATOM      2  N   UNL d   1       2.124  -1.471   4.199  0.00  0.00    -0.070 N 
ATOM      3  C1  UNL d   1       2.909  -2.592   4.158  0.00  0.00    -0.004 A 
ATOM      4  C2  UNL d   1       3.728  -2.574   5.267  0.00  0.00    -0.047 A 
ATOM      5  C3  UNL d   1       3.423  -1.402   5.999  0.00  0.00    -0.047 A 
ATOM      6  C4  UNL d   1       2.427  -0.738   5.316  0.00  0.00    -0.004 A 
ENDROOT
TORSDOF 0
ENDMDL
