MODEL 1
REMARK minimizedAffinity -1.06020188
REMARK minimizedRMSD -1
REMARK  0 active torsions:
REMARK  status: ('A' for Active; 'I' for Inactive)
ROOT
ATOM      1  C   UNL d   1       0.803  -1.659   4.332  0.00  0.00     0.172 C 
ATOM      2  N   UNL d   1       0.246  -0.923   3.222  0.00  0.00    -0.070 N 
ATOM      3  C1  UNL d   1       0.848  -0.735   2.006  0.00  0.00    -0.004 A 
ATOM      4  C2  UNL d   1      -0.003   0.016   1.225  0.00  0.00    -0.047 A 
ATOM      5  C3  UNL d   1      -1.156   0.290   1.999  0.00  0.00    -0.047 A 
ATOM      6  C4  UNL d   1      -0.976  -0.303   3.230  0.00  0.00    -0.004 A 
ENDROOT
TORSDOF 0
ENDMDL
