MODEL 1
REMARK minimizedAffinity 12.2407007
REMARK minimizedRMSD -1
REMARK  2 active torsions:
REMARK  status: ('A' for Active; 'I' for Inactive)
REMARK    1  A    between atoms: C2'_3  and  C1'_4 
REMARK    2  A    between atoms: C1'_4  and  C1_5 
ROOT
ATOM      1  C1  I4B d   1       0.783  -1.048  -1.880  0.00  0.00    -0.075 A 
ATOM      2  C2  I4B d   1       0.341  -1.494  -3.101  0.00  0.00     0.003 A 
ATOM      3  C3  I4B d   1       1.166  -2.323  -3.898  0.00  0.00     0.002 A 
ATOM      4  C4  I4B d   1       2.437  -2.638  -3.462  0.00  0.00    -0.004 A 
ATOM      5  C5  I4B d   1       2.874  -2.204  -2.214  0.00  0.00     0.002 A 
ATOM      6  C6  I4B d   1       2.038  -1.414  -1.412  0.00  0.00     0.003 A 
ENDROOT
BRANCH   1   7
ATOM      7  C1' I4B d   1      -0.102  -0.146  -1.079  0.00  0.00     0.060 C 
BRANCH   7   8
ATOM      8  C2' I4B d   1      -1.502  -0.239  -1.649  0.00  0.00    -0.013 C 
ATOM      9  C4' I4B d   1      -2.461  -0.827  -0.648  0.00  0.00     0.013 C 
ATOM     10  C3' I4B d   1      -1.927   1.140  -2.060  0.00  0.00     0.013 C 
ENDBRANCH   7   8
ENDBRANCH   1   7
TORSDOF 2
ENDMDL
