MODEL 1
REMARK minimizedAffinity 10.517704
REMARK minimizedRMSD -1
REMARK  2 active torsions:
REMARK  status: ('A' for Active; 'I' for Inactive)
REMARK    1  A    between atoms: C2'_3  and  C1'_4 
REMARK    2  A    between atoms: C1'_4  and  C1_5 
ROOT
ATOM      1  C1  I4B d   1       2.887  -1.888  -0.639  0.00  0.00    -0.075 A 
ATOM      2  C2  I4B d   1       2.733  -0.766   0.137  0.00  0.00     0.003 A 
ATOM      3  C3  I4B d   1       3.473   0.406  -0.149  0.00  0.00     0.002 A 
ATOM      4  C4  I4B d   1       4.388   0.397  -1.183  0.00  0.00    -0.004 A 
ATOM      5  C5  I4B d   1       4.526  -0.734  -1.983  0.00  0.00     0.002 A 
ATOM      6  C6  I4B d   1       3.762  -1.880  -1.717  0.00  0.00     0.003 A 
ENDROOT
BRANCH   1   7
ATOM      7  C1' I4B d   1       2.113  -3.119  -0.288  0.00  0.00     0.060 C 
BRANCH   7   8
ATOM      8  C2' I4B d   1       0.643  -2.826  -0.511  0.00  0.00    -0.013 C 
ATOM      9  C4' I4B d   1       0.406  -2.239  -1.878  0.00  0.00     0.013 C 
ATOM     10  C3' I4B d   1      -0.116  -4.107  -0.333  0.00  0.00     0.013 C 
ENDBRANCH   7   8
ENDBRANCH   1   7
TORSDOF 2
ENDMDL
