MODEL 1
REMARK minimizedAffinity 11.6504183
REMARK minimizedRMSD -1
REMARK  2 active torsions:
REMARK  status: ('A' for Active; 'I' for Inactive)
REMARK    1  A    between atoms: C2'_3  and  C1'_4 
REMARK    2  A    between atoms: C1'_4  and  C1_5 
ROOT
ATOM      1  C1  I4B d   1       2.590   1.343   0.929  0.00  0.00    -0.075 A 
ATOM      2  C2  I4B d   1       3.599   2.270   0.853  0.00  0.00     0.003 A 
ATOM      3  C3  I4B d   1       4.759   2.001   0.086  0.00  0.00     0.002 A 
ATOM      4  C4  I4B d   1       4.889   0.780  -0.542  0.00  0.00    -0.004 A 
ATOM      5  C5  I4B d   1       3.855  -0.150  -0.483  0.00  0.00     0.002 A 
ATOM      6  C6  I4B d   1       2.693   0.137   0.247  0.00  0.00     0.003 A 
ENDROOT
BRANCH   1   7
ATOM      7  C1' I4B d   1       1.394   1.646   1.774  0.00  0.00     0.060 C 
BRANCH   7   8
ATOM      8  C2' I4B d   1       1.755   1.354   3.217  0.00  0.00    -0.013 C 
ATOM      9  C4' I4B d   1       2.715   2.382   3.757  0.00  0.00     0.013 C 
ATOM     10  C3' I4B d   1       0.486   1.326   4.015  0.00  0.00     0.013 C 
ENDBRANCH   7   8
ENDBRANCH   1   7
TORSDOF 2
ENDMDL
