MODEL 1
REMARK minimizedAffinity 13.0728779
REMARK minimizedRMSD -1
REMARK  2 active torsions:
REMARK  status: ('A' for Active; 'I' for Inactive)
REMARK    1  A    between atoms: C2'_3  and  C1'_4 
REMARK    2  A    between atoms: C1'_4  and  C1_5 
ROOT
ATOM      1  C1  I4B d   1      -5.226   4.393   4.015  0.00  0.00    -0.075 A 
ATOM      2  C2  I4B d   1      -5.999   5.127   4.879  0.00  0.00     0.003 A 
ATOM      3  C3  I4B d   1      -5.389   5.952   5.856  0.00  0.00     0.002 A 
ATOM      4  C4  I4B d   1      -4.014   5.972   5.965  0.00  0.00    -0.004 A 
ATOM      5  C5  I4B d   1      -3.232   5.245   5.073  0.00  0.00     0.002 A 
ATOM      6  C6  I4B d   1      -3.841   4.459   4.084  0.00  0.00     0.003 A 
ENDROOT
BRANCH   1   7
ATOM      7  C1' I4B d   1      -5.903   3.507   3.017  0.00  0.00     0.060 C 
BRANCH   7   8
ATOM      8  C2' I4B d   1      -4.866   3.068   2.004  0.00  0.00    -0.013 C 
ATOM      9  C4' I4B d   1      -5.268   1.779   1.337  0.00  0.00     0.013 C 
ATOM     10  C3' I4B d   1      -4.704   4.170   1.000  0.00  0.00     0.013 C 
ENDBRANCH   7   8
ENDBRANCH   1   7
TORSDOF 2
ENDMDL
