MODEL 1
REMARK minimizedAffinity 18.5310154
REMARK minimizedRMSD -1
REMARK  2 active torsions:
REMARK  status: ('A' for Active; 'I' for Inactive)
REMARK    1  A    between atoms: C2'_3  and  C1'_4 
REMARK    2  A    between atoms: C1'_4  and  C1_5 
ROOT
ATOM      1  C1  I4B d   1       2.274  -2.165  -0.463  0.00  0.00    -0.075 A 
ATOM      2  C2  I4B d   1       1.710  -3.099   0.370  0.00  0.00     0.003 A 
ATOM      3  C3  I4B d   1       0.656  -3.924  -0.093  0.00  0.00     0.002 A 
ATOM      4  C4  I4B d   1       0.167  -3.749  -1.371  0.00  0.00    -0.004 A 
ATOM      5  C5  I4B d   1       0.755  -2.817  -2.222  0.00  0.00     0.002 A 
ATOM      6  C6  I4B d   1       1.824  -2.029  -1.770  0.00  0.00     0.003 A 
ENDROOT
BRANCH   1   7
ATOM      7  C1' I4B d   1       3.362  -1.288   0.069  0.00  0.00     0.060 C 
BRANCH   7   8
ATOM      8  C2' I4B d   1       3.121   0.118  -0.443  0.00  0.00    -0.013 C 
ATOM      9  C4' I4B d   1       2.041   0.808   0.349  0.00  0.00     0.013 C 
ATOM     10  C3' I4B d   1       4.416   0.869  -0.361  0.00  0.00     0.013 C 
ENDBRANCH   7   8
ENDBRANCH   1   7
TORSDOF 2
ENDMDL
