MODEL 1
REMARK minimizedAffinity 17.3688927
REMARK minimizedRMSD -1
REMARK  2 active torsions:
REMARK  status: ('A' for Active; 'I' for Inactive)
REMARK    1  A    between atoms: C2'_3  and  C1'_4 
REMARK    2  A    between atoms: C1'_4  and  C1_5 
ROOT
ATOM      1  C1  I4B d   1      -2.728  -0.151  -0.778  0.00  0.00    -0.075 A 
ATOM      2  C2  I4B d   1      -2.110   0.602  -1.746  0.00  0.00     0.003 A 
ATOM      3  C3  I4B d   1      -1.273  -0.018  -2.705  0.00  0.00     0.002 A 
ATOM      4  C4  I4B d   1      -1.043  -1.376  -2.630  0.00  0.00    -0.004 A 
ATOM      5  C5  I4B d   1      -1.689  -2.141  -1.663  0.00  0.00     0.002 A 
ATOM      6  C6  I4B d   1      -2.546  -1.527  -0.738  0.00  0.00     0.003 A 
ENDROOT
BRANCH   1   7
ATOM      7  C1' I4B d   1      -3.579   0.541   0.239  0.00  0.00     0.060 C 
BRANCH   7   8
ATOM      8  C2' I4B d   1      -4.705   1.242  -0.493  0.00  0.00    -0.013 C 
ATOM      9  C4' I4B d   1      -5.999   0.485  -0.356  0.00  0.00     0.013 C 
ATOM     10  C3' I4B d   1      -4.826   2.629   0.065  0.00  0.00     0.013 C 
ENDBRANCH   7   8
ENDBRANCH   1   7
TORSDOF 2
ENDMDL
