MODEL 1
REMARK minimizedAffinity 1.56526124
REMARK minimizedRMSD -1
REMARK  0 active torsions:
REMARK  status: ('A' for Active; 'I' for Inactive)
ROOT
ATOM      1  C   UNL d   1       1.700  -2.893   0.512  0.00  0.00     0.078 C 
ATOM      2  C1  UNL d   1       2.322  -1.529   0.481  0.00  0.00    -0.077 A 
ATOM      3  C2  UNL d   1       1.670  -0.426   1.046  0.00  0.00    -0.001 A 
ATOM      4  C3  UNL d   1       2.256   0.840   1.002  0.00  0.00     0.003 A 
ATOM      5  C4  UNL d   1       3.497   1.015   0.392  0.00  0.00    -0.005 A 
ATOM      6  C5  UNL d   1       4.152  -0.076  -0.175  0.00  0.00     0.003 A 
ATOM      7  C6  UNL d   1       3.568  -1.342  -0.131  0.00  0.00    -0.001 A 
ENDROOT
TORSDOF 0
ENDMDL
