MODEL 1
REMARK minimizedAffinity -2.03828335
REMARK minimizedRMSD -1
REMARK  0 active torsions:
REMARK  status: ('A' for Active; 'I' for Inactive)
ROOT
ATOM      1  C   UNL d   1      -1.817   3.368  -3.375  0.00  0.00     0.078 C 
ATOM      2  C1  UNL d   1      -3.113   3.502  -4.116  0.00  0.00    -0.077 A 
ATOM      3  C2  UNL d   1      -3.336   2.808  -5.312  0.00  0.00    -0.001 A 
ATOM      4  C3  UNL d   1      -4.544   2.950  -5.997  0.00  0.00     0.003 A 
ATOM      5  C4  UNL d   1      -5.539   3.785  -5.494  0.00  0.00    -0.005 A 
ATOM      6  C5  UNL d   1      -5.326   4.482  -4.306  0.00  0.00     0.003 A 
ATOM      7  C6  UNL d   1      -4.118   4.341  -3.620  0.00  0.00    -0.001 A 
ENDROOT
TORSDOF 0
ENDMDL
