MODEL 1
REMARK minimizedAffinity -0.507329464
REMARK minimizedRMSD -1
REMARK  0 active torsions:
REMARK  status: ('A' for Active; 'I' for Inactive)
ROOT
ATOM      1  C   UNL d   1      -2.732   0.437  -4.222  0.00  0.00     0.078 C 
ATOM      2  C1  UNL d   1      -3.859   0.989  -3.401  0.00  0.00    -0.077 A 
ATOM      3  C2  UNL d   1      -4.452   2.216  -3.723  0.00  0.00    -0.001 A 
ATOM      4  C3  UNL d   1      -5.494   2.723  -2.945  0.00  0.00     0.003 A 
ATOM      5  C4  UNL d   1      -5.952   2.010  -1.838  0.00  0.00    -0.005 A 
ATOM      6  C5  UNL d   1      -5.366   0.789  -1.509  0.00  0.00     0.003 A 
ATOM      7  C6  UNL d   1      -4.324   0.281  -2.286  0.00  0.00    -0.001 A 
ENDROOT
TORSDOF 0
ENDMDL
