MODEL 1
REMARK minimizedAffinity -0.134326279
REMARK minimizedRMSD -1
REMARK  0 active torsions:
REMARK  status: ('A' for Active; 'I' for Inactive)
ROOT
ATOM      1  C   UNL d   1      -4.719   0.037  -1.033  0.00  0.00     0.078 C 
ATOM      2  C1  UNL d   1      -4.427   0.784  -2.300  0.00  0.00    -0.077 A 
ATOM      3  C2  UNL d   1      -3.181   1.388  -2.510  0.00  0.00    -0.001 A 
ATOM      4  C3  UNL d   1      -2.926   2.088  -3.690  0.00  0.00     0.003 A 
ATOM      5  C4  UNL d   1      -3.912   2.193  -4.669  0.00  0.00    -0.005 A 
ATOM      6  C5  UNL d   1      -5.156   1.597  -4.467  0.00  0.00     0.003 A 
ATOM      7  C6  UNL d   1      -5.412   0.896  -3.288  0.00  0.00    -0.001 A 
ENDROOT
TORSDOF 0
ENDMDL
