MODEL 1
REMARK minimizedAffinity -0.945079327
REMARK minimizedRMSD -1
REMARK  0 active torsions:
REMARK  status: ('A' for Active; 'I' for Inactive)
ROOT
ATOM      1  C   UNL d   1      -2.055  -0.279  -3.213  0.00  0.00     0.078 C 
ATOM      2  C1  UNL d   1      -3.111   0.763  -3.432  0.00  0.00    -0.077 A 
ATOM      3  C2  UNL d   1      -2.820   2.126  -3.293  0.00  0.00    -0.001 A 
ATOM      4  C3  UNL d   1      -3.816   3.084  -3.490  0.00  0.00     0.003 A 
ATOM      5  C4  UNL d   1      -5.109   2.690  -3.825  0.00  0.00    -0.005 A 
ATOM      6  C5  UNL d   1      -5.409   1.336  -3.963  0.00  0.00     0.003 A 
ATOM      7  C6  UNL d   1      -4.415   0.376  -3.766  0.00  0.00    -0.001 A 
ENDROOT
TORSDOF 0
ENDMDL
