MODEL 1
REMARK minimizedAffinity -1.05268145
REMARK minimizedRMSD -1
REMARK  0 active torsions:
REMARK  status: ('A' for Active; 'I' for Inactive)
ROOT
ATOM      1  C   UNL d   1      -6.000   3.799  -3.855  0.00  0.00     0.078 C 
ATOM      2  C1  UNL d   1      -5.296   2.476  -3.918  0.00  0.00    -0.077 A 
ATOM      3  C2  UNL d   1      -5.998   1.277  -3.744  0.00  0.00    -0.001 A 
ATOM      4  C3  UNL d   1      -5.328   0.054  -3.796  0.00  0.00     0.003 A 
ATOM      5  C4  UNL d   1      -3.954   0.017  -4.021  0.00  0.00    -0.005 A 
ATOM      6  C5  UNL d   1      -3.247   1.206  -4.194  0.00  0.00     0.003 A 
ATOM      7  C6  UNL d   1      -3.915   2.430  -4.142  0.00  0.00    -0.001 A 
ENDROOT
TORSDOF 0
ENDMDL
