MODEL 1
REMARK minimizedAffinity -0.308163971
REMARK minimizedRMSD -1
REMARK  0 active torsions:
REMARK  status: ('A' for Active; 'I' for Inactive)
ROOT
ATOM      1  C   UNL d   1      -2.223   2.944  -2.930  0.00  0.00     0.078 C 
ATOM      2  C1  UNL d   1      -3.504   2.275  -3.329  0.00  0.00    -0.077 A 
ATOM      3  C2  UNL d   1      -3.509   1.212  -4.241  0.00  0.00    -0.001 A 
ATOM      4  C3  UNL d   1      -4.711   0.606  -4.611  0.00  0.00     0.003 A 
ATOM      5  C4  UNL d   1      -5.916   1.056  -4.076  0.00  0.00    -0.005 A 
ATOM      6  C5  UNL d   1      -5.921   2.114  -3.170  0.00  0.00     0.003 A 
ATOM      7  C6  UNL d   1      -4.721   2.722  -2.798  0.00  0.00    -0.001 A 
ENDROOT
TORSDOF 0
ENDMDL
