MODEL 1
REMARK minimizedAffinity 0.371206433
REMARK minimizedRMSD -1
REMARK  0 active torsions:
REMARK  status: ('A' for Active; 'I' for Inactive)
ROOT
ATOM      1  C   UNL d   1       5.999   1.125   0.003  0.00  0.00     0.078 C 
ATOM      2  C1  UNL d   1       4.506   0.994   0.033  0.00  0.00    -0.077 A 
ATOM      3  C2  UNL d   1       3.895  -0.210   0.404  0.00  0.00    -0.001 A 
ATOM      4  C3  UNL d   1       2.503  -0.320   0.418  0.00  0.00     0.003 A 
ATOM      5  C4  UNL d   1       1.711   0.769   0.061  0.00  0.00    -0.005 A 
ATOM      6  C5  UNL d   1       2.311   1.971  -0.311  0.00  0.00     0.003 A 
ATOM      7  C6  UNL d   1       3.702   2.083  -0.326  0.00  0.00    -0.001 A 
ENDROOT
TORSDOF 0
ENDMDL
