MODEL 1
REMARK minimizedAffinity -1.62901485
REMARK minimizedRMSD -1
REMARK  0 active torsions:
REMARK  status: ('A' for Active; 'I' for Inactive)
ROOT
ATOM      1  C   UNL d   1      -2.219   0.711  -2.642  0.00  0.00     0.078 C 
ATOM      2  C1  UNL d   1      -3.429   1.387  -3.215  0.00  0.00    -0.077 A 
ATOM      3  C2  UNL d   1      -3.935   2.562  -2.646  0.00  0.00    -0.001 A 
ATOM      4  C3  UNL d   1      -5.068   3.175  -3.184  0.00  0.00     0.003 A 
ATOM      5  C4  UNL d   1      -5.705   2.620  -4.292  0.00  0.00    -0.005 A 
ATOM      6  C5  UNL d   1      -5.209   1.450  -4.864  0.00  0.00     0.003 A 
ATOM      7  C6  UNL d   1      -4.076   0.835  -4.327  0.00  0.00    -0.001 A 
ENDROOT
TORSDOF 0
ENDMDL
