MODEL 1
REMARK minimizedAffinity 1.55774283
REMARK minimizedRMSD -1
REMARK  0 active torsions:
REMARK  status: ('A' for Active; 'I' for Inactive)
ROOT
ATOM      1  C   UNL d   1      -2.420   0.064  -3.763  0.00  0.00     0.078 C 
ATOM      2  C1  UNL d   1      -3.661   0.905  -3.822  0.00  0.00    -0.077 A 
ATOM      3  C2  UNL d   1      -3.670   2.212  -3.320  0.00  0.00    -0.001 A 
ATOM      4  C3  UNL d   1      -4.834   2.980  -3.373  0.00  0.00     0.003 A 
ATOM      5  C4  UNL d   1      -5.998   2.449  -3.925  0.00  0.00    -0.005 A 
ATOM      6  C5  UNL d   1      -5.999   1.148  -4.425  0.00  0.00     0.003 A 
ATOM      7  C6  UNL d   1      -4.836   0.379  -4.373  0.00  0.00    -0.001 A 
ENDROOT
TORSDOF 0
ENDMDL
