MODEL 1
REMARK minimizedAffinity 3.91139627
REMARK minimizedRMSD -1
REMARK  0 active torsions:
REMARK  status: ('A' for Active; 'I' for Inactive)
ROOT
ATOM      1  C   UNL d   1      -5.783   0.369  -0.913  0.00  0.00     0.078 C 
ATOM      2  C1  UNL d   1      -4.868   0.711  -2.052  0.00  0.00    -0.077 A 
ATOM      3  C2  UNL d   1      -4.053  -0.265  -2.639  0.00  0.00    -0.001 A 
ATOM      4  C3  UNL d   1      -3.199   0.070  -3.692  0.00  0.00     0.003 A 
ATOM      5  C4  UNL d   1      -3.151   1.379  -4.165  0.00  0.00    -0.005 A 
ATOM      6  C5  UNL d   1      -3.957   2.357  -3.585  0.00  0.00     0.003 A 
ATOM      7  C6  UNL d   1      -4.812   2.025  -2.532  0.00  0.00    -0.001 A 
ENDROOT
TORSDOF 0
ENDMDL
