MODEL 1
REMARK minimizedAffinity 20.5649052
REMARK minimizedRMSD -1
REMARK  0 active torsions:
REMARK  status: ('A' for Active; 'I' for Inactive)
ROOT
ATOM      1  C   UNL d   1      -1.841  -3.185  -4.426  0.00  0.00     0.124 A 
ATOM      2  C1  UNL d   1      -0.660  -2.509  -4.699  0.00  0.00     0.062 A 
ATOM      3  C2  UNL d   1      -0.253  -1.454  -3.888  0.00  0.00     0.162 A 
ATOM      4  C3  UNL d   1      -1.027  -1.068  -2.794  0.00  0.00    -0.034 A 
ATOM      5  C4  UNL d   1      -2.214  -1.751  -2.526  0.00  0.00     0.162 A 
ATOM      6  C5  UNL d   1      -2.617  -2.805  -3.339  0.00  0.00     0.062 A 
ATOM      7  F   UNL d   1      -3.759  -3.456  -3.073  0.00  0.00    -0.097 F 
ATOM      8  F1  UNL d   1      -2.982  -1.406  -1.482  0.00  0.00    -0.096 F 
ATOM      9  I   UNL d   1      -0.421   0.509  -1.579  0.00  0.00    -0.060 I 
ATOM     10  F2  UNL d   1       0.894  -0.820  -4.177  0.00  0.00    -0.096 F 
ATOM     11  F3  UNL d   1       0.091  -2.874  -5.749  0.00  0.00    -0.097 F 
ATOM     12  F4  UNL d   1      -2.232  -4.199  -5.208  0.00  0.00    -0.092 F 
ENDROOT
TORSDOF 0
ENDMDL
