MODEL 1
REMARK minimizedAffinity 15.4102497
REMARK minimizedRMSD -1
REMARK  0 active torsions:
REMARK  status: ('A' for Active; 'I' for Inactive)
ROOT
ATOM      1  C   UNL d   1      -1.482  -0.422   3.275  0.00  0.00     0.124 A 
ATOM      2  C1  UNL d   1      -1.150  -1.700   2.847  0.00  0.00     0.062 A 
ATOM      3  C2  UNL d   1      -0.392  -1.878   1.694  0.00  0.00     0.162 A 
ATOM      4  C3  UNL d   1       0.041  -0.774   0.959  0.00  0.00    -0.034 A 
ATOM      5  C4  UNL d   1      -0.297   0.509   1.395  0.00  0.00     0.162 A 
ATOM      6  C5  UNL d   1      -1.055   0.681   2.548  0.00  0.00     0.062 A 
ATOM      7  F   UNL d   1      -1.374   1.917   2.960  0.00  0.00    -0.097 F 
ATOM      8  F1  UNL d   1       0.103   1.592   0.712  0.00  0.00    -0.096 F 
ATOM      9  I   UNL d   1       1.175  -1.035  -0.767  0.00  0.00    -0.060 I 
ATOM     10  F2  UNL d   1      -0.086  -3.124   1.304  0.00  0.00    -0.096 F 
ATOM     11  F3  UNL d   1      -1.562  -2.767   3.547  0.00  0.00    -0.097 F 
ATOM     12  F4  UNL d   1      -2.212  -0.254   4.385  0.00  0.00    -0.092 F 
ENDROOT
TORSDOF 0
ENDMDL
