MODEL 1
REMARK minimizedAffinity 9.36007786
REMARK minimizedRMSD -1
REMARK  0 active torsions:
REMARK  status: ('A' for Active; 'I' for Inactive)
ROOT
ATOM      1  C   UNL d   1      -2.981  -5.998   1.504  0.00  0.00     0.124 A 
ATOM      2  C1  UNL d   1      -1.664  -5.997   1.066  0.00  0.00     0.062 A 
ATOM      3  C2  UNL d   1      -0.621  -5.997   1.987  0.00  0.00     0.162 A 
ATOM      4  C3  UNL d   1      -0.890  -5.999   3.355  0.00  0.00    -0.034 A 
ATOM      5  C4  UNL d   1      -2.217  -5.998   3.788  0.00  0.00     0.162 A 
ATOM      6  C5  UNL d   1      -3.256  -5.998   2.864  0.00  0.00     0.062 A 
ATOM      7  F   UNL d   1      -4.528  -5.999   3.289  0.00  0.00    -0.097 F 
ATOM      8  F1  UNL d   1      -2.511  -6.000   5.097  0.00  0.00    -0.096 F 
ATOM      9  I   UNL d   1       0.668  -5.999   4.736  0.00  0.00    -0.060 I 
ATOM     10  F2  UNL d   1       0.642  -5.997   1.535  0.00  0.00    -0.096 F 
ATOM     11  F3  UNL d   1      -1.396  -5.996  -0.248  0.00  0.00    -0.097 F 
ATOM     12  F4  UNL d   1      -3.984  -5.997   0.616  0.00  0.00    -0.092 F 
ENDROOT
TORSDOF 0
ENDMDL
