MODEL 1
REMARK minimizedAffinity 14.8744736
REMARK minimizedRMSD -1
REMARK  0 active torsions:
REMARK  status: ('A' for Active; 'I' for Inactive)
ROOT
ATOM      1  C   UNL d   1       4.953   1.225  -4.319  0.00  0.00     0.124 A 
ATOM      2  C1  UNL d   1       4.938   0.134  -3.461  0.00  0.00     0.062 A 
ATOM      3  C2  UNL d   1       3.851  -0.735  -3.453  0.00  0.00     0.162 A 
ATOM      4  C3  UNL d   1       2.769  -0.517  -4.306  0.00  0.00    -0.034 A 
ATOM      5  C4  UNL d   1       2.791   0.583  -5.165  0.00  0.00     0.162 A 
ATOM      6  C5  UNL d   1       3.880   1.448  -5.170  0.00  0.00     0.062 A 
ATOM      7  F   UNL d   1       3.892   2.502  -6.000  0.00  0.00    -0.097 F 
ATOM      8  F1  UNL d   1       1.767   0.822  -5.999  0.00  0.00    -0.096 F 
ATOM      9  I   UNL d   1       1.142  -1.814  -4.296  0.00  0.00    -0.060 I 
ATOM     10  F2  UNL d   1       3.864  -1.781  -2.613  0.00  0.00    -0.096 F 
ATOM     11  F3  UNL d   1       5.974  -0.083  -2.638  0.00  0.00    -0.097 F 
ATOM     12  F4  UNL d   1       6.000   2.060  -4.325  0.00  0.00    -0.092 F 
ENDROOT
TORSDOF 0
ENDMDL
