MODEL 1
REMARK minimizedAffinity 21.9537563
REMARK minimizedRMSD -1
REMARK  0 active torsions:
REMARK  status: ('A' for Active; 'I' for Inactive)
ROOT
ATOM      1  C   UNL d   1      -0.015  -2.286  -3.926  0.00  0.00     0.124 A 
ATOM      2  C1  UNL d   1       1.135  -1.750  -3.363  0.00  0.00     0.062 A 
ATOM      3  C2  UNL d   1       1.116  -1.269  -2.057  0.00  0.00     0.162 A 
ATOM      4  C3  UNL d   1      -0.057  -1.322  -1.304  0.00  0.00    -0.034 A 
ATOM      5  C4  UNL d   1      -1.210  -1.862  -1.877  0.00  0.00     0.162 A 
ATOM      6  C5  UNL d   1      -1.186  -2.341  -3.183  0.00  0.00     0.062 A 
ATOM      7  F   UNL d   1      -2.298  -2.859  -3.725  0.00  0.00    -0.097 F 
ATOM      8  F1  UNL d   1      -2.354  -1.928  -1.181  0.00  0.00    -0.096 F 
ATOM      9  I   UNL d   1      -0.088  -0.603   0.649  0.00  0.00    -0.060 I 
ATOM     10  F2  UNL d   1       2.242  -0.756  -1.539  0.00  0.00    -0.096 F 
ATOM     11  F3  UNL d   1       2.267  -1.695  -4.079  0.00  0.00    -0.097 F 
ATOM     12  F4  UNL d   1       0.005  -2.748  -5.183  0.00  0.00    -0.092 F 
ENDROOT
TORSDOF 0
ENDMDL
