MODEL 1
REMARK minimizedAffinity 14.9148521
REMARK minimizedRMSD -1
REMARK  0 active torsions:
REMARK  status: ('A' for Active; 'I' for Inactive)
ROOT
ATOM      1  C   UNL d   1      -2.067  -2.355  -3.802  0.00  0.00     0.124 A 
ATOM      2  C1  UNL d   1      -1.142  -2.804  -4.733  0.00  0.00     0.062 A 
ATOM      3  C2  UNL d   1       0.186  -2.392  -4.655  0.00  0.00     0.162 A 
ATOM      4  C3  UNL d   1       0.596  -1.527  -3.641  0.00  0.00    -0.034 A 
ATOM      5  C4  UNL d   1      -0.341  -1.079  -2.709  0.00  0.00     0.162 A 
ATOM      6  C5  UNL d   1      -1.667  -1.493  -2.791  0.00  0.00     0.062 A 
ATOM      7  F   UNL d   1      -2.560  -1.058  -1.890  0.00  0.00    -0.097 F 
ATOM      8  F1  UNL d   1       0.019  -0.246  -1.721  0.00  0.00    -0.096 F 
ATOM      9  I   UNL d   1       2.580  -0.909  -3.521  0.00  0.00    -0.060 I 
ATOM     10  F2  UNL d   1       1.059  -2.842  -5.569  0.00  0.00    -0.096 F 
ATOM     11  F3  UNL d   1      -1.527  -3.636  -5.712  0.00  0.00    -0.097 F 
ATOM     12  F4  UNL d   1      -3.344  -2.751  -3.879  0.00  0.00    -0.092 F 
ENDROOT
TORSDOF 0
ENDMDL
