MODEL 1
REMARK minimizedAffinity 22.1685238
REMARK minimizedRMSD -1
REMARK  0 active torsions:
REMARK  status: ('A' for Active; 'I' for Inactive)
ROOT
ATOM      1  C   UNL d   1      -1.196  -0.116   2.958  0.00  0.00     0.124 A 
ATOM      2  C1  UNL d   1      -0.893  -1.417   2.581  0.00  0.00     0.062 A 
ATOM      3  C2  UNL d   1      -0.167  -1.658   1.418  0.00  0.00     0.162 A 
ATOM      4  C3  UNL d   1       0.262  -0.594   0.623  0.00  0.00    -0.034 A 
ATOM      5  C4  UNL d   1      -0.048   0.711   1.009  0.00  0.00     0.162 A 
ATOM      6  C5  UNL d   1      -0.773   0.947   2.172  0.00  0.00     0.062 A 
ATOM      7  F   UNL d   1      -1.065   2.204   2.534  0.00  0.00    -0.097 F 
ATOM      8  F1  UNL d   1       0.349   1.757   0.268  0.00  0.00    -0.096 F 
ATOM      9  I   UNL d   1       1.347  -0.950  -1.116  0.00  0.00    -0.060 I 
ATOM     10  F2  UNL d   1       0.111  -2.925   1.078  0.00  0.00    -0.096 F 
ATOM     11  F3  UNL d   1      -1.301  -2.445   3.338  0.00  0.00    -0.097 F 
ATOM     12  F4  UNL d   1      -1.895   0.113   4.077  0.00  0.00    -0.092 F 
ENDROOT
TORSDOF 0
ENDMDL
