MODEL 1
REMARK minimizedAffinity 8.22947502
REMARK minimizedRMSD -1
REMARK  0 active torsions:
REMARK  status: ('A' for Active; 'I' for Inactive)
ROOT
ATOM      1  C   UNL d   1       1.269  -5.992   3.960  0.00  0.00     0.124 A 
ATOM      2  C1  UNL d   1      -0.069  -5.994   4.329  0.00  0.00     0.062 A 
ATOM      3  C2  UNL d   1      -1.064  -5.996   3.356  0.00  0.00     0.162 A 
ATOM      4  C3  UNL d   1      -0.725  -5.997   2.003  0.00  0.00    -0.034 A 
ATOM      5  C4  UNL d   1       0.623  -5.994   1.639  0.00  0.00     0.162 A 
ATOM      6  C5  UNL d   1       1.614  -5.992   2.616  0.00  0.00     0.062 A 
ATOM      7  F   UNL d   1       2.906  -5.990   2.257  0.00  0.00    -0.097 F 
ATOM      8  F1  UNL d   1       0.984  -5.994   0.347  0.00  0.00    -0.096 F 
ATOM      9  I   UNL d   1      -2.209  -6.000   0.544  0.00  0.00    -0.060 I 
ATOM     10  F2  UNL d   1      -2.349  -5.998   3.741  0.00  0.00    -0.096 F 
ATOM     11  F3  UNL d   1      -0.405  -5.994   5.627  0.00  0.00    -0.097 F 
ATOM     12  F4  UNL d   1       2.224  -5.989   4.899  0.00  0.00    -0.092 F 
ENDROOT
TORSDOF 0
ENDMDL
