MODEL 1
REMARK minimizedAffinity 16.4553299
REMARK minimizedRMSD -1
REMARK  0 active torsions:
REMARK  status: ('A' for Active; 'I' for Inactive)
ROOT
ATOM      1  C   UNL d   1       4.853   2.620   1.515  0.00  0.00     0.124 A 
ATOM      2  C1  UNL d   1       4.512   1.368   2.009  0.00  0.00     0.062 A 
ATOM      3  C2  UNL d   1       3.321   0.763   1.620  0.00  0.00     0.162 A 
ATOM      4  C3  UNL d   1       2.462   1.408   0.731  0.00  0.00    -0.034 A 
ATOM      5  C4  UNL d   1       2.811   2.667   0.239  0.00  0.00     0.162 A 
ATOM      6  C5  UNL d   1       4.002   3.268   0.631  0.00  0.00     0.062 A 
ATOM      7  F   UNL d   1       4.330   4.477   0.152  0.00  0.00    -0.097 F 
ATOM      8  F1  UNL d   1       2.007   3.314  -0.618  0.00  0.00    -0.096 F 
ATOM      9  I   UNL d   1       0.679   0.505   0.146  0.00  0.00    -0.060 I 
ATOM     10  F2  UNL d   1       3.017  -0.447   2.113  0.00  0.00    -0.096 F 
ATOM     11  F3  UNL d   1       5.332   0.741   2.865  0.00  0.00    -0.097 F 
ATOM     12  F4  UNL d   1       5.999   3.201   1.892  0.00  0.00    -0.092 F 
ENDROOT
TORSDOF 0
ENDMDL
