MODEL 1
REMARK minimizedAffinity 22.9449844
REMARK minimizedRMSD -1
REMARK  0 active torsions:
REMARK  status: ('A' for Active; 'I' for Inactive)
ROOT
ATOM      1  C   UNL d   1       0.108   1.080   1.717  0.00  0.00     0.124 A 
ATOM      2  C1  UNL d   1      -1.049   0.686   2.375  0.00  0.00     0.062 A 
ATOM      3  C2  UNL d   1      -1.524  -0.615   2.238  0.00  0.00     0.162 A 
ATOM      4  C3  UNL d   1      -0.841  -1.533   1.439  0.00  0.00    -0.034 A 
ATOM      5  C4  UNL d   1       0.321  -1.129   0.780  0.00  0.00     0.162 A 
ATOM      6  C5  UNL d   1       0.791   0.172   0.920  0.00  0.00     0.062 A 
ATOM      7  F   UNL d   1       1.909   0.551   0.283  0.00  0.00    -0.097 F 
ATOM      8  F1  UNL d   1       1.001  -1.986   0.004  0.00  0.00    -0.096 F 
ATOM      9  I   UNL d   1      -1.548  -3.480   1.232  0.00  0.00    -0.060 I 
ATOM     10  F2  UNL d   1      -2.644  -0.968   2.886  0.00  0.00    -0.096 F 
ATOM     11  F3  UNL d   1      -1.712   1.561   3.145  0.00  0.00    -0.097 F 
ATOM     12  F4  UNL d   1       0.562   2.333   1.850  0.00  0.00    -0.092 F 
ENDROOT
TORSDOF 0
ENDMDL
