MODEL 1
REMARK minimizedAffinity 24.2154217
REMARK minimizedRMSD -1
REMARK  0 active torsions:
REMARK  status: ('A' for Active; 'I' for Inactive)
ROOT
ATOM      1  C   UNL d   1       0.875  -5.888   3.542  0.00  0.00     0.124 A 
ATOM      2  C1  UNL d   1       0.557  -5.924   2.191  0.00  0.00     0.062 A 
ATOM      3  C2  UNL d   1      -0.774  -5.956   1.786  0.00  0.00     0.162 A 
ATOM      4  C3  UNL d   1      -1.798  -5.952   2.732  0.00  0.00    -0.034 A 
ATOM      5  C4  UNL d   1      -1.471  -5.916   4.089  0.00  0.00     0.162 A 
ATOM      6  C5  UNL d   1      -0.139  -5.884   4.489  0.00  0.00     0.062 A 
ATOM      7  F   UNL d   1       0.165  -5.849   5.795  0.00  0.00    -0.097 F 
ATOM      8  F1  UNL d   1      -2.431  -5.911   5.025  0.00  0.00    -0.096 F 
ATOM      9  I   UNL d   1      -3.790  -6.000   2.130  0.00  0.00    -0.060 I 
ATOM     10  F2  UNL d   1      -1.051  -5.991   0.474  0.00  0.00    -0.096 F 
ATOM     11  F3  UNL d   1       1.536  -5.928   1.274  0.00  0.00    -0.097 F 
ATOM     12  F4  UNL d   1       2.156  -5.858   3.930  0.00  0.00    -0.092 F 
ENDROOT
TORSDOF 0
ENDMDL
