MODEL 1
REMARK minimizedAffinity 18.3390846
REMARK minimizedRMSD -1
REMARK  0 active torsions:
REMARK  status: ('A' for Active; 'I' for Inactive)
ROOT
ATOM      1  C   UNL d   1      -1.090  -0.667   2.970  0.00  0.00     0.124 A 
ATOM      2  C1  UNL d   1      -0.721  -1.916   2.491  0.00  0.00     0.062 A 
ATOM      3  C2  UNL d   1       0.087  -2.023   1.363  0.00  0.00     0.162 A 
ATOM      4  C3  UNL d   1       0.533  -0.876   0.706  0.00  0.00    -0.034 A 
ATOM      5  C4  UNL d   1       0.157   0.377   1.193  0.00  0.00     0.162 A 
ATOM      6  C5  UNL d   1      -0.651   0.478   2.321  0.00  0.00     0.062 A 
ATOM      7  F   UNL d   1      -1.007   1.686   2.782  0.00  0.00    -0.097 F 
ATOM      8  F1  UNL d   1       0.568   1.500   0.585  0.00  0.00    -0.096 F 
ATOM      9  I   UNL d   1       1.743  -1.031  -0.981  0.00  0.00    -0.060 I 
ATOM     10  F2  UNL d   1       0.429  -3.243   0.923  0.00  0.00    -0.096 F 
ATOM     11  F3  UNL d   1      -1.145  -3.024   3.116  0.00  0.00    -0.097 F 
ATOM     12  F4  UNL d   1      -1.869  -0.567   4.055  0.00  0.00    -0.092 F 
ENDROOT
TORSDOF 0
ENDMDL
