MODEL 1
REMARK minimizedAffinity 24.6556759
REMARK minimizedRMSD -1
REMARK  0 active torsions:
REMARK  status: ('A' for Active; 'I' for Inactive)
ROOT
ATOM      1  C   UNL d   1      -1.265  -0.581   1.879  0.00  0.00     0.124 A 
ATOM      2  C1  UNL d   1      -0.785   0.587   2.457  0.00  0.00     0.062 A 
ATOM      3  C2  UNL d   1       0.016   1.455   1.720  0.00  0.00     0.162 A 
ATOM      4  C3  UNL d   1       0.342   1.159   0.397  0.00  0.00    -0.034 A 
ATOM      5  C4  UNL d   1      -0.143  -0.018  -0.177  0.00  0.00     0.162 A 
ATOM      6  C5  UNL d   1      -0.943  -0.882   0.563  0.00  0.00     0.062 A 
ATOM      7  F   UNL d   1      -1.406  -2.009   0.003  0.00  0.00    -0.097 F 
ATOM      8  F1  UNL d   1       0.151  -0.333  -1.447  0.00  0.00    -0.096 F 
ATOM      9  I   UNL d   1       1.539   2.454  -0.708  0.00  0.00    -0.060 I 
ATOM     10  F2  UNL d   1       0.465   2.575   2.304  0.00  0.00    -0.096 F 
ATOM     11  F3  UNL d   1      -1.094   0.879   3.729  0.00  0.00    -0.097 F 
ATOM     12  F4  UNL d   1      -2.035  -1.414   2.590  0.00  0.00    -0.092 F 
ENDROOT
TORSDOF 0
ENDMDL
