MODEL 1
REMARK minimizedAffinity 17.5799026
REMARK minimizedRMSD -1
REMARK  0 active torsions:
REMARK  status: ('A' for Active; 'I' for Inactive)
ROOT
ATOM      1  C   UNL d   1      -2.192  -1.557   2.431  0.00  0.00     0.124 A 
ATOM      2  C1  UNL d   1      -2.040  -1.983   1.119  0.00  0.00     0.062 A 
ATOM      3  C2  UNL d   1      -1.207  -1.285   0.249  0.00  0.00     0.162 A 
ATOM      4  C3  UNL d   1      -0.519  -0.154   0.688  0.00  0.00    -0.034 A 
ATOM      5  C4  UNL d   1      -0.678   0.269   2.009  0.00  0.00     0.162 A 
ATOM      6  C5  UNL d   1      -1.511  -0.432   2.875  0.00  0.00     0.062 A 
ATOM      7  F   UNL d   1      -1.657  -0.018   4.142  0.00  0.00    -0.097 F 
ATOM      8  F1  UNL d   1      -0.032   1.353   2.464  0.00  0.00    -0.096 F 
ATOM      9  I   UNL d   1       0.726   0.892  -0.611  0.00  0.00    -0.060 I 
ATOM     10  F2  UNL d   1      -1.079  -1.720  -1.014  0.00  0.00    -0.096 F 
ATOM     11  F3  UNL d   1      -2.697  -3.069   0.688  0.00  0.00    -0.097 F 
ATOM     12  F4  UNL d   1      -2.994  -2.229   3.267  0.00  0.00    -0.092 F 
ENDROOT
TORSDOF 0
ENDMDL
