MODEL 1
REMARK minimizedAffinity 21.5847321
REMARK minimizedRMSD -1
REMARK  0 active torsions:
REMARK  status: ('A' for Active; 'I' for Inactive)
ROOT
ATOM      1  C   UNL d   1      -2.897  -2.220   0.562  0.00  0.00     0.124 A 
ATOM      2  C1  UNL d   1      -2.000  -1.653   1.457  0.00  0.00     0.062 A 
ATOM      3  C2  UNL d   1      -2.447  -1.165   2.681  0.00  0.00     0.162 A 
ATOM      4  C3  UNL d   1      -3.798  -1.243   3.019  0.00  0.00    -0.034 A 
ATOM      5  C4  UNL d   1      -4.694  -1.814   2.114  0.00  0.00     0.162 A 
ATOM      6  C5  UNL d   1      -4.243  -2.300   0.891  0.00  0.00     0.062 A 
ATOM      7  F   UNL d   1      -5.110  -2.848   0.028  0.00  0.00    -0.097 F 
ATOM      8  F1  UNL d   1      -6.000  -1.905   2.407  0.00  0.00    -0.096 F 
ATOM      9  I   UNL d   1      -4.471  -0.515   4.849  0.00  0.00    -0.060 I 
ATOM     10  F2  UNL d   1      -1.558  -0.622   3.526  0.00  0.00    -0.096 F 
ATOM     11  F3  UNL d   1      -0.700  -1.573   1.141  0.00  0.00    -0.097 F 
ATOM     12  F4  UNL d   1      -2.464  -2.688  -0.616  0.00  0.00    -0.092 F 
ENDROOT
TORSDOF 0
ENDMDL
