MODEL 1
REMARK minimizedAffinity 2.43888378
REMARK minimizedRMSD -1
REMARK  1 active torsions:
REMARK  status: ('A' for Active; 'I' for Inactive)
REMARK    1  A    between atoms: C1_2  and  C2_3 
ROOT
ATOM      1  C2  UNL d   1       5.777  -3.274  -5.312  0.00  0.00    -0.077 A 
ATOM      2  C3  UNL d   1       5.306  -3.228  -3.993  0.00  0.00     0.002 A 
ATOM      3  C4  UNL d   1       5.062  -2.001  -3.372  0.00  0.00     0.002 A 
ATOM      4  C5  UNL d   1       5.284  -0.812  -4.064  0.00  0.00    -0.004 A 
ATOM      5  C6  UNL d   1       5.755  -0.848  -5.376  0.00  0.00     0.002 A 
ATOM      6  C7  UNL d   1       6.000  -2.073  -5.998  0.00  0.00     0.002 A 
ENDROOT
BRANCH   1   7
ATOM      7  C1  UNL d   1       5.994  -4.597  -6.000  0.00  0.00     0.055 C 
ATOM      8  C   UNL d   1       4.731  -5.446  -5.976  0.00  0.00     0.019 C 
ENDBRANCH   1   7
TORSDOF 1
ENDMDL
