MODEL 1
REMARK minimizedAffinity 6.42308998
REMARK minimizedRMSD -1
REMARK  1 active torsions:
REMARK  status: ('A' for Active; 'I' for Inactive)
REMARK    1  A    between atoms: C1_2  and  C2_3 
ROOT
ATOM      1  C2  UNL d   1       1.255   2.829  -2.759  0.00  0.00    -0.077 A 
ATOM      2  C3  UNL d   1       0.740   3.757  -1.844  0.00  0.00     0.002 A 
ATOM      3  C4  UNL d   1       1.497   4.866  -1.461  0.00  0.00     0.002 A 
ATOM      4  C5  UNL d   1       2.771   5.059  -1.991  0.00  0.00    -0.004 A 
ATOM      5  C6  UNL d   1       3.293   4.140  -2.900  0.00  0.00     0.002 A 
ATOM      6  C7  UNL d   1       2.538   3.030  -3.283  0.00  0.00     0.002 A 
ENDROOT
BRANCH   1   7
ATOM      7  C1  UNL d   1       0.421   1.659  -3.211  0.00  0.00     0.055 C 
ATOM      8  C   UNL d   1      -1.066   1.946  -3.057  0.00  0.00     0.019 C 
ENDBRANCH   1   7
TORSDOF 1
ENDMDL
