MODEL 1
REMARK minimizedAffinity 12.0856676
REMARK minimizedRMSD -1
REMARK  1 active torsions:
REMARK  status: ('A' for Active; 'I' for Inactive)
REMARK    1  A    between atoms: C1_2  and  C2_3 
ROOT
ATOM      1  C2  UNL d   1      -3.811   2.963  -3.478  0.00  0.00    -0.077 A 
ATOM      2  C3  UNL d   1      -2.824   2.319  -4.237  0.00  0.00     0.002 A 
ATOM      3  C4  UNL d   1      -2.258   1.123  -3.790  0.00  0.00     0.002 A 
ATOM      4  C5  UNL d   1      -2.676   0.559  -2.587  0.00  0.00    -0.004 A 
ATOM      5  C6  UNL d   1      -3.656   1.193  -1.824  0.00  0.00     0.002 A 
ATOM      6  C7  UNL d   1      -4.222   2.389  -2.268  0.00  0.00     0.002 A 
ENDROOT
BRANCH   1   7
ATOM      7  C1  UNL d   1      -4.458   4.227  -3.982  0.00  0.00     0.055 C 
ATOM      8  C   UNL d   1      -5.505   4.741  -3.004  0.00  0.00     0.019 C 
ENDBRANCH   1   7
TORSDOF 1
ENDMDL
