MODEL 1
REMARK minimizedAffinity 3.87557411
REMARK minimizedRMSD -1
REMARK  1 active torsions:
REMARK  status: ('A' for Active; 'I' for Inactive)
REMARK    1  A    between atoms: C1_2  and  C2_3 
ROOT
ATOM      1  C2  UNL d   1       5.240  -3.815  -5.069  0.00  0.00    -0.077 A 
ATOM      2  C3  UNL d   1       4.653  -3.220  -3.943  0.00  0.00     0.002 A 
ATOM      3  C4  UNL d   1       4.739  -1.840  -3.749  0.00  0.00     0.002 A 
ATOM      4  C5  UNL d   1       5.407  -1.044  -4.677  0.00  0.00    -0.004 A 
ATOM      5  C6  UNL d   1       5.996  -1.627  -5.798  0.00  0.00     0.002 A 
ATOM      6  C7  UNL d   1       5.912  -3.006  -5.994  0.00  0.00     0.002 A 
ENDROOT
BRANCH   1   7
ATOM      7  C1  UNL d   1       5.106  -5.297  -5.306  0.00  0.00     0.055 C 
ATOM      8  C   UNL d   1       4.482  -5.995  -4.106  0.00  0.00     0.019 C 
ENDBRANCH   1   7
TORSDOF 1
ENDMDL
