MODEL 1
REMARK minimizedAffinity 2.81537008
REMARK minimizedRMSD -1
REMARK  1 active torsions:
REMARK  status: ('A' for Active; 'I' for Inactive)
REMARK    1  A    between atoms: C1_2  and  C2_3 
ROOT
ATOM      1  C2  UNL d   1      -4.816   3.028  -2.949  0.00  0.00    -0.077 A 
ATOM      2  C3  UNL d   1      -4.663   2.563  -4.263  0.00  0.00     0.002 A 
ATOM      3  C4  UNL d   1      -3.853   1.458  -4.531  0.00  0.00     0.002 A 
ATOM      4  C5  UNL d   1      -3.194   0.806  -3.491  0.00  0.00    -0.004 A 
ATOM      5  C6  UNL d   1      -3.338   1.262  -2.182  0.00  0.00     0.002 A 
ATOM      6  C7  UNL d   1      -4.146   2.367  -1.911  0.00  0.00     0.002 A 
ENDROOT
BRANCH   1   7
ATOM      7  C1  UNL d   1      -5.728   4.189  -2.651  0.00  0.00     0.055 C 
ATOM      8  C   UNL d   1      -4.960   5.503  -2.625  0.00  0.00     0.019 C 
ENDBRANCH   1   7
TORSDOF 1
ENDMDL
