MODEL 1
REMARK minimizedAffinity 10.957058
REMARK minimizedRMSD -1
REMARK  1 active torsions:
REMARK  status: ('A' for Active; 'I' for Inactive)
REMARK    1  A    between atoms: C1_2  and  C2_3 
ROOT
ATOM      1  C2  UNL d   1      -3.384   2.324  -2.570  0.00  0.00    -0.077 A 
ATOM      2  C3  UNL d   1      -2.498   2.485  -1.496  0.00  0.00     0.002 A 
ATOM      3  C4  UNL d   1      -1.657   1.439  -1.112  0.00  0.00     0.002 A 
ATOM      4  C5  UNL d   1      -1.691   0.227  -1.799  0.00  0.00    -0.004 A 
ATOM      5  C6  UNL d   1      -2.570   0.056  -2.867  0.00  0.00     0.002 A 
ATOM      6  C7  UNL d   1      -3.413   1.101  -3.252  0.00  0.00     0.002 A 
ENDROOT
BRANCH   1   7
ATOM      7  C1  UNL d   1      -4.257   3.468  -3.018  0.00  0.00     0.055 C 
ATOM      8  C   UNL d   1      -3.723   4.105  -4.292  0.00  0.00     0.019 C 
ENDBRANCH   1   7
TORSDOF 1
ENDMDL
