MODEL 1
REMARK minimizedAffinity 12.5526781
REMARK minimizedRMSD -1
REMARK  0 active torsions:
REMARK  status: ('A' for Active; 'I' for Inactive)
ROOT
ATOM      1  N1  IND d   1      -5.250   0.265   1.121  0.00  0.00    -0.196 N 
ATOM      2  C2  IND d   1      -5.999  -0.017   0.013  0.00  0.00     0.054 A 
ATOM      3  C3  IND d   1      -5.566  -1.157  -0.570  0.00  0.00    -0.031 A 
ATOM      4  C4  IND d   1      -3.710  -2.775   0.182  0.00  0.00     0.051 A 
ATOM      5  C5  IND d   1      -2.723  -2.923   1.115  0.00  0.00    -0.031 A 
ATOM      6  C6  IND d   1      -2.526  -1.999   2.121  0.00  0.00     0.015 A 
ATOM      7  C7  IND d   1      -3.319  -0.893   2.237  0.00  0.00    -0.016 A 
ATOM      8  C8  IND d   1      -4.318  -0.736   1.287  0.00  0.00    -0.047 A 
ATOM      9  C9  IND d   1      -4.496  -1.649   0.239  0.00  0.00    -0.096 A 
ATOM     10  HN1 IND d   1      -5.346   0.952   1.630  0.00  0.00     0.298 HD
ENDROOT
TORSDOF 0
ENDMDL
