MODEL 1
REMARK minimizedAffinity -0.203543857
REMARK minimizedRMSD -1
REMARK  0 active torsions:
REMARK  status: ('A' for Active; 'I' for Inactive)
ROOT
ATOM      1  N1  IND d   1       0.283   0.359  -0.294  0.00  0.00    -0.196 N 
ATOM      2  C2  IND d   1      -0.469  -0.697  -0.728  0.00  0.00     0.054 A 
ATOM      3  C3  IND d   1      -1.427  -0.996   0.177  0.00  0.00    -0.031 A 
ATOM      4  C4  IND d   1      -2.008   0.179   2.393  0.00  0.00     0.051 A 
ATOM      5  C5  IND d   1      -1.580   1.169   3.232  0.00  0.00    -0.031 A 
ATOM      6  C6  IND d   1      -0.488   1.958   2.931  0.00  0.00     0.015 A 
ATOM      7  C7  IND d   1       0.212   1.792   1.769  0.00  0.00    -0.016 A 
ATOM      8  C8  IND d   1      -0.216   0.783   0.919  0.00  0.00    -0.047 A 
ATOM      9  C9  IND d   1      -1.297  -0.049   1.238  0.00  0.00    -0.096 A 
ATOM     10  HN1 IND d   1       0.954   0.701  -0.708  0.00  0.00     0.298 HD
ENDROOT
TORSDOF 0
ENDMDL
