MODEL 1
REMARK minimizedAffinity 17.3349895
REMARK minimizedRMSD -1
REMARK  0 active torsions:
REMARK  status: ('A' for Active; 'I' for Inactive)
ROOT
ATOM      1  N1  IND d   1      -0.539  -5.351  -1.505  0.00  0.00    -0.196 N 
ATOM      2  C2  IND d   1      -0.674  -5.999  -0.309  0.00  0.00     0.054 A 
ATOM      3  C3  IND d   1      -1.172  -5.160   0.627  0.00  0.00    -0.031 A 
ATOM      4  C4  IND d   1      -1.933  -2.712   0.391  0.00  0.00     0.051 A 
ATOM      5  C5  IND d   1      -1.970  -1.677  -0.501  0.00  0.00    -0.031 A 
ATOM      6  C6  IND d   1      -1.525  -1.817  -1.799  0.00  0.00     0.015 A 
ATOM      7  C7  IND d   1      -1.035  -3.006  -2.260  0.00  0.00    -0.016 A 
ATOM      8  C8  IND d   1      -0.990  -4.057  -1.356  0.00  0.00    -0.047 A 
ATOM      9  C9  IND d   1      -1.400  -3.910  -0.025  0.00  0.00    -0.096 A 
ATOM     10  HN1 IND d   1      -0.225  -5.693  -2.228  0.00  0.00     0.298 HD
ENDROOT
TORSDOF 0
ENDMDL
