MODEL 1
REMARK minimizedAffinity 4.03011417
REMARK minimizedRMSD -1
REMARK  0 active torsions:
REMARK  status: ('A' for Active; 'I' for Inactive)
ROOT
ATOM      1  N1  IND d   1      -1.352  -2.872  -0.705  0.00  0.00    -0.196 N 
ATOM      2  C2  IND d   1      -1.292  -3.953   0.130  0.00  0.00     0.054 A 
ATOM      3  C3  IND d   1      -2.179  -3.815   1.141  0.00  0.00    -0.031 A 
ATOM      4  C4  IND d   1      -3.900  -1.948   1.564  0.00  0.00     0.051 A 
ATOM      5  C5  IND d   1      -4.306  -0.731   1.094  0.00  0.00    -0.031 A 
ATOM      6  C6  IND d   1      -3.739  -0.155  -0.024  0.00  0.00     0.015 A 
ATOM      7  C7  IND d   1      -2.747  -0.783  -0.724  0.00  0.00    -0.016 A 
ATOM      8  C8  IND d   1      -2.327  -2.016  -0.245  0.00  0.00    -0.047 A 
ATOM      9  C9  IND d   1      -2.870  -2.586   0.914  0.00  0.00    -0.096 A 
ATOM     10  HN1 IND d   1      -0.862  -2.749  -1.401  0.00  0.00     0.298 HD
ENDROOT
TORSDOF 0
ENDMDL
