MODEL 1
REMARK minimizedAffinity 10.9943419
REMARK minimizedRMSD -1
REMARK  0 active torsions:
REMARK  status: ('A' for Active; 'I' for Inactive)
ROOT
ATOM      1  N1  IND d   1      -4.467  -0.402   1.762  0.00  0.00    -0.196 N 
ATOM      2  C2  IND d   1      -3.120  -0.195   1.874  0.00  0.00     0.054 A 
ATOM      3  C3  IND d   1      -2.541  -0.196   0.653  0.00  0.00    -0.031 A 
ATOM      4  C4  IND d   1      -3.625  -0.417  -1.672  0.00  0.00     0.051 A 
ATOM      5  C5  IND d   1      -4.823  -0.659  -2.283  0.00  0.00    -0.031 A 
ATOM      6  C6  IND d   1      -5.988  -0.828  -1.562  0.00  0.00     0.015 A 
ATOM      7  C7  IND d   1      -6.000  -0.750  -0.198  0.00  0.00    -0.016 A 
ATOM      8  C8  IND d   1      -4.784  -0.512   0.426  0.00  0.00    -0.047 A 
ATOM      9  C9  IND d   1      -3.591  -0.381  -0.298  0.00  0.00    -0.096 A 
ATOM     10  HN1 IND d   1      -5.023  -0.454   2.416  0.00  0.00     0.298 HD
ENDROOT
TORSDOF 0
ENDMDL
