MODEL 1
REMARK minimizedAffinity -0.479026347
REMARK minimizedRMSD -1
REMARK  0 active torsions:
REMARK  status: ('A' for Active; 'I' for Inactive)
ROOT
ATOM      1  N1  IND d   1      -4.021  -0.645   3.369  0.00  0.00    -0.196 N 
ATOM      2  C2  IND d   1      -2.752  -0.189   3.593  0.00  0.00     0.054 A 
ATOM      3  C3  IND d   1      -2.073  -0.096   2.427  0.00  0.00    -0.031 A 
ATOM      4  C4  IND d   1      -2.881  -0.544   0.024  0.00  0.00     0.051 A 
ATOM      5  C5  IND d   1      -3.952  -1.013  -0.682  0.00  0.00    -0.031 A 
ATOM      6  C6  IND d   1      -5.126  -1.389  -0.062  0.00  0.00     0.015 A 
ATOM      7  C7  IND d   1      -5.277  -1.298   1.293  0.00  0.00    -0.016 A 
ATOM      8  C8  IND d   1      -4.188  -0.828   2.014  0.00  0.00    -0.047 A 
ATOM      9  C9  IND d   1      -2.980  -0.486   1.394  0.00  0.00    -0.096 A 
ATOM     10  HN1 IND d   1      -4.615  -0.792   3.973  0.00  0.00     0.298 HD
ENDROOT
TORSDOF 0
ENDMDL
