MODEL 1
REMARK minimizedAffinity 10.9833002
REMARK minimizedRMSD -1
REMARK  0 active torsions:
REMARK  status: ('A' for Active; 'I' for Inactive)
ROOT
ATOM      1  N1  IND d   1       3.763  -0.566  -3.007  0.00  0.00    -0.196 N 
ATOM      2  C2  IND d   1       3.060  -1.696  -3.318  0.00  0.00     0.054 A 
ATOM      3  C3  IND d   1       2.301  -2.081  -2.268  0.00  0.00    -0.031 A 
ATOM      4  C4  IND d   1       1.981  -0.949   0.022  0.00  0.00     0.051 A 
ATOM      5  C5  IND d   1       2.441   0.088   0.784  0.00  0.00    -0.031 A 
ATOM      6  C6  IND d   1       3.383   0.980   0.312  0.00  0.00     0.015 A 
ATOM      7  C7  IND d   1       3.893   0.873  -0.951  0.00  0.00    -0.016 A 
ATOM      8  C8  IND d   1       3.433  -0.182  -1.726  0.00  0.00    -0.047 A 
ATOM      9  C9  IND d   1       2.510  -1.115  -1.237  0.00  0.00    -0.096 A 
ATOM     10  HN1 IND d   1       4.319  -0.162  -3.525  0.00  0.00     0.298 HD
ENDROOT
TORSDOF 0
ENDMDL
