MODEL 1
REMARK minimizedAffinity -1.96223891
REMARK minimizedRMSD -1
REMARK  0 active torsions:
REMARK  status: ('A' for Active; 'I' for Inactive)
ROOT
ATOM      1  C   UNL d   1      -0.629   0.460  -1.044  0.00  0.00     0.077 C 
ATOM      2  C1  UNL d   1      -1.190  -0.878  -1.426  0.00  0.00    -0.074 A 
ATOM      3  C2  UNL d   1      -1.235  -1.928  -0.503  0.00  0.00    -0.005 A 
ATOM      4  C3  UNL d   1      -1.768  -3.164  -0.870  0.00  0.00     0.006 A 
ATOM      5  C4  UNL d   1      -2.260  -3.362  -2.161  0.00  0.00    -0.005 A 
ATOM      6  C5  UNL d   1      -2.224  -2.323  -3.097  0.00  0.00    -0.074 A 
ATOM      7  C6  UNL d   1      -2.758  -2.516  -4.485  0.00  0.00     0.077 C 
ATOM      8  C7  UNL d   1      -1.693  -1.082  -2.718  0.00  0.00    -0.001 A 
ENDROOT
TORSDOF 0
ENDMDL
