MODEL 1
REMARK minimizedAffinity -4.2373209
REMARK minimizedRMSD -1
REMARK  0 active torsions:
REMARK  status: ('A' for Active; 'I' for Inactive)
ROOT
ATOM      1  C   UNL d   1      -4.973  -3.761  -0.148  0.00  0.00     0.077 C 
ATOM      2  C1  UNL d   1      -3.807  -3.043  -0.760  0.00  0.00    -0.074 A 
ATOM      3  C2  UNL d   1      -2.919  -2.309   0.032  0.00  0.00    -0.005 A 
ATOM      4  C3  UNL d   1      -1.833  -1.655  -0.549  0.00  0.00     0.006 A 
ATOM      5  C4  UNL d   1      -1.625  -1.728  -1.927  0.00  0.00    -0.005 A 
ATOM      6  C5  UNL d   1      -2.502  -2.458  -2.736  0.00  0.00    -0.074 A 
ATOM      7  C6  UNL d   1      -2.287  -2.555  -4.217  0.00  0.00     0.077 C 
ATOM      8  C7  UNL d   1      -3.587  -3.119  -2.142  0.00  0.00    -0.001 A 
ENDROOT
TORSDOF 0
ENDMDL
