MODEL 1
REMARK minimizedAffinity -1.87107062
REMARK minimizedRMSD -1
REMARK  0 active torsions:
REMARK  status: ('A' for Active; 'I' for Inactive)
ROOT
ATOM      1  C   UNL d   1      -0.709  -0.356   1.418  0.00  0.00     0.077 C 
ATOM      2  C1  UNL d   1      -1.039  -0.696  -0.006  0.00  0.00    -0.074 A 
ATOM      3  C2  UNL d   1      -0.968   0.274  -1.011  0.00  0.00    -0.005 A 
ATOM      4  C3  UNL d   1      -1.269  -0.059  -2.332  0.00  0.00     0.006 A 
ATOM      5  C4  UNL d   1      -1.642  -1.363  -2.660  0.00  0.00    -0.005 A 
ATOM      6  C5  UNL d   1      -1.718  -2.346  -1.668  0.00  0.00    -0.074 A 
ATOM      7  C6  UNL d   1      -2.108  -3.754  -2.006  0.00  0.00     0.077 C 
ATOM      8  C7  UNL d   1      -1.407  -2.005  -0.345  0.00  0.00    -0.001 A 
ENDROOT
TORSDOF 0
ENDMDL
