MODEL 1
REMARK minimizedAffinity -1.92902732
REMARK minimizedRMSD -1
REMARK  0 active torsions:
REMARK  status: ('A' for Active; 'I' for Inactive)
ROOT
ATOM      1  C   UNL d   1      -3.067  -2.949  -3.481  0.00  0.00     0.077 C 
ATOM      2  C1  UNL d   1      -2.361  -2.395  -2.280  0.00  0.00    -0.074 A 
ATOM      3  C2  UNL d   1      -2.121  -3.191  -1.156  0.00  0.00    -0.005 A 
ATOM      4  C3  UNL d   1      -1.456  -2.664  -0.049  0.00  0.00     0.006 A 
ATOM      5  C4  UNL d   1      -1.023  -1.338  -0.055  0.00  0.00    -0.005 A 
ATOM      6  C5  UNL d   1      -1.253  -0.526  -1.171  0.00  0.00    -0.074 A 
ATOM      7  C6  UNL d   1      -0.787   0.899  -1.198  0.00  0.00     0.077 C 
ATOM      8  C7  UNL d   1      -1.917  -1.065  -2.281  0.00  0.00    -0.001 A 
ENDROOT
TORSDOF 0
ENDMDL
