MODEL 1
REMARK minimizedAffinity 1.23132741
REMARK minimizedRMSD -1
REMARK  0 active torsions:
REMARK  status: ('A' for Active; 'I' for Inactive)
ROOT
ATOM      1  C   UNL d   1      -2.694  -1.821  -4.247  0.00  0.00     0.077 C 
ATOM      2  C1  UNL d   1      -2.250  -1.977  -2.823  0.00  0.00    -0.074 A 
ATOM      3  C2  UNL d   1      -2.607  -3.106  -2.078  0.00  0.00    -0.005 A 
ATOM      4  C3  UNL d   1      -2.179  -3.241  -0.758  0.00  0.00     0.006 A 
ATOM      5  C4  UNL d   1      -1.390  -2.251  -0.170  0.00  0.00    -0.005 A 
ATOM      6  C5  UNL d   1      -1.023  -1.116  -0.900  0.00  0.00    -0.074 A 
ATOM      7  C6  UNL d   1      -0.168  -0.047  -0.286  0.00  0.00     0.077 C 
ATOM      8  C7  UNL d   1      -1.451  -0.991  -2.228  0.00  0.00    -0.001 A 
ENDROOT
TORSDOF 0
ENDMDL
