MODEL 1
REMARK minimizedAffinity 5.12810326
REMARK minimizedRMSD -1
REMARK  0 active torsions:
REMARK  status: ('A' for Active; 'I' for Inactive)
ROOT
ATOM      1  C   UNL d   1      -3.448   2.054   3.213  0.00  0.00     0.077 C 
ATOM      2  C1  UNL d   1      -3.974   3.430   2.929  0.00  0.00    -0.074 A 
ATOM      3  C2  UNL d   1      -4.220   4.334   3.967  0.00  0.00    -0.005 A 
ATOM      4  C3  UNL d   1      -4.700   5.613   3.686  0.00  0.00     0.006 A 
ATOM      5  C4  UNL d   1      -4.939   6.000   2.367  0.00  0.00    -0.005 A 
ATOM      6  C5  UNL d   1      -4.699   5.109   1.316  0.00  0.00    -0.074 A 
ATOM      7  C6  UNL d   1      -4.941   5.512  -0.109  0.00  0.00     0.077 C 
ATOM      8  C7  UNL d   1      -4.210   3.828   1.605  0.00  0.00    -0.001 A 
ENDROOT
TORSDOF 0
ENDMDL
