MODEL 1
REMARK minimizedAffinity 4.20864868
REMARK minimizedRMSD -1
REMARK  0 active torsions:
REMARK  status: ('A' for Active; 'I' for Inactive)
ROOT
ATOM      1  C   UNL d   1      -2.937  -2.391  -4.303  0.00  0.00     0.077 C 
ATOM      2  C1  UNL d   1      -2.412  -1.989  -2.957  0.00  0.00    -0.074 A 
ATOM      3  C2  UNL d   1      -2.231  -2.937  -1.944  0.00  0.00    -0.005 A 
ATOM      4  C3  UNL d   1      -1.733  -2.550  -0.700  0.00  0.00     0.006 A 
ATOM      5  C4  UNL d   1      -1.409  -1.214  -0.457  0.00  0.00    -0.005 A 
ATOM      6  C5  UNL d   1      -1.582  -0.253  -1.458  0.00  0.00    -0.074 A 
ATOM      7  C6  UNL d   1      -1.230   1.185  -1.217  0.00  0.00     0.077 C 
ATOM      8  C7  UNL d   1      -2.077  -0.651  -2.708  0.00  0.00    -0.001 A 
ENDROOT
TORSDOF 0
ENDMDL
