MODEL 1
REMARK minimizedAffinity 3.24970198
REMARK minimizedRMSD -1
REMARK  0 active torsions:
REMARK  status: ('A' for Active; 'I' for Inactive)
ROOT
ATOM      1  C   UNL d   1      -3.012  -1.475  -1.918  0.00  0.00     0.077 C 
ATOM      2  C1  UNL d   1      -3.478  -2.890  -2.090  0.00  0.00    -0.074 A 
ATOM      3  C2  UNL d   1      -2.916  -3.718  -3.067  0.00  0.00    -0.005 A 
ATOM      4  C3  UNL d   1      -3.354  -5.035  -3.209  0.00  0.00     0.006 A 
ATOM      5  C4  UNL d   1      -4.355  -5.536  -2.377  0.00  0.00    -0.005 A 
ATOM      6  C5  UNL d   1      -4.928  -4.723  -1.393  0.00  0.00    -0.074 A 
ATOM      7  C6  UNL d   1      -5.999  -5.249  -0.484  0.00  0.00     0.077 C 
ATOM      8  C7  UNL d   1      -4.478  -3.403  -1.253  0.00  0.00    -0.001 A 
ENDROOT
TORSDOF 0
ENDMDL
