MODEL 1
REMARK minimizedAffinity 11.7881041
REMARK minimizedRMSD -1
REMARK  0 active torsions:
REMARK  status: ('A' for Active; 'I' for Inactive)
ROOT
ATOM      1  C   UNL d   1      -2.772  -0.078   3.339  0.00  0.00     0.077 C 
ATOM      2  C1  UNL d   1      -1.947  -0.223   2.094  0.00  0.00    -0.074 A 
ATOM      3  C2  UNL d   1      -2.453   0.160   0.848  0.00  0.00    -0.005 A 
ATOM      4  C3  UNL d   1      -1.671   0.028  -0.299  0.00  0.00     0.006 A 
ATOM      5  C4  UNL d   1      -0.377  -0.487  -0.212  0.00  0.00    -0.005 A 
ATOM      6  C5  UNL d   1       0.146  -0.874   1.026  0.00  0.00    -0.074 A 
ATOM      7  C6  UNL d   1       1.538  -1.421   1.138  0.00  0.00     0.077 C 
ATOM      8  C7  UNL d   1      -0.643  -0.732   2.175  0.00  0.00    -0.001 A 
ENDROOT
TORSDOF 0
ENDMDL
