MODEL 1
REMARK minimizedAffinity 3.32167244
REMARK minimizedRMSD -1
REMARK  0 active torsions:
REMARK  status: ('A' for Active; 'I' for Inactive)
ROOT
ATOM      1  C   UNL d   1      -2.395   5.083   4.601  0.00  0.00     0.077 C 
ATOM      2  C1  UNL d   1      -3.651   5.394   3.843  0.00  0.00    -0.074 A 
ATOM      3  C2  UNL d   1      -4.840   5.697   4.515  0.00  0.00    -0.005 A 
ATOM      4  C3  UNL d   1      -5.998   5.994   3.796  0.00  0.00     0.006 A 
ATOM      5  C4  UNL d   1      -5.979   5.991   2.401  0.00  0.00    -0.005 A 
ATOM      6  C5  UNL d   1      -4.800   5.692   1.712  0.00  0.00    -0.074 A 
ATOM      7  C6  UNL d   1      -4.760   5.695   0.213  0.00  0.00     0.077 C 
ATOM      8  C7  UNL d   1      -3.638   5.402   2.441  0.00  0.00    -0.001 A 
ENDROOT
TORSDOF 0
ENDMDL
