MODEL 1
REMARK minimizedAffinity -3.51075244
REMARK minimizedRMSD -1
REMARK  0 active torsions:
REMARK  status: ('A' for Active; 'I' for Inactive)
ROOT
ATOM      1  C   UNL d   1      -5.283   5.082   2.205  0.00  0.00     0.077 C 
ATOM      2  C1  UNL d   1      -5.131   4.400   3.532  0.00  0.00    -0.074 A 
ATOM      3  C2  UNL d   1      -5.041   5.141   4.715  0.00  0.00    -0.005 A 
ATOM      4  C3  UNL d   1      -4.910   4.492   5.943  0.00  0.00     0.006 A 
ATOM      5  C4  UNL d   1      -4.866   3.099   6.000  0.00  0.00    -0.005 A 
ATOM      6  C5  UNL d   1      -4.955   2.341   4.828  0.00  0.00    -0.074 A 
ATOM      7  C6  UNL d   1      -4.920   0.842   4.873  0.00  0.00     0.077 C 
ATOM      8  C7  UNL d   1      -5.094   3.000   3.599  0.00  0.00    -0.001 A 
ENDROOT
TORSDOF 0
ENDMDL
