MODEL 1
REMARK minimizedAffinity -1.08669436
REMARK minimizedRMSD -1
REMARK  0 active torsions:
REMARK  status: ('A' for Active; 'I' for Inactive)
ROOT
ATOM      1  C   UNL d   1      -4.500   1.747   4.502  0.00  0.00     0.077 C 
ATOM      2  C1  UNL d   1      -4.700   3.230   4.394  0.00  0.00    -0.074 A 
ATOM      3  C2  UNL d   1      -4.695   4.041   5.533  0.00  0.00    -0.005 A 
ATOM      4  C3  UNL d   1      -4.873   5.419   5.416  0.00  0.00     0.006 A 
ATOM      5  C4  UNL d   1      -5.056   6.000   4.161  0.00  0.00    -0.005 A 
ATOM      6  C5  UNL d   1      -5.062   5.205   3.010  0.00  0.00    -0.074 A 
ATOM      7  C6  UNL d   1      -5.248   5.815   1.652  0.00  0.00     0.077 C 
ATOM      8  C7  UNL d   1      -4.876   3.822   3.135  0.00  0.00    -0.001 A 
ENDROOT
TORSDOF 0
ENDMDL
