MODEL 1
REMARK minimizedAffinity -1.12919784
REMARK minimizedRMSD -1
REMARK  0 active torsions:
REMARK  status: ('A' for Active; 'I' for Inactive)
ROOT
ATOM      1  C   UNL d   1      -5.479   5.991   5.916  0.00  0.00     0.077 C 
ATOM      2  C1  UNL d   1      -5.263   5.316   4.594  0.00  0.00    -0.074 A 
ATOM      3  C2  UNL d   1      -4.641   4.065   4.519  0.00  0.00    -0.005 A 
ATOM      4  C3  UNL d   1      -4.456   3.445   3.283  0.00  0.00     0.006 A 
ATOM      5  C4  UNL d   1      -4.891   4.068   2.112  0.00  0.00    -0.005 A 
ATOM      6  C5  UNL d   1      -5.515   5.318   2.168  0.00  0.00    -0.074 A 
ATOM      7  C6  UNL d   1      -5.997   5.997   0.921  0.00  0.00     0.077 C 
ATOM      8  C7  UNL d   1      -5.704   5.932   3.414  0.00  0.00    -0.001 A 
ENDROOT
TORSDOF 0
ENDMDL
