MODEL 1
REMARK minimizedAffinity -4.27438259
REMARK minimizedRMSD -1
REMARK  0 active torsions:
REMARK  status: ('A' for Active; 'I' for Inactive)
ROOT
ATOM      1  C   UNL d   1      -4.446   5.968   2.248  0.00  0.00     0.077 C 
ATOM      2  C1  UNL d   1      -4.541   4.858   3.253  0.00  0.00    -0.074 A 
ATOM      3  C2  UNL d   1      -5.111   5.076   4.512  0.00  0.00    -0.005 A 
ATOM      4  C3  UNL d   1      -5.201   4.032   5.433  0.00  0.00     0.006 A 
ATOM      5  C4  UNL d   1      -4.724   2.763   5.105  0.00  0.00    -0.005 A 
ATOM      6  C5  UNL d   1      -4.152   2.526   3.851  0.00  0.00    -0.074 A 
ATOM      7  C6  UNL d   1      -3.643   1.165   3.479  0.00  0.00     0.077 C 
ATOM      8  C7  UNL d   1      -4.071   3.578   2.929  0.00  0.00    -0.001 A 
ENDROOT
TORSDOF 0
ENDMDL
