MODEL 1
REMARK minimizedAffinity 0.407132626
REMARK minimizedRMSD -1
REMARK  0 active torsions:
REMARK  status: ('A' for Active; 'I' for Inactive)
ROOT
ATOM      1  C   UNL d   1      -5.991   6.000   0.930  0.00  0.00     0.077 C 
ATOM      2  C1  UNL d   1      -5.260   5.771   2.219  0.00  0.00    -0.074 A 
ATOM      3  C2  UNL d   1      -3.920   5.368   2.225  0.00  0.00    -0.005 A 
ATOM      4  C3  UNL d   1      -3.251   5.168   3.432  0.00  0.00     0.006 A 
ATOM      5  C4  UNL d   1      -3.913   5.368   4.644  0.00  0.00    -0.005 A 
ATOM      6  C5  UNL d   1      -5.253   5.770   4.658  0.00  0.00    -0.074 A 
ATOM      7  C6  UNL d   1      -5.976   5.999   5.952  0.00  0.00     0.077 C 
ATOM      8  C7  UNL d   1      -5.916   5.976   3.441  0.00  0.00    -0.001 A 
ENDROOT
TORSDOF 0
ENDMDL
