MODEL 1
REMARK minimizedAffinity 2.72784638
REMARK minimizedRMSD -1
REMARK  1 active torsions:
REMARK  status: ('A' for Active; 'I' for Inactive)
REMARK    1  A    between atoms: C1_2  and  C2_3 
ROOT
ATOM      1  C2  UNL d   1      -0.085  -4.027   4.498  0.00  0.00    -0.073 A 
ATOM      2  C3  UNL d   1      -0.738  -2.843   4.862  0.00  0.00    -0.002 A 
ATOM      3  C4  UNL d   1      -0.216  -1.606   4.482  0.00  0.00     0.004 A 
ATOM      4  C5  UNL d   1       0.956  -1.539   3.730  0.00  0.00    -0.004 A 
ATOM      5  C6  UNL d   1       1.616  -2.711   3.346  0.00  0.00    -0.075 A 
ATOM      6  C7  UNL d   1       2.879  -2.656   2.539  0.00  0.00     0.076 C 
ATOM      7  C8  UNL d   1       1.088  -3.950   3.734  0.00  0.00     0.001 A 
ENDROOT
BRANCH   1   8
ATOM      8  C1  UNL d   1      -0.648  -5.366   4.900  0.00  0.00     0.053 C 
ATOM      9  C   UNL d   1      -1.694  -5.238   5.996  0.00  0.00     0.018 C 
ENDBRANCH   1   8
TORSDOF 1
ENDMDL
