MODEL 1
REMARK minimizedAffinity -1.23600245
REMARK minimizedRMSD -1
REMARK  1 active torsions:
REMARK  status: ('A' for Active; 'I' for Inactive)
REMARK    1  A    between atoms: C1_2  and  C2_3 
ROOT
ATOM      1  C2  UNL d   1       2.543   1.818   5.719  0.00  0.00    -0.073 A 
ATOM      2  C3  UNL d   1       3.790   2.213   5.220  0.00  0.00    -0.002 A 
ATOM      3  C4  UNL d   1       4.052   3.560   4.967  0.00  0.00     0.004 A 
ATOM      4  C5  UNL d   1       3.076   4.525   5.217  0.00  0.00    -0.004 A 
ATOM      5  C6  UNL d   1       1.829   4.150   5.728  0.00  0.00    -0.075 A 
ATOM      6  C7  UNL d   1       0.767   5.175   6.000  0.00  0.00     0.076 C 
ATOM      7  C8  UNL d   1       1.572   2.795   5.976  0.00  0.00     0.001 A 
ENDROOT
BRANCH   1   8
ATOM      8  C1  UNL d   1       2.257   0.365   6.000  0.00  0.00     0.053 C 
ATOM      9  C   UNL d   1       2.238  -0.468   4.728  0.00  0.00     0.018 C 
ENDBRANCH   1   8
TORSDOF 1
ENDMDL
