MODEL 1
REMARK minimizedAffinity -1.40311956
REMARK minimizedRMSD -1
REMARK  1 active torsions:
REMARK  status: ('A' for Active; 'I' for Inactive)
REMARK    1  A    between atoms: C1_2  and  C2_3 
ROOT
ATOM      1  C2  UNL d   1       0.844  -2.811   4.493  0.00  0.00    -0.073 A 
ATOM      2  C3  UNL d   1       1.990  -3.077   5.252  0.00  0.00    -0.002 A 
ATOM      3  C4  UNL d   1       2.084  -4.252   5.999  0.00  0.00     0.004 A 
ATOM      4  C5  UNL d   1       1.038  -5.175   5.989  0.00  0.00    -0.004 A 
ATOM      5  C6  UNL d   1      -0.110  -4.933   5.228  0.00  0.00    -0.075 A 
ATOM      6  C7  UNL d   1      -1.244  -5.914   5.209  0.00  0.00     0.076 C 
ATOM      7  C8  UNL d   1      -0.198  -3.749   4.483  0.00  0.00     0.001 A 
ENDROOT
BRANCH   1   8
ATOM      8  C1  UNL d   1       0.741  -1.547   3.680  0.00  0.00     0.053 C 
ATOM      9  C   UNL d   1       2.040  -0.756   3.688  0.00  0.00     0.018 C 
ENDBRANCH   1   8
TORSDOF 1
ENDMDL
