MODEL 1
REMARK minimizedAffinity -1.58564281
REMARK minimizedRMSD -1
REMARK  1 active torsions:
REMARK  status: ('A' for Active; 'I' for Inactive)
REMARK    1  A    between atoms: C1_2  and  C2_3 
ROOT
ATOM      1  C2  UNL d   1       3.669   2.919   5.978  0.00  0.00    -0.073 A 
ATOM      2  C3  UNL d   1       4.641   3.926   5.989  0.00  0.00    -0.002 A 
ATOM      3  C4  UNL d   1       4.264   5.270   5.996  0.00  0.00     0.004 A 
ATOM      4  C5  UNL d   1       2.914   5.620   5.998  0.00  0.00    -0.004 A 
ATOM      5  C6  UNL d   1       1.928   4.629   5.999  0.00  0.00    -0.075 A 
ATOM      6  C7  UNL d   1       0.471   4.989   5.999  0.00  0.00     0.076 C 
ATOM      7  C8  UNL d   1       2.314   3.282   5.989  0.00  0.00     0.001 A 
ENDROOT
BRANCH   1   8
ATOM      8  C1  UNL d   1       4.071   1.467   5.977  0.00  0.00     0.053 C 
ATOM      9  C   UNL d   1       2.864   0.542   5.998  0.00  0.00     0.018 C 
ENDBRANCH   1   8
TORSDOF 1
ENDMDL
