MODEL 1
REMARK minimizedAffinity 2.6639502
REMARK minimizedRMSD -1
REMARK  1 active torsions:
REMARK  status: ('A' for Active; 'I' for Inactive)
REMARK    1  A    between atoms: C1_2  and  C2_3 
ROOT
ATOM      1  C2  UNL d   1       5.059   2.893   2.922  0.00  0.00    -0.073 A 
ATOM      2  C3  UNL d   1       5.191   4.189   3.434  0.00  0.00    -0.002 A 
ATOM      3  C4  UNL d   1       4.878   4.456   4.767  0.00  0.00     0.004 A 
ATOM      4  C5  UNL d   1       4.436   3.430   5.603  0.00  0.00    -0.004 A 
ATOM      5  C6  UNL d   1       4.309   2.127   5.114  0.00  0.00    -0.075 A 
ATOM      6  C7  UNL d   1       3.833   1.013   5.999  0.00  0.00     0.076 C 
ATOM      7  C8  UNL d   1       4.623   1.867   3.773  0.00  0.00     0.001 A 
ENDROOT
BRANCH   1   8
ATOM      8  C1  UNL d   1       5.403   2.599   1.485  0.00  0.00     0.053 C 
ATOM      9  C   UNL d   1       4.161   2.375   0.636  0.00  0.00     0.018 C 
ENDBRANCH   1   8
TORSDOF 1
ENDMDL
