MODEL 1
REMARK minimizedAffinity -2.74616885
REMARK minimizedRMSD -1
REMARK  1 active torsions:
REMARK  status: ('A' for Active; 'I' for Inactive)
REMARK    1  A    between atoms: C3_4  and  O_7 
ROOT
ATOM      1  C   UNL d   1      -1.021   0.214  -0.892  0.00  0.00    -0.033 A 
ATOM      2  C1  UNL d   1      -1.564  -0.000   0.376  0.00  0.00     0.039 A 
ATOM      3  C2  UNL d   1      -0.743   0.037   1.505  0.00  0.00    -0.080 A 
ATOM      4  C3  UNL d   1       0.617   0.291   1.352  0.00  0.00     0.150 A 
ATOM      5  C4  UNL d   1       1.164   0.509   0.091  0.00  0.00    -0.007 A 
ATOM      6  C5  UNL d   1       0.343   0.471  -1.034  0.00  0.00     0.039 A 
ENDROOT
BRANCH   4   7
ATOM      7  O   UNL d   1       1.460   0.332   2.423  0.00  0.00    -0.526 OA
ATOM      8  H5  UNL d   1       0.947   0.135   3.225  0.00  0.00     0.418 HD
ENDBRANCH   4   7
TORSDOF 1
ENDMDL
