MODEL 1
REMARK minimizedAffinity -2.08207107
REMARK minimizedRMSD -1
REMARK  1 active torsions:
REMARK  status: ('A' for Active; 'I' for Inactive)
REMARK    1  A    between atoms: C3_4  and  O_7 
ROOT
ATOM      1  C   UNL d   1      -0.045  -0.472  -1.507  0.00  0.00    -0.033 A 
ATOM      2  C1  UNL d   1      -0.855  -0.192  -0.404  0.00  0.00     0.039 A 
ATOM      3  C2  UNL d   1      -0.306  -0.168   0.879  0.00  0.00    -0.080 A 
ATOM      4  C3  UNL d   1       1.052  -0.423   1.046  0.00  0.00     0.150 A 
ATOM      5  C4  UNL d   1       1.866  -0.699  -0.048  0.00  0.00    -0.007 A 
ATOM      6  C5  UNL d   1       1.316  -0.724  -1.329  0.00  0.00     0.039 A 
ENDROOT
BRANCH   4   7
ATOM      7  O   UNL d   1       1.632  -0.415   2.280  0.00  0.00    -0.526 OA
ATOM      8  H5  UNL d   1       0.944  -0.239   2.943  0.00  0.00     0.418 HD
ENDBRANCH   4   7
TORSDOF 1
ENDMDL
