MODEL 1
REMARK minimizedAffinity -5.16233158
REMARK minimizedRMSD -1
REMARK  1 active torsions:
REMARK  status: ('A' for Active; 'I' for Inactive)
REMARK    1  A    between atoms: C3_4  and  O_7 
ROOT
ATOM      1  C   UNL d   1       1.618  -1.895   2.000  0.00  0.00    -0.033 A 
ATOM      2  C1  UNL d   1       2.017  -1.856   0.662  0.00  0.00     0.039 A 
ATOM      3  C2  UNL d   1       1.236  -1.186  -0.281  0.00  0.00    -0.080 A 
ATOM      4  C3  UNL d   1       0.060  -0.560   0.125  0.00  0.00     0.150 A 
ATOM      5  C4  UNL d   1      -0.341  -0.592   1.456  0.00  0.00    -0.007 A 
ATOM      6  C5  UNL d   1       0.440  -1.262   2.397  0.00  0.00     0.039 A 
ENDROOT
BRANCH   4   7
ATOM      7  O   UNL d   1      -0.737   0.102  -0.761  0.00  0.00    -0.526 OA
ATOM      8  H5  UNL d   1      -0.349   0.017  -1.648  0.00  0.00     0.418 HD
ENDBRANCH   4   7
TORSDOF 1
ENDMDL
