MODEL 1
REMARK minimizedAffinity -3.7911706
REMARK minimizedRMSD -1
REMARK  1 active torsions:
REMARK  status: ('A' for Active; 'I' for Inactive)
REMARK    1  A    between atoms: C3_4  and  O_7 
ROOT
ATOM      1  C   UNL d   1       0.619  -1.530   2.467  0.00  0.00    -0.033 A 
ATOM      2  C1  UNL d   1       1.694  -2.369   2.170  0.00  0.00     0.039 A 
ATOM      3  C2  UNL d   1       2.125  -2.513   0.850  0.00  0.00    -0.080 A 
ATOM      4  C3  UNL d   1       1.474  -1.813  -0.162  0.00  0.00     0.150 A 
ATOM      5  C4  UNL d   1       0.404  -0.971   0.128  0.00  0.00    -0.007 A 
ATOM      6  C5  UNL d   1      -0.025  -0.829   1.447  0.00  0.00     0.039 A 
ENDROOT
BRANCH   4   7
ATOM      7  O   UNL d   1       1.855  -1.925  -1.466  0.00  0.00    -0.526 OA
ATOM      8  H5  UNL d   1       2.587  -2.562  -1.519  0.00  0.00     0.418 HD
ENDBRANCH   4   7
TORSDOF 1
ENDMDL
