MODEL 1
REMARK minimizedAffinity -3.14618087
REMARK minimizedRMSD -1
REMARK  0 active torsions:
REMARK  status: ('A' for Active; 'I' for Inactive)
ROOT
ATOM      1  C   UNL d   1      -1.237  -0.007   0.267  0.00  0.00     0.023 A 
ATOM      2  C1  UNL d   1      -0.917   1.237  -0.277  0.00  0.00     0.003 A 
ATOM      3  C2  UNL d   1      -0.058   1.320  -1.375  0.00  0.00     0.048 A 
ATOM      4  C3  UNL d   1       0.477   0.155  -1.924  0.00  0.00     0.023 A 
ATOM      5  C4  UNL d   1       0.159  -1.092  -1.383  0.00  0.00     0.048 A 
ATOM      6  C5  UNL d   1      -0.699  -1.170  -0.285  0.00  0.00     0.003 A 
ATOM      7  I   UNL d   1       1.755   0.276  -3.559  0.00  0.00    -0.146 I 
ENDROOT
TORSDOF 0
ENDMDL
