MODEL 1
REMARK minimizedAffinity -2.94168997
REMARK minimizedRMSD -1
REMARK  0 active torsions:
REMARK  status: ('A' for Active; 'I' for Inactive)
ROOT
ATOM      1  C   UNL d   1      -1.209   0.288   2.257  0.00  0.00     0.023 A 
ATOM      2  C1  UNL d   1       0.080  -0.240   2.176  0.00  0.00     0.003 A 
ATOM      3  C2  UNL d   1       0.725  -0.324   0.941  0.00  0.00     0.048 A 
ATOM      4  C3  UNL d   1       0.076   0.121  -0.210  0.00  0.00     0.023 A 
ATOM      5  C4  UNL d   1      -1.213   0.650  -0.134  0.00  0.00     0.048 A 
ATOM      6  C5  UNL d   1      -1.855   0.732   1.103  0.00  0.00     0.003 A 
ATOM      7  I   UNL d   1       1.035  -0.003  -2.050  0.00  0.00    -0.146 I 
ENDROOT
TORSDOF 0
ENDMDL
