MODEL 1
REMARK minimizedAffinity -4.31631804
REMARK minimizedRMSD -1
REMARK  0 active torsions:
REMARK  status: ('A' for Active; 'I' for Inactive)
ROOT
ATOM      1  C   UNL d   1       0.812   0.210  -3.284  0.00  0.00     0.023 A 
ATOM      2  C1  UNL d   1       1.029  -0.789  -2.335  0.00  0.00     0.003 A 
ATOM      3  C2  UNL d   1       0.426  -0.703  -1.078  0.00  0.00     0.048 A 
ATOM      4  C3  UNL d   1      -0.392   0.385  -0.777  0.00  0.00     0.023 A 
ATOM      5  C4  UNL d   1      -0.613   1.387  -1.723  0.00  0.00     0.048 A 
ATOM      6  C5  UNL d   1      -0.008   1.297  -2.978  0.00  0.00     0.003 A 
ATOM      7  I   UNL d   1      -1.290   0.515   1.093  0.00  0.00    -0.146 I 
ENDROOT
TORSDOF 0
ENDMDL
