MODEL 1
REMARK minimizedAffinity -3.4583354
REMARK minimizedRMSD -1
REMARK  0 active torsions:
REMARK  status: ('A' for Active; 'I' for Inactive)
ROOT
ATOM      1  C   UNL d   1      -0.862   0.908   2.164  0.00  0.00     0.023 A 
ATOM      2  C1  UNL d   1       0.503   0.782   1.906  0.00  0.00     0.003 A 
ATOM      3  C2  UNL d   1       0.942   0.393   0.639  0.00  0.00     0.048 A 
ATOM      4  C3  UNL d   1       0.011   0.133  -0.366  0.00  0.00     0.023 A 
ATOM      5  C4  UNL d   1      -1.356   0.259  -0.113  0.00  0.00     0.048 A 
ATOM      6  C5  UNL d   1      -1.790   0.647   1.156  0.00  0.00     0.003 A 
ATOM      7  I   UNL d   1       0.663  -0.446  -2.253  0.00  0.00    -0.146 I 
ENDROOT
TORSDOF 0
ENDMDL
