MODEL 1
REMARK minimizedAffinity -2.56703043
REMARK minimizedRMSD -1
REMARK  0 active torsions:
REMARK  status: ('A' for Active; 'I' for Inactive)
ROOT
ATOM      1  C   UNL d   1      -2.534   0.369   1.147  0.00  0.00     0.023 A 
ATOM      2  C1  UNL d   1      -2.047  -0.323   0.038  0.00  0.00     0.003 A 
ATOM      3  C2  UNL d   1      -0.731  -0.791   0.029  0.00  0.00     0.048 A 
ATOM      4  C3  UNL d   1       0.091  -0.564   1.132  0.00  0.00     0.023 A 
ATOM      5  C4  UNL d   1      -0.393   0.128   2.243  0.00  0.00     0.048 A 
ATOM      6  C5  UNL d   1      -1.708   0.594   2.248  0.00  0.00     0.003 A 
ATOM      7  I   UNL d   1       2.050  -1.259   1.120  0.00  0.00    -0.146 I 
ENDROOT
TORSDOF 0
ENDMDL
