MODEL 1
REMARK minimizedAffinity -3.66806459
REMARK minimizedRMSD -1
REMARK  0 active torsions:
REMARK  status: ('A' for Active; 'I' for Inactive)
ROOT
ATOM      1  C   UNL d   1       0.946   0.452   3.794  0.00  0.00     0.023 A 
ATOM      2  C1  UNL d   1       1.622  -0.059   2.686  0.00  0.00     0.003 A 
ATOM      3  C2  UNL d   1       0.962  -0.189   1.462  0.00  0.00     0.048 A 
ATOM      4  C3  UNL d   1      -0.374   0.196   1.354  0.00  0.00     0.023 A 
ATOM      5  C4  UNL d   1      -1.054   0.709   2.460  0.00  0.00     0.048 A 
ATOM      6  C5  UNL d   1      -0.390   0.835   3.681  0.00  0.00     0.003 A 
ATOM      7  I   UNL d   1      -1.360   0.005  -0.466  0.00  0.00    -0.146 I 
ENDROOT
TORSDOF 0
ENDMDL
