MODEL 1
REMARK minimizedAffinity -0.839121699
REMARK minimizedRMSD -1
REMARK  0 active torsions:
REMARK  status: ('A' for Active; 'I' for Inactive)
ROOT
ATOM      1  C   UNL d   1       0.285   0.062   0.969  0.00  0.00     0.023 A 
ATOM      2  C1  UNL d   1      -0.661   0.813   0.271  0.00  0.00     0.003 A 
ATOM      3  C2  UNL d   1      -0.633   0.851  -1.124  0.00  0.00     0.048 A 
ATOM      4  C3  UNL d   1       0.342   0.133  -1.816  0.00  0.00     0.023 A 
ATOM      5  C4  UNL d   1       1.289  -0.621  -1.122  0.00  0.00     0.048 A 
ATOM      6  C5  UNL d   1       1.259  -0.655   0.273  0.00  0.00     0.003 A 
ATOM      7  I   UNL d   1       0.384   0.188  -3.893  0.00  0.00    -0.146 I 
ENDROOT
TORSDOF 0
ENDMDL
