MODEL 1
REMARK minimizedAffinity -3.05858135
REMARK minimizedRMSD -1
REMARK  0 active torsions:
REMARK  status: ('A' for Active; 'I' for Inactive)
ROOT
ATOM      1  C4' PXY d   1       0.757  -0.831  -2.125  0.00  0.00     0.077 C 
ATOM      2  C1' PXY d   1      -0.939   1.551   2.861  0.00  0.00     0.077 C 
ATOM      3  C1  PXY d   1      -0.482   0.932   1.555  0.00  0.00    -0.082 A 
ATOM      4  C2  PXY d   1      -1.377   0.610   0.635  0.00  0.00     0.003 A 
ATOM      5  C3  PXY d   1      -0.985   0.020  -0.538  0.00  0.00     0.003 A 
ATOM      6  C4  PXY d   1       0.343  -0.195  -0.795  0.00  0.00    -0.082 A 
ATOM      7  C5  PXY d   1       1.263   0.140   0.133  0.00  0.00     0.003 A 
ATOM      8  C6  PXY d   1       0.841   0.700   1.335  0.00  0.00     0.003 A 
ENDROOT
TORSDOF 0
ENDMDL
