MODEL 1
REMARK minimizedAffinity -5.80476665
REMARK minimizedRMSD -1
REMARK  0 active torsions:
REMARK  status: ('A' for Active; 'I' for Inactive)
ROOT
ATOM      1  C4' PXY d   1       0.329  -0.855  -1.064  0.00  0.00     0.077 C 
ATOM      2  C1' PXY d   1      -0.330   1.680   4.090  0.00  0.00     0.077 C 
ATOM      3  C1  PXY d   1      -0.170   1.012   2.738  0.00  0.00    -0.082 A 
ATOM      4  C2  PXY d   1       1.026   0.598   2.351  0.00  0.00     0.003 A 
ATOM      5  C3  PXY d   1       1.194   0.020   1.119  0.00  0.00     0.003 A 
ATOM      6  C4  PXY d   1       0.119  -0.183   0.296  0.00  0.00    -0.082 A 
ATOM      7  C5  PXY d   1      -1.106   0.227   0.689  0.00  0.00     0.003 A 
ATOM      8  C6  PXY d   1      -1.249   0.848   1.926  0.00  0.00     0.003 A 
ENDROOT
TORSDOF 0
ENDMDL
