MODEL 1
REMARK minimizedAffinity -2.69011712
REMARK minimizedRMSD -1
REMARK  0 active torsions:
REMARK  status: ('A' for Active; 'I' for Inactive)
ROOT
ATOM      1  C4' PXY d   1      -0.010   1.748   2.997  0.00  0.00     0.077 C 
ATOM      2  C1' PXY d   1       0.538  -1.574  -1.702  0.00  0.00     0.077 C 
ATOM      3  C1  PXY d   1       0.405  -0.708  -0.465  0.00  0.00    -0.082 A 
ATOM      4  C2  PXY d   1      -0.787  -0.263  -0.103  0.00  0.00     0.003 A 
ATOM      5  C3  PXY d   1      -0.921   0.548   0.995  0.00  0.00     0.003 A 
ATOM      6  C4  PXY d   1       0.170   0.863   1.760  0.00  0.00    -0.082 A 
ATOM      7  C5  PXY d   1       1.388   0.404   1.403  0.00  0.00     0.003 A 
ATOM      8  C6  PXY d   1       1.509  -0.383   0.262  0.00  0.00     0.003 A 
ENDROOT
TORSDOF 0
ENDMDL
