MODEL 1
REMARK minimizedAffinity -4.05173397
REMARK minimizedRMSD -1
REMARK  0 active torsions:
REMARK  status: ('A' for Active; 'I' for Inactive)
ROOT
ATOM      1  C4' PXY d   1       0.366  -0.780  -1.919  0.00  0.00     0.077 C 
ATOM      2  C1' PXY d   1      -1.260   1.414   3.176  0.00  0.00     0.077 C 
ATOM      3  C1  PXY d   1      -0.822   0.845   1.840  0.00  0.00    -0.082 A 
ATOM      4  C2  PXY d   1      -1.734   0.478   0.955  0.00  0.00     0.003 A 
ATOM      5  C3  PXY d   1      -1.356  -0.068  -0.245  0.00  0.00     0.003 A 
ATOM      6  C4  PXY d   1      -0.030  -0.192  -0.562  0.00  0.00    -0.082 A 
ATOM      7  C5  PXY d   1       0.906   0.190   0.332  0.00  0.00     0.003 A 
ATOM      8  C6  PXY d   1       0.502   0.704   1.560  0.00  0.00     0.003 A 
ENDROOT
TORSDOF 0
ENDMDL
