MODEL 1
REMARK minimizedAffinity -5.17293978
REMARK minimizedRMSD -1
REMARK  0 active torsions:
REMARK  status: ('A' for Active; 'I' for Inactive)
ROOT
ATOM      1  C4' PXY d   1       0.803   0.392  -3.002  0.00  0.00     0.077 C 
ATOM      2  C1' PXY d   1      -1.464   0.357   2.316  0.00  0.00     0.077 C 
ATOM      3  C1  PXY d   1      -0.871   0.354   0.921  0.00  0.00    -0.082 A 
ATOM      4  C2  PXY d   1      -0.084   1.348   0.541  0.00  0.00     0.003 A 
ATOM      5  C3  PXY d   1       0.435   1.377  -0.727  0.00  0.00     0.003 A 
ATOM      6  C4  PXY d   1       0.190   0.350  -1.599  0.00  0.00    -0.082 A 
ATOM      7  C5  PXY d   1      -0.603  -0.674  -1.216  0.00  0.00     0.003 A 
ATOM      8  C6  PXY d   1      -1.153  -0.663   0.062  0.00  0.00     0.003 A 
ENDROOT
TORSDOF 0
ENDMDL
