MODEL 1
REMARK minimizedAffinity 4.46333075
REMARK minimizedRMSD -1
REMARK  0 active torsions:
REMARK  status: ('A' for Active; 'I' for Inactive)
ROOT
ATOM      1  C4' PXY d   1      -0.606  -0.480  -2.400  0.00  0.00     0.077 C 
ATOM      2  C1' PXY d   1      -1.229   0.449   3.271  0.00  0.00     0.077 C 
ATOM      3  C1  PXY d   1      -1.053   0.207   1.785  0.00  0.00    -0.082 A 
ATOM      4  C2  PXY d   1      -2.057   0.453   0.959  0.00  0.00     0.003 A 
ATOM      5  C3  PXY d   1      -1.925   0.209  -0.384  0.00  0.00     0.003 A 
ATOM      6  C4  PXY d   1      -0.736  -0.241  -0.893  0.00  0.00    -0.082 A 
ATOM      7  C5  PXY d   1       0.296  -0.484  -0.058  0.00  0.00     0.003 A 
ATOM      8  C6  PXY d   1       0.129  -0.269   1.307  0.00  0.00     0.003 A 
ENDROOT
TORSDOF 0
ENDMDL
