MODEL 1
REMARK minimizedAffinity 9.90346527
REMARK minimizedRMSD -1
REMARK  0 active torsions:
REMARK  status: ('A' for Active; 'I' for Inactive)
ROOT
ATOM      1  C4' PXY d   1       1.765  -0.660   1.385  0.00  0.00     0.077 C 
ATOM      2  C1' PXY d   1       3.404   0.172  -4.095  0.00  0.00     0.077 C 
ATOM      3  C1  PXY d   1       2.972  -0.059  -2.660  0.00  0.00    -0.082 A 
ATOM      4  C2  PXY d   1       2.502   0.952  -1.948  0.00  0.00     0.003 A 
ATOM      5  C3  PXY d   1       2.137   0.768  -0.639  0.00  0.00     0.003 A 
ATOM      6  C4  PXY d   1       2.204  -0.475  -0.070  0.00  0.00    -0.082 A 
ATOM      7  C5  PXY d   1       2.672  -1.514  -0.793  0.00  0.00     0.003 A 
ATOM      8  C6  PXY d   1       3.076  -1.298  -2.108  0.00  0.00     0.003 A 
ENDROOT
TORSDOF 0
ENDMDL
