MODEL 1
REMARK minimizedAffinity 6.31355333
REMARK minimizedRMSD -1
REMARK  0 active torsions:
REMARK  status: ('A' for Active; 'I' for Inactive)
ROOT
ATOM      1  C4' PXY d   1      -3.349  -1.951   0.700  0.00  0.00     0.077 C 
ATOM      2  C1' PXY d   1      -0.590   1.902   4.010  0.00  0.00     0.077 C 
ATOM      3  C1  PXY d   1      -1.313   0.883   3.152  0.00  0.00    -0.082 A 
ATOM      4  C2  PXY d   1      -1.294   1.006   1.834  0.00  0.00     0.003 A 
ATOM      5  C3  PXY d   1      -1.969   0.111   1.044  0.00  0.00     0.003 A 
ATOM      6  C4  PXY d   1      -2.626  -0.951   1.606  0.00  0.00    -0.082 A 
ATOM      7  C5  PXY d   1      -2.640  -1.090   2.949  0.00  0.00     0.003 A 
ATOM      8  C6  PXY d   1      -1.984  -0.148   3.735  0.00  0.00     0.003 A 
ENDROOT
TORSDOF 0
ENDMDL
