MODEL 1
REMARK minimizedAffinity 5.20862865
REMARK minimizedRMSD -1
REMARK  0 active torsions:
REMARK  status: ('A' for Active; 'I' for Inactive)
ROOT
ATOM      1  C4' PXY d   1       5.997  -2.245  -3.742  0.00  0.00     0.077 C 
ATOM      2  C1' PXY d   1       1.186   0.959  -3.732  0.00  0.00     0.077 C 
ATOM      3  C1  PXY d   1       2.454   0.129  -3.731  0.00  0.00    -0.082 A 
ATOM      4  C2  PXY d   1       2.511  -0.980  -4.451  0.00  0.00     0.003 A 
ATOM      5  C3  PXY d   1       3.640  -1.759  -4.437  0.00  0.00     0.003 A 
ATOM      6  C4  PXY d   1       4.740  -1.371  -3.720  0.00  0.00    -0.082 A 
ATOM      7  C5  PXY d   1       4.694  -0.235  -2.992  0.00  0.00     0.003 A 
ATOM      8  C6  PXY d   1       3.525   0.520  -2.988  0.00  0.00     0.003 A 
ENDROOT
TORSDOF 0
ENDMDL
