MODEL 1
REMARK minimizedAffinity 4.61371374
REMARK minimizedRMSD -1
REMARK  0 active torsions:
REMARK  status: ('A' for Active; 'I' for Inactive)
ROOT
ATOM      1  C4' PXY d   1       0.126  -0.051  -4.586  0.00  0.00     0.077 C 
ATOM      2  C1' PXY d   1       5.679   0.631  -3.130  0.00  0.00     0.077 C 
ATOM      3  C1  PXY d   1       4.219   0.462  -3.504  0.00  0.00    -0.082 A 
ATOM      4  C2  PXY d   1       3.790  -0.706  -3.953  0.00  0.00     0.003 A 
ATOM      5  C3  PXY d   1       2.481  -0.867  -4.326  0.00  0.00     0.003 A 
ATOM      6  C4  PXY d   1       1.589   0.163  -4.188  0.00  0.00    -0.082 A 
ATOM      7  C5  PXY d   1       2.017   1.355  -3.720  0.00  0.00     0.003 A 
ATOM      8  C6  PXY d   1       3.359   1.510  -3.386  0.00  0.00     0.003 A 
ENDROOT
TORSDOF 0
ENDMDL
