MODEL 1
REMARK minimizedAffinity 4.85519409
REMARK minimizedRMSD -1
REMARK  1 active torsions:
REMARK  status: ('A' for Active; 'I' for Inactive)
REMARK    1  A    between atoms: N_2  and  C1_3 
ROOT
ATOM      1  C1  UNL d   1       1.582   1.869   2.174  0.00  0.00     0.143 A 
ATOM      2  C2  UNL d   1       0.933   0.805   1.539  0.00  0.00    -0.057 A 
ATOM      3  C3  UNL d   1       1.467   0.211   0.389  0.00  0.00     0.033 A 
ATOM      4  C4  UNL d   1       2.649   0.691  -0.164  0.00  0.00    -0.042 A 
ATOM      5  C5  UNL d   1       3.298   1.764   0.436  0.00  0.00     0.033 A 
ATOM      6  C6  UNL d   1       2.763   2.349   1.588  0.00  0.00    -0.057 A 
ENDROOT
BRANCH   1   7
ATOM      7  N   UNL d   1       1.051   2.566   3.262  0.00  0.00    -0.732 N 
ATOM      8  C   UNL d   1       0.628   1.862   4.453  0.00  0.00     0.284 C 
ATOM      9  H3  UNL d   1       1.548   3.434   3.447  0.00  0.00     0.395 HD
ENDBRANCH   1   7
TORSDOF 1
ENDMDL
