MODEL 1
REMARK minimizedAffinity 14.1434107
REMARK minimizedRMSD -1
REMARK  1 active torsions:
REMARK  status: ('A' for Active; 'I' for Inactive)
REMARK    1  A    between atoms: N_2  and  C1_3 
ROOT
ATOM      1  C1  UNL d   1       0.370  -3.005   4.339  0.00  0.00     0.143 A 
ATOM      2  C2  UNL d   1      -0.784  -3.792   4.422  0.00  0.00    -0.057 A 
ATOM      3  C3  UNL d   1      -0.838  -4.916   5.255  0.00  0.00     0.033 A 
ATOM      4  C4  UNL d   1       0.275  -5.292   5.999  0.00  0.00    -0.042 A 
ATOM      5  C5  UNL d   1       1.441  -4.539   5.913  0.00  0.00     0.033 A 
ATOM      6  C6  UNL d   1       1.486  -3.413   5.085  0.00  0.00    -0.057 A 
ENDROOT
BRANCH   1   7
ATOM      7  N   UNL d   1       0.518  -1.933   3.456  0.00  0.00    -0.732 N 
ATOM      8  C   UNL d   1       0.056  -0.610   3.817  0.00  0.00     0.284 C 
ATOM      9  H3  UNL d   1       1.417  -1.943   2.980  0.00  0.00     0.395 HD
ENDBRANCH   1   7
TORSDOF 1
ENDMDL
