MODEL 1
REMARK minimizedAffinity 15.6936493
REMARK minimizedRMSD -1
REMARK  1 active torsions:
REMARK  status: ('A' for Active; 'I' for Inactive)
REMARK    1  A    between atoms: N_2  and  C1_3 
ROOT
ATOM      1  C1  UNL d   1       3.222   1.754  -0.930  0.00  0.00     0.143 A 
ATOM      2  C2  UNL d   1       2.458   2.826  -0.454  0.00  0.00    -0.057 A 
ATOM      3  C3  UNL d   1       1.161   2.632   0.035  0.00  0.00     0.033 A 
ATOM      4  C4  UNL d   1       0.591   1.363   0.029  0.00  0.00    -0.042 A 
ATOM      5  C5  UNL d   1       1.322   0.288  -0.463  0.00  0.00     0.033 A 
ATOM      6  C6  UNL d   1       2.620   0.486  -0.944  0.00  0.00    -0.057 A 
ENDROOT
BRANCH   1   7
ATOM      7  N   UNL d   1       4.480   1.898  -1.520  0.00  0.00    -0.732 N 
ATOM      8  C   UNL d   1       5.185   3.159  -1.455  0.00  0.00     0.284 C 
ATOM      9  H3  UNL d   1       5.072   1.083  -1.376  0.00  0.00     0.395 HD
ENDBRANCH   1   7
TORSDOF 1
ENDMDL
