MODEL 1
REMARK minimizedAffinity 7.29445601
REMARK minimizedRMSD -1
REMARK  1 active torsions:
REMARK  status: ('A' for Active; 'I' for Inactive)
REMARK    1  A    between atoms: N_2  and  C1_3 
ROOT
ATOM      1  C1  UNL d   1       5.224   3.304   4.851  0.00  0.00     0.143 A 
ATOM      2  C2  UNL d   1       4.914   4.337   5.742  0.00  0.00    -0.057 A 
ATOM      3  C3  UNL d   1       4.220   5.477   5.321  0.00  0.00     0.033 A 
ATOM      4  C4  UNL d   1       3.846   5.618   3.988  0.00  0.00    -0.042 A 
ATOM      5  C5  UNL d   1       4.165   4.616   3.079  0.00  0.00     0.033 A 
ATOM      6  C6  UNL d   1       4.853   3.476   3.508  0.00  0.00    -0.057 A 
ENDROOT
BRANCH   1   7
ATOM      7  N   UNL d   1       5.998   2.191   5.188  0.00  0.00    -0.732 N 
ATOM      8  C   UNL d   1       5.957   0.993   4.378  0.00  0.00     0.284 C 
ATOM      9  H3  UNL d   1       6.930   2.448   5.504  0.00  0.00     0.395 HD
ENDBRANCH   1   7
TORSDOF 1
ENDMDL
