MODEL 1
REMARK minimizedAffinity 1.36253214
REMARK minimizedRMSD -1
REMARK  1 active torsions:
REMARK  status: ('A' for Active; 'I' for Inactive)
REMARK    1  A    between atoms: N_2  and  C1_3 
ROOT
ATOM      1  C1  UNL d   1       2.058  -1.443  -0.109  0.00  0.00     0.143 A 
ATOM      2  C2  UNL d   1       3.028  -1.832  -1.040  0.00  0.00    -0.057 A 
ATOM      3  C3  UNL d   1       3.913  -0.902  -1.598  0.00  0.00     0.033 A 
ATOM      4  C4  UNL d   1       3.825   0.443  -1.256  0.00  0.00    -0.042 A 
ATOM      5  C5  UNL d   1       2.853   0.857  -0.352  0.00  0.00     0.033 A 
ATOM      6  C6  UNL d   1       1.976  -0.078   0.207  0.00  0.00    -0.057 A 
ENDROOT
BRANCH   1   7
ATOM      7  N   UNL d   1       1.086  -2.303   0.406  0.00  0.00    -0.732 N 
ATOM      8  C   UNL d   1       0.727  -3.516  -0.296  0.00  0.00     0.284 C 
ATOM      9  H3  UNL d   1       1.161  -2.414   1.415  0.00  0.00     0.395 HD
ENDBRANCH   1   7
TORSDOF 1
ENDMDL
