MODEL 1
REMARK minimizedAffinity 9.36757565
REMARK minimizedRMSD -1
REMARK  1 active torsions:
REMARK  status: ('A' for Active; 'I' for Inactive)
REMARK    1  A    between atoms: N_2  and  C1_3 
ROOT
ATOM      1  C1  UNL d   1       4.847   0.385   0.412  0.00  0.00     0.143 A 
ATOM      2  C2  UNL d   1       4.855   1.237  -0.698  0.00  0.00    -0.057 A 
ATOM      3  C3  UNL d   1       3.695   1.462  -1.449  0.00  0.00     0.033 A 
ATOM      4  C4  UNL d   1       2.509   0.813  -1.120  0.00  0.00    -0.042 A 
ATOM      5  C5  UNL d   1       2.484  -0.058  -0.036  0.00  0.00     0.033 A 
ATOM      6  C6  UNL d   1       3.645  -0.273   0.714  0.00  0.00    -0.057 A 
ENDROOT
BRANCH   1   7
ATOM      7  N   UNL d   1       5.991   0.044   1.139  0.00  0.00    -0.732 N 
ATOM      8  C   UNL d   1       5.991  -1.107   2.015  0.00  0.00     0.284 C 
ATOM      9  H3  UNL d   1       6.844   0.154   0.595  0.00  0.00     0.395 HD
ENDBRANCH   1   7
TORSDOF 1
ENDMDL
