MODEL 1
REMARK minimizedAffinity 4.00666618
REMARK minimizedRMSD -1
REMARK  1 active torsions:
REMARK  status: ('A' for Active; 'I' for Inactive)
REMARK    1  A    between atoms: N_2  and  C1_3 
ROOT
ATOM      1  C1  UNL d   1      -3.958   0.457  -2.488  0.00  0.00     0.143 A 
ATOM      2  C2  UNL d   1      -5.098   0.749  -3.245  0.00  0.00    -0.057 A 
ATOM      3  C3  UNL d   1      -4.997   1.164  -4.579  0.00  0.00     0.033 A 
ATOM      4  C4  UNL d   1      -3.749   1.321  -5.172  0.00  0.00    -0.042 A 
ATOM      5  C5  UNL d   1      -2.602   1.060  -4.431  0.00  0.00     0.033 A 
ATOM      6  C6  UNL d   1      -2.709   0.640  -3.102  0.00  0.00    -0.057 A 
ENDROOT
BRANCH   1   7
ATOM      7  N   UNL d   1      -3.989   0.135  -1.129  0.00  0.00    -0.732 N 
ATOM      8  C   UNL d   1      -5.024   0.667  -0.269  0.00  0.00     0.284 C 
ATOM      9  H3  UNL d   1      -3.766  -0.842  -0.956  0.00  0.00     0.395 HD
ENDBRANCH   1   7
TORSDOF 1
ENDMDL
