MODEL 1
REMARK minimizedAffinity -1.86958575
REMARK minimizedRMSD -1
REMARK  0 active torsions:
REMARK  status: ('A' for Active; 'I' for Inactive)
ROOT
ATOM      1  C4' PXY d   1      -0.950   1.985   2.967  0.00  0.00     0.077 C 
ATOM      2  C1' PXY d   1       0.527  -1.344  -1.521  0.00  0.00     0.077 C 
ATOM      3  C1  PXY d   1       0.128  -0.468  -0.350  0.00  0.00    -0.082 A 
ATOM      4  C2  PXY d   1       1.066   0.068   0.414  0.00  0.00     0.003 A 
ATOM      5  C3  PXY d   1       0.722   0.837   1.497  0.00  0.00     0.003 A 
ATOM      6  C4  PXY d   1      -0.594   1.102   1.768  0.00  0.00    -0.082 A 
ATOM      7  C5  PXY d   1      -1.555   0.567   0.987  0.00  0.00     0.003 A 
ATOM      8  C6  PXY d   1      -1.187  -0.244  -0.083  0.00  0.00     0.003 A 
ENDROOT
TORSDOF 0
ENDMDL
