MODEL 1
REMARK minimizedAffinity 2.23244762
REMARK minimizedRMSD -1
REMARK  0 active torsions:
REMARK  status: ('A' for Active; 'I' for Inactive)
ROOT
ATOM      1  C4' PXY d   1       1.111   0.405  -2.700  0.00  0.00     0.077 C 
ATOM      2  C1' PXY d   1      -1.536   0.443   2.439  0.00  0.00     0.077 C 
ATOM      3  C1  PXY d   1      -0.842   0.420   1.092  0.00  0.00    -0.082 A 
ATOM      4  C2  PXY d   1      -0.101   1.452   0.720  0.00  0.00     0.003 A 
ATOM      5  C3  PXY d   1       0.507   1.461  -0.509  0.00  0.00     0.003 A 
ATOM      6  C4  PXY d   1       0.400   0.381  -1.344  0.00  0.00    -0.082 A 
ATOM      7  C5  PXY d   1      -0.346  -0.679  -0.967  0.00  0.00     0.003 A 
ATOM      8  C6  PXY d   1      -0.989  -0.652   0.267  0.00  0.00     0.003 A 
ENDROOT
TORSDOF 0
ENDMDL
