MODEL 1
REMARK minimizedAffinity -5.30526686
REMARK minimizedRMSD -1
REMARK  0 active torsions:
REMARK  status: ('A' for Active; 'I' for Inactive)
ROOT
ATOM      1  C4' PXY d   1       0.440  -0.834  -1.870  0.00  0.00     0.077 C 
ATOM      2  C1' PXY d   1      -0.512   1.686   3.245  0.00  0.00     0.077 C 
ATOM      3  C1  PXY d   1      -0.275   1.020   1.904  0.00  0.00    -0.082 A 
ATOM      4  C2  PXY d   1       0.960   0.727   1.529  0.00  0.00     0.003 A 
ATOM      5  C3  PXY d   1       1.195   0.154   0.305  0.00  0.00     0.003 A 
ATOM      6  C4  PXY d   1       0.152  -0.170  -0.520  0.00  0.00    -0.082 A 
ATOM      7  C5  PXY d   1      -1.111   0.116  -0.140  0.00  0.00     0.003 A 
ATOM      8  C6  PXY d   1      -1.326   0.736   1.088  0.00  0.00     0.003 A 
ENDROOT
TORSDOF 0
ENDMDL
