MODEL 1
REMARK minimizedAffinity 6.86066961
REMARK minimizedRMSD -1
REMARK  0 active torsions:
REMARK  status: ('A' for Active; 'I' for Inactive)
ROOT
ATOM      1  C4' PXY d   1       2.481  -0.453   1.549  0.00  0.00     0.077 C 
ATOM      2  C1' PXY d   1      -3.179  -0.339   0.381  0.00  0.00     0.077 C 
ATOM      3  C1  PXY d   1      -1.697  -0.363   0.699  0.00  0.00    -0.082 A 
ATOM      4  C2  PXY d   1      -0.818  -0.438  -0.287  0.00  0.00     0.003 A 
ATOM      5  C3  PXY d   1       0.525  -0.493  -0.016  0.00  0.00     0.003 A 
ATOM      6  C4  PXY d   1       0.976  -0.417   1.274  0.00  0.00    -0.082 A 
ATOM      7  C5  PXY d   1       0.085  -0.329   2.285  0.00  0.00     0.003 A 
ATOM      8  C6  PXY d   1      -1.275  -0.316   1.992  0.00  0.00     0.003 A 
ENDROOT
TORSDOF 0
ENDMDL
