MODEL 1
REMARK minimizedAffinity -3.67008018
REMARK minimizedRMSD -1
REMARK  0 active torsions:
REMARK  status: ('A' for Active; 'I' for Inactive)
ROOT
ATOM      1  C4' PXY d   1       0.859  -1.096  -2.335  0.00  0.00     0.077 C 
ATOM      2  C1' PXY d   1      -1.775   0.612   2.518  0.00  0.00     0.077 C 
ATOM      3  C1  PXY d   1      -1.075   0.172   1.248  0.00  0.00    -0.082 A 
ATOM      4  C2  PXY d   1      -1.784  -0.330   0.250  0.00  0.00     0.003 A 
ATOM      5  C3  PXY d   1      -1.163  -0.763  -0.893  0.00  0.00     0.003 A 
ATOM      6  C4  PXY d   1       0.193  -0.630  -1.038  0.00  0.00    -0.082 A 
ATOM      7  C5  PXY d   1       0.922  -0.109  -0.029  0.00  0.00     0.003 A 
ATOM      8  C6  PXY d   1       0.277   0.286   1.140  0.00  0.00     0.003 A 
ENDROOT
TORSDOF 0
ENDMDL
