MODEL 1
REMARK minimizedAffinity -1.93409634
REMARK minimizedRMSD -1
REMARK  0 active torsions:
REMARK  status: ('A' for Active; 'I' for Inactive)
ROOT
ATOM      1  C4' PXY d   1       0.020   1.623  -1.814  0.00  0.00     0.077 C 
ATOM      2  C1' PXY d   1      -1.201   0.030   3.607  0.00  0.00     0.077 C 
ATOM      3  C1  PXY d   1      -0.880   0.460   2.189  0.00  0.00    -0.082 A 
ATOM      4  C2  PXY d   1      -1.285  -0.283   1.172  0.00  0.00     0.003 A 
ATOM      5  C3  PXY d   1      -0.975   0.074  -0.115  0.00  0.00     0.003 A 
ATOM      6  C4  PXY d   1      -0.290   1.233  -0.367  0.00  0.00    -0.082 A 
ATOM      7  C5  PXY d   1       0.117   2.002   0.665  0.00  0.00     0.003 A 
ATOM      8  C6  PXY d   1      -0.172   1.601   1.966  0.00  0.00     0.003 A 
ENDROOT
TORSDOF 0
ENDMDL
