MODEL 1
REMARK minimizedAffinity 0.579155207
REMARK minimizedRMSD -1
REMARK  0 active torsions:
REMARK  status: ('A' for Active; 'I' for Inactive)
ROOT
ATOM      1  C4' PXY d   1       0.768  -0.070  -2.420  0.00  0.00     0.077 C 
ATOM      2  C1' PXY d   1      -1.266  -0.055   2.990  0.00  0.00     0.077 C 
ATOM      3  C1  PXY d   1      -0.720  -0.059   1.576  0.00  0.00    -0.082 A 
ATOM      4  C2  PXY d   1      -1.480   0.370   0.581  0.00  0.00     0.003 A 
ATOM      5  C3  PXY d   1      -1.013   0.344  -0.708  0.00  0.00     0.003 A 
ATOM      6  C4  PXY d   1       0.262  -0.075  -0.975  0.00  0.00    -0.082 A 
ATOM      7  C5  PXY d   1       1.047  -0.505   0.036  0.00  0.00     0.003 A 
ATOM      8  C6  PXY d   1       0.540  -0.509   1.332  0.00  0.00     0.003 A 
ENDROOT
TORSDOF 0
ENDMDL
