MODEL 1
REMARK minimizedAffinity -4.86460495
REMARK minimizedRMSD -1
REMARK  0 active torsions:
REMARK  status: ('A' for Active; 'I' for Inactive)
ROOT
ATOM      1  C4' PXY d   1       0.520  -1.141  -1.493  0.00  0.00     0.077 C 
ATOM      2  C1' PXY d   1      -0.699   1.767   3.352  0.00  0.00     0.077 C 
ATOM      3  C1  PXY d   1      -0.391   0.997   2.082  0.00  0.00    -0.082 A 
ATOM      4  C2  PXY d   1       0.864   0.877   1.679  0.00  0.00     0.003 A 
ATOM      5  C3  PXY d   1       1.158   0.212   0.516  0.00  0.00     0.003 A 
ATOM      6  C4  PXY d   1       0.163  -0.381  -0.213  0.00  0.00    -0.082 A 
ATOM      7  C5  PXY d   1      -1.119  -0.272   0.198  0.00  0.00     0.003 A 
ATOM      8  C6  PXY d   1      -1.400   0.442   1.359  0.00  0.00     0.003 A 
ENDROOT
TORSDOF 0
ENDMDL
