MODEL 1
REMARK minimizedAffinity -1.88096333
REMARK minimizedRMSD -1
REMARK  0 active torsions:
REMARK  status: ('A' for Active; 'I' for Inactive)
ROOT
ATOM      1  C4' PXY d   1      -1.387   1.994   3.037  0.00  0.00     0.077 C 
ATOM      2  C1' PXY d   1       0.571  -0.563  -1.763  0.00  0.00     0.077 C 
ATOM      3  C1  PXY d   1       0.046   0.104  -0.507  0.00  0.00    -0.082 A 
ATOM      4  C2  PXY d   1       0.716   1.111   0.029  0.00  0.00     0.003 A 
ATOM      5  C3  PXY d   1       0.272   1.704   1.183  0.00  0.00     0.003 A 
ATOM      6  C4  PXY d   1      -0.899   1.298   1.764  0.00  0.00    -0.082 A 
ATOM      7  C5  PXY d   1      -1.594   0.278   1.218  0.00  0.00     0.003 A 
ATOM      8  C6  PXY d   1      -1.105  -0.338   0.070  0.00  0.00     0.003 A 
ENDROOT
TORSDOF 0
ENDMDL
