MODEL 1
REMARK minimizedAffinity -5.06599951
REMARK minimizedRMSD -1
REMARK  0 active torsions:
REMARK  status: ('A' for Active; 'I' for Inactive)
ROOT
ATOM      1  C4' PXY d   1      -0.681   1.690   3.285  0.00  0.00     0.077 C 
ATOM      2  C1' PXY d   1       0.413  -1.273  -1.556  0.00  0.00     0.077 C 
ATOM      3  C1  PXY d   1       0.115  -0.492  -0.292  0.00  0.00    -0.082 A 
ATOM      4  C2  PXY d   1       1.110  -0.121   0.498  0.00  0.00     0.003 A 
ATOM      5  C3  PXY d   1       0.855   0.558   1.662  0.00  0.00     0.003 A 
ATOM      6  C4  PXY d   1      -0.426   0.908   1.993  0.00  0.00    -0.082 A 
ATOM      7  C5  PXY d   1      -1.446   0.543   1.187  0.00  0.00     0.003 A 
ATOM      8  C6  PXY d   1      -1.170  -0.182   0.032  0.00  0.00     0.003 A 
ENDROOT
TORSDOF 0
ENDMDL
