MODEL 1
REMARK minimizedAffinity -5.44320393
REMARK minimizedRMSD -1
REMARK  0 active torsions:
REMARK  status: ('A' for Active; 'I' for Inactive)
ROOT
ATOM      1  C4' PXY d   1       0.549  -0.338  -2.418  0.00  0.00     0.077 C 
ATOM      2  C1' PXY d   1      -1.408   0.828   2.895  0.00  0.00     0.077 C 
ATOM      3  C1  PXY d   1      -0.883   0.526   1.505  0.00  0.00    -0.082 A 
ATOM      4  C2  PXY d   1      -1.721   0.500   0.481  0.00  0.00     0.003 A 
ATOM      5  C3  PXY d   1      -1.268   0.197  -0.778  0.00  0.00     0.003 A 
ATOM      6  C4  PXY d   1       0.064  -0.029  -0.999  0.00  0.00    -0.082 A 
ATOM      7  C5  PXY d   1       0.927   0.007   0.039  0.00  0.00     0.003 A 
ATOM      8  C6  PXY d   1       0.441   0.276   1.316  0.00  0.00     0.003 A 
ENDROOT
TORSDOF 0
ENDMDL
