MODEL 1
REMARK minimizedAffinity -0.827357769
REMARK minimizedRMSD -1
REMARK  0 active torsions:
REMARK  status: ('A' for Active; 'I' for Inactive)
ROOT
ATOM      1  C2' OXE d   1       6.000  -1.345   5.793  0.00  0.00     0.078 C 
ATOM      2  C1' OXE d   1       3.678  -1.502   4.223  0.00  0.00     0.078 C 
ATOM      3  C1  OXE d   1       4.272  -2.792   4.732  0.00  0.00    -0.078 A 
ATOM      4  C2  OXE d   1       5.434  -2.708   5.460  0.00  0.00    -0.078 A 
ATOM      5  C3  OXE d   1       5.994  -3.863   6.000  0.00  0.00     0.003 A 
ATOM      6  C4  OXE d   1       5.470  -5.121   5.679  0.00  0.00    -0.002 A 
ATOM      7  C5  OXE d   1       4.309  -5.231   4.906  0.00  0.00    -0.002 A 
ATOM      8  C6  OXE d   1       3.675  -4.077   4.461  0.00  0.00     0.003 A 
ENDROOT
TORSDOF 0
ENDMDL
