MODEL 1
REMARK minimizedAffinity -0.474613219
REMARK minimizedRMSD -1
REMARK  0 active torsions:
REMARK  status: ('A' for Active; 'I' for Inactive)
ROOT
ATOM      1  C2' OXE d   1       5.998   0.130   4.936  0.00  0.00     0.078 C 
ATOM      2  C1' OXE d   1       4.076  -0.739   3.084  0.00  0.00     0.078 C 
ATOM      3  C1  OXE d   1       4.569  -1.734   4.105  0.00  0.00    -0.078 A 
ATOM      4  C2  OXE d   1       5.544  -1.313   4.977  0.00  0.00    -0.078 A 
ATOM      5  C3  OXE d   1       5.995  -2.173   5.974  0.00  0.00     0.003 A 
ATOM      6  C4  OXE d   1       5.577  -3.510   6.000  0.00  0.00    -0.002 A 
ATOM      7  C5  OXE d   1       4.615  -3.970   5.095  0.00  0.00    -0.002 A 
ATOM      8  C6  OXE d   1       4.070  -3.085   4.171  0.00  0.00     0.003 A 
ENDROOT
TORSDOF 0
ENDMDL
