MODEL 1
REMARK minimizedAffinity 3.37005043
REMARK minimizedRMSD -1
REMARK  0 active torsions:
REMARK  status: ('A' for Active; 'I' for Inactive)
ROOT
ATOM      1  C2' OXE d   1      -0.812   0.771   2.584  0.00  0.00     0.078 C 
ATOM      2  C1' OXE d   1      -0.297  -0.707   0.253  0.00  0.00     0.078 C 
ATOM      3  C1  OXE d   1       0.141   0.736   0.282  0.00  0.00    -0.078 A 
ATOM      4  C2  OXE d   1      -0.157   1.465   1.409  0.00  0.00    -0.078 A 
ATOM      5  C3  OXE d   1       0.273   2.785   1.509  0.00  0.00     0.003 A 
ATOM      6  C4  OXE d   1       0.869   3.421   0.414  0.00  0.00    -0.002 A 
ATOM      7  C5  OXE d   1       1.146   2.708  -0.758  0.00  0.00    -0.002 A 
ATOM      8  C6  OXE d   1       0.827   1.356  -0.824  0.00  0.00     0.003 A 
ENDROOT
TORSDOF 0
ENDMDL
