MODEL 1
REMARK minimizedAffinity 0.220497549
REMARK minimizedRMSD -1
REMARK  0 active torsions:
REMARK  status: ('A' for Active; 'I' for Inactive)
ROOT
ATOM      1  C2' OXE d   1       5.867  -2.168   4.818  0.00  0.00     0.078 C 
ATOM      2  C1' OXE d   1       5.462  -0.822   2.389  0.00  0.00     0.078 C 
ATOM      3  C1  OXE d   1       5.626   0.010   3.635  0.00  0.00    -0.078 A 
ATOM      4  C2  OXE d   1       5.777  -0.658   4.827  0.00  0.00    -0.078 A 
ATOM      5  C3  OXE d   1       5.987   0.063   5.999  0.00  0.00     0.003 A 
ATOM      6  C4  OXE d   1       5.893   1.459   5.999  0.00  0.00    -0.002 A 
ATOM      7  C5  OXE d   1       5.699   2.158   4.803  0.00  0.00    -0.002 A 
ATOM      8  C6  OXE d   1       5.607   1.452   3.609  0.00  0.00     0.003 A 
ENDROOT
TORSDOF 0
ENDMDL
