MODEL 1
REMARK minimizedAffinity 7.54880857
REMARK minimizedRMSD -1
REMARK  0 active torsions:
REMARK  status: ('A' for Active; 'I' for Inactive)
ROOT
ATOM      1  C2' OXE d   1       4.750   1.611   4.824  0.00  0.00     0.078 C 
ATOM      2  C1' OXE d   1       4.330   0.072   2.514  0.00  0.00     0.078 C 
ATOM      3  C1  OXE d   1       4.902  -0.620   3.726  0.00  0.00    -0.078 A 
ATOM      4  C2  OXE d   1       5.148   0.151   4.837  0.00  0.00    -0.078 A 
ATOM      5  C3  OXE d   1       5.625  -0.448   6.000  0.00  0.00     0.003 A 
ATOM      6  C4  OXE d   1       6.000  -1.797   6.000  0.00  0.00    -0.002 A 
ATOM      7  C5  OXE d   1       5.794  -2.591   4.867  0.00  0.00    -0.002 A 
ATOM      8  C6  OXE d   1       5.208  -2.029   3.738  0.00  0.00     0.003 A 
ENDROOT
TORSDOF 0
ENDMDL
