MODEL 1
REMARK minimizedAffinity -2.54674959
REMARK minimizedRMSD -1
REMARK  0 active torsions:
REMARK  status: ('A' for Active; 'I' for Inactive)
ROOT
ATOM      1  C2' OXE d   1       4.754   0.763   2.467  0.00  0.00     0.078 C 
ATOM      2  C1' OXE d   1       5.453   2.193   4.779  0.00  0.00     0.078 C 
ATOM      3  C1  OXE d   1       5.545   0.688   4.828  0.00  0.00    -0.078 A 
ATOM      4  C2  OXE d   1       5.157  -0.006   3.708  0.00  0.00    -0.078 A 
ATOM      5  C3  OXE d   1       5.273  -1.392   3.680  0.00  0.00     0.003 A 
ATOM      6  C4  OXE d   1       5.637  -2.096   4.835  0.00  0.00    -0.002 A 
ATOM      7  C5  OXE d   1       5.998  -1.410   6.000  0.00  0.00    -0.002 A 
ATOM      8  C6  OXE d   1       5.999  -0.020   6.000  0.00  0.00     0.003 A 
ENDROOT
TORSDOF 0
ENDMDL
