MODEL 1
REMARK minimizedAffinity 9.48066616
REMARK minimizedRMSD -1
REMARK  0 active torsions:
REMARK  status: ('A' for Active; 'I' for Inactive)
ROOT
ATOM      1  C2' OXE d   1       0.519   1.295  -0.350  0.00  0.00     0.078 C 
ATOM      2  C1' OXE d   1      -1.286  -0.748   0.318  0.00  0.00     0.078 C 
ATOM      3  C1  OXE d   1       0.172  -1.112   0.190  0.00  0.00    -0.078 A 
ATOM      4  C2  OXE d   1       1.042  -0.116  -0.183  0.00  0.00    -0.078 A 
ATOM      5  C3  OXE d   1       2.405  -0.385  -0.262  0.00  0.00     0.003 A 
ATOM      6  C4  OXE d   1       2.879  -1.694  -0.116  0.00  0.00    -0.002 A 
ATOM      7  C5  OXE d   1       2.004  -2.732   0.225  0.00  0.00    -0.002 A 
ATOM      8  C6  OXE d   1       0.657  -2.450   0.423  0.00  0.00     0.003 A 
ENDROOT
TORSDOF 0
ENDMDL
