MODEL 1
REMARK minimizedAffinity -2.58443689
REMARK minimizedRMSD -1
REMARK  0 active torsions:
REMARK  status: ('A' for Active; 'I' for Inactive)
ROOT
ATOM      1  C2' OXE d   1       6.000   2.100   5.619  0.00  0.00     0.078 C 
ATOM      2  C1' OXE d   1       5.991   2.200   2.814  0.00  0.00     0.078 C 
ATOM      3  C1  OXE d   1       5.984   3.508   3.564  0.00  0.00    -0.078 A 
ATOM      4  C2  OXE d   1       5.941   3.450   4.936  0.00  0.00    -0.078 A 
ATOM      5  C3  OXE d   1       5.988   4.627   5.678  0.00  0.00     0.003 A 
ATOM      6  C4  OXE d   1       5.924   5.871   5.039  0.00  0.00    -0.002 A 
ATOM      7  C5  OXE d   1       5.926   5.952   3.642  0.00  0.00    -0.002 A 
ATOM      8  C6  OXE d   1       5.999   4.784   2.892  0.00  0.00     0.003 A 
ENDROOT
TORSDOF 0
ENDMDL
