MODEL 1
REMARK minimizedAffinity -2.64764404
REMARK minimizedRMSD -1
REMARK  0 active torsions:
REMARK  status: ('A' for Active; 'I' for Inactive)
ROOT
ATOM      1  C2' OXE d   1       5.787   3.785   5.255  0.00  0.00     0.078 C 
ATOM      2  C1' OXE d   1       4.903   2.895   2.744  0.00  0.00     0.078 C 
ATOM      3  C1  OXE d   1       5.244   1.853   3.779  0.00  0.00    -0.078 A 
ATOM      4  C2  OXE d   1       5.721   2.297   4.989  0.00  0.00    -0.078 A 
ATOM      5  C3  OXE d   1       5.999   1.380   5.999  0.00  0.00     0.003 A 
ATOM      6  C4  OXE d   1       5.944   0.005   5.742  0.00  0.00    -0.002 A 
ATOM      7  C5  OXE d   1       5.500  -0.469   4.503  0.00  0.00    -0.002 A 
ATOM      8  C6  OXE d   1       5.106   0.440   3.527  0.00  0.00     0.003 A 
ENDROOT
TORSDOF 0
ENDMDL
