MODEL 1
REMARK minimizedAffinity -3.01086211
REMARK minimizedRMSD -1
REMARK  0 active torsions:
REMARK  status: ('A' for Active; 'I' for Inactive)
ROOT
ATOM      1  C2' OXE d   1       5.642   3.592   5.141  0.00  0.00     0.078 C 
ATOM      2  C1' OXE d   1       5.259   2.589   2.547  0.00  0.00     0.078 C 
ATOM      3  C1  OXE d   1       5.449   1.594   3.665  0.00  0.00    -0.078 A 
ATOM      4  C2  OXE d   1       5.682   2.095   4.923  0.00  0.00    -0.078 A 
ATOM      5  C3  OXE d   1       5.810   1.221   6.000  0.00  0.00     0.003 A 
ATOM      6  C4  OXE d   1       5.856  -0.162   5.789  0.00  0.00    -0.002 A 
ATOM      7  C5  OXE d   1       5.660  -0.692   4.509  0.00  0.00    -0.002 A 
ATOM      8  C6  OXE d   1       5.413   0.170   3.445  0.00  0.00     0.003 A 
ENDROOT
TORSDOF 0
ENDMDL
