MODEL 1
REMARK minimizedAffinity 4.34924889
REMARK minimizedRMSD -1
REMARK  0 active torsions:
REMARK  status: ('A' for Active; 'I' for Inactive)
ROOT
ATOM      1  C2' OXE d   1      -1.137   0.371   2.612  0.00  0.00     0.078 C 
ATOM      2  C1' OXE d   1      -0.429  -1.567   0.709  0.00  0.00     0.078 C 
ATOM      3  C1  OXE d   1      -0.160  -0.121   0.375  0.00  0.00    -0.078 A 
ATOM      4  C2  OXE d   1      -0.552   0.824   1.292  0.00  0.00    -0.078 A 
ATOM      5  C3  OXE d   1      -0.279   2.168   1.057  0.00  0.00     0.003 A 
ATOM      6  C4  OXE d   1       0.253   2.579  -0.171  0.00  0.00    -0.002 A 
ATOM      7  C5  OXE d   1       0.624   1.636  -1.136  0.00  0.00    -0.002 A 
ATOM      8  C6  OXE d   1       0.464   0.282  -0.862  0.00  0.00     0.003 A 
ENDROOT
TORSDOF 0
ENDMDL
