MODEL 1
REMARK minimizedAffinity -1.13251901
REMARK minimizedRMSD -1
REMARK  0 active torsions:
REMARK  status: ('A' for Active; 'I' for Inactive)
ROOT
ATOM      1  C2' OXE d   1       5.954   0.762   4.638  0.00  0.00     0.078 C 
ATOM      2  C1' OXE d   1       5.992  -0.712   2.250  0.00  0.00     0.078 C 
ATOM      3  C1  OXE d   1       5.970  -1.478   3.549  0.00  0.00    -0.078 A 
ATOM      4  C2  OXE d   1       5.999  -0.749   4.713  0.00  0.00    -0.078 A 
ATOM      5  C3  OXE d   1       5.925  -1.404   5.939  0.00  0.00     0.003 A 
ATOM      6  C4  OXE d   1       5.977  -2.802   6.000  0.00  0.00    -0.002 A 
ATOM      7  C5  OXE d   1       5.988  -3.564   4.826  0.00  0.00    -0.002 A 
ATOM      8  C6  OXE d   1       5.942  -2.919   3.595  0.00  0.00     0.003 A 
ENDROOT
TORSDOF 0
ENDMDL
