MODEL 1
REMARK minimizedAffinity -1.29791451
REMARK minimizedRMSD -1
REMARK  0 active torsions:
REMARK  status: ('A' for Active; 'I' for Inactive)
ROOT
ATOM      1  C2' OXE d   1       5.540  -0.933   4.984  0.00  0.00     0.078 C 
ATOM      2  C1' OXE d   1       4.824   0.323   2.578  0.00  0.00     0.078 C 
ATOM      3  C1  OXE d   1       5.246   1.199   3.731  0.00  0.00    -0.078 A 
ATOM      4  C2  OXE d   1       5.550   0.579   4.919  0.00  0.00    -0.078 A 
ATOM      5  C3  OXE d   1       5.998   1.336   5.997  0.00  0.00     0.003 A 
ATOM      6  C4  OXE d   1       5.994   2.735   5.932  0.00  0.00    -0.002 A 
ATOM      7  C5  OXE d   1       5.650   3.389   4.744  0.00  0.00    -0.002 A 
ATOM      8  C6  OXE d   1       5.315   2.636   3.624  0.00  0.00     0.003 A 
ENDROOT
TORSDOF 0
ENDMDL
