MODEL 1
REMARK minimizedAffinity -0.508199632
REMARK minimizedRMSD -1
REMARK  0 active torsions:
REMARK  status: ('A' for Active; 'I' for Inactive)
ROOT
ATOM      1  C2' OXE d   1       5.919   3.571   4.901  0.00  0.00     0.078 C 
ATOM      2  C1' OXE d   1       4.589   2.432   2.707  0.00  0.00     0.078 C 
ATOM      3  C1  OXE d   1       4.975   1.521   3.845  0.00  0.00    -0.078 A 
ATOM      4  C2  OXE d   1       5.667   2.078   4.894  0.00  0.00    -0.078 A 
ATOM      5  C3  OXE d   1       5.999   1.294   5.995  0.00  0.00     0.003 A 
ATOM      6  C4  OXE d   1       5.771  -0.087   5.976  0.00  0.00    -0.002 A 
ATOM      7  C5  OXE d   1       5.104  -0.682   4.900  0.00  0.00    -0.002 A 
ATOM      8  C6  OXE d   1       4.662   0.114   3.848  0.00  0.00     0.003 A 
ENDROOT
TORSDOF 0
ENDMDL
