MODEL 1
REMARK minimizedAffinity 2.02531433
REMARK minimizedRMSD -1
REMARK  0 active torsions:
REMARK  status: ('A' for Active; 'I' for Inactive)
ROOT
ATOM      1  C2' OXE d   1       2.553  -1.936  -1.863  0.00  0.00     0.078 C 
ATOM      2  C1' OXE d   1       1.263   0.417  -2.690  0.00  0.00     0.078 C 
ATOM      3  C1  OXE d   1       0.601  -0.407  -1.614  0.00  0.00    -0.078 A 
ATOM      4  C2  OXE d   1       1.216  -1.581  -1.248  0.00  0.00    -0.078 A 
ATOM      5  C3  OXE d   1       0.677  -2.351  -0.222  0.00  0.00     0.003 A 
ATOM      6  C4  OXE d   1      -0.565  -2.021   0.335  0.00  0.00    -0.002 A 
ATOM      7  C5  OXE d   1      -1.227  -0.851  -0.051  0.00  0.00    -0.002 A 
ATOM      8  C6  OXE d   1      -0.638  -0.013  -0.991  0.00  0.00     0.003 A 
ENDROOT
TORSDOF 0
ENDMDL
