MODEL 1
REMARK minimizedAffinity 10.7625704
REMARK minimizedRMSD -1
REMARK  0 active torsions:
REMARK  status: ('A' for Active; 'I' for Inactive)
ROOT
ATOM      1  C2' OXE d   1       1.220   0.964  -0.593  0.00  0.00     0.078 C 
ATOM      2  C1' OXE d   1       3.259  -0.948  -0.857  0.00  0.00     0.078 C 
ATOM      3  C1  OXE d   1       1.870  -1.440  -0.535  0.00  0.00    -0.078 A 
ATOM      4  C2  OXE d   1       0.888  -0.494  -0.362  0.00  0.00    -0.078 A 
ATOM      5  C3  OXE d   1      -0.422  -0.897  -0.118  0.00  0.00     0.003 A 
ATOM      6  C4  OXE d   1      -0.718  -2.248   0.104  0.00  0.00    -0.002 A 
ATOM      7  C5  OXE d   1       0.275  -3.224  -0.029  0.00  0.00    -0.002 A 
ATOM      8  C6  OXE d   1       1.562  -2.841  -0.389  0.00  0.00     0.003 A 
ENDROOT
TORSDOF 0
ENDMDL
