MODEL 1
REMARK minimizedAffinity -1.7307514
REMARK minimizedRMSD -1
REMARK  0 active torsions:
REMARK  status: ('A' for Active; 'I' for Inactive)
ROOT
ATOM      1  C2' OXE d   1       5.052   2.563   5.998  0.00  0.00     0.078 C 
ATOM      2  C1' OXE d   1       5.966   2.548   3.344  0.00  0.00     0.078 C 
ATOM      3  C1  OXE d   1       5.764   1.218   4.026  0.00  0.00    -0.078 A 
ATOM      4  C2  OXE d   1       5.361   1.236   5.340  0.00  0.00    -0.078 A 
ATOM      5  C3  OXE d   1       5.107   0.037   5.999  0.00  0.00     0.003 A 
ATOM      6  C4  OXE d   1       5.404  -1.186   5.386  0.00  0.00    -0.002 A 
ATOM      7  C5  OXE d   1       5.853  -1.226   4.062  0.00  0.00    -0.002 A 
ATOM      8  C6  OXE d   1       5.997  -0.037   3.355  0.00  0.00     0.003 A 
ENDROOT
TORSDOF 0
ENDMDL
