MODEL 1
REMARK minimizedAffinity -4.18477535
REMARK minimizedRMSD -1
REMARK  1 active torsions:
REMARK  status: ('A' for Active; 'I' for Inactive)
REMARK    1  A    between atoms: C1_2  and  C2_3 
ROOT
ATOM      1  C2  UNL d   1       0.514  -1.615   3.355  0.00  0.00    -0.081 A 
ATOM      2  C3  UNL d   1       1.244  -0.943   2.367  0.00  0.00     0.006 A 
ATOM      3  C4  UNL d   1       0.598  -0.096   1.463  0.00  0.00     0.002 A 
ATOM      4  C5  UNL d   1      -0.785   0.099   1.537  0.00  0.00    -0.080 A 
ATOM      5  C6  UNL d   1      -1.486   1.030   0.592  0.00  0.00     0.076 C 
ATOM      6  C7  UNL d   1      -1.517  -0.586   2.513  0.00  0.00     0.002 A 
ATOM      7  C8  UNL d   1      -0.872  -1.433   3.417  0.00  0.00     0.006 A 
ENDROOT
BRANCH   1   8
ATOM      8  C1  UNL d   1       1.216  -2.479   4.372  0.00  0.00     0.054 C 
ATOM      9  C   UNL d   1       2.554  -1.878   4.779  0.00  0.00     0.018 C 
ENDBRANCH   1   8
TORSDOF 1
ENDMDL
