MODEL 1
REMARK minimizedAffinity 0.0740511194
REMARK minimizedRMSD -1
REMARK  1 active torsions:
REMARK  status: ('A' for Active; 'I' for Inactive)
REMARK    1  A    between atoms: C1_2  and  C2_3 
ROOT
ATOM      1  C2  UNL d   1       1.009  -1.285   2.985  0.00  0.00    -0.081 A 
ATOM      2  C3  UNL d   1       1.289  -0.056   2.374  0.00  0.00     0.006 A 
ATOM      3  C4  UNL d   1       0.308   0.606   1.632  0.00  0.00     0.002 A 
ATOM      4  C5  UNL d   1      -0.970   0.055   1.494  0.00  0.00    -0.080 A 
ATOM      5  C6  UNL d   1      -2.042   0.769   0.725  0.00  0.00     0.076 C 
ATOM      6  C7  UNL d   1      -1.245  -1.181   2.089  0.00  0.00     0.002 A 
ATOM      7  C8  UNL d   1      -0.265  -1.844   2.831  0.00  0.00     0.006 A 
ENDROOT
BRANCH   1   8
ATOM      8  C1  UNL d   1       2.044  -1.970   3.840  0.00  0.00     0.054 C 
ATOM      9  C   UNL d   1       2.236  -1.245   5.164  0.00  0.00     0.018 C 
ENDBRANCH   1   8
TORSDOF 1
ENDMDL
