MODEL 1
REMARK minimizedAffinity -3.60638571
REMARK minimizedRMSD -1
REMARK  1 active torsions:
REMARK  status: ('A' for Active; 'I' for Inactive)
REMARK    1  A    between atoms: C1_2  and  C2_3 
ROOT
ATOM      1  C2  UNL d   1       0.053  -0.960   3.400  0.00  0.00    -0.081 A 
ATOM      2  C3  UNL d   1      -1.311  -0.762   3.154  0.00  0.00     0.006 A 
ATOM      3  C4  UNL d   1      -1.769  -0.522   1.856  0.00  0.00     0.002 A 
ATOM      4  C5  UNL d   1      -0.873  -0.483   0.783  0.00  0.00    -0.080 A 
ATOM      5  C6  UNL d   1      -1.355  -0.256  -0.619  0.00  0.00     0.076 C 
ATOM      6  C7  UNL d   1       0.492  -0.663   1.031  0.00  0.00     0.002 A 
ATOM      7  C8  UNL d   1       0.951  -0.903   2.328  0.00  0.00     0.006 A 
ENDROOT
BRANCH   1   8
ATOM      8  C1  UNL d   1       0.542  -1.284   4.788  0.00  0.00     0.054 C 
ATOM      9  C   UNL d   1       2.032  -1.597   4.791  0.00  0.00     0.018 C 
ENDBRANCH   1   8
TORSDOF 1
ENDMDL
