MODEL 1
REMARK minimizedAffinity -1.02413237
REMARK minimizedRMSD -1
REMARK  1 active torsions:
REMARK  status: ('A' for Active; 'I' for Inactive)
REMARK    1  A    between atoms: C1_2  and  C2_3 
ROOT
ATOM      1  C2  UNL d   1      -0.148  -1.223   3.184  0.00  0.00    -0.081 A 
ATOM      2  C3  UNL d   1      -0.200  -0.515   1.977  0.00  0.00     0.006 A 
ATOM      3  C4  UNL d   1       0.975  -0.181   1.300  0.00  0.00     0.002 A 
ATOM      4  C5  UNL d   1       2.221  -0.556   1.814  0.00  0.00    -0.080 A 
ATOM      5  C6  UNL d   1       3.489  -0.230   1.081  0.00  0.00     0.076 C 
ATOM      6  C7  UNL d   1       2.275  -1.248   3.028  0.00  0.00     0.002 A 
ATOM      7  C8  UNL d   1       1.100  -1.581   3.706  0.00  0.00     0.006 A 
ENDROOT
BRANCH   1   8
ATOM      8  C1  UNL d   1      -1.416  -1.640   3.884  0.00  0.00     0.054 C 
ATOM      9  C   UNL d   1      -2.631  -1.452   2.986  0.00  0.00     0.018 C 
ENDBRANCH   1   8
TORSDOF 1
ENDMDL
