MODEL 1
REMARK minimizedAffinity -2.53718376
REMARK minimizedRMSD -1
REMARK  1 active torsions:
REMARK  status: ('A' for Active; 'I' for Inactive)
REMARK    1  A    between atoms: C1_2  and  C2_3 
ROOT
ATOM      1  C2  UNL d   1       1.332  -1.507   4.563  0.00  0.00    -0.081 A 
ATOM      2  C3  UNL d   1      -0.039  -1.551   4.281  0.00  0.00     0.006 A 
ATOM      3  C4  UNL d   1      -0.510  -1.230   3.005  0.00  0.00     0.002 A 
ATOM      4  C5  UNL d   1       0.382  -0.867   1.990  0.00  0.00    -0.080 A 
ATOM      5  C6  UNL d   1      -0.108  -0.549   0.609  0.00  0.00     0.076 C 
ATOM      6  C7  UNL d   1       1.750  -0.806   2.277  0.00  0.00     0.002 A 
ATOM      7  C8  UNL d   1       2.221  -1.127   3.552  0.00  0.00     0.006 A 
ENDROOT
BRANCH   1   8
ATOM      8  C1  UNL d   1       1.849  -1.915   5.919  0.00  0.00     0.054 C 
ATOM      9  C   UNL d   1       3.362  -1.775   6.000  0.00  0.00     0.018 C 
ENDBRANCH   1   8
TORSDOF 1
ENDMDL
