MODEL 1
REMARK minimizedAffinity 4.84464455
REMARK minimizedRMSD -1
REMARK  0 active torsions:
REMARK  status: ('A' for Active; 'I' for Inactive)
ROOT
ATOM      1  C   UNL d   1       0.223   1.905   1.886  0.00  0.00     0.124 A 
ATOM      2  C1  UNL d   1       0.953   0.903   1.262  0.00  0.00     0.062 A 
ATOM      3  C2  UNL d   1       0.325   0.022   0.386  0.00  0.00     0.162 A 
ATOM      4  C3  UNL d   1      -1.041   0.141   0.128  0.00  0.00    -0.034 A 
ATOM      5  C4  UNL d   1      -1.768   1.151   0.760  0.00  0.00     0.162 A 
ATOM      6  C5  UNL d   1      -1.136   2.029   1.635  0.00  0.00     0.062 A 
ATOM      7  F   UNL d   1      -1.842   2.997   2.237  0.00  0.00    -0.097 F 
ATOM      8  F1  UNL d   1      -3.082   1.294   0.534  0.00  0.00    -0.096 F 
ATOM      9  I   UNL d   1      -1.983  -1.174  -1.182  0.00  0.00    -0.060 I 
ATOM     10  F2  UNL d   1       1.054  -0.937  -0.203  0.00  0.00    -0.096 F 
ATOM     11  F3  UNL d   1       2.266   0.781   1.505  0.00  0.00    -0.097 F 
ATOM     12  F4  UNL d   1       0.830   2.751   2.730  0.00  0.00    -0.092 F 
ENDROOT
TORSDOF 0
ENDMDL
