MODEL 1
REMARK minimizedAffinity 8.39748096
REMARK minimizedRMSD -1
REMARK  0 active torsions:
REMARK  status: ('A' for Active; 'I' for Inactive)
ROOT
ATOM      1  C   UNL d   1      -0.698   2.217   0.770  0.00  0.00     0.124 A 
ATOM      2  C1  UNL d   1      -0.499   1.982  -0.583  0.00  0.00     0.062 A 
ATOM      3  C2  UNL d   1       0.529   1.144  -1.004  0.00  0.00     0.162 A 
ATOM      4  C3  UNL d   1       1.365   0.532  -0.070  0.00  0.00    -0.034 A 
ATOM      5  C4  UNL d   1       1.159   0.774   1.289  0.00  0.00     0.162 A 
ATOM      6  C5  UNL d   1       0.131   1.613   1.705  0.00  0.00     0.062 A 
ATOM      7  F   UNL d   1      -0.061   1.839   3.013  0.00  0.00    -0.097 F 
ATOM      8  F1  UNL d   1       1.945   0.202   2.214  0.00  0.00    -0.096 F 
ATOM      9  I   UNL d   1       2.903  -0.723  -0.696  0.00  0.00    -0.060 I 
ATOM     10  F2  UNL d   1       0.698   0.935  -2.318  0.00  0.00    -0.096 F 
ATOM     11  F3  UNL d   1      -1.298   2.566  -1.488  0.00  0.00    -0.097 F 
ATOM     12  F4  UNL d   1      -1.687   3.026   1.172  0.00  0.00    -0.092 F 
ENDROOT
TORSDOF 0
ENDMDL
