MODEL 1
REMARK minimizedAffinity 7.81756258
REMARK minimizedRMSD -1
REMARK  0 active torsions:
REMARK  status: ('A' for Active; 'I' for Inactive)
ROOT
ATOM      1  C   UNL d   1      -1.220   2.584   0.266  0.00  0.00     0.124 A 
ATOM      2  C1  UNL d   1      -1.134   2.180  -1.060  0.00  0.00     0.062 A 
ATOM      3  C2  UNL d   1      -0.150   1.279  -1.455  0.00  0.00     0.162 A 
ATOM      4  C3  UNL d   1       0.757   0.775  -0.523  0.00  0.00    -0.034 A 
ATOM      5  C4  UNL d   1       0.665   1.186   0.808  0.00  0.00     0.162 A 
ATOM      6  C5  UNL d   1      -0.321   2.087   1.198  0.00  0.00     0.062 A 
ATOM      7  F   UNL d   1      -0.402   2.476   2.479  0.00  0.00    -0.097 F 
ATOM      8  F1  UNL d   1       1.521   0.721   1.730  0.00  0.00    -0.096 F 
ATOM      9  I   UNL d   1       2.232  -0.572  -1.109  0.00  0.00    -0.060 I 
ATOM     10  F2  UNL d   1      -0.090   0.907  -2.742  0.00  0.00    -0.096 F 
ATOM     11  F3  UNL d   1      -2.002   2.660  -1.963  0.00  0.00    -0.097 F 
ATOM     12  F4  UNL d   1      -2.168   3.451   0.643  0.00  0.00    -0.092 F 
ENDROOT
TORSDOF 0
ENDMDL
