MODEL 1
REMARK minimizedAffinity 11.919755
REMARK minimizedRMSD -1
REMARK  1 active torsions:
REMARK  status: ('A' for Active; 'I' for Inactive)
REMARK    1  A    between atoms: C1_2  and  C2_3 
ROOT
ATOM      1  C2  UNL d   1      -2.573   5.244  -0.874  0.00  0.00    -0.077 A 
ATOM      2  C3  UNL d   1      -2.406   5.645   0.459  0.00  0.00     0.002 A 
ATOM      3  C4  UNL d   1      -3.518   5.877   1.271  0.00  0.00     0.002 A 
ATOM      4  C5  UNL d   1      -4.803   5.707   0.761  0.00  0.00    -0.004 A 
ATOM      5  C6  UNL d   1      -4.980   5.309  -0.564  0.00  0.00     0.002 A 
ATOM      6  C7  UNL d   1      -3.870   5.078  -1.377  0.00  0.00     0.002 A 
ENDROOT
BRANCH   1   7
ATOM      7  C1  UNL d   1      -1.375   4.946  -1.737  0.00  0.00     0.055 C 
ATOM      8  C   UNL d   1      -0.918   3.504  -1.571  0.00  0.00     0.019 C 
ENDBRANCH   1   7
TORSDOF 1
ENDMDL
