MODEL 1
REMARK minimizedAffinity 9.20247555
REMARK minimizedRMSD -1
REMARK  1 active torsions:
REMARK  status: ('A' for Active; 'I' for Inactive)
REMARK    1  A    between atoms: C1_2  and  C2_3 
ROOT
ATOM      1  C2  UNL d   1       1.757   2.425   0.891  0.00  0.00    -0.077 A 
ATOM      2  C3  UNL d   1       2.690   3.379   0.462  0.00  0.00     0.002 A 
ATOM      3  C4  UNL d   1       2.578   3.956  -0.805  0.00  0.00     0.002 A 
ATOM      4  C5  UNL d   1       1.532   3.590  -1.649  0.00  0.00    -0.004 A 
ATOM      5  C6  UNL d   1       0.600   2.641  -1.232  0.00  0.00     0.002 A 
ATOM      6  C7  UNL d   1       0.711   2.062   0.033  0.00  0.00     0.002 A 
ENDROOT
BRANCH   1   7
ATOM      7  C1  UNL d   1       1.848   1.838   2.276  0.00  0.00     0.055 C 
ATOM      8  C   UNL d   1       3.109   2.299   2.991  0.00  0.00     0.019 C 
ENDBRANCH   1   7
TORSDOF 1
ENDMDL
