MODEL 1
REMARK minimizedAffinity 8.80004597
REMARK minimizedRMSD -1
REMARK  1 active torsions:
REMARK  status: ('A' for Active; 'I' for Inactive)
REMARK    1  A    between atoms: C1_2  and  C2_3 
ROOT
ATOM      1  C2  UNL d   1       5.058  -3.294  -0.632  0.00  0.00    -0.077 A 
ATOM      2  C3  UNL d   1       5.368  -2.986  -1.964  0.00  0.00     0.002 A 
ATOM      3  C4  UNL d   1       5.838  -3.978  -2.827  0.00  0.00     0.002 A 
ATOM      4  C5  UNL d   1       5.999  -5.284  -2.369  0.00  0.00    -0.004 A 
ATOM      5  C6  UNL d   1       5.695  -5.599  -1.045  0.00  0.00     0.002 A 
ATOM      6  C7  UNL d   1       5.226  -4.609  -0.181  0.00  0.00     0.002 A 
ENDROOT
BRANCH   1   7
ATOM      7  C1  UNL d   1       4.503  -2.236   0.286  0.00  0.00     0.055 C 
ATOM      8  C   UNL d   1       2.982  -2.226   0.264  0.00  0.00     0.019 C 
ENDBRANCH   1   7
TORSDOF 1
ENDMDL
