MODEL 1
REMARK minimizedAffinity 5.82507038
REMARK minimizedRMSD -1
REMARK  1 active torsions:
REMARK  status: ('A' for Active; 'I' for Inactive)
REMARK    1  A    between atoms: C1_2  and  C2_3 
ROOT
ATOM      1  C2  UNL d   1       2.055  -2.782  -0.555  0.00  0.00    -0.077 A 
ATOM      2  C3  UNL d   1       2.067  -1.394  -0.752  0.00  0.00     0.002 A 
ATOM      3  C4  UNL d   1       3.161  -0.631  -0.340  0.00  0.00     0.002 A 
ATOM      4  C5  UNL d   1       4.254  -1.248   0.266  0.00  0.00    -0.004 A 
ATOM      5  C6  UNL d   1       4.251  -2.628   0.468  0.00  0.00     0.002 A 
ATOM      6  C7  UNL d   1       3.158  -3.391   0.058  0.00  0.00     0.002 A 
ENDROOT
BRANCH   1   7
ATOM      7  C1  UNL d   1       0.897  -3.613  -1.043  0.00  0.00     0.055 C 
ATOM      8  C   UNL d   1       1.334  -5.033  -1.372  0.00  0.00     0.019 C 
ENDBRANCH   1   7
TORSDOF 1
ENDMDL
