MODEL 1
REMARK minimizedAffinity 6.66143608
REMARK minimizedRMSD -1
REMARK  1 active torsions:
REMARK  status: ('A' for Active; 'I' for Inactive)
REMARK    1  A    between atoms: C1_2  and  C2_3 
ROOT
ATOM      1  C2  UNL d   1      -2.191   2.740  -0.380  0.00  0.00    -0.077 A 
ATOM      2  C3  UNL d   1      -2.437   2.801   0.999  0.00  0.00     0.002 A 
ATOM      3  C4  UNL d   1      -1.396   2.615   1.911  0.00  0.00     0.002 A 
ATOM      4  C5  UNL d   1      -0.102   2.372   1.454  0.00  0.00    -0.004 A 
ATOM      5  C6  UNL d   1       0.152   2.307   0.085  0.00  0.00     0.002 A 
ATOM      6  C7  UNL d   1      -0.887   2.491  -0.828  0.00  0.00     0.002 A 
ENDROOT
BRANCH   1   7
ATOM      7  C1  UNL d   1      -3.302   2.988  -1.365  0.00  0.00     0.055 C 
ATOM      8  C   UNL d   1      -2.760   3.482  -2.699  0.00  0.00     0.019 C 
ENDBRANCH   1   7
TORSDOF 1
ENDMDL
