MODEL 1
REMARK minimizedAffinity 3.91829944
REMARK minimizedRMSD -1
REMARK  0 active torsions:
REMARK  status: ('A' for Active; 'I' for Inactive)
ROOT
ATOM      1  N1  IND d   1      -0.091   0.766  -0.857  0.00  0.00    -0.196 N 
ATOM      2  C2  IND d   1      -0.012   1.657   0.177  0.00  0.00     0.054 A 
ATOM      3  C3  IND d   1      -0.221   1.029   1.356  0.00  0.00    -0.031 A 
ATOM      4  C4  IND d   1      -0.609  -1.471   1.831  0.00  0.00     0.051 A 
ATOM      5  C5  IND d   1      -0.799  -2.670   1.203  0.00  0.00    -0.031 A 
ATOM      6  C6  IND d   1      -0.759  -2.788  -0.171  0.00  0.00     0.015 A 
ATOM      7  C7  IND d   1      -0.515  -1.708  -0.972  0.00  0.00    -0.016 A 
ATOM      8  C8  IND d   1      -0.329  -0.488  -0.338  0.00  0.00    -0.047 A 
ATOM      9  C9  IND d   1      -0.411  -0.354   1.054  0.00  0.00    -0.096 A 
ATOM     10  HN1 IND d   1      -0.006   0.957  -1.691  0.00  0.00     0.298 HD
ENDROOT
TORSDOF 0
ENDMDL
