MODEL 1
REMARK minimizedAffinity -1.66499817
REMARK minimizedRMSD -1
REMARK  0 active torsions:
REMARK  status: ('A' for Active; 'I' for Inactive)
ROOT
ATOM      1  N1  IND d   1       3.970  -4.372  -2.063  0.00  0.00    -0.196 N 
ATOM      2  C2  IND d   1       2.998  -5.258  -1.688  0.00  0.00     0.054 A 
ATOM      3  C3  IND d   1       2.604  -6.000  -2.748  0.00  0.00    -0.031 A 
ATOM      4  C4  IND d   1       3.489  -5.999  -5.165  0.00  0.00     0.051 A 
ATOM      5  C5  IND d   1       4.350  -5.340  -5.997  0.00  0.00    -0.031 A 
ATOM      6  C6  IND d   1       5.146  -4.305  -5.550  0.00  0.00     0.015 A 
ATOM      7  C7  IND d   1       5.119  -3.897  -4.246  0.00  0.00    -0.016 A 
ATOM      8  C8  IND d   1       4.241  -4.559  -3.401  0.00  0.00    -0.047 A 
ATOM      9  C9  IND d   1       3.400  -5.582  -3.858  0.00  0.00    -0.096 A 
ATOM     10  HN1 IND d   1       4.348  -3.795  -1.550  0.00  0.00     0.298 HD
ENDROOT
TORSDOF 0
ENDMDL
