MODEL 1
REMARK minimizedAffinity 4.69809961
REMARK minimizedRMSD -1
REMARK  0 active torsions:
REMARK  status: ('A' for Active; 'I' for Inactive)
ROOT
ATOM      1  N1  IND d   1       0.682  -1.703   1.391  0.00  0.00    -0.196 N 
ATOM      2  C2  IND d   1      -0.010  -1.987   0.247  0.00  0.00     0.054 A 
ATOM      3  C3  IND d   1       0.087  -0.961  -0.628  0.00  0.00    -0.031 A 
ATOM      4  C4  IND d   1       1.413   1.237  -0.431  0.00  0.00     0.051 A 
ATOM      5  C5  IND d   1       2.172   1.962   0.444  0.00  0.00    -0.031 A 
ATOM      6  C6  IND d   1       2.482   1.492   1.704  0.00  0.00     0.015 A 
ATOM      7  C7  IND d   1       2.051   0.269   2.133  0.00  0.00    -0.016 A 
ATOM      8  C8  IND d   1       1.275  -0.467   1.250  0.00  0.00    -0.047 A 
ATOM      9  C9  IND d   1       0.922   0.023  -0.014  0.00  0.00    -0.096 A 
ATOM     10  HN1 IND d   1       0.738  -2.211   2.083  0.00  0.00     0.298 HD
ENDROOT
TORSDOF 0
ENDMDL
