MODEL 1
REMARK minimizedAffinity 16.2470722
REMARK minimizedRMSD -1
REMARK  0 active torsions:
REMARK  status: ('A' for Active; 'I' for Inactive)
ROOT
ATOM      1  N1  IND d   1      -0.105  -0.126   0.426  0.00  0.00    -0.196 N 
ATOM      2  C2  IND d   1       1.139  -0.586   0.094  0.00  0.00     0.054 A 
ATOM      3  C3  IND d   1       1.949   0.445  -0.236  0.00  0.00    -0.031 A 
ATOM      4  C4  IND d   1       1.473   2.975  -0.203  0.00  0.00     0.051 A 
ATOM      5  C5  IND d   1       0.468   3.879  -0.004  0.00  0.00    -0.031 A 
ATOM      6  C6  IND d   1      -0.805   3.487   0.359  0.00  0.00     0.015 A 
ATOM      7  C7  IND d   1      -1.118   2.171   0.548  0.00  0.00    -0.016 A 
ATOM      8  C8  IND d   1      -0.102   1.249   0.339  0.00  0.00    -0.047 A 
ATOM      9  C9  IND d   1       1.180   1.638  -0.070  0.00  0.00    -0.096 A 
ATOM     10  HN1 IND d   1      -0.777  -0.613   0.651  0.00  0.00     0.298 HD
ENDROOT
TORSDOF 0
ENDMDL
