MODEL 1
REMARK minimizedAffinity -4.37040854
REMARK minimizedRMSD -1
REMARK  0 active torsions:
REMARK  status: ('A' for Active; 'I' for Inactive)
ROOT
ATOM      1  N1  IND d   1       5.253  -1.838  -3.562  0.00  0.00    -0.196 N 
ATOM      2  C2  IND d   1       4.859  -0.770  -4.319  0.00  0.00     0.054 A 
ATOM      3  C3  IND d   1       4.125  -1.188  -5.375  0.00  0.00    -0.031 A 
ATOM      4  C4  IND d   1       3.363  -3.566  -6.000  0.00  0.00     0.051 A 
ATOM      5  C5  IND d   1       3.506  -4.875  -5.631  0.00  0.00    -0.031 A 
ATOM      6  C6  IND d   1       4.251  -5.245  -4.530  0.00  0.00     0.015 A 
ATOM      7  C7  IND d   1       4.875  -4.316  -3.747  0.00  0.00    -0.016 A 
ATOM      8  C8  IND d   1       4.738  -2.987  -4.122  0.00  0.00    -0.047 A 
ATOM      9  C9  IND d   1       4.018  -2.608  -5.263  0.00  0.00    -0.096 A 
ATOM     10  HN1 IND d   1       5.741  -1.799  -2.855  0.00  0.00     0.298 HD
ENDROOT
TORSDOF 0
ENDMDL
