MODEL 1
REMARK minimizedAffinity -3.97522664
REMARK minimizedRMSD -1
REMARK  0 active torsions:
REMARK  status: ('A' for Active; 'I' for Inactive)
ROOT
ATOM      1  N1  IND d   1       5.586  -1.519  -3.769  0.00  0.00    -0.196 N 
ATOM      2  C2  IND d   1       5.166  -0.269  -4.129  0.00  0.00     0.054 A 
ATOM      3  C3  IND d   1       4.169  -0.351  -5.038  0.00  0.00    -0.031 A 
ATOM      4  C4  IND d   1       3.001  -2.434  -6.000  0.00  0.00     0.051 A 
ATOM      5  C5  IND d   1       3.061  -3.800  -5.999  0.00  0.00    -0.031 A 
ATOM      6  C6  IND d   1       3.983  -4.488  -5.238  0.00  0.00     0.015 A 
ATOM      7  C7  IND d   1       4.876  -3.835  -4.436  0.00  0.00    -0.016 A 
ATOM      8  C8  IND d   1       4.822  -2.448  -4.440  0.00  0.00    -0.047 A 
ATOM      9  C9  IND d   1       3.917  -1.743  -5.243  0.00  0.00    -0.096 A 
ATOM     10  HN1 IND d   1       6.221  -1.695  -3.217  0.00  0.00     0.298 HD
ENDROOT
TORSDOF 0
ENDMDL
