MODEL 1
REMARK minimizedAffinity 9.56540966
REMARK minimizedRMSD -1
REMARK  0 active torsions:
REMARK  status: ('A' for Active; 'I' for Inactive)
ROOT
ATOM      1  N1  IND d   1      -0.234   1.061  -0.367  0.00  0.00    -0.196 N 
ATOM      2  C2  IND d   1       0.079   2.227  -1.008  0.00  0.00     0.054 A 
ATOM      3  C3  IND d   1       1.179   2.787  -0.456  0.00  0.00    -0.031 A 
ATOM      4  C4  IND d   1       2.683   1.911   1.440  0.00  0.00     0.051 A 
ATOM      5  C5  IND d   1       2.781   0.905   2.360  0.00  0.00    -0.031 A 
ATOM      6  C6  IND d   1       1.862  -0.123   2.417  0.00  0.00     0.015 A 
ATOM      7  C7  IND d   1       0.812  -0.189   1.545  0.00  0.00    -0.016 A 
ATOM      8  C8  IND d   1       0.706   0.835   0.615  0.00  0.00    -0.047 A 
ATOM      9  C9  IND d   1       1.611   1.903   0.579  0.00  0.00    -0.096 A 
ATOM     10  HN1 IND d   1      -0.905   0.554  -0.547  0.00  0.00     0.298 HD
ENDROOT
TORSDOF 0
ENDMDL
