MODEL 1
REMARK minimizedAffinity 10.309576
REMARK minimizedRMSD -1
REMARK  0 active torsions:
REMARK  status: ('A' for Active; 'I' for Inactive)
ROOT
ATOM      1  N1  IND d   1      -0.160   0.570   0.002  0.00  0.00    -0.196 N 
ATOM      2  C2  IND d   1      -0.009   1.846  -0.462  0.00  0.00     0.054 A 
ATOM      3  C3  IND d   1       0.967   2.484   0.222  0.00  0.00    -0.031 A 
ATOM      4  C4  IND d   1       2.515   1.592   2.076  0.00  0.00     0.051 A 
ATOM      5  C5  IND d   1       2.733   0.496   2.863  0.00  0.00    -0.031 A 
ATOM      6  C6  IND d   1       1.984  -0.656   2.732  0.00  0.00     0.015 A 
ATOM      7  C7  IND d   1       0.993  -0.759   1.797  0.00  0.00    -0.016 A 
ATOM      8  C8  IND d   1       0.764   0.355   1.001  0.00  0.00    -0.047 A 
ATOM      9  C9  IND d   1       1.492   1.541   1.159  0.00  0.00    -0.096 A 
ATOM     10  HN1 IND d   1      -0.735  -0.003  -0.281  0.00  0.00     0.298 HD
ENDROOT
TORSDOF 0
ENDMDL
