MODEL 1
REMARK minimizedAffinity 7.6417284
REMARK minimizedRMSD -1
REMARK  0 active torsions:
REMARK  status: ('A' for Active; 'I' for Inactive)
ROOT
ATOM      1  N1  IND d   1      -1.241  -0.901   0.708  0.00  0.00    -0.196 N 
ATOM      2  C2  IND d   1      -0.380  -1.883   1.112  0.00  0.00     0.054 A 
ATOM      3  C3  IND d   1       0.887  -1.411   1.148  0.00  0.00    -0.031 A 
ATOM      4  C4  IND d   1       1.761   0.966   0.685  0.00  0.00     0.051 A 
ATOM      5  C5  IND d   1       1.357   2.196   0.249  0.00  0.00    -0.031 A 
ATOM      6  C6  IND d   1       0.038   2.463  -0.060  0.00  0.00     0.015 A 
ATOM      7  C7  IND d   1      -0.930   1.509   0.067  0.00  0.00    -0.016 A 
ATOM      8  C8  IND d   1      -0.522   0.256   0.503  0.00  0.00    -0.047 A 
ATOM      9  C9  IND d   1       0.821  -0.033   0.777  0.00  0.00    -0.096 A 
ATOM     10  HN1 IND d   1      -2.089  -0.991   0.600  0.00  0.00     0.298 HD
ENDROOT
TORSDOF 0
ENDMDL
