MODEL 1
REMARK minimizedAffinity -0.217861518
REMARK minimizedRMSD -1
REMARK  0 active torsions:
REMARK  status: ('A' for Active; 'I' for Inactive)
ROOT
ATOM      1  C4' PXY d   1       5.749  -1.622   3.644  0.00  0.00     0.077 C 
ATOM      2  C1' PXY d   1       4.488   1.938  -0.732  0.00  0.00     0.077 C 
ATOM      3  C1  PXY d   1       4.807   0.998   0.414  0.00  0.00    -0.082 A 
ATOM      4  C2  PXY d   1       5.675   1.369   1.341  0.00  0.00     0.003 A 
ATOM      5  C3  PXY d   1       6.000   0.519   2.367  0.00  0.00     0.003 A 
ATOM      6  C4  PXY d   1       5.389  -0.702   2.474  0.00  0.00    -0.082 A 
ATOM      7  C5  PXY d   1       4.495  -1.083   1.538  0.00  0.00     0.003 A 
ATOM      8  C6  PXY d   1       4.210  -0.222   0.482  0.00  0.00     0.003 A 
ENDROOT
TORSDOF 0
ENDMDL
