MODEL 1
REMARK minimizedAffinity 3.06562018
REMARK minimizedRMSD -1
REMARK  0 active torsions:
REMARK  status: ('A' for Active; 'I' for Inactive)
ROOT
ATOM      1  C4' PXY d   1       5.242  -1.063   1.971  0.00  0.00     0.077 C 
ATOM      2  C1' PXY d   1       5.013   4.371   0.011  0.00  0.00     0.077 C 
ATOM      3  C1  PXY d   1       5.060   2.944   0.521  0.00  0.00    -0.082 A 
ATOM      4  C2  PXY d   1       5.921   2.617   1.471  0.00  0.00     0.003 A 
ATOM      5  C3  PXY d   1       6.000   1.325   1.922  0.00  0.00     0.003 A 
ATOM      6  C4  PXY d   1       5.152   0.368   1.432  0.00  0.00    -0.082 A 
ATOM      7  C5  PXY d   1       4.263   0.695   0.470  0.00  0.00     0.003 A 
ATOM      8  C6  PXY d   1       4.228   2.004  -0.003  0.00  0.00     0.003 A 
ENDROOT
TORSDOF 0
ENDMDL
