MODEL 1
REMARK minimizedAffinity -2.20261908
REMARK minimizedRMSD -1
REMARK  0 active torsions:
REMARK  status: ('A' for Active; 'I' for Inactive)
ROOT
ATOM      1  C4' PXY d   1      -4.559   1.819   3.723  0.00  0.00     0.077 C 
ATOM      2  C1' PXY d   1       0.926   1.159   2.019  0.00  0.00     0.077 C 
ATOM      3  C1  PXY d   1      -0.508   1.339   2.477  0.00  0.00    -0.082 A 
ATOM      4  C2  PXY d   1      -1.440   0.499   2.054  0.00  0.00     0.003 A 
ATOM      5  C3  PXY d   1      -2.747   0.666   2.432  0.00  0.00     0.003 A 
ATOM      6  C4  PXY d   1      -3.096   1.671   3.295  0.00  0.00    -0.082 A 
ATOM      7  C5  PXY d   1      -2.150   2.525   3.739  0.00  0.00     0.003 A 
ATOM      8  C6  PXY d   1      -0.836   2.363   3.310  0.00  0.00     0.003 A 
ENDROOT
TORSDOF 0
ENDMDL
