MODEL 1
REMARK minimizedAffinity 4.07703352
REMARK minimizedRMSD -1
REMARK  0 active torsions:
REMARK  status: ('A' for Active; 'I' for Inactive)
ROOT
ATOM      1  C4' PXY d   1       2.197  -4.139  -3.035  0.00  0.00     0.077 C 
ATOM      2  C1' PXY d   1      -2.839  -4.961  -0.318  0.00  0.00     0.077 C 
ATOM      3  C1  PXY d   1      -1.513  -4.741  -1.020  0.00  0.00    -0.082 A 
ATOM      4  C2  PXY d   1      -1.489  -4.549  -2.329  0.00  0.00     0.003 A 
ATOM      5  C3  PXY d   1      -0.296  -4.381  -2.983  0.00  0.00     0.003 A 
ATOM      6  C4  PXY d   1       0.881  -4.355  -2.284  0.00  0.00    -0.082 A 
ATOM      7  C5  PXY d   1       0.864  -4.540  -0.947  0.00  0.00     0.003 A 
ATOM      8  C6  PXY d   1      -0.354  -4.750  -0.306  0.00  0.00     0.003 A 
ENDROOT
TORSDOF 0
ENDMDL
