MODEL 1
REMARK minimizedAffinity 1.60766923
REMARK minimizedRMSD -1
REMARK  0 active torsions:
REMARK  status: ('A' for Active; 'I' for Inactive)
ROOT
ATOM      1  C4' PXY d   1      -5.953   5.184   5.947  0.00  0.00     0.077 C 
ATOM      2  C1' PXY d   1      -3.761   0.185   4.044  0.00  0.00     0.077 C 
ATOM      3  C1  PXY d   1      -4.341   1.498   4.531  0.00  0.00    -0.082 A 
ATOM      4  C2  PXY d   1      -3.754   2.144   5.525  0.00  0.00     0.003 A 
ATOM      5  C3  PXY d   1      -4.284   3.316   6.000  0.00  0.00     0.003 A 
ATOM      6  C4  PXY d   1      -5.397   3.860   5.416  0.00  0.00    -0.082 A 
ATOM      7  C5  PXY d   1      -5.996   3.212   4.394  0.00  0.00     0.003 A 
ATOM      8  C6  PXY d   1      -5.466   2.003   3.954  0.00  0.00     0.003 A 
ENDROOT
TORSDOF 0
ENDMDL
