MODEL 1
REMARK minimizedAffinity 5.25276709
REMARK minimizedRMSD -1
REMARK  0 active torsions:
REMARK  status: ('A' for Active; 'I' for Inactive)
ROOT
ATOM      1  C4' PXY d   1      -5.480   3.509   5.992  0.00  0.00     0.077 C 
ATOM      2  C1' PXY d   1      -2.391  -0.312   2.947  0.00  0.00     0.077 C 
ATOM      3  C1  PXY d   1      -3.212   0.683   3.744  0.00  0.00    -0.082 A 
ATOM      4  C2  PXY d   1      -2.812   1.941   3.829  0.00  0.00     0.003 A 
ATOM      5  C3  PXY d   1      -3.525   2.847   4.572  0.00  0.00     0.003 A 
ATOM      6  C4  PXY d   1      -4.688   2.472   5.191  0.00  0.00    -0.082 A 
ATOM      7  C5  PXY d   1      -5.108   1.193   5.100  0.00  0.00     0.003 A 
ATOM      8  C6  PXY d   1      -4.348   0.279   4.375  0.00  0.00     0.003 A 
ENDROOT
TORSDOF 0
ENDMDL
