MODEL 1
REMARK minimizedAffinity 6.71118212
REMARK minimizedRMSD -1
REMARK  0 active torsions:
REMARK  status: ('A' for Active; 'I' for Inactive)
ROOT
ATOM      1  C4' PXY d   1       2.477  -3.390  -2.179  0.00  0.00     0.077 C 
ATOM      2  C1' PXY d   1       3.383   2.316  -2.384  0.00  0.00     0.077 C 
ATOM      3  C1  PXY d   1       3.151   0.819  -2.318  0.00  0.00    -0.082 A 
ATOM      4  C2  PXY d   1       3.041   0.125  -3.439  0.00  0.00     0.003 A 
ATOM      5  C3  PXY d   1       2.799  -1.225  -3.398  0.00  0.00     0.003 A 
ATOM      6  C4  PXY d   1       2.722  -1.878  -2.198  0.00  0.00    -0.082 A 
ATOM      7  C5  PXY d   1       2.843  -1.178  -1.050  0.00  0.00     0.003 A 
ATOM      8  C6  PXY d   1       3.048   0.197  -1.113  0.00  0.00     0.003 A 
ENDROOT
TORSDOF 0
ENDMDL
