MODEL 1
REMARK minimizedAffinity 3.50743294
REMARK minimizedRMSD -1
REMARK  0 active torsions:
REMARK  status: ('A' for Active; 'I' for Inactive)
ROOT
ATOM      1  C4' PXY d   1      -3.081  -5.991  -0.763  0.00  0.00     0.077 C 
ATOM      2  C1' PXY d   1       2.138  -3.676  -1.669  0.00  0.00     0.077 C 
ATOM      3  C1  PXY d   1       0.770  -4.289  -1.443  0.00  0.00    -0.082 A 
ATOM      4  C2  PXY d   1      -0.080  -3.704  -0.615  0.00  0.00     0.003 A 
ATOM      5  C3  PXY d   1      -1.309  -4.262  -0.375  0.00  0.00     0.003 A 
ATOM      6  C4  PXY d   1      -1.692  -5.403  -1.029  0.00  0.00    -0.082 A 
ATOM      7  C5  PXY d   1      -0.835  -6.000  -1.883  0.00  0.00     0.003 A 
ATOM      8  C6  PXY d   1       0.424  -5.440  -2.082  0.00  0.00     0.003 A 
ENDROOT
TORSDOF 0
ENDMDL
