MODEL 1
REMARK minimizedAffinity 9.04561234
REMARK minimizedRMSD -1
REMARK  0 active torsions:
REMARK  status: ('A' for Active; 'I' for Inactive)
ROOT
ATOM      1  C4' PXY d   1      -1.788   1.445   2.064  0.00  0.00     0.077 C 
ATOM      2  C1' PXY d   1      -5.976   2.059   6.000  0.00  0.00     0.077 C 
ATOM      3  C1  PXY d   1      -4.880   1.885   4.967  0.00  0.00    -0.082 A 
ATOM      4  C2  PXY d   1      -3.915   2.786   4.880  0.00  0.00     0.003 A 
ATOM      5  C3  PXY d   1      -2.933   2.661   3.931  0.00  0.00     0.003 A 
ATOM      6  C4  PXY d   1      -2.910   1.575   3.097  0.00  0.00    -0.082 A 
ATOM      7  C5  PXY d   1      -3.885   0.646   3.187  0.00  0.00     0.003 A 
ATOM      8  C6  PXY d   1      -4.895   0.812   4.130  0.00  0.00     0.003 A 
ENDROOT
TORSDOF 0
ENDMDL
