MODEL 1
REMARK minimizedAffinity -1.54854798
REMARK minimizedRMSD -1
REMARK  0 active torsions:
REMARK  status: ('A' for Active; 'I' for Inactive)
ROOT
ATOM      1  C4' PXY d   1       0.778   0.735   0.801  0.00  0.00     0.077 C 
ATOM      2  C1' PXY d   1      -3.906   2.183   3.864  0.00  0.00     0.077 C 
ATOM      3  C1  PXY d   1      -2.680   1.791   3.064  0.00  0.00    -0.082 A 
ATOM      4  C2  PXY d   1      -1.747   2.694   2.812  0.00  0.00     0.003 A 
ATOM      5  C3  PXY d   1      -0.646   2.365   2.063  0.00  0.00     0.003 A 
ATOM      6  C4  PXY d   1      -0.473   1.084   1.613  0.00  0.00    -0.082 A 
ATOM      7  C5  PXY d   1      -1.415   0.153   1.875  0.00  0.00     0.003 A 
ATOM      8  C6  PXY d   1      -2.545   0.518   2.602  0.00  0.00     0.003 A 
ENDROOT
TORSDOF 0
ENDMDL
