MODEL 1
REMARK minimizedAffinity 6.45236158
REMARK minimizedRMSD -1
REMARK  0 active torsions:
REMARK  status: ('A' for Active; 'I' for Inactive)
ROOT
ATOM      1  C4' PXY d   1      -5.997   4.931   5.996  0.00  0.00     0.077 C 
ATOM      2  C1' PXY d   1      -3.350   0.518   3.364  0.00  0.00     0.077 C 
ATOM      3  C1  PXY d   1      -4.041   1.670   4.066  0.00  0.00    -0.082 A 
ATOM      4  C2  PXY d   1      -4.976   2.357   3.430  0.00  0.00     0.003 A 
ATOM      5  C3  PXY d   1      -5.589   3.422   4.038  0.00  0.00     0.003 A 
ATOM      6  C4  PXY d   1      -5.279   3.754   5.330  0.00  0.00    -0.082 A 
ATOM      7  C5  PXY d   1      -4.334   3.051   5.990  0.00  0.00     0.003 A 
ATOM      8  C6  PXY d   1      -3.695   1.999   5.340  0.00  0.00     0.003 A 
ENDROOT
TORSDOF 0
ENDMDL
