MODEL 1
REMARK minimizedAffinity 1.88699985
REMARK minimizedRMSD -1
REMARK  0 active torsions:
REMARK  status: ('A' for Active; 'I' for Inactive)
ROOT
ATOM      1  C4' PXY d   1      -4.614   1.870   4.300  0.00  0.00     0.077 C 
ATOM      2  C1' PXY d   1       0.584   1.225   1.854  0.00  0.00     0.077 C 
ATOM      3  C1  PXY d   1      -0.785   1.386   2.487  0.00  0.00    -0.082 A 
ATOM      4  C2  PXY d   1      -1.046   2.459   3.216  0.00  0.00     0.003 A 
ATOM      5  C3  PXY d   1      -2.268   2.605   3.821  0.00  0.00     0.003 A 
ATOM      6  C4  PXY d   1      -3.250   1.670   3.635  0.00  0.00    -0.082 A 
ATOM      7  C5  PXY d   1      -2.994   0.577   2.883  0.00  0.00     0.003 A 
ATOM      8  C6  PXY d   1      -1.734   0.427   2.311  0.00  0.00     0.003 A 
ENDROOT
TORSDOF 0
ENDMDL
