MODEL 1
REMARK minimizedAffinity -0.48127529
REMARK minimizedRMSD -1
REMARK  0 active torsions:
REMARK  status: ('A' for Active; 'I' for Inactive)
ROOT
ATOM      1  C4' PXY d   1       0.563   2.210   1.550  0.00  0.00     0.077 C 
ATOM      2  C1' PXY d   1      -4.517   2.251   4.307  0.00  0.00     0.077 C 
ATOM      3  C1  PXY d   1      -3.191   2.240   3.573  0.00  0.00    -0.082 A 
ATOM      4  C2  PXY d   1      -2.102   1.817   4.194  0.00  0.00     0.003 A 
ATOM      5  C3  PXY d   1      -0.889   1.830   3.555  0.00  0.00     0.003 A 
ATOM      6  C4  PXY d   1      -0.799   2.230   2.249  0.00  0.00    -0.082 A 
ATOM      7  C5  PXY d   1      -1.907   2.653   1.604  0.00  0.00     0.003 A 
ATOM      8  C6  PXY d   1      -3.121   2.671   2.284  0.00  0.00     0.003 A 
ENDROOT
TORSDOF 0
ENDMDL
