MODEL 1
REMARK minimizedAffinity 5.82718515
REMARK minimizedRMSD -1
REMARK  0 active torsions:
REMARK  status: ('A' for Active; 'I' for Inactive)
ROOT
ATOM      1  C4' PXY d   1      -1.842   1.201   2.128  0.00  0.00     0.077 C 
ATOM      2  C1' PXY d   1      -5.994   2.293   5.999  0.00  0.00     0.077 C 
ATOM      3  C1  PXY d   1      -4.907   1.994   4.985  0.00  0.00    -0.082 A 
ATOM      4  C2  PXY d   1      -3.977   2.902   4.736  0.00  0.00     0.003 A 
ATOM      5  C3  PXY d   1      -3.005   2.660   3.800  0.00  0.00     0.003 A 
ATOM      6  C4  PXY d   1      -2.953   1.456   3.150  0.00  0.00    -0.082 A 
ATOM      7  C5  PXY d   1      -3.892   0.521   3.407  0.00  0.00     0.003 A 
ATOM      8  C6  PXY d   1      -4.894   0.801   4.331  0.00  0.00     0.003 A 
ENDROOT
TORSDOF 0
ENDMDL
