MODEL 1
REMARK minimizedAffinity 2.34305906
REMARK minimizedRMSD -1
REMARK  0 active torsions:
REMARK  status: ('A' for Active; 'I' for Inactive)
ROOT
ATOM      1  C4' PXY d   1       1.176  -4.219  -2.358  0.00  0.00     0.077 C 
ATOM      2  C1' PXY d   1      -4.227  -3.141  -0.608  0.00  0.00     0.077 C 
ATOM      3  C1  PXY d   1      -2.806  -3.426  -1.054  0.00  0.00    -0.082 A 
ATOM      4  C2  PXY d   1      -2.360  -2.908  -2.187  0.00  0.00     0.003 A 
ATOM      5  C3  PXY d   1      -1.089  -3.182  -2.622  0.00  0.00     0.003 A 
ATOM      6  C4  PXY d   1      -0.248  -3.951  -1.863  0.00  0.00    -0.082 A 
ATOM      7  C5  PXY d   1      -0.692  -4.474  -0.701  0.00  0.00     0.003 A 
ATOM      8  C6  PXY d   1      -1.999  -4.218  -0.297  0.00  0.00     0.003 A 
ENDROOT
TORSDOF 0
ENDMDL
