MODEL 1
REMARK minimizedAffinity 9.13611603
REMARK minimizedRMSD -1
REMARK  0 active torsions:
REMARK  status: ('A' for Active; 'I' for Inactive)
ROOT
ATOM      1  C4' PXY d   1       0.628   1.166   4.156  0.00  0.00     0.077 C 
ATOM      2  C1' PXY d   1      -3.146   4.096   0.901  0.00  0.00     0.077 C 
ATOM      3  C1  PXY d   1      -2.164   3.329   1.765  0.00  0.00    -0.082 A 
ATOM      4  C2  PXY d   1      -0.884   3.300   1.433  0.00  0.00     0.003 A 
ATOM      5  C3  PXY d   1       0.012   2.585   2.185  0.00  0.00     0.003 A 
ATOM      6  C4  PXY d   1      -0.397   1.936   3.319  0.00  0.00    -0.082 A 
ATOM      7  C5  PXY d   1      -1.700   1.969   3.670  0.00  0.00     0.003 A 
ATOM      8  C6  PXY d   1      -2.601   2.666   2.871  0.00  0.00     0.003 A 
ENDROOT
TORSDOF 0
ENDMDL
