MODEL 1
REMARK minimizedAffinity 10.0030508
REMARK minimizedRMSD -1
REMARK  0 active torsions:
REMARK  status: ('A' for Active; 'I' for Inactive)
ROOT
ATOM      1  C4' PXY d   1      -3.884   0.017   4.628  0.00  0.00     0.077 C 
ATOM      2  C1' PXY d   1      -5.726   5.323   5.997  0.00  0.00     0.077 C 
ATOM      3  C1  PXY d   1      -5.250   3.927   5.647  0.00  0.00    -0.082 A 
ATOM      4  C2  PXY d   1      -4.108   3.768   4.997  0.00  0.00     0.003 A 
ATOM      5  C3  PXY d   1      -3.679   2.514   4.645  0.00  0.00     0.003 A 
ATOM      6  C4  PXY d   1      -4.399   1.408   5.010  0.00  0.00    -0.082 A 
ATOM      7  C5  PXY d   1      -5.559   1.561   5.683  0.00  0.00     0.003 A 
ATOM      8  C6  PXY d   1      -5.998   2.845   5.994  0.00  0.00     0.003 A 
ENDROOT
TORSDOF 0
ENDMDL
