MODEL 1
REMARK minimizedAffinity 7.04314852
REMARK minimizedRMSD -1
REMARK  0 active torsions:
REMARK  status: ('A' for Active; 'I' for Inactive)
ROOT
ATOM      1  C4' PXY d   1      -5.234  -1.612   1.333  0.00  0.00     0.077 C 
ATOM      2  C1' PXY d   1      -2.593  -1.645  -3.809  0.00  0.00     0.077 C 
ATOM      3  C1  PXY d   1      -3.281  -1.624  -2.458  0.00  0.00    -0.082 A 
ATOM      4  C2  PXY d   1      -3.598  -2.766  -1.868  0.00  0.00     0.003 A 
ATOM      5  C3  PXY d   1      -4.249  -2.765  -0.661  0.00  0.00     0.003 A 
ATOM      6  C4  PXY d   1      -4.530  -1.585  -0.026  0.00  0.00    -0.082 A 
ATOM      7  C5  PXY d   1      -4.200  -0.417  -0.617  0.00  0.00     0.003 A 
ATOM      8  C6  PXY d   1      -3.577  -0.438  -1.861  0.00  0.00     0.003 A 
ENDROOT
TORSDOF 0
ENDMDL
