MODEL 1
REMARK minimizedAffinity 5.55544662
REMARK minimizedRMSD -1
REMARK  0 active torsions:
REMARK  status: ('A' for Active; 'I' for Inactive)
ROOT
ATOM      1  C4' PXY d   1       2.441   5.544  -4.227  0.00  0.00     0.077 C 
ATOM      2  C1' PXY d   1       4.085   0.031  -3.655  0.00  0.00     0.077 C 
ATOM      3  C1  PXY d   1       3.667   1.481  -3.805  0.00  0.00    -0.082 A 
ATOM      4  C2  PXY d   1       2.469   1.862  -3.392  0.00  0.00     0.003 A 
ATOM      5  C3  PXY d   1       2.062   3.161  -3.549  0.00  0.00     0.003 A 
ATOM      6  C4  PXY d   1       2.910   4.093  -4.086  0.00  0.00    -0.082 A 
ATOM      7  C5  PXY d   1       4.138   3.714  -4.501  0.00  0.00     0.003 A 
ATOM      8  C6  PXY d   1       4.516   2.381  -4.370  0.00  0.00     0.003 A 
ENDROOT
TORSDOF 0
ENDMDL
