MODEL 1
REMARK minimizedAffinity 10.5348129
REMARK minimizedRMSD -1
REMARK  0 active torsions:
REMARK  status: ('A' for Active; 'I' for Inactive)
ROOT
ATOM      1  C4' PXY d   1      -2.478  -5.942  -0.504  0.00  0.00     0.077 C 
ATOM      2  C1' PXY d   1      -3.687  -0.519  -2.099  0.00  0.00     0.077 C 
ATOM      3  C1  PXY d   1      -3.367  -1.937  -1.669  0.00  0.00    -0.082 A 
ATOM      4  C2  PXY d   1      -3.035  -2.837  -2.579  0.00  0.00     0.003 A 
ATOM      5  C3  PXY d   1      -2.773  -4.132  -2.211  0.00  0.00     0.003 A 
ATOM      6  C4  PXY d   1      -2.800  -4.496  -0.891  0.00  0.00    -0.082 A 
ATOM      7  C5  PXY d   1      -3.129  -3.581   0.045  0.00  0.00     0.003 A 
ATOM      8  C6  PXY d   1      -3.431  -2.282  -0.354  0.00  0.00     0.003 A 
ENDROOT
TORSDOF 0
ENDMDL
