MODEL 1
REMARK minimizedAffinity -2.54284501
REMARK minimizedRMSD -1
REMARK  0 active torsions:
REMARK  status: ('A' for Active; 'I' for Inactive)
ROOT
ATOM      1  C2' OXE d   1      -0.663  -0.762   2.509  0.00  0.00     0.078 C 
ATOM      2  C1' OXE d   1      -2.724  -0.265   0.669  0.00  0.00     0.078 C 
ATOM      3  C1  OXE d   1      -1.303  -0.057   0.207  0.00  0.00    -0.078 A 
ATOM      4  C2  OXE d   1      -0.303  -0.257   1.128  0.00  0.00    -0.078 A 
ATOM      5  C3  OXE d   1       1.028  -0.132   0.739  0.00  0.00     0.003 A 
ATOM      6  C4  OXE d   1       1.351   0.344  -0.537  0.00  0.00    -0.002 A 
ATOM      7  C5  OXE d   1       0.346   0.592  -1.478  0.00  0.00    -0.002 A 
ATOM      8  C6  OXE d   1      -0.981   0.356  -1.137  0.00  0.00     0.003 A 
ENDROOT
TORSDOF 0
ENDMDL
