MODEL 1
REMARK minimizedAffinity -4.22437239
REMARK minimizedRMSD -1
REMARK  0 active torsions:
REMARK  status: ('A' for Active; 'I' for Inactive)
ROOT
ATOM      1  C2' OXE d   1       2.356   1.085   0.765  0.00  0.00     0.078 C 
ATOM      2  C1' OXE d   1       0.532   0.419  -1.262  0.00  0.00     0.078 C 
ATOM      3  C1  OXE d   1       0.112   0.184   0.168  0.00  0.00    -0.078 A 
ATOM      4  C2  OXE d   1       1.029   0.468   1.151  0.00  0.00    -0.078 A 
ATOM      5  C3  OXE d   1       0.673   0.321   2.489  0.00  0.00     0.003 A 
ATOM      6  C4  OXE d   1      -0.553  -0.259   2.836  0.00  0.00    -0.002 A 
ATOM      7  C5  OXE d   1      -1.486  -0.593   1.849  0.00  0.00    -0.002 A 
ATOM      8  C6  OXE d   1      -1.186  -0.339   0.515  0.00  0.00     0.003 A 
ENDROOT
TORSDOF 0
ENDMDL
