MODEL 1
REMARK minimizedAffinity -4.01979971
REMARK minimizedRMSD -1
REMARK  0 active torsions:
REMARK  status: ('A' for Active; 'I' for Inactive)
ROOT
ATOM      1  C2' OXE d   1       1.467   0.209   0.516  0.00  0.00     0.078 C 
ATOM      2  C1' OXE d   1       0.322   0.947  -1.938  0.00  0.00     0.078 C 
ATOM      3  C1  OXE d   1      -0.609   0.620  -0.798  0.00  0.00    -0.078 A 
ATOM      4  C2  OXE d   1      -0.041   0.214   0.386  0.00  0.00    -0.078 A 
ATOM      5  C3  OXE d   1      -0.852  -0.047   1.486  0.00  0.00     0.003 A 
ATOM      6  C4  OXE d   1      -2.246  -0.049   1.355  0.00  0.00    -0.002 A 
ATOM      7  C5  OXE d   1      -2.845   0.323   0.147  0.00  0.00    -0.002 A 
ATOM      8  C6  OXE d   1      -2.043   0.700  -0.924  0.00  0.00     0.003 A 
ENDROOT
TORSDOF 0
ENDMDL
