MODEL 1
REMARK minimizedAffinity -5.24933195
REMARK minimizedRMSD -1
REMARK  0 active torsions:
REMARK  status: ('A' for Active; 'I' for Inactive)
ROOT
ATOM      1  C2' OXE d   1       1.330   0.379   1.352  0.00  0.00     0.078 C 
ATOM      2  C1' OXE d   1      -0.680   0.516  -0.603  0.00  0.00     0.078 C 
ATOM      3  C1  OXE d   1      -1.107   0.358   0.835  0.00  0.00    -0.078 A 
ATOM      4  C2  OXE d   1      -0.116   0.245   1.780  0.00  0.00    -0.078 A 
ATOM      5  C3  OXE d   1      -0.454   0.152   3.127  0.00  0.00     0.003 A 
ATOM      6  C4  OXE d   1      -1.793   0.019   3.513  0.00  0.00    -0.002 A 
ATOM      7  C5  OXE d   1      -2.817   0.091   2.563  0.00  0.00    -0.002 A 
ATOM      8  C6  OXE d   1      -2.493   0.303   1.227  0.00  0.00     0.003 A 
ENDROOT
TORSDOF 0
ENDMDL
