MODEL 1
REMARK minimizedAffinity -4.67454815
REMARK minimizedRMSD -1
REMARK  0 active torsions:
REMARK  status: ('A' for Active; 'I' for Inactive)
ROOT
ATOM      1  C2' OXE d   1       1.862   1.253   0.922  0.00  0.00     0.078 C 
ATOM      2  C1' OXE d   1      -0.039   0.401  -0.959  0.00  0.00     0.078 C 
ATOM      3  C1  OXE d   1      -0.189  -0.083   0.461  0.00  0.00    -0.078 A 
ATOM      4  C2  OXE d   1       0.772   0.301   1.365  0.00  0.00    -0.078 A 
ATOM      5  C3  OXE d   1       0.652  -0.073   2.700  0.00  0.00     0.003 A 
ATOM      6  C4  OXE d   1      -0.353  -0.962   3.099  0.00  0.00    -0.002 A 
ATOM      7  C5  OXE d   1      -1.319  -1.398   2.186  0.00  0.00    -0.002 A 
ATOM      8  C6  OXE d   1      -1.276  -0.935   0.876  0.00  0.00     0.003 A 
ENDROOT
TORSDOF 0
ENDMDL
