MODEL 1
REMARK minimizedAffinity -3.76672173
REMARK minimizedRMSD -1
REMARK  0 active torsions:
REMARK  status: ('A' for Active; 'I' for Inactive)
ROOT
ATOM      1  C2' OXE d   1       1.013   0.398  -1.264  0.00  0.00     0.078 C 
ATOM      2  C1' OXE d   1       2.916   1.423   0.527  0.00  0.00     0.078 C 
ATOM      3  C1  OXE d   1       1.599   0.954   1.092  0.00  0.00    -0.078 A 
ATOM      4  C2  OXE d   1       0.656   0.497   0.203  0.00  0.00    -0.078 A 
ATOM      5  C3  OXE d   1      -0.556   0.001   0.677  0.00  0.00     0.003 A 
ATOM      6  C4  OXE d   1      -0.882   0.105   2.035  0.00  0.00    -0.002 A 
ATOM      7  C5  OXE d   1       0.049   0.604   2.952  0.00  0.00    -0.002 A 
ATOM      8  C6  OXE d   1       1.307   0.992   2.504  0.00  0.00     0.003 A 
ENDROOT
TORSDOF 0
ENDMDL
