MODEL 1
REMARK minimizedAffinity 3.12779784
REMARK minimizedRMSD -1
REMARK  0 active torsions:
REMARK  status: ('A' for Active; 'I' for Inactive)
ROOT
ATOM      1  C2' OXE d   1       1.518   2.675   0.070  0.00  0.00     0.078 C 
ATOM      2  C1' OXE d   1      -0.233   0.748  -0.980  0.00  0.00     0.078 C 
ATOM      3  C1  OXE d   1      -0.020   0.767   0.514  0.00  0.00    -0.078 A 
ATOM      4  C2  OXE d   1       0.874   1.682   1.014  0.00  0.00    -0.078 A 
ATOM      5  C3  OXE d   1       1.065   1.778   2.389  0.00  0.00     0.003 A 
ATOM      6  C4  OXE d   1       0.473   0.850   3.254  0.00  0.00    -0.002 A 
ATOM      7  C5  OXE d   1      -0.410  -0.116   2.761  0.00  0.00    -0.002 A 
ATOM      8  C6  OXE d   1      -0.700  -0.144   1.401  0.00  0.00     0.003 A 
ENDROOT
TORSDOF 0
ENDMDL
