MODEL 1
REMARK minimizedAffinity 2.59343076
REMARK minimizedRMSD -1
REMARK  0 active torsions:
REMARK  status: ('A' for Active; 'I' for Inactive)
ROOT
ATOM      1  C2' OXE d   1       0.969   1.466   1.252  0.00  0.00     0.078 C 
ATOM      2  C1' OXE d   1       1.876  -0.461   3.081  0.00  0.00     0.078 C 
ATOM      3  C1  OXE d   1       0.388  -0.343   2.863  0.00  0.00    -0.078 A 
ATOM      4  C2  OXE d   1      -0.049   0.634   2.002  0.00  0.00    -0.078 A 
ATOM      5  C3  OXE d   1      -1.408   0.750   1.723  0.00  0.00     0.003 A 
ATOM      6  C4  OXE d   1      -2.344  -0.017   2.428  0.00  0.00    -0.002 A 
ATOM      7  C5  OXE d   1      -1.922  -0.991   3.340  0.00  0.00    -0.002 A 
ATOM      8  C6  OXE d   1      -0.560  -1.195   3.537  0.00  0.00     0.003 A 
ENDROOT
TORSDOF 0
ENDMDL
