MODEL 1
REMARK minimizedAffinity -3.41153193
REMARK minimizedRMSD -1
REMARK  0 active torsions:
REMARK  status: ('A' for Active; 'I' for Inactive)
ROOT
ATOM      1  C2' OXE d   1      -0.715  -1.224   2.793  0.00  0.00     0.078 C 
ATOM      2  C1' OXE d   1       1.333   0.664   2.441  0.00  0.00     0.078 C 
ATOM      3  C1  OXE d   1       0.451   0.354   1.257  0.00  0.00    -0.078 A 
ATOM      4  C2  OXE d   1      -0.519  -0.606   1.426  0.00  0.00    -0.078 A 
ATOM      5  C3  OXE d   1      -1.395  -0.891   0.382  0.00  0.00     0.003 A 
ATOM      6  C4  OXE d   1      -1.200  -0.322  -0.882  0.00  0.00    -0.002 A 
ATOM      7  C5  OXE d   1      -0.194   0.628  -1.086  0.00  0.00    -0.002 A 
ATOM      8  C6  OXE d   1       0.611   1.008  -0.018  0.00  0.00     0.003 A 
ENDROOT
TORSDOF 0
ENDMDL
