MODEL 1
REMARK minimizedAffinity -3.45464301
REMARK minimizedRMSD -1
REMARK  0 active torsions:
REMARK  status: ('A' for Active; 'I' for Inactive)
ROOT
ATOM      1  C2' OXE d   1      -0.576  -1.123   2.952  0.00  0.00     0.078 C 
ATOM      2  C1' OXE d   1       1.936   0.067   2.560  0.00  0.00     0.078 C 
ATOM      3  C1  OXE d   1       0.963   0.081   1.407  0.00  0.00    -0.078 A 
ATOM      4  C2  OXE d   1      -0.246  -0.545   1.593  0.00  0.00    -0.078 A 
ATOM      5  C3  OXE d   1      -1.201  -0.513   0.580  0.00  0.00     0.003 A 
ATOM      6  C4  OXE d   1      -0.884   0.015  -0.677  0.00  0.00    -0.002 A 
ATOM      7  C5  OXE d   1       0.357   0.622  -0.900  0.00  0.00    -0.002 A 
ATOM      8  C6  OXE d   1       1.274   0.701   0.143  0.00  0.00     0.003 A 
ENDROOT
TORSDOF 0
ENDMDL
