MODEL 1
REMARK minimizedAffinity -4.98516655
REMARK minimizedRMSD -1
REMARK  0 active torsions:
REMARK  status: ('A' for Active; 'I' for Inactive)
ROOT
ATOM      1  C2' OXE d   1      -0.309   0.112  -0.189  0.00  0.00     0.078 C 
ATOM      2  C1' OXE d   1      -3.072   0.476   0.144  0.00  0.00     0.078 C 
ATOM      3  C1  OXE d   1      -2.274   0.018   1.338  0.00  0.00    -0.078 A 
ATOM      4  C2  OXE d   1      -0.930  -0.202   1.154  0.00  0.00    -0.078 A 
ATOM      5  C3  OXE d   1      -0.138  -0.573   2.237  0.00  0.00     0.003 A 
ATOM      6  C4  OXE d   1      -0.722  -0.872   3.474  0.00  0.00    -0.002 A 
ATOM      7  C5  OXE d   1      -2.095  -0.693   3.672  0.00  0.00    -0.002 A 
ATOM      8  C6  OXE d   1      -2.877  -0.208   2.629  0.00  0.00     0.003 A 
ENDROOT
TORSDOF 0
ENDMDL
