MODEL 1
REMARK minimizedAffinity -5.16389132
REMARK minimizedRMSD -1
REMARK  0 active torsions:
REMARK  status: ('A' for Active; 'I' for Inactive)
ROOT
ATOM      1  C2' OXE d   1       1.936   0.366   1.091  0.00  0.00     0.078 C 
ATOM      2  C1' OXE d   1      -0.117   0.777  -0.778  0.00  0.00     0.078 C 
ATOM      3  C1  OXE d   1      -0.512   0.425   0.635  0.00  0.00    -0.078 A 
ATOM      4  C2  OXE d   1       0.500   0.180   1.531  0.00  0.00    -0.078 A 
ATOM      5  C3  OXE d   1       0.192  -0.095   2.861  0.00  0.00     0.003 A 
ATOM      6  C4  OXE d   1      -1.139  -0.274   3.257  0.00  0.00    -0.002 A 
ATOM      7  C5  OXE d   1      -2.184  -0.068   2.350  0.00  0.00    -0.002 A 
ATOM      8  C6  OXE d   1      -1.890   0.323   1.049  0.00  0.00     0.003 A 
ENDROOT
TORSDOF 0
ENDMDL
