MODEL 1
REMARK minimizedAffinity -2.24252748
REMARK minimizedRMSD -1
REMARK  0 active torsions:
REMARK  status: ('A' for Active; 'I' for Inactive)
ROOT
ATOM      1  C2' OXE d   1       1.069   0.039   0.763  0.00  0.00     0.078 C 
ATOM      2  C1' OXE d   1      -0.585   0.463  -1.465  0.00  0.00     0.078 C 
ATOM      3  C1  OXE d   1      -1.243   0.347  -0.113  0.00  0.00    -0.078 A 
ATOM      4  C2  OXE d   1      -0.430   0.093   0.966  0.00  0.00    -0.078 A 
ATOM      5  C3  OXE d   1      -0.979   0.032   2.243  0.00  0.00     0.003 A 
ATOM      6  C4  OXE d   1      -2.367   0.073   2.421  0.00  0.00    -0.002 A 
ATOM      7  C5  OXE d   1      -3.216   0.291   1.331  0.00  0.00    -0.002 A 
ATOM      8  C6  OXE d   1      -2.668   0.472   0.066  0.00  0.00     0.003 A 
ENDROOT
TORSDOF 0
ENDMDL
