MODEL 1
REMARK minimizedAffinity -4.05240726
REMARK minimizedRMSD -1
REMARK  0 active torsions:
REMARK  status: ('A' for Active; 'I' for Inactive)
ROOT
ATOM      1  C2' OXE d   1      -1.160  -0.624   3.665  0.00  0.00     0.078 C 
ATOM      2  C1' OXE d   1       0.443   1.679   3.766  0.00  0.00     0.078 C 
ATOM      3  C1  OXE d   1       0.312   0.969   2.441  0.00  0.00    -0.078 A 
ATOM      4  C2  OXE d   1      -0.436  -0.182   2.412  0.00  0.00    -0.078 A 
ATOM      5  C3  OXE d   1      -0.634  -0.845   1.204  0.00  0.00     0.003 A 
ATOM      6  C4  OXE d   1       0.048  -0.437   0.051  0.00  0.00    -0.002 A 
ATOM      7  C5  OXE d   1       0.847   0.711   0.068  0.00  0.00    -0.002 A 
ATOM      8  C6  OXE d   1       0.955   1.448   1.242  0.00  0.00     0.003 A 
ENDROOT
TORSDOF 0
ENDMDL
