MODEL 1
REMARK minimizedAffinity -3.70063972
REMARK minimizedRMSD -1
REMARK  0 active torsions:
REMARK  status: ('A' for Active; 'I' for Inactive)
ROOT
ATOM      1  C2' OXE d   1      -2.021  -0.679   3.672  0.00  0.00     0.078 C 
ATOM      2  C1' OXE d   1      -3.130  -0.575   1.096  0.00  0.00     0.078 C 
ATOM      3  C1  OXE d   1      -1.639  -0.394   1.227  0.00  0.00    -0.078 A 
ATOM      4  C2  OXE d   1      -1.111  -0.400   2.496  0.00  0.00    -0.078 A 
ATOM      5  C3  OXE d   1       0.266  -0.292   2.670  0.00  0.00     0.003 A 
ATOM      6  C4  OXE d   1       1.100  -0.024   1.578  0.00  0.00    -0.002 A 
ATOM      7  C5  OXE d   1       0.577   0.025   0.281  0.00  0.00    -0.002 A 
ATOM      8  C6  OXE d   1      -0.781  -0.199   0.085  0.00  0.00     0.003 A 
ENDROOT
TORSDOF 0
ENDMDL
