MODEL 1
REMARK minimizedAffinity -3.24762821
REMARK minimizedRMSD -1
REMARK  1 active torsions:
REMARK  status: ('A' for Active; 'I' for Inactive)
REMARK    1  A    between atoms: C1_2  and  C2_3 
ROOT
ATOM      1  C2  UNL d   1       1.719  -0.461   1.891  0.00  0.00    -0.076 A 
ATOM      2  C3  UNL d   1       2.182   0.765   1.382  0.00  0.00     0.004 A 
ATOM      3  C4  UNL d   1       1.503   1.419   0.356  0.00  0.00    -0.003 A 
ATOM      4  C5  UNL d   1       0.348   0.858  -0.178  0.00  0.00     0.000 A 
ATOM      5  C6  UNL d   1      -0.136  -0.349   0.326  0.00  0.00     0.000 A 
ATOM      6  C7  UNL d   1       0.529  -1.013   1.372  0.00  0.00    -0.073 A 
ATOM      7  C8  UNL d   1      -0.034  -2.315   1.872  0.00  0.00     0.078 C 
ENDROOT
BRANCH   1   8
ATOM      8  C1  UNL d   1       2.513  -1.138   2.985  0.00  0.00     0.053 C 
ATOM      9  C   UNL d   1       2.178  -0.598   4.367  0.00  0.00     0.018 C 
ENDBRANCH   1   8
TORSDOF 1
ENDMDL
