MODEL 1
REMARK minimizedAffinity -3.20442939
REMARK minimizedRMSD -1
REMARK  1 active torsions:
REMARK  status: ('A' for Active; 'I' for Inactive)
REMARK    1  A    between atoms: C1_2  and  C2_3 
ROOT
ATOM      1  C2  UNL d   1       0.986  -0.564   1.238  0.00  0.00    -0.076 A 
ATOM      2  C3  UNL d   1       2.312  -0.101   1.192  0.00  0.00     0.004 A 
ATOM      3  C4  UNL d   1       2.665   0.986   0.394  0.00  0.00    -0.003 A 
ATOM      4  C5  UNL d   1       1.698   1.627  -0.372  0.00  0.00     0.000 A 
ATOM      5  C6  UNL d   1       0.374   1.192  -0.325  0.00  0.00     0.000 A 
ATOM      6  C7  UNL d   1      -0.002   0.108   0.487  0.00  0.00    -0.073 A 
ATOM      7  C8  UNL d   1      -1.444  -0.323   0.494  0.00  0.00     0.078 C 
ENDROOT
BRANCH   1   8
ATOM      8  C1  UNL d   1       0.667  -1.764   2.101  0.00  0.00     0.053 C 
ATOM      9  C   UNL d   1       1.824  -2.152   3.009  0.00  0.00     0.018 C 
ENDBRANCH   1   8
TORSDOF 1
ENDMDL
