MODEL 1
REMARK minimizedAffinity -2.87493896
REMARK minimizedRMSD -1
REMARK  1 active torsions:
REMARK  status: ('A' for Active; 'I' for Inactive)
REMARK    1  A    between atoms: C1_2  and  C2_3 
ROOT
ATOM      1  C2  UNL d   1      -0.582   0.195  -1.199  0.00  0.00    -0.076 A 
ATOM      2  C3  UNL d   1      -0.419   0.371  -2.584  0.00  0.00     0.004 A 
ATOM      3  C4  UNL d   1      -1.509   0.304  -3.450  0.00  0.00    -0.003 A 
ATOM      4  C5  UNL d   1      -2.781   0.059  -2.944  0.00  0.00     0.000 A 
ATOM      5  C6  UNL d   1      -2.965  -0.101  -1.571  0.00  0.00     0.000 A 
ATOM      6  C7  UNL d   1      -1.878  -0.019  -0.683  0.00  0.00    -0.073 A 
ATOM      7  C8  UNL d   1      -2.132  -0.205   0.788  0.00  0.00     0.078 C 
ENDROOT
BRANCH   1   8
ATOM      8  C1  UNL d   1       0.641   0.252  -0.313  0.00  0.00     0.053 C 
ATOM      9  C   UNL d   1       1.051   1.678   0.023  0.00  0.00     0.018 C 
ENDBRANCH   1   8
TORSDOF 1
ENDMDL
