MODEL 1
REMARK minimizedAffinity -5.52198935
REMARK minimizedRMSD -1
REMARK  1 active torsions:
REMARK  status: ('A' for Active; 'I' for Inactive)
REMARK    1  A    between atoms: C1_2  and  C2_3 
ROOT
ATOM      1  C2  UNL d   1       0.255  -0.422   0.784  0.00  0.00    -0.076 A 
ATOM      2  C3  UNL d   1       0.309  -1.539   1.636  0.00  0.00     0.004 A 
ATOM      3  C4  UNL d   1       1.422  -1.774   2.441  0.00  0.00    -0.003 A 
ATOM      4  C5  UNL d   1       2.499  -0.896   2.408  0.00  0.00     0.000 A 
ATOM      5  C6  UNL d   1       2.456   0.227   1.582  0.00  0.00     0.000 A 
ATOM      6  C7  UNL d   1       1.334   0.488   0.777  0.00  0.00    -0.073 A 
ATOM      7  C8  UNL d   1       1.344   1.711  -0.099  0.00  0.00     0.078 C 
ENDROOT
BRANCH   1   8
ATOM      8  C1  UNL d   1      -0.967  -0.232  -0.086  0.00  0.00     0.053 C 
ATOM      9  C   UNL d   1      -2.265  -0.374   0.693  0.00  0.00     0.018 C 
ENDBRANCH   1   8
TORSDOF 1
ENDMDL
