MODEL 1
REMARK minimizedAffinity -4.47185326
REMARK minimizedRMSD -1
REMARK  1 active torsions:
REMARK  status: ('A' for Active; 'I' for Inactive)
REMARK    1  A    between atoms: C1_2  and  C2_3 
ROOT
ATOM      1  C2  UNL d   1       1.201   0.099   0.829  0.00  0.00    -0.076 A 
ATOM      2  C3  UNL d   1       0.840  -1.215   1.174  0.00  0.00     0.004 A 
ATOM      3  C4  UNL d   1      -0.460  -1.678   0.977  0.00  0.00    -0.003 A 
ATOM      4  C5  UNL d   1      -1.421  -0.834   0.431  0.00  0.00     0.000 A 
ATOM      5  C6  UNL d   1      -1.076   0.467   0.067  0.00  0.00     0.000 A 
ATOM      6  C7  UNL d   1       0.234   0.944   0.243  0.00  0.00    -0.073 A 
ATOM      7  C8  UNL d   1       0.549   2.358  -0.162  0.00  0.00     0.078 C 
ENDROOT
BRANCH   1   8
ATOM      8  C1  UNL d   1       2.619   0.553   1.091  0.00  0.00     0.053 C 
ATOM      9  C   UNL d   1       3.471  -0.534   1.726  0.00  0.00     0.018 C 
ENDBRANCH   1   8
TORSDOF 1
ENDMDL
