MODEL 1
REMARK minimizedAffinity -3.21802855
REMARK minimizedRMSD -1
REMARK  1 active torsions:
REMARK  status: ('A' for Active; 'I' for Inactive)
REMARK    1  A    between atoms: C1_2  and  C2_3 
ROOT
ATOM      1  C2  UNL d   1       0.507  -0.852   0.793  0.00  0.00    -0.076 A 
ATOM      2  C3  UNL d   1       0.269  -2.081   1.433  0.00  0.00     0.004 A 
ATOM      3  C4  UNL d   1       1.087  -2.518   2.473  0.00  0.00    -0.003 A 
ATOM      4  C5  UNL d   1       2.156  -1.734   2.891  0.00  0.00     0.000 A 
ATOM      5  C6  UNL d   1       2.397  -0.505   2.279  0.00  0.00     0.000 A 
ATOM      6  C7  UNL d   1       1.572  -0.041   1.240  0.00  0.00    -0.073 A 
ATOM      7  C8  UNL d   1       1.882   1.290   0.611  0.00  0.00     0.078 C 
ENDROOT
BRANCH   1   8
ATOM      8  C1  UNL d   1      -0.397  -0.442  -0.348  0.00  0.00     0.053 C 
ATOM      9  C   UNL d   1      -1.637   0.297   0.129  0.00  0.00     0.018 C 
ENDBRANCH   1   8
TORSDOF 1
ENDMDL
