MODEL 1
REMARK minimizedAffinity -2.04859447
REMARK minimizedRMSD -1
REMARK  1 active torsions:
REMARK  status: ('A' for Active; 'I' for Inactive)
REMARK    1  A    between atoms: C1_2  and  C2_3 
ROOT
ATOM      1  C2  UNL d   1       0.238   0.102  -0.192  0.00  0.00    -0.076 A 
ATOM      2  C3  UNL d   1       1.047   1.178  -0.598  0.00  0.00     0.004 A 
ATOM      3  C4  UNL d   1       2.253   1.451   0.045  0.00  0.00    -0.003 A 
ATOM      4  C5  UNL d   1       2.671   0.652   1.103  0.00  0.00     0.000 A 
ATOM      5  C6  UNL d   1       1.891  -0.430   1.508  0.00  0.00     0.000 A 
ATOM      6  C7  UNL d   1       0.680  -0.729   0.860  0.00  0.00    -0.073 A 
ATOM      7  C8  UNL d   1      -0.125  -1.905   1.342  0.00  0.00     0.078 C 
ENDROOT
BRANCH   1   8
ATOM      8  C1  UNL d   1      -1.073  -0.130  -0.908  0.00  0.00     0.053 C 
ATOM      9  C   UNL d   1      -2.254   0.491  -0.177  0.00  0.00     0.018 C 
ENDBRANCH   1   8
TORSDOF 1
ENDMDL
