MODEL 1
REMARK minimizedAffinity -3.90756965
REMARK minimizedRMSD -1
REMARK  0 active torsions:
REMARK  status: ('A' for Active; 'I' for Inactive)
ROOT
ATOM      1  C   UNL d   1       0.411  -1.018  -0.806  0.00  0.00     0.172 C 
ATOM      2  N   UNL d   1       0.986   0.250  -0.423  0.00  0.00    -0.070 N 
ATOM      3  C1  UNL d   1       2.298   0.611  -0.576  0.00  0.00    -0.004 A 
ATOM      4  C2  UNL d   1       2.443   1.892  -0.090  0.00  0.00    -0.047 A 
ATOM      5  C3  UNL d   1       1.174   2.316   0.372  0.00  0.00    -0.047 A 
ATOM      6  C4  UNL d   1       0.291   1.280   0.154  0.00  0.00    -0.004 A 
ENDROOT
TORSDOF 0
ENDMDL
