MODEL 1
REMARK minimizedAffinity 1.24647105
REMARK minimizedRMSD -1
REMARK  0 active torsions:
REMARK  status: ('A' for Active; 'I' for Inactive)
ROOT
ATOM      1  C   UNL d   1       5.998   5.759  -5.773  0.00  0.00     0.172 C 
ATOM      2  N   UNL d   1       5.370   4.861  -4.833  0.00  0.00    -0.070 N 
ATOM      3  C1  UNL d   1       6.000   3.862  -4.140  0.00  0.00    -0.004 A 
ATOM      4  C2  UNL d   1       5.058   3.236  -3.352  0.00  0.00    -0.047 A 
ATOM      5  C3  UNL d   1       3.819   3.880  -3.580  0.00  0.00    -0.047 A 
ATOM      6  C4  UNL d   1       4.041   4.882  -4.501  0.00  0.00    -0.004 A 
ENDROOT
TORSDOF 0
ENDMDL
