MODEL 1
REMARK minimizedAffinity 4.22033072
REMARK minimizedRMSD -1
REMARK  0 active torsions:
REMARK  status: ('A' for Active; 'I' for Inactive)
ROOT
ATOM      1  C   UNL d   1       1.612   0.247   0.288  0.00  0.00     0.172 C 
ATOM      2  N   UNL d   1       0.874   0.064  -0.940  0.00  0.00    -0.070 N 
ATOM      3  C1  UNL d   1       0.553   1.051  -1.833  0.00  0.00    -0.004 A 
ATOM      4  C2  UNL d   1      -0.149   0.472  -2.868  0.00  0.00    -0.047 A 
ATOM      5  C3  UNL d   1      -0.254  -0.911  -2.586  0.00  0.00    -0.047 A 
ATOM      6  C4  UNL d   1       0.388  -1.136  -1.387  0.00  0.00    -0.004 A 
ENDROOT
TORSDOF 0
ENDMDL
