MODEL 1
REMARK minimizedAffinity 1.24770451
REMARK minimizedRMSD -1
REMARK  0 active torsions:
REMARK  status: ('A' for Active; 'I' for Inactive)
ROOT
ATOM      1  C   UNL d   1      -2.338   1.638   2.283  0.00  0.00     0.172 C 
ATOM      2  N   UNL d   1      -0.913   1.829   2.152  0.00  0.00    -0.070 N 
ATOM      3  C1  UNL d   1      -0.255   3.027   2.251  0.00  0.00    -0.004 A 
ATOM      4  C2  UNL d   1       1.089   2.786   2.066  0.00  0.00    -0.047 A 
ATOM      5  C3  UNL d   1       1.245   1.397   1.848  0.00  0.00    -0.047 A 
ATOM      6  C4  UNL d   1      -0.010   0.829   1.906  0.00  0.00    -0.004 A 
ENDROOT
TORSDOF 0
ENDMDL
