MODEL 1
REMARK minimizedAffinity 7.6898284
REMARK minimizedRMSD -1
REMARK  0 active torsions:
REMARK  status: ('A' for Active; 'I' for Inactive)
ROOT
ATOM      1  C   UNL d   1       1.506   3.997   0.710  0.00  0.00     0.172 C 
ATOM      2  N   UNL d   1       1.152   2.723   1.289  0.00  0.00    -0.070 N 
ATOM      3  C1  UNL d   1       0.078   2.488   2.106  0.00  0.00    -0.004 A 
ATOM      4  C2  UNL d   1       0.089   1.152   2.443  0.00  0.00    -0.047 A 
ATOM      5  C3  UNL d   1       1.209   0.564   1.808  0.00  0.00    -0.047 A 
ATOM      6  C4  UNL d   1       1.849   1.559   1.100  0.00  0.00    -0.004 A 
ENDROOT
TORSDOF 0
ENDMDL
