MODEL 1
REMARK minimizedAffinity 3.87286115
REMARK minimizedRMSD -1
REMARK  0 active torsions:
REMARK  status: ('A' for Active; 'I' for Inactive)
ROOT
ATOM      1  C   UNL d   1       2.291  -0.111  -0.357  0.00  0.00     0.172 C 
ATOM      2  N   UNL d   1       1.585   0.294  -1.550  0.00  0.00    -0.070 N 
ATOM      3  C1  UNL d   1       0.996  -0.549  -2.454  0.00  0.00    -0.004 A 
ATOM      4  C2  UNL d   1       0.429   0.223  -3.445  0.00  0.00    -0.047 A 
ATOM      5  C3  UNL d   1       0.687   1.578  -3.125  0.00  0.00    -0.047 A 
ATOM      6  C4  UNL d   1       1.405   1.592  -1.948  0.00  0.00    -0.004 A 
ENDROOT
TORSDOF 0
ENDMDL
