MODEL 1
REMARK minimizedAffinity 3.61189175
REMARK minimizedRMSD -1
REMARK  0 active torsions:
REMARK  status: ('A' for Active; 'I' for Inactive)
ROOT
ATOM      1  C   UNL d   1      -1.795   2.197   2.679  0.00  0.00     0.172 C 
ATOM      2  N   UNL d   1      -0.411   2.146   2.268  0.00  0.00    -0.070 N 
ATOM      3  C1  UNL d   1       0.500   1.196   2.647  0.00  0.00    -0.004 A 
ATOM      4  C2  UNL d   1       1.701   1.499   2.043  0.00  0.00    -0.047 A 
ATOM      5  C3  UNL d   1       1.505   2.672   1.275  0.00  0.00    -0.047 A 
ATOM      6  C4  UNL d   1       0.189   3.050   1.432  0.00  0.00    -0.004 A 
ENDROOT
TORSDOF 0
ENDMDL
