MODEL 1
REMARK minimizedAffinity 2.35729742
REMARK minimizedRMSD -1
REMARK  0 active torsions:
REMARK  status: ('A' for Active; 'I' for Inactive)
ROOT
ATOM      1  C   UNL d   1       3.050   1.904   0.394  0.00  0.00     0.172 C 
ATOM      2  N   UNL d   1       1.823   2.133   1.120  0.00  0.00    -0.070 N 
ATOM      3  C1  UNL d   1       0.997   3.215   0.971  0.00  0.00    -0.004 A 
ATOM      4  C2  UNL d   1      -0.062   3.060   1.839  0.00  0.00    -0.047 A 
ATOM      5  C3  UNL d   1       0.134   1.843   2.534  0.00  0.00    -0.047 A 
ATOM      6  C4  UNL d   1       1.308   1.290   2.069  0.00  0.00    -0.004 A 
ENDROOT
TORSDOF 0
ENDMDL
