MODEL 1
REMARK minimizedAffinity 1.67961287
REMARK minimizedRMSD -1
REMARK  0 active torsions:
REMARK  status: ('A' for Active; 'I' for Inactive)
ROOT
ATOM      1  C   UNL d   1       0.606   2.510   1.997  0.00  0.00     0.172 C 
ATOM      2  N   UNL d   1       1.675   2.009   1.165  0.00  0.00    -0.070 N 
ATOM      3  C1  UNL d   1       2.950   2.507   1.118  0.00  0.00    -0.004 A 
ATOM      4  C2  UNL d   1       3.662   1.758   0.206  0.00  0.00    -0.047 A 
ATOM      5  C3  UNL d   1       2.785   0.776  -0.312  0.00  0.00    -0.047 A 
ATOM      6  C4  UNL d   1       1.562   0.954   0.299  0.00  0.00    -0.004 A 
ENDROOT
TORSDOF 0
ENDMDL
