MODEL 1
REMARK minimizedAffinity 3.8144896
REMARK minimizedRMSD -1
REMARK  0 active torsions:
REMARK  status: ('A' for Active; 'I' for Inactive)
ROOT
ATOM      1  C   UNL d   1       0.275   2.459   2.299  0.00  0.00     0.172 C 
ATOM      2  N   UNL d   1       1.436   2.114   1.514  0.00  0.00    -0.070 N 
ATOM      3  C1  UNL d   1       2.658   2.727   1.583  0.00  0.00    -0.004 A 
ATOM      4  C2  UNL d   1       3.494   2.108   0.679  0.00  0.00    -0.047 A 
ATOM      5  C3  UNL d   1       2.748   1.087   0.044  0.00  0.00    -0.047 A 
ATOM      6  C4  UNL d   1       1.478   1.113   0.579  0.00  0.00    -0.004 A 
ENDROOT
TORSDOF 0
ENDMDL
