MODEL 1
REMARK minimizedAffinity -0.546634674
REMARK minimizedRMSD -1
REMARK  0 active torsions:
REMARK  status: ('A' for Active; 'I' for Inactive)
ROOT
ATOM      1  C   UNL d   1       0.103  -2.192   0.393  0.00  0.00     0.172 C 
ATOM      2  N   UNL d   1       1.077  -1.160   0.130  0.00  0.00    -0.070 N 
ATOM      3  C1  UNL d   1       2.036  -1.196  -0.847  0.00  0.00    -0.004 A 
ATOM      4  C2  UNL d   1       2.761  -0.027  -0.771  0.00  0.00    -0.047 A 
ATOM      5  C3  UNL d   1       2.221   0.738   0.290  0.00  0.00    -0.047 A 
ATOM      6  C4  UNL d   1       1.180   0.014   0.830  0.00  0.00    -0.004 A 
ENDROOT
TORSDOF 0
ENDMDL
