MODEL 1
REMARK minimizedAffinity 4.9899106
REMARK minimizedRMSD -1
REMARK  0 active torsions:
REMARK  status: ('A' for Active; 'I' for Inactive)
ROOT
ATOM      1  C   UNL d   1       1.270  -0.502  -0.391  0.00  0.00     0.172 C 
ATOM      2  N   UNL d   1       1.894   0.692   0.129  0.00  0.00    -0.070 N 
ATOM      3  C1  UNL d   1       3.186   1.083  -0.102  0.00  0.00    -0.004 A 
ATOM      4  C2  UNL d   1       3.393   2.270   0.566  0.00  0.00    -0.047 A 
ATOM      5  C3  UNL d   1       2.184   2.603   1.223  0.00  0.00    -0.047 A 
ATOM      6  C4  UNL d   1       1.273   1.609   0.935  0.00  0.00    -0.004 A 
ENDROOT
TORSDOF 0
ENDMDL
