MODEL 1
REMARK minimizedAffinity 6.49239254
REMARK minimizedRMSD -1
REMARK  0 active torsions:
REMARK  status: ('A' for Active; 'I' for Inactive)
ROOT
ATOM      1  C   UNL d   1       5.967   2.017  -3.745  0.00  0.00     0.172 C 
ATOM      2  N   UNL d   1       5.980   3.429  -4.045  0.00  0.00    -0.070 N 
ATOM      3  C1  UNL d   1       5.989   3.979  -5.299  0.00  0.00    -0.004 A 
ATOM      4  C2  UNL d   1       6.000   5.350  -5.159  0.00  0.00    -0.047 A 
ATOM      5  C3  UNL d   1       5.997   5.634  -3.773  0.00  0.00    -0.047 A 
ATOM      6  C4  UNL d   1       5.984   4.427  -3.106  0.00  0.00    -0.004 A 
ENDROOT
TORSDOF 0
ENDMDL
