MODEL 1
REMARK minimizedAffinity 7.36167002
REMARK minimizedRMSD -1
REMARK  0 active torsions:
REMARK  status: ('A' for Active; 'I' for Inactive)
ROOT
ATOM      1  C   UNL d   1      -5.911  -5.458  -2.078  0.00  0.00     0.172 C 
ATOM      2  N   UNL d   1      -5.927  -4.675  -3.291  0.00  0.00    -0.070 N 
ATOM      3  C1  UNL d   1      -5.969  -3.308  -3.359  0.00  0.00    -0.004 A 
ATOM      4  C2  UNL d   1      -5.970  -2.951  -4.690  0.00  0.00    -0.047 A 
ATOM      5  C3  UNL d   1      -5.929  -4.145  -5.448  0.00  0.00    -0.047 A 
ATOM      6  C4  UNL d   1      -5.903  -5.197  -4.557  0.00  0.00    -0.004 A 
ENDROOT
TORSDOF 0
ENDMDL
