MODEL 1
REMARK minimizedAffinity 2.16807675
REMARK minimizedRMSD -1
REMARK  0 active torsions:
REMARK  status: ('A' for Active; 'I' for Inactive)
ROOT
ATOM      1  C   UNL d   1       5.911   2.532  -3.743  0.00  0.00     0.172 C 
ATOM      2  N   UNL d   1       5.636   3.939  -3.919  0.00  0.00    -0.070 N 
ATOM      3  C1  UNL d   1       6.000   4.693  -5.003  0.00  0.00    -0.004 A 
ATOM      4  C2  UNL d   1       5.554   5.980  -4.790  0.00  0.00    -0.047 A 
ATOM      5  C3  UNL d   1       4.902   6.000  -3.534  0.00  0.00    -0.047 A 
ATOM      6  C4  UNL d   1       4.967   4.723  -3.017  0.00  0.00    -0.004 A 
ENDROOT
TORSDOF 0
ENDMDL
