MODEL 1
REMARK minimizedAffinity 2.22293067
REMARK minimizedRMSD -1
REMARK  0 active torsions:
REMARK  status: ('A' for Active; 'I' for Inactive)
ROOT
ATOM      1  C   UNL d   1       0.274   2.724  -2.842  0.00  0.00     0.172 C 
ATOM      2  N   UNL d   1       0.688   1.435  -2.340  0.00  0.00    -0.070 N 
ATOM      3  C1  UNL d   1       1.518   1.224  -1.271  0.00  0.00    -0.004 A 
ATOM      4  C2  UNL d   1       1.667  -0.137  -1.115  0.00  0.00    -0.047 A 
ATOM      5  C3  UNL d   1       0.900  -0.766  -2.125  0.00  0.00    -0.047 A 
ATOM      6  C4  UNL d   1       0.305   0.231  -2.869  0.00  0.00    -0.004 A 
ENDROOT
TORSDOF 0
ENDMDL
