MODEL 1
REMARK minimizedAffinity 0.645339787
REMARK minimizedRMSD -1
REMARK  2 active torsions:
REMARK  status: ('A' for Active; 'I' for Inactive)
REMARK    1  A    between atoms: C1_2  and  C2_3 
REMARK    2  A    between atoms: C2_3  and  C3_4 
ROOT
ATOM      1  C3  UNL d   1      -3.666   2.286  -5.974  0.00  0.00    -0.075 A 
ATOM      2  C4  UNL d   1      -4.931   2.892  -5.985  0.00  0.00     0.002 A 
ATOM      3  C5  UNL d   1      -5.050   4.282  -6.000  0.00  0.00     0.002 A 
ATOM      4  C6  UNL d   1      -3.909   5.082  -5.993  0.00  0.00    -0.004 A 
ATOM      5  C7  UNL d   1      -2.648   4.490  -5.965  0.00  0.00     0.002 A 
ATOM      6  C8  UNL d   1      -2.526   3.100  -5.955  0.00  0.00     0.002 A 
ENDROOT
BRANCH   1   7
ATOM      7  C2  UNL d   1      -3.530   0.782  -5.988  0.00  0.00     0.056 C 
BRANCH   7   8
ATOM      8  C1  UNL d   1      -4.586   0.052  -5.151  0.00  0.00     0.007 C 
ATOM      9  C   UNL d   1      -5.572  -0.747  -5.992  0.00  0.00     0.009 C 
ENDBRANCH   7   8
ENDBRANCH   1   7
TORSDOF 2
ENDMDL
