MODEL 1
REMARK minimizedAffinity -0.275789618
REMARK minimizedRMSD -1
REMARK  2 active torsions:
REMARK  status: ('A' for Active; 'I' for Inactive)
REMARK    1  A    between atoms: C1_2  and  C2_3 
REMARK    2  A    between atoms: C2_3  and  C3_4 
ROOT
ATOM      1  C3  UNL d   1      -3.582   1.736  -5.927  0.00  0.00    -0.075 A 
ATOM      2  C4  UNL d   1      -4.944   2.070  -5.952  0.00  0.00     0.002 A 
ATOM      3  C5  UNL d   1      -5.345   3.405  -5.993  0.00  0.00     0.002 A 
ATOM      4  C6  UNL d   1      -4.393   4.422  -6.000  0.00  0.00    -0.004 A 
ATOM      5  C7  UNL d   1      -3.038   4.102  -5.958  0.00  0.00     0.002 A 
ATOM      6  C8  UNL d   1      -2.633   2.767  -5.922  0.00  0.00     0.002 A 
ENDROOT
BRANCH   1   7
ATOM      7  C2  UNL d   1      -3.140   0.292  -5.913  0.00  0.00     0.056 C 
BRANCH   7   8
ATOM      8  C1  UNL d   1      -4.086  -0.642  -5.150  0.00  0.00     0.007 C 
ATOM      9  C   UNL d   1      -4.610  -1.791  -6.000  0.00  0.00     0.009 C 
ENDBRANCH   7   8
ENDBRANCH   1   7
TORSDOF 2
ENDMDL
