MODEL 1
REMARK minimizedAffinity -2.17683601
REMARK minimizedRMSD -1
REMARK  2 active torsions:
REMARK  status: ('A' for Active; 'I' for Inactive)
REMARK    1  A    between atoms: C1_2  and  C2_3 
REMARK    2  A    between atoms: C2_3  and  C3_4 
ROOT
ATOM      1  C3  UNL d   1      -3.428   1.842  -5.987  0.00  0.00    -0.075 A 
ATOM      2  C4  UNL d   1      -2.602   2.976  -5.992  0.00  0.00     0.002 A 
ATOM      3  C5  UNL d   1      -3.156   4.256  -5.986  0.00  0.00     0.002 A 
ATOM      4  C6  UNL d   1      -4.539   4.420  -5.985  0.00  0.00    -0.004 A 
ATOM      5  C7  UNL d   1      -5.369   3.301  -5.996  0.00  0.00     0.002 A 
ATOM      6  C8  UNL d   1      -4.818   2.019  -5.998  0.00  0.00     0.002 A 
ENDROOT
BRANCH   1   7
ATOM      7  C2  UNL d   1      -2.834   0.454  -5.963  0.00  0.00     0.056 C 
BRANCH   7   8
ATOM      8  C1  UNL d   1      -3.837  -0.647  -5.603  0.00  0.00     0.007 C 
ATOM      9  C   UNL d   1      -3.367  -2.040  -5.998  0.00  0.00     0.009 C 
ENDBRANCH   7   8
ENDBRANCH   1   7
TORSDOF 2
ENDMDL
