MODEL 1
REMARK minimizedAffinity 11.0081739
REMARK minimizedRMSD -1
REMARK  2 active torsions:
REMARK  status: ('A' for Active; 'I' for Inactive)
REMARK    1  A    between atoms: C1_2  and  C2_3 
REMARK    2  A    between atoms: C2_3  and  C3_4 
ROOT
ATOM      1  C3  UNL d   1      -2.668  -4.459  -5.069  0.00  0.00    -0.075 A 
ATOM      2  C4  UNL d   1      -3.016  -5.738  -5.527  0.00  0.00     0.002 A 
ATOM      3  C5  UNL d   1      -4.305  -5.997  -5.994  0.00  0.00     0.002 A 
ATOM      4  C6  UNL d   1      -5.263  -4.985  -6.000  0.00  0.00    -0.004 A 
ATOM      5  C7  UNL d   1      -4.933  -3.715  -5.532  0.00  0.00     0.002 A 
ATOM      6  C8  UNL d   1      -3.643  -3.453  -5.068  0.00  0.00     0.002 A 
ENDROOT
BRANCH   1   7
ATOM      7  C2  UNL d   1      -1.267  -4.165  -4.590  0.00  0.00     0.056 C 
BRANCH   7   8
ATOM      8  C1  UNL d   1      -1.174  -3.836  -3.096  0.00  0.00     0.007 C 
ATOM      9  C   UNL d   1      -1.273  -5.066  -2.203  0.00  0.00     0.009 C 
ENDBRANCH   7   8
ENDBRANCH   1   7
TORSDOF 2
ENDMDL
