MODEL 1
REMARK minimizedAffinity -0.00517114485
REMARK minimizedRMSD -1
REMARK  2 active torsions:
REMARK  status: ('A' for Active; 'I' for Inactive)
REMARK    1  A    between atoms: C1_2  and  C2_3 
REMARK    2  A    between atoms: C2_3  and  C3_4 
ROOT
ATOM      1  C3  UNL d   1      -3.840   2.156  -5.873  0.00  0.00    -0.075 A 
ATOM      2  C4  UNL d   1      -4.920   1.261  -5.883  0.00  0.00     0.002 A 
ATOM      3  C5  UNL d   1      -4.699  -0.115  -5.938  0.00  0.00     0.002 A 
ATOM      4  C6  UNL d   1      -3.400  -0.614  -5.993  0.00  0.00    -0.004 A 
ATOM      5  C7  UNL d   1      -2.320   0.266  -6.000  0.00  0.00     0.002 A 
ATOM      6  C8  UNL d   1      -2.537   1.644  -5.941  0.00  0.00     0.002 A 
ENDROOT
BRANCH   1   7
ATOM      7  C2  UNL d   1      -4.071   3.645  -5.784  0.00  0.00     0.056 C 
BRANCH   7   8
ATOM      8  C1  UNL d   1      -2.784   4.471  -5.687  0.00  0.00     0.007 C 
ATOM      9  C   UNL d   1      -3.038   5.971  -5.601  0.00  0.00     0.009 C 
ENDBRANCH   7   8
ENDBRANCH   1   7
TORSDOF 2
ENDMDL
