MODEL 1
REMARK minimizedAffinity 1.35334074
REMARK minimizedRMSD -1
REMARK  2 active torsions:
REMARK  status: ('A' for Active; 'I' for Inactive)
REMARK    1  A    between atoms: C1_2  and  C2_3 
REMARK    2  A    between atoms: C2_3  and  C3_4 
ROOT
ATOM      1  C3  UNL d   1       2.885  -0.323  -0.882  0.00  0.00    -0.075 A 
ATOM      2  C4  UNL d   1       3.063   1.060  -0.737  0.00  0.00     0.002 A 
ATOM      3  C5  UNL d   1       2.003   1.873  -0.335  0.00  0.00     0.002 A 
ATOM      4  C6  UNL d   1       0.751   1.315  -0.083  0.00  0.00    -0.004 A 
ATOM      5  C7  UNL d   1       0.558  -0.056  -0.240  0.00  0.00     0.002 A 
ATOM      6  C8  UNL d   1       1.619  -0.871  -0.638  0.00  0.00     0.002 A 
ENDROOT
BRANCH   1   7
ATOM      7  C2  UNL d   1       4.036  -1.212  -1.288  0.00  0.00     0.056 C 
BRANCH   7   8
ATOM      8  C1  UNL d   1       3.606  -2.544  -1.913  0.00  0.00     0.007 C 
ATOM      9  C   UNL d   1       4.754  -3.295  -2.574  0.00  0.00     0.009 C 
ENDBRANCH   7   8
ENDBRANCH   1   7
TORSDOF 2
ENDMDL
