MODEL 1
REMARK minimizedAffinity -0.914418161
REMARK minimizedRMSD -1
REMARK  2 active torsions:
REMARK  status: ('A' for Active; 'I' for Inactive)
REMARK    1  A    between atoms: C1_2  and  C2_3 
REMARK    2  A    between atoms: C2_3  and  C3_4 
ROOT
ATOM      1  C3  UNL d   1      -4.065  -0.762   1.663  0.00  0.00    -0.075 A 
ATOM      2  C4  UNL d   1      -2.749  -1.180   1.421  0.00  0.00     0.002 A 
ATOM      3  C5  UNL d   1      -2.479  -2.506   1.079  0.00  0.00     0.002 A 
ATOM      4  C6  UNL d   1      -3.517  -3.430   0.985  0.00  0.00    -0.004 A 
ATOM      5  C7  UNL d   1      -4.827  -3.029   1.240  0.00  0.00     0.002 A 
ATOM      6  C8  UNL d   1      -5.100  -1.702   1.578  0.00  0.00     0.002 A 
ENDROOT
BRANCH   1   7
ATOM      7  C2  UNL d   1      -4.367   0.678   2.005  0.00  0.00     0.056 C 
BRANCH   7   8
ATOM      8  C1  UNL d   1      -3.146   1.601   1.951  0.00  0.00     0.007 C 
ATOM      9  C   UNL d   1      -3.186   2.711   2.993  0.00  0.00     0.009 C 
ENDBRANCH   7   8
ENDBRANCH   1   7
TORSDOF 2
ENDMDL
