MODEL 1
REMARK minimizedAffinity -3.32994175
REMARK minimizedRMSD -1
REMARK  2 active torsions:
REMARK  status: ('A' for Active; 'I' for Inactive)
REMARK    1  A    between atoms: C1_2  and  C2_3 
REMARK    2  A    between atoms: C2_3  and  C3_4 
ROOT
ATOM      1  C3  UNL d   1      -4.735   0.497  -5.959  0.00  0.00    -0.075 A 
ATOM      2  C4  UNL d   1      -5.671   1.541  -5.991  0.00  0.00     0.002 A 
ATOM      3  C5  UNL d   1      -5.248   2.871  -5.984  0.00  0.00     0.002 A 
ATOM      4  C6  UNL d   1      -3.889   3.173  -5.935  0.00  0.00    -0.004 A 
ATOM      5  C7  UNL d   1      -2.952   2.144  -5.886  0.00  0.00     0.002 A 
ATOM      6  C8  UNL d   1      -3.371   0.813  -5.897  0.00  0.00     0.002 A 
ENDROOT
BRANCH   1   7
ATOM      7  C2  UNL d   1      -5.185  -0.944  -5.996  0.00  0.00     0.056 C 
BRANCH   7   8
ATOM      8  C1  UNL d   1      -4.034  -1.956  -6.000  0.00  0.00     0.007 C 
ATOM      9  C   UNL d   1      -4.508  -3.404  -5.997  0.00  0.00     0.009 C 
ENDBRANCH   7   8
ENDBRANCH   1   7
TORSDOF 2
ENDMDL
