MODEL 1
REMARK minimizedAffinity -3.95460439
REMARK minimizedRMSD -1
REMARK  2 active torsions:
REMARK  status: ('A' for Active; 'I' for Inactive)
REMARK    1  A    between atoms: C1_2  and  C2_3 
REMARK    2  A    between atoms: C2_3  and  C3_4 
ROOT
ATOM      1  C3  UNL d   1      -4.629   1.354  -5.852  0.00  0.00    -0.075 A 
ATOM      2  C4  UNL d   1      -5.221   2.618  -5.989  0.00  0.00     0.002 A 
ATOM      3  C5  UNL d   1      -4.442   3.774  -5.936  0.00  0.00     0.002 A 
ATOM      4  C6  UNL d   1      -3.066   3.683  -5.735  0.00  0.00    -0.004 A 
ATOM      5  C7  UNL d   1      -2.470   2.433  -5.581  0.00  0.00     0.002 A 
ATOM      6  C8  UNL d   1      -3.246   1.274  -5.638  0.00  0.00     0.002 A 
ENDROOT
BRANCH   1   7
ATOM      7  C2  UNL d   1      -5.462   0.097  -5.938  0.00  0.00     0.056 C 
BRANCH   7   8
ATOM      8  C1  UNL d   1      -4.639  -1.195  -5.986  0.00  0.00     0.007 C 
ATOM      9  C   UNL d   1      -5.497  -2.453  -6.000  0.00  0.00     0.009 C 
ENDBRANCH   7   8
ENDBRANCH   1   7
TORSDOF 2
ENDMDL
