MODEL 1
REMARK minimizedAffinity -1.31271613
REMARK minimizedRMSD -1
REMARK  2 active torsions:
REMARK  status: ('A' for Active; 'I' for Inactive)
REMARK    1  A    between atoms: C1_2  and  C2_3 
REMARK    2  A    between atoms: C2_3  and  C3_4 
ROOT
ATOM      1  C3  UNL d   1      -3.691   1.060  -5.977  0.00  0.00    -0.075 A 
ATOM      2  C4  UNL d   1      -5.031   1.474  -5.993  0.00  0.00     0.002 A 
ATOM      3  C5  UNL d   1      -5.352   2.832  -6.000  0.00  0.00     0.002 A 
ATOM      4  C6  UNL d   1      -4.341   3.790  -5.981  0.00  0.00    -0.004 A 
ATOM      5  C7  UNL d   1      -3.007   3.390  -5.948  0.00  0.00     0.002 A 
ATOM      6  C8  UNL d   1      -2.683   2.032  -5.946  0.00  0.00     0.002 A 
ENDROOT
BRANCH   1   7
ATOM      7  C2  UNL d   1      -3.336  -0.408  -5.999  0.00  0.00     0.056 C 
BRANCH   7   8
ATOM      8  C1  UNL d   1      -4.549  -1.343  -5.964  0.00  0.00     0.007 C 
ATOM      9  C   UNL d   1      -4.171  -2.818  -6.000  0.00  0.00     0.009 C 
ENDBRANCH   7   8
ENDBRANCH   1   7
TORSDOF 2
ENDMDL
