MODEL 1
REMARK minimizedAffinity -2.43135619
REMARK minimizedRMSD -1
REMARK  2 active torsions:
REMARK  status: ('A' for Active; 'I' for Inactive)
REMARK    1  A    between atoms: C1_2  and  C2_3 
REMARK    2  A    between atoms: C2_3  and  C3_4 
ROOT
ATOM      1  C3  UNL d   1      -3.189   0.028  -5.961  0.00  0.00    -0.075 A 
ATOM      2  C4  UNL d   1      -2.677  -1.278  -5.961  0.00  0.00     0.002 A 
ATOM      3  C5  UNL d   1      -3.536  -2.376  -5.985  0.00  0.00     0.002 A 
ATOM      4  C6  UNL d   1      -4.916  -2.185  -5.999  0.00  0.00    -0.004 A 
ATOM      5  C7  UNL d   1      -5.437  -0.892  -5.983  0.00  0.00     0.002 A 
ATOM      6  C8  UNL d   1      -4.579   0.209  -5.963  0.00  0.00     0.002 A 
ENDROOT
BRANCH   1   7
ATOM      7  C2  UNL d   1      -2.264   1.221  -5.966  0.00  0.00     0.056 C 
BRANCH   7   8
ATOM      8  C1  UNL d   1      -2.732   2.377  -5.075  0.00  0.00     0.007 C 
ATOM      9  C   UNL d   1      -3.914   3.141  -5.656  0.00  0.00     0.009 C 
ENDBRANCH   7   8
ENDBRANCH   1   7
TORSDOF 2
ENDMDL
