MODEL 1
REMARK minimizedAffinity 2.9381752
REMARK minimizedRMSD -1
REMARK  2 active torsions:
REMARK  status: ('A' for Active; 'I' for Inactive)
REMARK    1  A    between atoms: C1_2  and  C2_3 
REMARK    2  A    between atoms: C2_3  and  C3_4 
ROOT
ATOM      1  C3  UNL d   1      -3.707   1.596  -5.817  0.00  0.00    -0.075 A 
ATOM      2  C4  UNL d   1      -3.192   0.292  -5.851  0.00  0.00     0.002 A 
ATOM      3  C5  UNL d   1      -4.050  -0.808  -5.866  0.00  0.00     0.002 A 
ATOM      4  C6  UNL d   1      -5.430  -0.620  -5.837  0.00  0.00    -0.004 A 
ATOM      5  C7  UNL d   1      -5.952   0.671  -5.787  0.00  0.00     0.002 A 
ATOM      6  C8  UNL d   1      -5.096   1.774  -5.776  0.00  0.00     0.002 A 
ENDROOT
BRANCH   1   7
ATOM      7  C2  UNL d   1      -2.785   2.792  -5.830  0.00  0.00     0.056 C 
BRANCH   7   8
ATOM      8  C1  UNL d   1      -3.507   4.135  -5.981  0.00  0.00     0.007 C 
ATOM      9  C   UNL d   1      -2.672   5.321  -5.516  0.00  0.00     0.009 C 
ENDBRANCH   7   8
ENDBRANCH   1   7
TORSDOF 2
ENDMDL
