MODEL 1
REMARK minimizedAffinity 23.1278133
REMARK minimizedRMSD -1
REMARK  2 active torsions:
REMARK  status: ('A' for Active; 'I' for Inactive)
REMARK    1  A    between atoms: C2'_3  and  C1'_4 
REMARK    2  A    between atoms: C1'_4  and  C1_5 
ROOT
ATOM      1  C1  I4B d   1       4.532   3.216   4.836  0.00  0.00    -0.075 A 
ATOM      2  C2  I4B d   1       3.417   3.988   5.045  0.00  0.00     0.003 A 
ATOM      3  C3  I4B d   1       3.540   5.279   5.613  0.00  0.00     0.002 A 
ATOM      4  C4  I4B d   1       4.783   5.736   6.000  0.00  0.00    -0.004 A 
ATOM      5  C5  I4B d   1       5.915   4.961   5.766  0.00  0.00     0.002 A 
ATOM      6  C6  I4B d   1       5.791   3.698   5.170  0.00  0.00     0.003 A 
ENDROOT
BRANCH   1   7
ATOM      7  C1' I4B d   1       4.362   1.843   4.266  0.00  0.00     0.060 C 
BRANCH   7   8
ATOM      8  C2' I4B d   1       5.224   1.744   3.024  0.00  0.00    -0.013 C 
ATOM      9  C4' I4B d   1       5.889   0.397   2.927  0.00  0.00     0.013 C 
ATOM     10  C3' I4B d   1       4.351   2.003   1.832  0.00  0.00     0.013 C 
ENDBRANCH   7   8
ENDBRANCH   1   7
TORSDOF 2
ENDMDL
