MODEL 1
REMARK minimizedAffinity 13.8402681
REMARK minimizedRMSD -1
REMARK  2 active torsions:
REMARK  status: ('A' for Active; 'I' for Inactive)
REMARK    1  A    between atoms: C2'_3  and  C1'_4 
REMARK    2  A    between atoms: C1'_4  and  C1_5 
ROOT
ATOM      1  C1  I4B d   1      -1.969  -2.633   2.223  0.00  0.00    -0.075 A 
ATOM      2  C2  I4B d   1      -1.234  -3.792   2.236  0.00  0.00     0.003 A 
ATOM      3  C3  I4B d   1      -0.554  -4.218   1.070  0.00  0.00     0.002 A 
ATOM      4  C4  I4B d   1      -0.675  -3.486  -0.093  0.00  0.00    -0.004 A 
ATOM      5  C5  I4B d   1      -1.402  -2.299  -0.098  0.00  0.00     0.002 A 
ATOM      6  C6  I4B d   1      -2.042  -1.862   1.070  0.00  0.00     0.003 A 
ENDROOT
BRANCH   1   7
ATOM      7  C1' I4B d   1      -2.701  -2.230   3.464  0.00  0.00     0.060 C 
BRANCH   7   8
ATOM      8  C2' I4B d   1      -2.020  -1.001   4.030  0.00  0.00    -0.013 C 
ATOM      9  C4' I4B d   1      -3.026  -0.022   4.576  0.00  0.00     0.013 C 
ATOM     10  C3' I4B d   1      -1.067  -1.450   5.097  0.00  0.00     0.013 C 
ENDBRANCH   7   8
ENDBRANCH   1   7
TORSDOF 2
ENDMDL
