MODEL 1
REMARK minimizedAffinity 10.5400839
REMARK minimizedRMSD -1
REMARK  2 active torsions:
REMARK  status: ('A' for Active; 'I' for Inactive)
REMARK    1  A    between atoms: C2'_3  and  C1'_4 
REMARK    2  A    between atoms: C1'_4  and  C1_5 
ROOT
ATOM      1  C1  I4B d   1       2.882   2.134  -0.724  0.00  0.00    -0.075 A 
ATOM      2  C2  I4B d   1       2.393   1.540   0.413  0.00  0.00     0.003 A 
ATOM      3  C3  I4B d   1       2.971   1.828   1.673  0.00  0.00     0.002 A 
ATOM      4  C4  I4B d   1       4.061   2.671   1.744  0.00  0.00    -0.004 A 
ATOM      5  C5  I4B d   1       4.541   3.291   0.593  0.00  0.00     0.002 A 
ATOM      6  C6  I4B d   1       3.940   3.030  -0.647  0.00  0.00     0.003 A 
ENDROOT
BRANCH   1   7
ATOM      7  C1' I4B d   1       2.269   1.782  -2.042  0.00  0.00     0.060 C 
BRANCH   7   8
ATOM      8  C2' I4B d   1       2.395   0.284  -2.230  0.00  0.00    -0.013 C 
ATOM      9  C4' I4B d   1       1.229  -0.268  -3.007  0.00  0.00     0.013 C 
ATOM     10  C3' I4B d   1       3.691   0.014  -2.934  0.00  0.00     0.013 C 
ENDBRANCH   7   8
ENDBRANCH   1   7
TORSDOF 2
ENDMDL
