MODEL 1
REMARK minimizedAffinity 15.0440397
REMARK minimizedRMSD -1
REMARK  2 active torsions:
REMARK  status: ('A' for Active; 'I' for Inactive)
REMARK    1  A    between atoms: C2'_3  and  C1'_4 
REMARK    2  A    between atoms: C1'_4  and  C1_5 
ROOT
ATOM      1  C1  I4B d   1       4.504   3.247   0.733  0.00  0.00    -0.075 A 
ATOM      2  C2  I4B d   1       4.486   4.617   0.817  0.00  0.00     0.003 A 
ATOM      3  C3  I4B d   1       5.223   5.398  -0.106  0.00  0.00     0.002 A 
ATOM      4  C4  I4B d   1       6.000   4.771  -1.059  0.00  0.00    -0.004 A 
ATOM      5  C5  I4B d   1       5.999   3.382  -1.157  0.00  0.00     0.002 A 
ATOM      6  C6  I4B d   1       5.237   2.616  -0.264  0.00  0.00     0.003 A 
ENDROOT
BRANCH   1   7
ATOM      7  C1' I4B d   1       3.740   2.453   1.744  0.00  0.00     0.060 C 
BRANCH   7   8
ATOM      8  C2' I4B d   1       4.589   2.351   2.995  0.00  0.00    -0.013 C 
ATOM      9  C4' I4B d   1       3.755   2.534   4.236  0.00  0.00     0.013 C 
ATOM     10  C3' I4B d   1       5.264   1.012   2.989  0.00  0.00     0.013 C 
ENDBRANCH   7   8
ENDBRANCH   1   7
TORSDOF 2
ENDMDL
