MODEL 1
REMARK minimizedAffinity 2.25197101
REMARK minimizedRMSD -1
REMARK  2 active torsions:
REMARK  status: ('A' for Active; 'I' for Inactive)
REMARK    1  A    between atoms: C2'_3  and  C1'_4 
REMARK    2  A    between atoms: C1'_4  and  C1_5 
ROOT
ATOM      1  C1  I4B d   1      -1.645  -3.089   1.988  0.00  0.00    -0.075 A 
ATOM      2  C2  I4B d   1      -0.972  -4.237   1.653  0.00  0.00     0.003 A 
ATOM      3  C3  I4B d   1      -0.396  -4.376   0.367  0.00  0.00     0.002 A 
ATOM      4  C4  I4B d   1      -0.560  -3.370  -0.563  0.00  0.00    -0.004 A 
ATOM      5  C5  I4B d   1      -1.223  -2.197  -0.214  0.00  0.00     0.002 A 
ATOM      6  C6  I4B d   1      -1.759  -2.050   1.074  0.00  0.00     0.003 A 
ENDROOT
BRANCH   1   7
ATOM      7  C1' I4B d   1      -2.269  -2.990   3.344  0.00  0.00     0.060 C 
BRANCH   7   8
ATOM      8  C2' I4B d   1      -1.417  -2.060   4.183  0.00  0.00    -0.013 C 
ATOM      9  C4' I4B d   1      -2.220  -0.889   4.686  0.00  0.00     0.013 C 
ATOM     10  C3' I4B d   1      -0.847  -2.854   5.321  0.00  0.00     0.013 C 
ENDBRANCH   7   8
ENDBRANCH   1   7
TORSDOF 2
ENDMDL
