MODEL 1
REMARK minimizedAffinity 13.9222097
REMARK minimizedRMSD -1
REMARK  2 active torsions:
REMARK  status: ('A' for Active; 'I' for Inactive)
REMARK    1  A    between atoms: C2'_3  and  C1'_4 
REMARK    2  A    between atoms: C1'_4  and  C1_5 
ROOT
ATOM      1  C1  I4B d   1      -1.495  -2.874   0.230  0.00  0.00    -0.075 A 
ATOM      2  C2  I4B d   1      -2.608  -2.630   0.995  0.00  0.00     0.003 A 
ATOM      3  C3  I4B d   1      -3.589  -1.710   0.554  0.00  0.00     0.002 A 
ATOM      4  C4  I4B d   1      -3.394  -1.023  -0.627  0.00  0.00    -0.004 A 
ATOM      5  C5  I4B d   1      -2.276  -1.289  -1.413  0.00  0.00     0.002 A 
ATOM      6  C6  I4B d   1      -1.327  -2.229  -0.989  0.00  0.00     0.003 A 
ENDROOT
BRANCH   1   7
ATOM      7  C1' I4B d   1      -0.463  -3.828   0.742  0.00  0.00     0.060 C 
BRANCH   7   8
ATOM      8  C2' I4B d   1      -1.092  -5.205   0.811  0.00  0.00    -0.013 C 
ATOM      9  C4' I4B d   1      -1.052  -5.890  -0.529  0.00  0.00     0.013 C 
ATOM     10  C3' I4B d   1      -0.356  -5.999   1.848  0.00  0.00     0.013 C 
ENDBRANCH   7   8
ENDBRANCH   1   7
TORSDOF 2
ENDMDL
