MODEL 1
REMARK minimizedAffinity 6.42867041
REMARK minimizedRMSD -1
REMARK  2 active torsions:
REMARK  status: ('A' for Active; 'I' for Inactive)
REMARK    1  A    between atoms: C2'_3  and  C1'_4 
REMARK    2  A    between atoms: C1'_4  and  C1_5 
ROOT
ATOM      1  C1  I4B d   1      -4.222   3.533  -5.193  0.00  0.00    -0.075 A 
ATOM      2  C2  I4B d   1      -3.765   4.553  -4.397  0.00  0.00     0.003 A 
ATOM      3  C3  I4B d   1      -4.436   5.800  -4.381  0.00  0.00     0.002 A 
ATOM      4  C4  I4B d   1      -5.522   5.998  -5.209  0.00  0.00    -0.004 A 
ATOM      5  C5  I4B d   1      -5.998   4.955  -5.999  0.00  0.00     0.002 A 
ATOM      6  C6  I4B d   1      -5.351   3.710  -5.982  0.00  0.00     0.003 A 
ENDROOT
BRANCH   1   7
ATOM      7  C1' I4B d   1      -3.470   2.240  -5.210  0.00  0.00     0.060 C 
BRANCH   7   8
ATOM      8  C2' I4B d   1      -2.684   2.140  -3.918  0.00  0.00    -0.013 C 
ATOM      9  C4' I4B d   1      -3.069   0.911  -3.139  0.00  0.00     0.013 C 
ATOM     10  C3' I4B d   1      -1.225   2.127  -4.265  0.00  0.00     0.013 C 
ENDBRANCH   7   8
ENDBRANCH   1   7
TORSDOF 2
ENDMDL
