MODEL 1
REMARK minimizedAffinity 13.9390631
REMARK minimizedRMSD -1
REMARK  2 active torsions:
REMARK  status: ('A' for Active; 'I' for Inactive)
REMARK    1  A    between atoms: C2'_3  and  C1'_4 
REMARK    2  A    between atoms: C1'_4  and  C1_5 
ROOT
ATOM      1  C1  I4B d   1       3.531   1.731  -2.193  0.00  0.00    -0.075 A 
ATOM      2  C2  I4B d   1       4.728   1.652  -2.860  0.00  0.00     0.003 A 
ATOM      3  C3  I4B d   1       5.052   0.494  -3.608  0.00  0.00     0.002 A 
ATOM      4  C4  I4B d   1       4.178  -0.574  -3.620  0.00  0.00    -0.004 A 
ATOM      5  C5  I4B d   1       2.955  -0.483  -2.962  0.00  0.00     0.002 A 
ATOM      6  C6  I4B d   1       2.624   0.681  -2.254  0.00  0.00     0.003 A 
ENDROOT
BRANCH   1   7
ATOM      7  C1' I4B d   1       3.236   2.955  -1.385  0.00  0.00     0.060 C 
BRANCH   7   8
ATOM      8  C2' I4B d   1       4.315   3.090  -0.330  0.00  0.00    -0.013 C 
ATOM      9  C4' I4B d   1       4.905   4.475  -0.328  0.00  0.00     0.013 C 
ATOM     10  C3' I4B d   1       3.706   2.758   1.000  0.00  0.00     0.013 C 
ENDBRANCH   7   8
ENDBRANCH   1   7
TORSDOF 2
ENDMDL
