MODEL 1
REMARK minimizedAffinity -0.347306222
REMARK minimizedRMSD -1
REMARK  2 active torsions:
REMARK  status: ('A' for Active; 'I' for Inactive)
REMARK    1  A    between atoms: C2'_3  and  C1'_4 
REMARK    2  A    between atoms: C1'_4  and  C1_5 
ROOT
ATOM      1  C1  I4B d   1      -3.742  -0.172   5.952  0.00  0.00    -0.075 A 
ATOM      2  C2  I4B d   1      -5.112  -0.098   6.000  0.00  0.00     0.003 A 
ATOM      3  C3  I4B d   1      -5.758   1.162   5.998  0.00  0.00     0.002 A 
ATOM      4  C4  I4B d   1      -4.999   2.315   5.999  0.00  0.00    -0.004 A 
ATOM      5  C5  I4B d   1      -3.611   2.238   5.927  0.00  0.00     0.002 A 
ATOM      6  C6  I4B d   1      -2.979   0.987   5.891  0.00  0.00     0.003 A 
ENDROOT
BRANCH   1   7
ATOM      7  C1' I4B d   1      -3.091  -1.518   5.988  0.00  0.00     0.060 C 
BRANCH   7   8
ATOM      8  C2' I4B d   1      -1.867  -1.469   5.098  0.00  0.00    -0.013 C 
ATOM      9  C4' I4B d   1      -0.601  -1.593   5.904  0.00  0.00     0.013 C 
ATOM     10  C3' I4B d   1      -1.979  -2.577   4.094  0.00  0.00     0.013 C 
ENDBRANCH   7   8
ENDBRANCH   1   7
TORSDOF 2
ENDMDL
