MODEL 1
REMARK minimizedAffinity 13.6778364
REMARK minimizedRMSD -1
REMARK  2 active torsions:
REMARK  status: ('A' for Active; 'I' for Inactive)
REMARK    1  A    between atoms: C2'_3  and  C1'_4 
REMARK    2  A    between atoms: C1'_4  and  C1_5 
ROOT
ATOM      1  C1  I4B d   1       0.163   2.514  -4.281  0.00  0.00    -0.075 A 
ATOM      2  C2  I4B d   1      -0.928   2.044  -3.593  0.00  0.00     0.003 A 
ATOM      3  C3  I4B d   1      -2.235   2.268  -4.089  0.00  0.00     0.002 A 
ATOM      4  C4  I4B d   1      -2.407   3.006  -5.242  0.00  0.00    -0.004 A 
ATOM      5  C5  I4B d   1      -1.299   3.462  -5.951  0.00  0.00     0.002 A 
ATOM      6  C6  I4B d   1      -0.005   3.204  -5.474  0.00  0.00     0.003 A 
ENDROOT
BRANCH   1   7
ATOM      7  C1' I4B d   1       1.527   2.287  -3.711  0.00  0.00     0.060 C 
BRANCH   7   8
ATOM      8  C2' I4B d   1       1.364   1.619  -2.361  0.00  0.00    -0.013 C 
ATOM      9  C4' I4B d   1       1.682   0.149  -2.439  0.00  0.00     0.013 C 
ATOM     10  C3' I4B d   1       2.266   2.317  -1.387  0.00  0.00     0.013 C 
ENDBRANCH   7   8
ENDBRANCH   1   7
TORSDOF 2
ENDMDL
