MODEL 1
REMARK minimizedAffinity 19.1301212
REMARK minimizedRMSD -1
REMARK  2 active torsions:
REMARK  status: ('A' for Active; 'I' for Inactive)
REMARK    1  A    between atoms: C2'_3  and  C1'_4 
REMARK    2  A    between atoms: C1'_4  and  C1_5 
ROOT
ATOM      1  C1  I4B d   1       2.792   1.551  -1.253  0.00  0.00    -0.075 A 
ATOM      2  C2  I4B d   1       3.901   0.992  -1.838  0.00  0.00     0.003 A 
ATOM      3  C3  I4B d   1       3.779  -0.179  -2.623  0.00  0.00     0.002 A 
ATOM      4  C4  I4B d   1       2.545  -0.783  -2.755  0.00  0.00    -0.004 A 
ATOM      5  C5  I4B d   1       1.418  -0.202  -2.180  0.00  0.00     0.002 A 
ATOM      6  C6  I4B d   1       1.540   0.979  -1.434  0.00  0.00     0.003 A 
ENDROOT
BRANCH   1   7
ATOM      7  C1' I4B d   1       2.963   2.770  -0.402  0.00  0.00     0.060 C 
BRANCH   7   8
ATOM      8  C2' I4B d   1       4.447   2.977  -0.175  0.00  0.00    -0.013 C 
ATOM      9  C4' I4B d   1       4.785   4.441  -0.081  0.00  0.00     0.013 C 
ATOM     10  C3' I4B d   1       4.829   2.251   1.080  0.00  0.00     0.013 C 
ENDBRANCH   7   8
ENDBRANCH   1   7
TORSDOF 2
ENDMDL
