MODEL 1
REMARK minimizedAffinity 17.5992851
REMARK minimizedRMSD -1
REMARK  2 active torsions:
REMARK  status: ('A' for Active; 'I' for Inactive)
REMARK    1  A    between atoms: C2'_3  and  C1'_4 
REMARK    2  A    between atoms: C1'_4  and  C1_5 
ROOT
ATOM      1  C1  I4B d   1       4.901   3.583   3.420  0.00  0.00    -0.075 A 
ATOM      2  C2  I4B d   1       3.649   3.626   3.983  0.00  0.00     0.003 A 
ATOM      3  C3  I4B d   1       3.471   4.158   5.283  0.00  0.00     0.002 A 
ATOM      4  C4  I4B d   1       4.570   4.586   6.000  0.00  0.00    -0.004 A 
ATOM      5  C5  I4B d   1       5.834   4.562   5.419  0.00  0.00     0.002 A 
ATOM      6  C6  I4B d   1       6.000   4.069   4.116  0.00  0.00     0.003 A 
ENDROOT
BRANCH   1   7
ATOM      7  C1' I4B d   1       5.058   2.984   2.059  0.00  0.00     0.060 C 
BRANCH   7   8
ATOM      8  C2' I4B d   1       4.075   3.669   1.131  0.00  0.00    -0.013 C 
ATOM      9  C4' I4B d   1       4.702   4.862   0.457  0.00  0.00     0.013 C 
ATOM     10  C3' I4B d   1       3.609   2.661   0.124  0.00  0.00     0.013 C 
ENDBRANCH   7   8
ENDBRANCH   1   7
TORSDOF 2
ENDMDL
