MODEL 1
REMARK minimizedAffinity 4.64318275
REMARK minimizedRMSD -1
REMARK  2 active torsions:
REMARK  status: ('A' for Active; 'I' for Inactive)
REMARK    1  A    between atoms: C2'_3  and  C1'_4 
REMARK    2  A    between atoms: C1'_4  and  C1_5 
ROOT
ATOM      1  C1  I4B d   1      -1.948  -2.619   3.179  0.00  0.00    -0.075 A 
ATOM      2  C2  I4B d   1      -2.942  -1.874   2.596  0.00  0.00     0.003 A 
ATOM      3  C3  I4B d   1      -3.038  -1.792   1.185  0.00  0.00     0.002 A 
ATOM      4  C4  I4B d   1      -2.095  -2.427   0.402  0.00  0.00    -0.004 A 
ATOM      5  C5  I4B d   1      -1.102  -3.201   0.995  0.00  0.00     0.002 A 
ATOM      6  C6  I4B d   1      -1.035  -3.308   2.392  0.00  0.00     0.003 A 
ENDROOT
BRANCH   1   7
ATOM      7  C1' I4B d   1      -1.857  -2.656   4.672  0.00  0.00     0.060 C 
BRANCH   7   8
ATOM      8  C2' I4B d   1      -2.772  -3.757   5.168  0.00  0.00    -0.013 C 
ATOM      9  C4' I4B d   1      -2.008  -4.786   5.959  0.00  0.00     0.013 C 
ATOM     10  C3' I4B d   1      -3.848  -3.124   6.000  0.00  0.00     0.013 C 
ENDBRANCH   7   8
ENDBRANCH   1   7
TORSDOF 2
ENDMDL
