MODEL 1
REMARK minimizedAffinity -2.88152742
REMARK minimizedRMSD -1
REMARK  0 active torsions:
REMARK  status: ('A' for Active; 'I' for Inactive)
ROOT
ATOM      1  C   UNL d   1       1.820  -1.352  -1.404  0.00  0.00     0.023 A 
ATOM      2  C1  UNL d   1       0.752  -2.140  -0.975  0.00  0.00     0.003 A 
ATOM      3  C2  UNL d   1      -0.207  -1.609  -0.111  0.00  0.00     0.048 A 
ATOM      4  C3  UNL d   1      -0.093  -0.287   0.319  0.00  0.00     0.023 A 
ATOM      5  C4  UNL d   1       0.973   0.506  -0.108  0.00  0.00     0.048 A 
ATOM      6  C5  UNL d   1       1.930  -0.030  -0.971  0.00  0.00     0.003 A 
ATOM      7  I   UNL d   1      -1.520   0.507   1.605  0.00  0.00    -0.146 I 
ENDROOT
TORSDOF 0
ENDMDL
