MODEL 1
REMARK minimizedAffinity -1.11286271
REMARK minimizedRMSD -1
REMARK  0 active torsions:
REMARK  status: ('A' for Active; 'I' for Inactive)
ROOT
ATOM      1  C   UNL d   1      -0.915  -0.166   0.598  0.00  0.00     0.023 A 
ATOM      2  C1  UNL d   1      -0.088   0.815   0.051  0.00  0.00     0.003 A 
ATOM      3  C2  UNL d   1       1.119   0.456  -0.552  0.00  0.00     0.048 A 
ATOM      4  C3  UNL d   1       1.492  -0.886  -0.607  0.00  0.00     0.023 A 
ATOM      5  C4  UNL d   1       0.667  -1.872  -0.062  0.00  0.00     0.048 A 
ATOM      6  C5  UNL d   1      -0.538  -1.508   0.541  0.00  0.00     0.003 A 
ATOM      7  I   UNL d   1       3.288  -1.423  -1.505  0.00  0.00    -0.146 I 
ENDROOT
TORSDOF 0
ENDMDL
