MODEL 1
REMARK minimizedAffinity -1.93134785
REMARK minimizedRMSD -1
REMARK  0 active torsions:
REMARK  status: ('A' for Active; 'I' for Inactive)
ROOT
ATOM      1  C   UNL d   1       2.732  -0.175  -1.711  0.00  0.00     0.023 A 
ATOM      2  C1  UNL d   1       2.235   1.125  -1.626  0.00  0.00     0.003 A 
ATOM      3  C2  UNL d   1       1.049   1.377  -0.935  0.00  0.00     0.048 A 
ATOM      4  C3  UNL d   1       0.364   0.324  -0.330  0.00  0.00     0.023 A 
ATOM      5  C4  UNL d   1       0.857  -0.979  -0.411  0.00  0.00     0.048 A 
ATOM      6  C5  UNL d   1       2.044  -1.226  -1.104  0.00  0.00     0.003 A 
ATOM      7  I   UNL d   1      -1.403   0.697   0.700  0.00  0.00    -0.146 I 
ENDROOT
TORSDOF 0
ENDMDL
