MODEL 1
REMARK minimizedAffinity -3.37210917
REMARK minimizedRMSD -1
REMARK  0 active torsions:
REMARK  status: ('A' for Active; 'I' for Inactive)
ROOT
ATOM      1  C   UNL d   1       2.668  -0.999  -1.199  0.00  0.00     0.023 A 
ATOM      2  C1  UNL d   1       2.426   0.360  -0.999  0.00  0.00     0.003 A 
ATOM      3  C2  UNL d   1       1.203   0.783  -0.474  0.00  0.00     0.048 A 
ATOM      4  C3  UNL d   1       0.227  -0.159  -0.149  0.00  0.00     0.023 A 
ATOM      5  C4  UNL d   1       0.465  -1.520  -0.346  0.00  0.00     0.048 A 
ATOM      6  C5  UNL d   1       1.689  -1.938  -0.873  0.00  0.00     0.003 A 
ATOM      7  I   UNL d   1      -1.593   0.469   0.633  0.00  0.00    -0.146 I 
ENDROOT
TORSDOF 0
ENDMDL
