MODEL 1
REMARK minimizedAffinity -3.55705738
REMARK minimizedRMSD -1
REMARK  0 active torsions:
REMARK  status: ('A' for Active; 'I' for Inactive)
ROOT
ATOM      1  C   UNL d   1       2.791  -0.886  -1.178  0.00  0.00     0.023 A 
ATOM      2  C1  UNL d   1       2.541   0.465  -0.937  0.00  0.00     0.003 A 
ATOM      3  C2  UNL d   1       1.370   0.853  -0.283  0.00  0.00     0.048 A 
ATOM      4  C3  UNL d   1       0.454  -0.115   0.128  0.00  0.00     0.023 A 
ATOM      5  C4  UNL d   1       0.701  -1.468  -0.111  0.00  0.00     0.048 A 
ATOM      6  C5  UNL d   1       1.872  -1.851  -0.766  0.00  0.00     0.003 A 
ATOM      7  I   UNL d   1      -1.290   0.461   1.101  0.00  0.00    -0.146 I 
ENDROOT
TORSDOF 0
ENDMDL
