MODEL 1
REMARK minimizedAffinity -1.09615445
REMARK minimizedRMSD -1
REMARK  0 active torsions:
REMARK  status: ('A' for Active; 'I' for Inactive)
ROOT
ATOM      1  C   UNL d   1      -1.519  -0.177   0.316  0.00  0.00     0.023 A 
ATOM      2  C1  UNL d   1      -0.761   0.974   0.103  0.00  0.00     0.003 A 
ATOM      3  C2  UNL d   1       0.592   0.870  -0.229  0.00  0.00     0.048 A 
ATOM      4  C3  UNL d   1       1.179  -0.389  -0.348  0.00  0.00     0.023 A 
ATOM      5  C4  UNL d   1       0.424  -1.544  -0.136  0.00  0.00     0.048 A 
ATOM      6  C5  UNL d   1      -0.927  -1.435   0.196  0.00  0.00     0.003 A 
ATOM      7  I   UNL d   1       3.192  -0.547  -0.842  0.00  0.00    -0.146 I 
ENDROOT
TORSDOF 0
ENDMDL
