MODEL 1
REMARK minimizedAffinity -2.93236256
REMARK minimizedRMSD -1
REMARK  0 active torsions:
REMARK  status: ('A' for Active; 'I' for Inactive)
ROOT
ATOM      1  C   UNL d   1       2.268  -0.250  -1.543  0.00  0.00     0.023 A 
ATOM      2  C1  UNL d   1       1.939   1.058  -1.190  0.00  0.00     0.003 A 
ATOM      3  C2  UNL d   1       0.915   1.299  -0.272  0.00  0.00     0.048 A 
ATOM      4  C3  UNL d   1       0.223   0.225   0.289  0.00  0.00     0.023 A 
ATOM      5  C4  UNL d   1       0.550  -1.086  -0.061  0.00  0.00     0.048 A 
ATOM      6  C5  UNL d   1       1.574  -1.321  -0.980  0.00  0.00     0.003 A 
ATOM      7  I   UNL d   1      -1.302   0.580   1.655  0.00  0.00    -0.146 I 
ENDROOT
TORSDOF 0
ENDMDL
