MODEL 1
REMARK minimizedAffinity -4.4996624
REMARK minimizedRMSD -1
REMARK  0 active torsions:
REMARK  status: ('A' for Active; 'I' for Inactive)
ROOT
ATOM      1  C   UNL d   1       2.512  -0.863  -1.308  0.00  0.00     0.023 A 
ATOM      2  C1  UNL d   1       2.245   0.499  -1.167  0.00  0.00     0.003 A 
ATOM      3  C2  UNL d   1       1.107   0.920  -0.476  0.00  0.00     0.048 A 
ATOM      4  C3  UNL d   1       0.241  -0.026   0.072  0.00  0.00     0.023 A 
ATOM      5  C4  UNL d   1       0.504  -1.389  -0.066  0.00  0.00     0.048 A 
ATOM      6  C5  UNL d   1       1.643  -1.806  -0.759  0.00  0.00     0.003 A 
ATOM      7  I   UNL d   1      -1.454   0.599   1.100  0.00  0.00    -0.146 I 
ENDROOT
TORSDOF 0
ENDMDL
