MODEL 1
REMARK minimizedAffinity -3.98622561
REMARK minimizedRMSD -1
REMARK  0 active torsions:
REMARK  status: ('A' for Active; 'I' for Inactive)
ROOT
ATOM      1  C   UNL d   1       2.958  -0.163  -1.383  0.00  0.00     0.023 A 
ATOM      2  C1  UNL d   1       2.466   1.127  -1.184  0.00  0.00     0.003 A 
ATOM      3  C2  UNL d   1       1.202   1.315  -0.622  0.00  0.00     0.048 A 
ATOM      4  C3  UNL d   1       0.435   0.208  -0.261  0.00  0.00     0.023 A 
ATOM      5  C4  UNL d   1       0.924  -1.085  -0.457  0.00  0.00     0.048 A 
ATOM      6  C5  UNL d   1       2.188  -1.268  -1.020  0.00  0.00     0.003 A 
ATOM      7  I   UNL d   1      -1.447   0.484   0.576  0.00  0.00    -0.146 I 
ENDROOT
TORSDOF 0
ENDMDL
