MODEL 1
REMARK minimizedAffinity -3.83984995
REMARK minimizedRMSD -1
REMARK  0 active torsions:
REMARK  status: ('A' for Active; 'I' for Inactive)
ROOT
ATOM      1  C   UNL d   1       2.871  -0.449  -2.084  0.00  0.00     0.023 A 
ATOM      2  C1  UNL d   1       2.277  -1.461  -1.328  0.00  0.00     0.003 A 
ATOM      3  C2  UNL d   1       1.119  -1.197  -0.594  0.00  0.00     0.048 A 
ATOM      4  C3  UNL d   1       0.559   0.079  -0.620  0.00  0.00     0.023 A 
ATOM      5  C4  UNL d   1       1.149   1.094  -1.376  0.00  0.00     0.048 A 
ATOM      6  C5  UNL d   1       2.307   0.826  -2.107  0.00  0.00     0.003 A 
ATOM      7  I   UNL d   1      -1.165   0.474   0.472  0.00  0.00    -0.146 I 
ENDROOT
TORSDOF 0
ENDMDL
