MODEL 1
REMARK minimizedAffinity -4.56681395
REMARK minimizedRMSD -1
REMARK  0 active torsions:
REMARK  status: ('A' for Active; 'I' for Inactive)
ROOT
ATOM      1  C   UNL d   1       2.221  -0.931  -1.530  0.00  0.00     0.023 A 
ATOM      2  C1  UNL d   1       1.606  -1.836  -0.664  0.00  0.00     0.003 A 
ATOM      3  C2  UNL d   1       0.588  -1.406   0.189  0.00  0.00     0.048 A 
ATOM      4  C3  UNL d   1       0.188  -0.070   0.170  0.00  0.00     0.023 A 
ATOM      5  C4  UNL d   1       0.799   0.838  -0.696  0.00  0.00     0.048 A 
ATOM      6  C5  UNL d   1       1.818   0.404  -1.546  0.00  0.00     0.003 A 
ATOM      7  I   UNL d   1      -1.329   0.573   1.437  0.00  0.00    -0.146 I 
ENDROOT
TORSDOF 0
ENDMDL
