MODEL 1
REMARK minimizedAffinity -2.98069954
REMARK minimizedRMSD -1
REMARK  0 active torsions:
REMARK  status: ('A' for Active; 'I' for Inactive)
ROOT
ATOM      1  C   UNL d   1       1.129   0.012  -1.324  0.00  0.00     0.023 A 
ATOM      2  C1  UNL d   1       0.390   1.195  -1.272  0.00  0.00     0.003 A 
ATOM      3  C2  UNL d   1      -0.489   1.425  -0.212  0.00  0.00     0.048 A 
ATOM      4  C3  UNL d   1      -0.624   0.468   0.794  0.00  0.00     0.023 A 
ATOM      5  C4  UNL d   1       0.113  -0.716   0.746  0.00  0.00     0.048 A 
ATOM      6  C5  UNL d   1       0.990  -0.942  -0.316  0.00  0.00     0.003 A 
ATOM      7  I   UNL d   1      -1.932   0.808   2.373  0.00  0.00    -0.146 I 
ENDROOT
TORSDOF 0
ENDMDL
