MODEL 1
REMARK minimizedAffinity -4.08735418
REMARK minimizedRMSD -1
REMARK  0 active torsions:
REMARK  status: ('A' for Active; 'I' for Inactive)
ROOT
ATOM      1  C   UNL d   1      -2.369   1.745   0.862  0.00  0.00     0.020 A 
ATOM      2  C1  UNL d   1      -1.523   2.852   0.835  0.00  0.00     0.020 A 
ATOM      3  C2  UNL d   1      -0.243   2.739   0.287  0.00  0.00     0.034 A 
ATOM      4  C3  UNL d   1       0.193   1.517  -0.237  0.00  0.00     0.017 A 
ATOM      5  C4  UNL d   1      -0.658   0.406  -0.210  0.00  0.00     0.017 A 
ATOM      6  C5  UNL d   1      -1.938   0.524   0.340  0.00  0.00     0.034 A 
ATOM      7 Cl   UNL d   1      -0.190  -1.135  -0.837  0.00  0.00    -0.070 Cl
ATOM      8 Cl1  UNL d   1       1.787   1.450  -0.900  0.00  0.00    -0.070 Cl
ENDROOT
TORSDOF 0
ENDMDL
