MODEL 1
REMARK minimizedAffinity 0.522052288
REMARK minimizedRMSD -1
REMARK  0 active torsions:
REMARK  status: ('A' for Active; 'I' for Inactive)
ROOT
ATOM      1  C   UNL d   1       1.202   0.736  -0.393  0.00  0.00     0.020 A 
ATOM      2  C1  UNL d   1       0.309  -0.332  -0.468  0.00  0.00     0.020 A 
ATOM      3  C2  UNL d   1      -0.912  -0.269   0.207  0.00  0.00     0.034 A 
ATOM      4  C3  UNL d   1      -1.243   0.864   0.959  0.00  0.00     0.017 A 
ATOM      5  C4  UNL d   1      -0.346   1.935   1.034  0.00  0.00     0.017 A 
ATOM      6  C5  UNL d   1       0.875   1.867   0.356  0.00  0.00     0.034 A 
ATOM      7 Cl   UNL d   1      -0.684   3.366   1.942  0.00  0.00    -0.070 Cl
ATOM      8 Cl1  UNL d   1      -2.771   0.873   1.767  0.00  0.00    -0.070 Cl
ENDROOT
TORSDOF 0
ENDMDL
