MODEL 1
REMARK minimizedAffinity -3.13583088
REMARK minimizedRMSD -1
REMARK  0 active torsions:
REMARK  status: ('A' for Active; 'I' for Inactive)
ROOT
ATOM      1  C   UNL d   1       1.841   1.097  -0.561  0.00  0.00     0.020 A 
ATOM      2  C1  UNL d   1       2.310  -0.213  -0.477  0.00  0.00     0.020 A 
ATOM      3  C2  UNL d   1       1.467  -1.228  -0.017  0.00  0.00     0.034 A 
ATOM      4  C3  UNL d   1       0.152  -0.934   0.360  0.00  0.00     0.017 A 
ATOM      5  C4  UNL d   1      -0.317   0.382   0.275  0.00  0.00     0.017 A 
ATOM      6  C5  UNL d   1       0.530   1.394  -0.186  0.00  0.00     0.034 A 
ATOM      7 Cl   UNL d   1      -1.928   0.822   0.723  0.00  0.00    -0.070 Cl
ATOM      8 Cl1  UNL d   1      -0.834  -2.237   0.919  0.00  0.00    -0.070 Cl
ENDROOT
TORSDOF 0
ENDMDL
