MODEL 1
REMARK minimizedAffinity -3.29965615
REMARK minimizedRMSD -1
REMARK  0 active torsions:
REMARK  status: ('A' for Active; 'I' for Inactive)
ROOT
ATOM      1  C   UNL d   1      -1.386   2.086   0.710  0.00  0.00     0.020 A 
ATOM      2  C1  UNL d   1      -0.263   2.902   0.575  0.00  0.00     0.020 A 
ATOM      3  C2  UNL d   1       1.000   2.329   0.411  0.00  0.00     0.034 A 
ATOM      4  C3  UNL d   1       1.143   0.937   0.382  0.00  0.00     0.017 A 
ATOM      5  C4  UNL d   1       0.015   0.119   0.518  0.00  0.00     0.017 A 
ATOM      6  C5  UNL d   1      -1.247   0.698   0.682  0.00  0.00     0.034 A 
ATOM      7 Cl   UNL d   1       0.113  -1.606   0.493  0.00  0.00    -0.070 Cl
ATOM      8 Cl1  UNL d   1       2.735   0.297   0.176  0.00  0.00    -0.070 Cl
ENDROOT
TORSDOF 0
ENDMDL
