MODEL 1
REMARK minimizedAffinity -1.16901946
REMARK minimizedRMSD -1
REMARK  0 active torsions:
REMARK  status: ('A' for Active; 'I' for Inactive)
ROOT
ATOM      1  C   UNL d   1      -1.648   2.489   0.621  0.00  0.00     0.020 A 
ATOM      2  C1  UNL d   1      -0.581   3.107  -0.029  0.00  0.00     0.020 A 
ATOM      3  C2  UNL d   1       0.570   2.376  -0.332  0.00  0.00     0.034 A 
ATOM      4  C3  UNL d   1       0.656   1.023   0.014  0.00  0.00     0.017 A 
ATOM      5  C4  UNL d   1      -0.416   0.403   0.666  0.00  0.00     0.017 A 
ATOM      6  C5  UNL d   1      -1.566   1.140   0.967  0.00  0.00     0.034 A 
ATOM      7 Cl   UNL d   1      -0.384  -1.263   1.125  0.00  0.00    -0.070 Cl
ATOM      8 Cl1  UNL d   1       2.109   0.181  -0.392  0.00  0.00    -0.070 Cl
ENDROOT
TORSDOF 0
ENDMDL
