MODEL 1
REMARK minimizedAffinity -1.75015163
REMARK minimizedRMSD -1
REMARK  0 active torsions:
REMARK  status: ('A' for Active; 'I' for Inactive)
ROOT
ATOM      1  C   UNL d   1       0.697   2.894  -0.673  0.00  0.00     0.020 A 
ATOM      2  C1  UNL d   1       0.522   1.540  -0.957  0.00  0.00     0.020 A 
ATOM      3  C2  UNL d   1      -0.271   0.748  -0.125  0.00  0.00     0.034 A 
ATOM      4  C3  UNL d   1      -0.893   1.309   0.997  0.00  0.00     0.017 A 
ATOM      5  C4  UNL d   1      -0.717   2.668   1.281  0.00  0.00     0.017 A 
ATOM      6  C5  UNL d   1       0.078   3.457   0.444  0.00  0.00     0.034 A 
ATOM      7 Cl   UNL d   1      -1.453   3.432   2.646  0.00  0.00    -0.070 Cl
ATOM      8 Cl1  UNL d   1      -1.861   0.271   1.982  0.00  0.00    -0.070 Cl
ENDROOT
TORSDOF 0
ENDMDL
