MODEL 1
REMARK minimizedAffinity -2.78840423
REMARK minimizedRMSD -1
REMARK  0 active torsions:
REMARK  status: ('A' for Active; 'I' for Inactive)
ROOT
ATOM      1  C   UNL d   1       0.739   2.090  -0.757  0.00  0.00     0.020 A 
ATOM      2  C1  UNL d   1      -0.085   2.895   0.029  0.00  0.00     0.020 A 
ATOM      3  C2  UNL d   1      -0.997   2.310   0.911  0.00  0.00     0.034 A 
ATOM      4  C3  UNL d   1      -1.087   0.917   1.009  0.00  0.00     0.017 A 
ATOM      5  C4  UNL d   1      -0.259   0.110   0.220  0.00  0.00     0.017 A 
ATOM      6  C5  UNL d   1       0.652   0.700  -0.661  0.00  0.00     0.034 A 
ATOM      7 Cl   UNL d   1      -0.312  -1.617   0.286  0.00  0.00    -0.070 Cl
ATOM      8 Cl1  UNL d   1      -2.237   0.262   2.120  0.00  0.00    -0.070 Cl
ENDROOT
TORSDOF 0
ENDMDL
