MODEL 1
REMARK minimizedAffinity 0.421409339
REMARK minimizedRMSD -1
REMARK  0 active torsions:
REMARK  status: ('A' for Active; 'I' for Inactive)
ROOT
ATOM      1  C   UNL d   1       5.789   2.693  -5.528  0.00  0.00     0.020 A 
ATOM      2  C1  UNL d   1       5.979   3.510  -4.414  0.00  0.00     0.020 A 
ATOM      3  C2  UNL d   1       4.879   4.081  -3.772  0.00  0.00     0.034 A 
ATOM      4  C3  UNL d   1       3.584   3.837  -4.242  0.00  0.00     0.017 A 
ATOM      5  C4  UNL d   1       3.394   3.017  -5.360  0.00  0.00     0.017 A 
ATOM      6  C5  UNL d   1       4.500   2.447  -6.000  0.00  0.00     0.034 A 
ATOM      7 Cl   UNL d   1       1.826   2.669  -6.000  0.00  0.00    -0.070 Cl
ATOM      8 Cl1  UNL d   1       2.269   4.576  -3.399  0.00  0.00    -0.070 Cl
ENDROOT
TORSDOF 0
ENDMDL
