MODEL 1
REMARK minimizedAffinity 9.06125164
REMARK minimizedRMSD -1
REMARK  0 active torsions:
REMARK  status: ('A' for Active; 'I' for Inactive)
ROOT
ATOM      1  C   UNL d   1       5.998   2.998  -6.000  0.00  0.00     0.020 A 
ATOM      2  C1  UNL d   1       5.935   4.217  -5.325  0.00  0.00     0.020 A 
ATOM      3  C2  UNL d   1       4.829   4.517  -4.527  0.00  0.00     0.034 A 
ATOM      4  C3  UNL d   1       3.782   3.597  -4.401  0.00  0.00     0.017 A 
ATOM      5  C4  UNL d   1       3.846   2.374  -5.078  0.00  0.00     0.017 A 
ATOM      6  C5  UNL d   1       4.956   2.079  -5.876  0.00  0.00     0.034 A 
ATOM      7 Cl   UNL d   1       2.592   1.189  -4.972  0.00  0.00    -0.070 Cl
ATOM      8 Cl1  UNL d   1       2.445   4.034  -3.397  0.00  0.00    -0.070 Cl
ENDROOT
TORSDOF 0
ENDMDL
