MODEL 1
REMARK minimizedAffinity -2.94206595
REMARK minimizedRMSD -1
REMARK  0 active torsions:
REMARK  status: ('A' for Active; 'I' for Inactive)
ROOT
ATOM      1  C   UNL d   1       0.453  -1.042  -0.360  0.00  0.00     0.020 A 
ATOM      2  C1  UNL d   1       1.364  -0.047  -0.712  0.00  0.00     0.020 A 
ATOM      3  C2  UNL d   1       1.065   1.294  -0.460  0.00  0.00     0.034 A 
ATOM      4  C3  UNL d   1      -0.148   1.642   0.145  0.00  0.00     0.017 A 
ATOM      5  C4  UNL d   1      -1.062   0.642   0.497  0.00  0.00     0.017 A 
ATOM      6  C5  UNL d   1      -0.757  -0.698   0.243  0.00  0.00     0.034 A 
ATOM      7 Cl   UNL d   1      -2.579   0.995   1.247  0.00  0.00    -0.070 Cl
ATOM      8 Cl1  UNL d   1      -0.453   3.320   0.428  0.00  0.00    -0.070 Cl
ENDROOT
TORSDOF 0
ENDMDL
