MODEL 1
REMARK minimizedAffinity -1.89189672
REMARK minimizedRMSD -1
REMARK  0 active torsions:
REMARK  status: ('A' for Active; 'I' for Inactive)
ROOT
ATOM      1  C   UNL d   1       0.264  -1.933  -0.332  0.00  0.00     0.020 A 
ATOM      2  C1  UNL d   1       0.796  -2.138  -1.604  0.00  0.00     0.020 A 
ATOM      3  C2  UNL d   1       0.182  -3.034  -2.482  0.00  0.00     0.034 A 
ATOM      4  C3  UNL d   1      -0.969  -3.727  -2.089  0.00  0.00     0.017 A 
ATOM      5  C4  UNL d   1      -1.502  -3.520  -0.811  0.00  0.00     0.017 A 
ATOM      6  C5  UNL d   1      -0.882  -2.622   0.063  0.00  0.00     0.034 A 
ATOM      7 Cl   UNL d   1      -2.918  -4.340  -0.254  0.00  0.00    -0.070 Cl
ATOM      8 Cl1  UNL d   1      -1.677  -4.819  -3.225  0.00  0.00    -0.070 Cl
ENDROOT
TORSDOF 0
ENDMDL
