MODEL 1
REMARK minimizedAffinity -3.37395358
REMARK minimizedRMSD -1
REMARK  0 active torsions:
REMARK  status: ('A' for Active; 'I' for Inactive)
ROOT
ATOM      1  C   UNL d   1      -0.897  -3.450  -1.283  0.00  0.00     0.020 A 
ATOM      2  C1  UNL d   1       0.112  -2.904  -2.075  0.00  0.00     0.020 A 
ATOM      3  C2  UNL d   1       0.617  -1.635  -1.786  0.00  0.00     0.034 A 
ATOM      4  C3  UNL d   1       0.114  -0.907  -0.701  0.00  0.00     0.017 A 
ATOM      5  C4  UNL d   1      -0.898  -1.457   0.094  0.00  0.00     0.017 A 
ATOM      6  C5  UNL d   1      -1.401  -2.728  -0.200  0.00  0.00     0.034 A 
ATOM      7 Cl   UNL d   1      -1.569  -0.620   1.450  0.00  0.00    -0.070 Cl
ATOM      8 Cl1  UNL d   1       0.786   0.656  -0.400  0.00  0.00    -0.070 Cl
ENDROOT
TORSDOF 0
ENDMDL
