MODEL 1
REMARK minimizedAffinity -2.578578
REMARK minimizedRMSD -1
REMARK  0 active torsions:
REMARK  status: ('A' for Active; 'I' for Inactive)
ROOT
ATOM      1  C   UNL d   1       0.089  -2.244  -0.356  0.00  0.00     0.020 A 
ATOM      2  C1  UNL d   1       1.434  -2.269   0.008  0.00  0.00     0.020 A 
ATOM      3  C2  UNL d   1       2.053  -1.106   0.473  0.00  0.00     0.034 A 
ATOM      4  C3  UNL d   1       1.326   0.085   0.575  0.00  0.00     0.017 A 
ATOM      5  C4  UNL d   1      -0.025   0.109   0.209  0.00  0.00     0.017 A 
ATOM      6  C5  UNL d   1      -0.639  -1.058  -0.256  0.00  0.00     0.034 A 
ATOM      7 Cl   UNL d   1      -0.987   1.541   0.307  0.00  0.00    -0.070 Cl
ATOM      8 Cl1  UNL d   1       2.155   1.485   1.158  0.00  0.00    -0.070 Cl
ENDROOT
TORSDOF 0
ENDMDL
