MODEL 1
REMARK minimizedAffinity -2.52938056
REMARK minimizedRMSD -1
REMARK  0 active torsions:
REMARK  status: ('A' for Active; 'I' for Inactive)
ROOT
ATOM      1  C   UNL d   1       1.293   1.769  -0.836  0.00  0.00     0.020 A 
ATOM      2  C1  UNL d   1       0.270   2.552  -0.303  0.00  0.00     0.020 A 
ATOM      3  C2  UNL d   1      -0.810   1.945   0.341  0.00  0.00     0.034 A 
ATOM      4  C3  UNL d   1      -0.870   0.551   0.454  0.00  0.00     0.017 A 
ATOM      5  C4  UNL d   1       0.157  -0.234  -0.082  0.00  0.00     0.017 A 
ATOM      6  C5  UNL d   1       1.237   0.379  -0.726  0.00  0.00     0.034 A 
ATOM      7 Cl   UNL d   1       0.153  -1.959   0.018  0.00  0.00    -0.070 Cl
ATOM      8 Cl1  UNL d   1      -2.235  -0.131   1.263  0.00  0.00    -0.070 Cl
ENDROOT
TORSDOF 0
ENDMDL
