MODEL 1
REMARK minimizedAffinity -2.32306552
REMARK minimizedRMSD -1
REMARK  0 active torsions:
REMARK  status: ('A' for Active; 'I' for Inactive)
ROOT
ATOM      1  C   UNL d   1      -1.677   2.656   1.116  0.00  0.00     0.020 A 
ATOM      2  C1  UNL d   1      -2.707   1.765   0.816  0.00  0.00     0.020 A 
ATOM      3  C2  UNL d   1      -2.406   0.462   0.413  0.00  0.00     0.034 A 
ATOM      4  C3  UNL d   1      -1.073   0.046   0.310  0.00  0.00     0.017 A 
ATOM      5  C4  UNL d   1      -0.041   0.942   0.612  0.00  0.00     0.017 A 
ATOM      6  C5  UNL d   1      -0.348   2.245   1.015  0.00  0.00     0.034 A 
ATOM      7 Cl   UNL d   1       1.627   0.502   0.509  0.00  0.00    -0.070 Cl
ATOM      8 Cl1  UNL d   1      -0.775  -1.580  -0.193  0.00  0.00    -0.070 Cl
ENDROOT
TORSDOF 0
ENDMDL
