MODEL 1
REMARK minimizedAffinity -3.24454618
REMARK minimizedRMSD -1
REMARK  0 active torsions:
REMARK  status: ('A' for Active; 'I' for Inactive)
ROOT
ATOM      1  C   UNL d   1      -1.644   1.307  -0.053  0.00  0.00     0.020 A 
ATOM      2  C1  UNL d   1      -1.028   2.540   0.153  0.00  0.00     0.020 A 
ATOM      3  C2  UNL d   1       0.354   2.607   0.343  0.00  0.00     0.034 A 
ATOM      4  C3  UNL d   1       1.124   1.438   0.328  0.00  0.00     0.017 A 
ATOM      5  C4  UNL d   1       0.504   0.200   0.121  0.00  0.00     0.017 A 
ATOM      6  C5  UNL d   1      -0.880   0.139  -0.069  0.00  0.00     0.034 A 
ATOM      7 Cl   UNL d   1       1.387  -1.285   0.089  0.00  0.00    -0.070 Cl
ATOM      8 Cl1  UNL d   1       2.827   1.594   0.570  0.00  0.00    -0.070 Cl
ENDROOT
TORSDOF 0
ENDMDL
