MODEL 1
REMARK minimizedAffinity -1.79367149
REMARK minimizedRMSD -1
REMARK  0 active torsions:
REMARK  status: ('A' for Active; 'I' for Inactive)
ROOT
ATOM      1  C   UNL d   1      -0.056  -3.714  -2.188  0.00  0.00     0.020 A 
ATOM      2  C1  UNL d   1      -1.114  -2.822  -2.361  0.00  0.00     0.020 A 
ATOM      3  C2  UNL d   1      -1.244  -1.719  -1.515  0.00  0.00     0.034 A 
ATOM      4  C3  UNL d   1      -0.314  -1.505  -0.491  0.00  0.00     0.017 A 
ATOM      5  C4  UNL d   1       0.748  -2.400  -0.318  0.00  0.00     0.017 A 
ATOM      6  C5  UNL d   1       0.873  -3.503  -1.168  0.00  0.00     0.034 A 
ATOM      7 Cl   UNL d   1       1.935  -2.201   0.923  0.00  0.00    -0.070 Cl
ATOM      8 Cl1  UNL d   1      -0.536  -0.120   0.519  0.00  0.00    -0.070 Cl
ENDROOT
TORSDOF 0
ENDMDL
