MODEL 1
REMARK minimizedAffinity -3.17411733
REMARK minimizedRMSD -1
REMARK  0 active torsions:
REMARK  status: ('A' for Active; 'I' for Inactive)
ROOT
ATOM      1  C   UNL d   1       0.453  -1.294   0.159  0.00  0.00     0.020 A 
ATOM      2  C1  UNL d   1      -0.755  -0.610   0.287  0.00  0.00     0.020 A 
ATOM      3  C2  UNL d   1      -0.781   0.783   0.206  0.00  0.00     0.034 A 
ATOM      4  C3  UNL d   1       0.403   1.499  -0.004  0.00  0.00     0.017 A 
ATOM      5  C4  UNL d   1       1.616   0.812  -0.132  0.00  0.00     0.017 A 
ATOM      6  C5  UNL d   1       1.636  -0.584  -0.050  0.00  0.00     0.034 A 
ATOM      7 Cl   UNL d   1       3.119   1.625  -0.393  0.00  0.00    -0.070 Cl
ATOM      8 Cl1  UNL d   1       0.297   3.221  -0.094  0.00  0.00    -0.070 Cl
ENDROOT
TORSDOF 0
ENDMDL
