MODEL 1
REMARK minimizedAffinity -3.387146
REMARK minimizedRMSD -1
REMARK  0 active torsions:
REMARK  status: ('A' for Active; 'I' for Inactive)
ROOT
ATOM      1  C   UNL d   1      -0.131  -0.922   0.274  0.00  0.00     0.020 A 
ATOM      2  C1  UNL d   1      -1.188  -0.027   0.439  0.00  0.00     0.020 A 
ATOM      3  C2  UNL d   1      -0.983   1.340   0.240  0.00  0.00     0.034 A 
ATOM      4  C3  UNL d   1       0.282   1.816  -0.126  0.00  0.00     0.017 A 
ATOM      5  C4  UNL d   1       1.342   0.917  -0.291  0.00  0.00     0.017 A 
ATOM      6  C5  UNL d   1       1.131  -0.451  -0.090  0.00  0.00     0.034 A 
ATOM      7 Cl   UNL d   1       2.930   1.429  -0.740  0.00  0.00    -0.070 Cl
ATOM      8 Cl1  UNL d   1       0.463   3.519  -0.356  0.00  0.00    -0.070 Cl
ENDROOT
TORSDOF 0
ENDMDL
