MODEL 1
REMARK minimizedAffinity -3.38206935
REMARK minimizedRMSD -1
REMARK  0 active torsions:
REMARK  status: ('A' for Active; 'I' for Inactive)
ROOT
ATOM      1  C   UNL d   1      -0.649  -0.326   0.674  0.00  0.00     0.172 C 
ATOM      2  N   UNL d   1       0.246  -0.104  -0.437  0.00  0.00    -0.070 N 
ATOM      3  C1  UNL d   1       1.334   0.727  -0.432  0.00  0.00    -0.004 A 
ATOM      4  C2  UNL d   1       1.923   0.660  -1.676  0.00  0.00    -0.047 A 
ATOM      5  C3  UNL d   1       1.162  -0.243  -2.457  0.00  0.00    -0.047 A 
ATOM      6  C4  UNL d   1       0.130  -0.701  -1.665  0.00  0.00    -0.004 A 
ENDROOT
TORSDOF 0
ENDMDL
