MODEL 1
REMARK minimizedAffinity -2.69237518
REMARK minimizedRMSD -1
REMARK  0 active torsions:
REMARK  status: ('A' for Active; 'I' for Inactive)
ROOT
ATOM      1  C   UNL d   1      -0.840   0.065   0.507  0.00  0.00     0.172 C 
ATOM      2  N   UNL d   1       0.163   0.175  -0.526  0.00  0.00    -0.070 N 
ATOM      3  C1  UNL d   1       0.706  -0.869  -1.226  0.00  0.00    -0.004 A 
ATOM      4  C2  UNL d   1       1.621  -0.350  -2.116  0.00  0.00    -0.047 A 
ATOM      5  C3  UNL d   1       1.630   1.054  -1.944  0.00  0.00    -0.047 A 
ATOM      6  C4  UNL d   1       0.718   1.352  -0.953  0.00  0.00    -0.004 A 
ENDROOT
TORSDOF 0
ENDMDL
