MODEL 1
REMARK minimizedAffinity -3.13729954
REMARK minimizedRMSD -1
REMARK  0 active torsions:
REMARK  status: ('A' for Active; 'I' for Inactive)
ROOT
ATOM      1  C   UNL d   1      -0.198  -0.151   0.592  0.00  0.00     0.172 C 
ATOM      2  N   UNL d   1       0.667   0.292  -0.476  0.00  0.00    -0.070 N 
ATOM      3  C1  UNL d   1       1.713  -0.418  -1.002  0.00  0.00    -0.004 A 
ATOM      4  C2  UNL d   1       2.283   0.345  -1.998  0.00  0.00    -0.047 A 
ATOM      5  C3  UNL d   1       1.555   1.557  -2.072  0.00  0.00    -0.047 A 
ATOM      6  C4  UNL d   1       0.560   1.497  -1.119  0.00  0.00    -0.004 A 
ENDROOT
TORSDOF 0
ENDMDL
