MODEL 1
REMARK minimizedAffinity -2.62589335
REMARK minimizedRMSD -1
REMARK  0 active torsions:
REMARK  status: ('A' for Active; 'I' for Inactive)
ROOT
ATOM      1  C   UNL d   1       1.427   0.531  -1.341  0.00  0.00     0.172 C 
ATOM      2  N   UNL d   1       0.500   0.220  -0.278  0.00  0.00    -0.070 N 
ATOM      3  C1  UNL d   1      -0.027  -1.016  -0.016  0.00  0.00    -0.004 A 
ATOM      4  C2  UNL d   1      -0.863  -0.895   1.073  0.00  0.00    -0.047 A 
ATOM      5  C3  UNL d   1      -0.838   0.460   1.479  0.00  0.00    -0.047 A 
ATOM      6  C4  UNL d   1       0.014   1.128   0.625  0.00  0.00    -0.004 A 
ENDROOT
TORSDOF 0
ENDMDL
