MODEL 1
REMARK minimizedAffinity -3.4792366
REMARK minimizedRMSD -1
REMARK  0 active torsions:
REMARK  status: ('A' for Active; 'I' for Inactive)
ROOT
ATOM      1  C   UNL d   1       1.664  -0.026  -2.834  0.00  0.00     0.172 C 
ATOM      2  N   UNL d   1       1.177  -0.257  -1.494  0.00  0.00    -0.070 N 
ATOM      3  C1  UNL d   1       1.099   0.683  -0.501  0.00  0.00    -0.004 A 
ATOM      4  C2  UNL d   1       0.584   0.070   0.621  0.00  0.00    -0.047 A 
ATOM      5  C3  UNL d   1       0.347  -1.286   0.291  0.00  0.00    -0.047 A 
ATOM      6  C4  UNL d   1       0.723  -1.460  -1.024  0.00  0.00    -0.004 A 
ENDROOT
TORSDOF 0
ENDMDL
