MODEL 1
REMARK minimizedAffinity -3.51703358
REMARK minimizedRMSD -1
REMARK  0 active torsions:
REMARK  status: ('A' for Active; 'I' for Inactive)
ROOT
ATOM      1  C   UNL d   1       0.793   0.675   0.619  0.00  0.00     0.172 C 
ATOM      2  N   UNL d   1       0.654  -0.374  -0.363  0.00  0.00    -0.070 N 
ATOM      3  C1  UNL d   1       1.003  -0.282  -1.684  0.00  0.00    -0.004 A 
ATOM      4  C2  UNL d   1       0.716  -1.491  -2.281  0.00  0.00    -0.047 A 
ATOM      5  C3  UNL d   1       0.176  -2.338  -1.285  0.00  0.00    -0.047 A 
ATOM      6  C4  UNL d   1       0.149  -1.621  -0.107  0.00  0.00    -0.004 A 
ENDROOT
TORSDOF 0
ENDMDL
