MODEL 1
REMARK minimizedAffinity -2.29780221
REMARK minimizedRMSD -1
REMARK  0 active torsions:
REMARK  status: ('A' for Active; 'I' for Inactive)
ROOT
ATOM      1  C   UNL d   1      -2.260   0.318   1.781  0.00  0.00     0.172 C 
ATOM      2  N   UNL d   1      -1.179   0.006   0.876  0.00  0.00    -0.070 N 
ATOM      3  C1  UNL d   1      -0.145  -0.854   1.134  0.00  0.00    -0.004 A 
ATOM      4  C2  UNL d   1       0.672  -0.877   0.024  0.00  0.00    -0.047 A 
ATOM      5  C3  UNL d   1       0.110   0.001  -0.933  0.00  0.00    -0.047 A 
ATOM      6  C4  UNL d   1      -1.035   0.534  -0.380  0.00  0.00    -0.004 A 
ENDROOT
TORSDOF 0
ENDMDL
