MODEL 1
REMARK minimizedAffinity -3.68688869
REMARK minimizedRMSD -1
REMARK  0 active torsions:
REMARK  status: ('A' for Active; 'I' for Inactive)
ROOT
ATOM      1  C   UNL d   1      -0.462  -0.266   0.616  0.00  0.00     0.172 C 
ATOM      2  N   UNL d   1       0.395  -0.188  -0.544  0.00  0.00    -0.070 N 
ATOM      3  C1  UNL d   1       1.137   0.900  -0.916  0.00  0.00    -0.004 A 
ATOM      4  C2  UNL d   1       1.814   0.574  -2.072  0.00  0.00    -0.047 A 
ATOM      5  C3  UNL d   1       1.465  -0.756  -2.406  0.00  0.00    -0.047 A 
ATOM      6  C4  UNL d   1       0.585  -1.204  -1.444  0.00  0.00    -0.004 A 
ENDROOT
TORSDOF 0
ENDMDL
