MODEL 1
REMARK minimizedAffinity -3.54319334
REMARK minimizedRMSD -1
REMARK  0 active torsions:
REMARK  status: ('A' for Active; 'I' for Inactive)
ROOT
ATOM      1  C   UNL d   1      -0.678  -0.033   1.368  0.00  0.00     0.172 C 
ATOM      2  N   UNL d   1       0.042   0.179   0.134  0.00  0.00    -0.070 N 
ATOM      3  C1  UNL d   1       0.809   1.273  -0.165  0.00  0.00    -0.004 A 
ATOM      4  C2  UNL d   1       1.324   1.094  -1.431  0.00  0.00    -0.047 A 
ATOM      5  C3  UNL d   1       0.850  -0.150  -1.909  0.00  0.00    -0.047 A 
ATOM      6  C4  UNL d   1       0.058  -0.696  -0.920  0.00  0.00    -0.004 A 
ENDROOT
TORSDOF 0
ENDMDL
