MODEL 1
REMARK minimizedAffinity -3.88629317
REMARK minimizedRMSD -1
REMARK  0 active torsions:
REMARK  status: ('A' for Active; 'I' for Inactive)
ROOT
ATOM      1  C   UNL d   1       1.466   0.265  -2.557  0.00  0.00     0.172 C 
ATOM      2  N   UNL d   1       0.762   0.260  -1.296  0.00  0.00    -0.070 N 
ATOM      3  C1  UNL d   1       0.128  -0.818  -0.740  0.00  0.00    -0.004 A 
ATOM      4  C2  UNL d   1      -0.418  -0.414   0.459  0.00  0.00    -0.047 A 
ATOM      5  C3  UNL d   1      -0.102   0.955   0.629  0.00  0.00    -0.047 A 
ATOM      6  C4  UNL d   1       0.629   1.347  -0.473  0.00  0.00    -0.004 A 
ENDROOT
TORSDOF 0
ENDMDL
