MODEL 1
REMARK minimizedAffinity -3.93261886
REMARK minimizedRMSD -1
REMARK  0 active torsions:
REMARK  status: ('A' for Active; 'I' for Inactive)
ROOT
ATOM      1  C   UNL d   1      -0.120  -0.056   0.236  0.00  0.00     0.172 C 
ATOM      2  N   UNL d   1       0.681  -0.348  -0.929  0.00  0.00    -0.070 N 
ATOM      3  C1  UNL d   1       0.826  -1.580  -1.510  0.00  0.00    -0.004 A 
ATOM      4  C2  UNL d   1       1.667  -1.440  -2.592  0.00  0.00    -0.047 A 
ATOM      5  C3  UNL d   1       2.041  -0.077  -2.664  0.00  0.00    -0.047 A 
ATOM      6  C4  UNL d   1       1.417   0.576  -1.622  0.00  0.00    -0.004 A 
ENDROOT
TORSDOF 0
ENDMDL
