MODEL 1
REMARK minimizedAffinity -2.7668798
REMARK minimizedRMSD -1
REMARK  0 active torsions:
REMARK  status: ('A' for Active; 'I' for Inactive)
ROOT
ATOM      1  C   UNL d   1      -0.493   0.002   1.006  0.00  0.00     0.172 C 
ATOM      2  N   UNL d   1       0.470  -0.030  -0.069  0.00  0.00    -0.070 N 
ATOM      3  C1  UNL d   1       0.935  -1.157  -0.692  0.00  0.00    -0.004 A 
ATOM      4  C2  UNL d   1       1.835  -0.764  -1.659  0.00  0.00    -0.047 A 
ATOM      5  C3  UNL d   1       1.914   0.648  -1.616  0.00  0.00    -0.047 A 
ATOM      6  C4  UNL d   1       1.059   1.077  -0.623  0.00  0.00    -0.004 A 
ENDROOT
TORSDOF 0
ENDMDL
