MODEL 1
REMARK minimizedAffinity -2.29213285
REMARK minimizedRMSD -1
REMARK  0 active torsions:
REMARK  status: ('A' for Active; 'I' for Inactive)
ROOT
ATOM      1  C   UNL d   1       2.703  -0.329  -2.310  0.00  0.00     0.172 C 
ATOM      2  N   UNL d   1       1.701  -0.479  -1.281  0.00  0.00    -0.070 N 
ATOM      3  C1  UNL d   1       1.046   0.545  -0.649  0.00  0.00    -0.004 A 
ATOM      4  C2  UNL d   1       0.174  -0.011   0.261  0.00  0.00    -0.047 A 
ATOM      5  C3  UNL d   1       0.310  -1.417   0.175  0.00  0.00    -0.047 A 
ATOM      6  C4  UNL d   1       1.262  -1.679  -0.787  0.00  0.00    -0.004 A 
ENDROOT
TORSDOF 0
ENDMDL
