MODEL 1
REMARK minimizedAffinity -3.59416604
REMARK minimizedRMSD -1
REMARK  0 active torsions:
REMARK  status: ('A' for Active; 'I' for Inactive)
ROOT
ATOM      1  C   UNL d   1       1.188  -2.511  -0.600  0.00  0.00     0.172 C 
ATOM      2  N   UNL d   1       1.191  -1.069  -0.686  0.00  0.00    -0.070 N 
ATOM      3  C1  UNL d   1       0.437  -0.222   0.080  0.00  0.00    -0.004 A 
ATOM      4  C2  UNL d   1       0.728   1.069  -0.306  0.00  0.00    -0.047 A 
ATOM      5  C3  UNL d   1       1.690   0.994  -1.341  0.00  0.00    -0.047 A 
ATOM      6  C4  UNL d   1       1.959  -0.341  -1.556  0.00  0.00    -0.004 A 
ENDROOT
TORSDOF 0
ENDMDL
