MODEL 1
REMARK minimizedAffinity -1.60034359
REMARK minimizedRMSD -1
REMARK  0 active torsions:
REMARK  status: ('A' for Active; 'I' for Inactive)
ROOT
ATOM      1  C   UNL d   1      -5.160   1.822  -5.878  0.00  0.00     0.172 C 
ATOM      2  N   UNL d   1      -4.989   3.256  -5.924  0.00  0.00    -0.070 N 
ATOM      3  C1  UNL d   1      -5.998   4.180  -5.965  0.00  0.00    -0.004 A 
ATOM      4  C2  UNL d   1      -5.424   5.432  -6.000  0.00  0.00    -0.047 A 
ATOM      5  C3  UNL d   1      -4.020   5.254  -5.981  0.00  0.00    -0.047 A 
ATOM      6  C4  UNL d   1      -3.778   3.897  -5.934  0.00  0.00    -0.004 A 
ENDROOT
TORSDOF 0
ENDMDL
