MODEL 1
REMARK minimizedAffinity -4.05379534
REMARK minimizedRMSD -1
REMARK  0 active torsions:
REMARK  status: ('A' for Active; 'I' for Inactive)
ROOT
ATOM      1  C   UNL d   1       1.836  -3.094  -1.507  0.00  0.00     0.172 C 
ATOM      2  N   UNL d   1       1.419  -1.744  -1.808  0.00  0.00    -0.070 N 
ATOM      3  C1  UNL d   1       1.923  -0.958  -2.810  0.00  0.00    -0.004 A 
ATOM      4  C2  UNL d   1       1.266   0.252  -2.767  0.00  0.00    -0.047 A 
ATOM      5  C3  UNL d   1       0.335   0.192  -1.703  0.00  0.00    -0.047 A 
ATOM      6  C4  UNL d   1       0.452  -1.055  -1.126  0.00  0.00    -0.004 A 
ENDROOT
TORSDOF 0
ENDMDL
