MODEL 1
REMARK minimizedAffinity -1.30235541
REMARK minimizedRMSD -1
REMARK  0 active torsions:
REMARK  status: ('A' for Active; 'I' for Inactive)
ROOT
ATOM      1  N1  IND d   1       0.434   0.200   0.003  0.00  0.00    -0.196 N 
ATOM      2  C2  IND d   1      -0.321  -0.642  -0.765  0.00  0.00     0.054 A 
ATOM      3  C3  IND d   1      -1.104  -1.418   0.017  0.00  0.00    -0.031 A 
ATOM      4  C4  IND d   1      -1.384  -1.405   2.576  0.00  0.00     0.051 A 
ATOM      5  C5  IND d   1      -0.880  -0.836   3.712  0.00  0.00    -0.031 A 
ATOM      6  C6  IND d   1       0.106   0.128   3.669  0.00  0.00     0.015 A 
ATOM      7  C7  IND d   1       0.619   0.570   2.482  0.00  0.00    -0.016 A 
ATOM      8  C8  IND d   1       0.114  -0.010   1.327  0.00  0.00    -0.047 A 
ATOM      9  C9  IND d   1      -0.856  -1.020   1.366  0.00  0.00    -0.096 A 
ATOM     10  HN1 IND d   1       1.011   0.765  -0.291  0.00  0.00     0.298 HD
ENDROOT
TORSDOF 0
ENDMDL
