MODEL 1
REMARK minimizedAffinity 2.16656995
REMARK minimizedRMSD -1
REMARK  0 active torsions:
REMARK  status: ('A' for Active; 'I' for Inactive)
ROOT
ATOM      1  N1  IND d   1       0.357   0.706  -1.770  0.00  0.00    -0.196 N 
ATOM      2  C2  IND d   1       1.283   1.149  -0.868  0.00  0.00     0.054 A 
ATOM      3  C3  IND d   1       0.899   0.840   0.391  0.00  0.00    -0.031 A 
ATOM      4  C4  IND d   1      -1.161  -0.478   1.195  0.00  0.00     0.051 A 
ATOM      5  C5  IND d   1      -2.314  -1.056   0.743  0.00  0.00    -0.031 A 
ATOM      6  C6  IND d   1      -2.641  -1.080  -0.597  0.00  0.00     0.015 A 
ATOM      7  C7  IND d   1      -1.818  -0.533  -1.541  0.00  0.00    -0.016 A 
ATOM      8  C8  IND d   1      -0.650   0.061  -1.085  0.00  0.00    -0.047 A 
ATOM      9  C9  IND d   1      -0.333   0.125   0.278  0.00  0.00    -0.096 A 
ATOM     10  HN1 IND d   1       0.396   0.811  -2.623  0.00  0.00     0.298 HD
ENDROOT
TORSDOF 0
ENDMDL
