MODEL 1
REMARK minimizedAffinity -4.4487381
REMARK minimizedRMSD -1
REMARK  0 active torsions:
REMARK  status: ('A' for Active; 'I' for Inactive)
ROOT
ATOM      1  N1  IND d   1       1.416   1.481   0.191  0.00  0.00    -0.196 N 
ATOM      2  C2  IND d   1       0.935   1.381  -1.085  0.00  0.00     0.054 A 
ATOM      3  C3  IND d   1       0.017   0.392  -1.166  0.00  0.00    -0.031 A 
ATOM      4  C4  IND d   1      -0.925  -1.121   0.692  0.00  0.00     0.051 A 
ATOM      5  C5  IND d   1      -0.767  -1.428   2.014  0.00  0.00    -0.031 A 
ATOM      6  C6  IND d   1       0.142  -0.766   2.813  0.00  0.00     0.015 A 
ATOM      7  C7  IND d   1       0.924   0.240   2.320  0.00  0.00    -0.016 A 
ATOM      8  C8  IND d   1       0.772   0.550   0.976  0.00  0.00    -0.047 A 
ATOM      9  C9  IND d   1      -0.119  -0.147   0.150  0.00  0.00    -0.096 A 
ATOM     10  HN1 IND d   1       2.019   2.033   0.458  0.00  0.00     0.298 HD
ENDROOT
TORSDOF 0
ENDMDL
