MODEL 1
REMARK minimizedAffinity -4.09017849
REMARK minimizedRMSD -1
REMARK  0 active torsions:
REMARK  status: ('A' for Active; 'I' for Inactive)
ROOT
ATOM      1  N1  IND d   1       0.814   0.893  -0.177  0.00  0.00    -0.196 N 
ATOM      2  C2  IND d   1       0.374   0.001  -1.115  0.00  0.00     0.054 A 
ATOM      3  C3  IND d   1      -0.325  -0.995  -0.525  0.00  0.00    -0.031 A 
ATOM      4  C4  IND d   1      -0.956  -1.306   1.951  0.00  0.00     0.051 A 
ATOM      5  C5  IND d   1      -0.750  -0.769   3.191  0.00  0.00    -0.031 A 
ATOM      6  C6  IND d   1       0.000   0.374   3.375  0.00  0.00     0.015 A 
ATOM      7  C7  IND d   1       0.566   1.032   2.320  0.00  0.00    -0.016 A 
ATOM      8  C8  IND d   1       0.365   0.486   1.060  0.00  0.00    -0.047 A 
ATOM      9  C9  IND d   1      -0.360  -0.698   0.872  0.00  0.00    -0.096 A 
ATOM     10  HN1 IND d   1       1.290   1.591  -0.334  0.00  0.00     0.298 HD
ENDROOT
TORSDOF 0
ENDMDL
