MODEL 1
REMARK minimizedAffinity -1.64648449
REMARK minimizedRMSD -1
REMARK  0 active torsions:
REMARK  status: ('A' for Active; 'I' for Inactive)
ROOT
ATOM      1  N1  IND d   1      -0.531  -1.018  -1.222  0.00  0.00    -0.196 N 
ATOM      2  C2  IND d   1       0.096  -0.210  -2.129  0.00  0.00     0.054 A 
ATOM      3  C3  IND d   1       0.834   0.727  -1.493  0.00  0.00    -0.031 A 
ATOM      4  C4  IND d   1       1.237   1.057   1.028  0.00  0.00     0.051 A 
ATOM      5  C5  IND d   1       0.849   0.588   2.251  0.00  0.00    -0.031 A 
ATOM      6  C6  IND d   1      -0.035  -0.463   2.382  0.00  0.00     0.015 A 
ATOM      7  C7  IND d   1      -0.557  -1.095   1.289  0.00  0.00    -0.016 A 
ATOM      8  C8  IND d   1      -0.170  -0.617   0.045  0.00  0.00    -0.047 A 
ATOM      9  C9  IND d   1       0.693   0.477  -0.094  0.00  0.00    -0.096 A 
ATOM     10  HN1 IND d   1      -1.062  -1.668  -1.412  0.00  0.00     0.298 HD
ENDROOT
TORSDOF 0
ENDMDL
