MODEL 1
REMARK minimizedAffinity -6.04299402
REMARK minimizedRMSD -1
REMARK  0 active torsions:
REMARK  status: ('A' for Active; 'I' for Inactive)
ROOT
ATOM      1  N1  IND d   1       1.308   0.364   2.061  0.00  0.00    -0.196 N 
ATOM      2  C2  IND d   1       1.699   0.306   0.753  0.00  0.00     0.054 A 
ATOM      3  C3  IND d   1       0.619   0.235  -0.058  0.00  0.00    -0.031 A 
ATOM      4  C4  IND d   1      -1.884   0.302   0.542  0.00  0.00     0.051 A 
ATOM      5  C5  IND d   1      -2.735   0.314   1.611  0.00  0.00    -0.031 A 
ATOM      6  C6  IND d   1      -2.273   0.346   2.911  0.00  0.00     0.015 A 
ATOM      7  C7  IND d   1      -0.936   0.379   3.191  0.00  0.00    -0.016 A 
ATOM      8  C8  IND d   1      -0.069   0.361   2.108  0.00  0.00    -0.047 A 
ATOM      9  C9  IND d   1      -0.531   0.285   0.788  0.00  0.00    -0.096 A 
ATOM     10  HN1 IND d   1       1.834   0.397   2.741  0.00  0.00     0.298 HD
ENDROOT
TORSDOF 0
ENDMDL
