MODEL 1
REMARK minimizedAffinity -5.04134035
REMARK minimizedRMSD -1
REMARK  0 active torsions:
REMARK  status: ('A' for Active; 'I' for Inactive)
ROOT
ATOM      1  N1  IND d   1       1.076   1.604   0.934  0.00  0.00    -0.196 N 
ATOM      2  C2  IND d   1       0.908   1.324  -0.394  0.00  0.00     0.054 A 
ATOM      3  C3  IND d   1       0.056   0.287  -0.552  0.00  0.00    -0.031 A 
ATOM      4  C4  IND d   1      -1.258  -1.036   1.223  0.00  0.00     0.051 A 
ATOM      5  C5  IND d   1      -1.406  -1.171   2.575  0.00  0.00    -0.031 A 
ATOM      6  C6  IND d   1      -0.722  -0.370   3.467  0.00  0.00     0.015 A 
ATOM      7  C7  IND d   1       0.130   0.608   3.038  0.00  0.00    -0.016 A 
ATOM      8  C8  IND d   1       0.288   0.743   1.666  0.00  0.00    -0.047 A 
ATOM      9  C9  IND d   1      -0.371  -0.095   0.757  0.00  0.00    -0.096 A 
ATOM     10  HN1 IND d   1       1.588   2.214   1.257  0.00  0.00     0.298 HD
ENDROOT
TORSDOF 0
ENDMDL
