MODEL 1
REMARK minimizedAffinity -5.45846319
REMARK minimizedRMSD -1
REMARK  0 active torsions:
REMARK  status: ('A' for Active; 'I' for Inactive)
ROOT
ATOM      1  N1  IND d   1       0.904  -0.481   1.870  0.00  0.00    -0.196 N 
ATOM      2  C2  IND d   1       0.277  -0.729   3.060  0.00  0.00     0.054 A 
ATOM      3  C3  IND d   1      -1.045  -0.463   2.959  0.00  0.00    -0.031 A 
ATOM      4  C4  IND d   1      -2.411   0.288   0.911  0.00  0.00     0.051 A 
ATOM      5  C5  IND d   1      -2.273   0.680  -0.391  0.00  0.00    -0.031 A 
ATOM      6  C6  IND d   1      -1.044   0.702  -1.020  0.00  0.00     0.015 A 
ATOM      7  C7  IND d   1       0.095   0.321  -0.370  0.00  0.00    -0.016 A 
ATOM      8  C8  IND d   1      -0.040  -0.070   0.955  0.00  0.00    -0.047 A 
ATOM      9  C9  IND d   1      -1.278  -0.054   1.611  0.00  0.00    -0.096 A 
ATOM     10  HN1 IND d   1       1.746  -0.568   1.719  0.00  0.00     0.298 HD
ENDROOT
TORSDOF 0
ENDMDL
