MODEL 1
REMARK minimizedAffinity -4.40941525
REMARK minimizedRMSD -1
REMARK  0 active torsions:
REMARK  status: ('A' for Active; 'I' for Inactive)
ROOT
ATOM      1  N1  IND d   1       0.489   0.374  -0.926  0.00  0.00    -0.196 N 
ATOM      2  C2  IND d   1      -0.790   0.390  -1.409  0.00  0.00     0.054 A 
ATOM      3  C3  IND d   1      -1.673   0.157  -0.412  0.00  0.00    -0.031 A 
ATOM      4  C4  IND d   1      -1.246  -0.175   2.105  0.00  0.00     0.051 A 
ATOM      5  C5  IND d   1      -0.238  -0.308   3.019  0.00  0.00    -0.031 A 
ATOM      6  C6  IND d   1       1.090  -0.216   2.657  0.00  0.00     0.015 A 
ATOM      7  C7  IND d   1       1.462   0.026   1.365  0.00  0.00    -0.016 A 
ATOM      8  C8  IND d   1       0.441   0.154   0.433  0.00  0.00    -0.047 A 
ATOM      9  C9  IND d   1      -0.908   0.019   0.787  0.00  0.00    -0.096 A 
ATOM     10  HN1 IND d   1       1.203   0.483  -1.392  0.00  0.00     0.298 HD
ENDROOT
TORSDOF 0
ENDMDL
