MODEL 1
REMARK minimizedAffinity -3.28384209
REMARK minimizedRMSD -1
REMARK  0 active torsions:
REMARK  status: ('A' for Active; 'I' for Inactive)
ROOT
ATOM      1  N1  IND d   1      -0.495  -1.133  -0.009  0.00  0.00    -0.196 N 
ATOM      2  C2  IND d   1       0.050  -0.281  -0.929  0.00  0.00     0.054 A 
ATOM      3  C3  IND d   1       0.669   0.749  -0.307  0.00  0.00    -0.031 A 
ATOM      4  C4  IND d   1       0.997   1.181   2.209  0.00  0.00     0.051 A 
ATOM      5  C5  IND d   1       0.647   0.700   3.439  0.00  0.00    -0.031 A 
ATOM      6  C6  IND d   1      -0.115  -0.442   3.586  0.00  0.00     0.015 A 
ATOM      7  C7  IND d   1      -0.547  -1.153   2.503  0.00  0.00    -0.016 A 
ATOM      8  C8  IND d   1      -0.200  -0.664   1.252  0.00  0.00    -0.047 A 
ATOM      9  C9  IND d   1       0.538   0.517   1.096  0.00  0.00    -0.096 A 
ATOM     10  HN1 IND d   1      -0.947  -1.842  -0.188  0.00  0.00     0.298 HD
ENDROOT
TORSDOF 0
ENDMDL
