MODEL 1
REMARK minimizedAffinity -3.33020234
REMARK minimizedRMSD -1
REMARK  0 active torsions:
REMARK  status: ('A' for Active; 'I' for Inactive)
ROOT
ATOM      1  N1  IND d   1      -1.212   1.119  -0.596  0.00  0.00    -0.196 N 
ATOM      2  C2  IND d   1      -2.267   0.321  -0.247  0.00  0.00     0.054 A 
ATOM      3  C3  IND d   1      -1.994  -0.345   0.897  0.00  0.00    -0.031 A 
ATOM      4  C4  IND d   1       0.078  -0.203   2.419  0.00  0.00     0.051 A 
ATOM      5  C5  IND d   1       1.320   0.361   2.497  0.00  0.00    -0.031 A 
ATOM      6  C6  IND d   1       1.790   1.226   1.530  0.00  0.00     0.015 A 
ATOM      7  C7  IND d   1       1.028   1.570   0.450  0.00  0.00    -0.016 A 
ATOM      8  C8  IND d   1      -0.232   0.993   0.364  0.00  0.00    -0.047 A 
ATOM      9  C9  IND d   1      -0.698   0.082   1.320  0.00  0.00    -0.096 A 
ATOM     10  HN1 IND d   1      -1.169   1.615  -1.296  0.00  0.00     0.298 HD
ENDROOT
TORSDOF 0
ENDMDL
