MODEL 1
REMARK minimizedAffinity -5.13099003
REMARK minimizedRMSD -1
REMARK  0 active torsions:
REMARK  status: ('A' for Active; 'I' for Inactive)
ROOT
ATOM      1  N1  IND d   1      -0.872  -0.405  -0.118  0.00  0.00    -0.196 N 
ATOM      2  C2  IND d   1       0.048  -0.119  -1.088  0.00  0.00     0.054 A 
ATOM      3  C3  IND d   1       1.269   0.065  -0.539  0.00  0.00    -0.031 A 
ATOM      4  C4  IND d   1       2.007  -0.153   1.918  0.00  0.00     0.051 A 
ATOM      5  C5  IND d   1       1.516  -0.360   3.176  0.00  0.00    -0.031 A 
ATOM      6  C6  IND d   1       0.176  -0.601   3.405  0.00  0.00     0.015 A 
ATOM      7  C7  IND d   1      -0.723  -0.654   2.378  0.00  0.00    -0.016 A 
ATOM      8  C8  IND d   1      -0.229  -0.437   1.100  0.00  0.00    -0.047 A 
ATOM      9  C9  IND d   1       1.122  -0.150   0.866  0.00  0.00    -0.096 A 
ATOM     10  HN1 IND d   1      -1.711  -0.541  -0.247  0.00  0.00     0.298 HD
ENDROOT
TORSDOF 0
ENDMDL
