MODEL 1
REMARK minimizedAffinity -3.83176994
REMARK minimizedRMSD -1
REMARK  0 active torsions:
REMARK  status: ('A' for Active; 'I' for Inactive)
ROOT
ATOM      1  N1  IND d   1       0.221   0.518   2.887  0.00  0.00    -0.196 N 
ATOM      2  C2  IND d   1      -0.861  -0.224   3.273  0.00  0.00     0.054 A 
ATOM      3  C3  IND d   1      -1.550  -0.649   2.191  0.00  0.00    -0.031 A 
ATOM      4  C4  IND d   1      -1.029  -0.331  -0.310  0.00  0.00     0.051 A 
ATOM      5  C5  IND d   1      -0.167   0.306  -1.158  0.00  0.00    -0.031 A 
ATOM      6  C6  IND d   1       0.891   1.060  -0.692  0.00  0.00     0.015 A 
ATOM      7  C7  IND d   1       1.134   1.195   0.646  0.00  0.00    -0.016 A 
ATOM      8  C8  IND d   1       0.257   0.555   1.510  0.00  0.00    -0.047 A 
ATOM      9  C9  IND d   1      -0.843  -0.176   1.043  0.00  0.00    -0.096 A 
ATOM     10  HN1 IND d   1       0.783   0.897   3.414  0.00  0.00     0.298 HD
ENDROOT
TORSDOF 0
ENDMDL
