MODEL 1
REMARK minimizedAffinity -2.41203761
REMARK minimizedRMSD -1
REMARK  0 active torsions:
REMARK  status: ('A' for Active; 'I' for Inactive)
ROOT
ATOM      1  N1  IND d   1      -0.080  -0.098   2.888  0.00  0.00    -0.196 N 
ATOM      2  C2  IND d   1      -1.308  -0.697   2.857  0.00  0.00     0.054 A 
ATOM      3  C3  IND d   1      -1.816  -0.666   1.605  0.00  0.00    -0.031 A 
ATOM      4  C4  IND d   1      -0.759   0.226  -0.566  0.00  0.00     0.051 A 
ATOM      5  C5  IND d   1       0.336   0.897  -1.035  0.00  0.00    -0.031 A 
ATOM      6  C6  IND d   1       1.370   1.275  -0.204  0.00  0.00     0.015 A 
ATOM      7  C7  IND d   1       1.353   0.986   1.131  0.00  0.00    -0.016 A 
ATOM      8  C8  IND d   1       0.240   0.311   1.612  0.00  0.00    -0.047 A 
ATOM      9  C9  IND d   1      -0.832  -0.038   0.781  0.00  0.00    -0.096 A 
ATOM     10  HN1 IND d   1       0.411   0.006   3.586  0.00  0.00     0.298 HD
ENDROOT
TORSDOF 0
ENDMDL
