MODEL 1
REMARK minimizedAffinity -5.28248262
REMARK minimizedRMSD -1
REMARK  0 active torsions:
REMARK  status: ('A' for Active; 'I' for Inactive)
ROOT
ATOM      1  N1  IND d   1      -0.934  -0.057  -0.491  0.00  0.00    -0.196 N 
ATOM      2  C2  IND d   1      -1.989  -0.647   0.147  0.00  0.00     0.054 A 
ATOM      3  C3  IND d   1      -1.710  -0.817   1.459  0.00  0.00    -0.031 A 
ATOM      4  C4  IND d   1       0.376  -0.108   2.792  0.00  0.00     0.051 A 
ATOM      5  C5  IND d   1       1.622   0.432   2.637  0.00  0.00    -0.031 A 
ATOM      6  C6  IND d   1       2.088   0.848   1.406  0.00  0.00     0.015 A 
ATOM      7  C7  IND d   1       1.317   0.749   0.282  0.00  0.00    -0.016 A 
ATOM      8  C8  IND d   1       0.054   0.194   0.435  0.00  0.00    -0.047 A 
ATOM      9  C9  IND d   1      -0.408  -0.269   1.674  0.00  0.00    -0.096 A 
ATOM     10  HN1 IND d   1      -0.894   0.126  -1.331  0.00  0.00     0.298 HD
ENDROOT
TORSDOF 0
ENDMDL
