MODEL 1
REMARK minimizedAffinity -4.17464304
REMARK minimizedRMSD -1
REMARK  0 active torsions:
REMARK  status: ('A' for Active; 'I' for Inactive)
ROOT
ATOM      1  N1  IND d   1      -0.758   0.628  -0.882  0.00  0.00    -0.196 N 
ATOM      2  C2  IND d   1      -2.069   0.514  -0.510  0.00  0.00     0.054 A 
ATOM      3  C3  IND d   1      -2.161   0.265   0.816  0.00  0.00    -0.031 A 
ATOM      4  C4  IND d   1      -0.297   0.107   2.585  0.00  0.00     0.051 A 
ATOM      5  C5  IND d   1       1.063   0.107   2.719  0.00  0.00    -0.031 A 
ATOM      6  C6  IND d   1       1.902   0.287   1.639  0.00  0.00     0.015 A 
ATOM      7  C7  IND d   1       1.411   0.486   0.380  0.00  0.00    -0.016 A 
ATOM      8  C8  IND d   1       0.030   0.479   0.238  0.00  0.00    -0.047 A 
ATOM      9  C9  IND d   1      -0.826   0.255   1.324  0.00  0.00    -0.096 A 
ATOM     10  HN1 IND d   1      -0.474   0.769  -1.681  0.00  0.00     0.298 HD
ENDROOT
TORSDOF 0
ENDMDL
