MODEL 1
REMARK minimizedAffinity -2.9622767
REMARK minimizedRMSD -1
REMARK  0 active torsions:
REMARK  status: ('A' for Active; 'I' for Inactive)
ROOT
ATOM      1  N1  IND d   1      -1.028  -0.851  -0.818  0.00  0.00    -0.196 N 
ATOM      2  C2  IND d   1      -0.274  -0.393  -1.862  0.00  0.00     0.054 A 
ATOM      3  C3  IND d   1       0.779   0.320  -1.404  0.00  0.00    -0.031 A 
ATOM      4  C4  IND d   1       1.517   0.775   1.020  0.00  0.00     0.051 A 
ATOM      5  C5  IND d   1       1.127   0.592   2.317  0.00  0.00    -0.031 A 
ATOM      6  C6  IND d   1      -0.023  -0.097   2.642  0.00  0.00     0.015 A 
ATOM      7  C7  IND d   1      -0.824  -0.642   1.678  0.00  0.00    -0.016 A 
ATOM      8  C8  IND d   1      -0.434  -0.452   0.360  0.00  0.00    -0.047 A 
ATOM      9  C9  IND d   1       0.709   0.283   0.022  0.00  0.00    -0.096 A 
ATOM     10  HN1 IND d   1      -1.751  -1.311  -0.885  0.00  0.00     0.298 HD
ENDROOT
TORSDOF 0
ENDMDL
