MODEL 1
REMARK minimizedAffinity -4.8852396
REMARK minimizedRMSD -1
REMARK  0 active torsions:
REMARK  status: ('A' for Active; 'I' for Inactive)
ROOT
ATOM      1  N1  IND d   1      -0.781  -1.170  -0.632  0.00  0.00    -0.196 N 
ATOM      2  C2  IND d   1      -0.058  -0.510  -1.587  0.00  0.00     0.054 A 
ATOM      3  C3  IND d   1       0.794   0.366  -1.009  0.00  0.00    -0.031 A 
ATOM      4  C4  IND d   1       1.242   0.810   1.487  0.00  0.00     0.051 A 
ATOM      5  C5  IND d   1       0.800   0.476   2.736  0.00  0.00    -0.031 A 
ATOM      6  C6  IND d   1      -0.209  -0.444   2.931  0.00  0.00     0.015 A 
ATOM      7  C7  IND d   1      -0.810  -1.076   1.879  0.00  0.00    -0.016 A 
ATOM      8  C8  IND d   1      -0.369  -0.734   0.608  0.00  0.00    -0.047 A 
ATOM      9  C9  IND d   1       0.626   0.230   0.403  0.00  0.00    -0.096 A 
ATOM     10  HN1 IND d   1      -1.390  -1.758  -0.781  0.00  0.00     0.298 HD
ENDROOT
TORSDOF 0
ENDMDL
