MODEL 1
REMARK minimizedAffinity -5.44322872
REMARK minimizedRMSD -1
REMARK  0 active torsions:
REMARK  status: ('A' for Active; 'I' for Inactive)
ROOT
ATOM      1  C4' PXY d   1      -1.232  -0.112  -1.421  0.00  0.00     0.077 C 
ATOM      2  C1' PXY d   1       2.655   3.118   1.387  0.00  0.00     0.077 C 
ATOM      3  C1  PXY d   1       1.626   2.279   0.654  0.00  0.00    -0.082 A 
ATOM      4  C2  PXY d   1       1.846   0.988   0.470  0.00  0.00     0.003 A 
ATOM      5  C3  PXY d   1       0.942   0.221  -0.219  0.00  0.00     0.003 A 
ATOM      6  C4  PXY d   1      -0.225   0.771  -0.678  0.00  0.00    -0.082 A 
ATOM      7  C5  PXY d   1      -0.462   2.086  -0.484  0.00  0.00     0.003 A 
ATOM      8  C6  PXY d   1       0.488   2.856   0.182  0.00  0.00     0.003 A 
ENDROOT
TORSDOF 0
ENDMDL
