MODEL 1
REMARK minimizedAffinity -2.82855201
REMARK minimizedRMSD -1
REMARK  0 active torsions:
REMARK  status: ('A' for Active; 'I' for Inactive)
ROOT
ATOM      1  C4' PXY d   1      -0.920  -0.902   0.726  0.00  0.00     0.077 C 
ATOM      2  C1' PXY d   1       2.673   3.589   0.150  0.00  0.00     0.077 C 
ATOM      3  C1  PXY d   1       1.720   2.419   0.298  0.00  0.00    -0.082 A 
ATOM      4  C2  PXY d   1       2.033   1.419   1.105  0.00  0.00     0.003 A 
ATOM      5  C3  PXY d   1       1.199   0.338   1.226  0.00  0.00     0.003 A 
ATOM      6  C4  PXY d   1       0.006   0.305   0.554  0.00  0.00    -0.082 A 
ATOM      7  C5  PXY d   1      -0.325   1.326  -0.264  0.00  0.00     0.003 A 
ATOM      8  C6  PXY d   1       0.555   2.395  -0.404  0.00  0.00     0.003 A 
ENDROOT
TORSDOF 0
ENDMDL
