MODEL 1
REMARK minimizedAffinity -0.661130011
REMARK minimizedRMSD -1
REMARK  0 active torsions:
REMARK  status: ('A' for Active; 'I' for Inactive)
ROOT
ATOM      1  C4' PXY d   1      -2.277  -1.710  -1.840  0.00  0.00     0.077 C 
ATOM      2  C1' PXY d   1       1.763   1.283   1.012  0.00  0.00     0.077 C 
ATOM      3  C1  PXY d   1       0.700   0.492   0.275  0.00  0.00    -0.082 A 
ATOM      4  C2  PXY d   1       0.808   0.310  -1.031  0.00  0.00     0.003 A 
ATOM      5  C3  PXY d   1      -0.160  -0.375  -1.718  0.00  0.00     0.003 A 
ATOM      6  C4  PXY d   1      -1.223  -0.926  -1.053  0.00  0.00    -0.082 A 
ATOM      7  C5  PXY d   1      -1.335  -0.754   0.281  0.00  0.00     0.003 A 
ATOM      8  C6  PXY d   1      -0.363  -0.019   0.954  0.00  0.00     0.003 A 
ENDROOT
TORSDOF 0
ENDMDL
