MODEL 1
REMARK minimizedAffinity -4.6895256
REMARK minimizedRMSD -1
REMARK  0 active torsions:
REMARK  status: ('A' for Active; 'I' for Inactive)
ROOT
ATOM      1  C4' PXY d   1       0.953   0.421  -0.767  0.00  0.00     0.077 C 
ATOM      2  C1' PXY d   1      -4.480  -1.445  -0.124  0.00  0.00     0.077 C 
ATOM      3  C1  PXY d   1      -3.056  -0.957  -0.305  0.00  0.00    -0.082 A 
ATOM      4  C2  PXY d   1      -2.198  -1.056   0.697  0.00  0.00     0.003 A 
ATOM      5  C3  PXY d   1      -0.915  -0.591   0.560  0.00  0.00     0.003 A 
ATOM      6  C4  PXY d   1      -0.491  -0.067  -0.632  0.00  0.00    -0.082 A 
ATOM      7  C5  PXY d   1      -1.358   0.027  -1.663  0.00  0.00     0.003 A 
ATOM      8  C6  PXY d   1      -2.667  -0.413  -1.490  0.00  0.00     0.003 A 
ENDROOT
TORSDOF 0
ENDMDL
