MODEL 1
REMARK minimizedAffinity -4.83608294
REMARK minimizedRMSD -1
REMARK  0 active torsions:
REMARK  status: ('A' for Active; 'I' for Inactive)
ROOT
ATOM      1  C4' PXY d   1      -2.081  -1.006  -1.514  0.00  0.00     0.077 C 
ATOM      2  C1' PXY d   1       1.677   2.133   1.557  0.00  0.00     0.077 C 
ATOM      3  C1  PXY d   1       0.700   1.300   0.752  0.00  0.00    -0.082 A 
ATOM      4  C2  PXY d   1      -0.182   1.900  -0.030  0.00  0.00     0.003 A 
ATOM      5  C3  PXY d   1      -1.095   1.163  -0.741  0.00  0.00     0.003 A 
ATOM      6  C4  PXY d   1      -1.069  -0.205  -0.691  0.00  0.00    -0.082 A 
ATOM      7  C5  PXY d   1      -0.165  -0.825   0.097  0.00  0.00     0.003 A 
ATOM      8  C6  PXY d   1       0.725  -0.058   0.842  0.00  0.00     0.003 A 
ENDROOT
TORSDOF 0
ENDMDL
