MODEL 1
REMARK minimizedAffinity -2.46882081
REMARK minimizedRMSD -1
REMARK  0 active torsions:
REMARK  status: ('A' for Active; 'I' for Inactive)
ROOT
ATOM      1  C4' PXY d   1      -2.562  -1.430  -2.419  0.00  0.00     0.077 C 
ATOM      2  C1' PXY d   1       0.924   1.163   1.394  0.00  0.00     0.077 C 
ATOM      3  C1  PXY d   1       0.000   0.482   0.404  0.00  0.00    -0.082 A 
ATOM      4  C2  PXY d   1       0.513  -0.158  -0.635  0.00  0.00     0.003 A 
ATOM      5  C3  PXY d   1      -0.309  -0.752  -1.558  0.00  0.00     0.003 A 
ATOM      6  C4  PXY d   1      -1.668  -0.736  -1.388  0.00  0.00    -0.082 A 
ATOM      7  C5  PXY d   1      -2.198  -0.094  -0.325  0.00  0.00     0.003 A 
ATOM      8  C6  PXY d   1      -1.348   0.538   0.578  0.00  0.00     0.003 A 
ENDROOT
TORSDOF 0
ENDMDL
