MODEL 1
REMARK minimizedAffinity -5.38654137
REMARK minimizedRMSD -1
REMARK  0 active torsions:
REMARK  status: ('A' for Active; 'I' for Inactive)
ROOT
ATOM      1  C4' PXY d   1       2.174   0.481   0.172  0.00  0.00     0.077 C 
ATOM      2  C1' PXY d   1      -3.450  -0.808  -0.181  0.00  0.00     0.077 C 
ATOM      3  C1  PXY d   1      -1.976  -0.466  -0.101  0.00  0.00    -0.082 A 
ATOM      4  C2  PXY d   1      -1.209  -1.080   0.786  0.00  0.00     0.003 A 
ATOM      5  C3  PXY d   1       0.120  -0.760   0.893  0.00  0.00     0.003 A 
ATOM      6  C4  PXY d   1       0.682   0.160   0.049  0.00  0.00    -0.082 A 
ATOM      7  C5  PXY d   1      -0.092   0.783  -0.865  0.00  0.00     0.003 A 
ATOM      8  C6  PXY d   1      -1.447   0.474  -0.931  0.00  0.00     0.003 A 
ENDROOT
TORSDOF 0
ENDMDL
