MODEL 1
REMARK minimizedAffinity 0.391529322
REMARK minimizedRMSD -1
REMARK  0 active torsions:
REMARK  status: ('A' for Active; 'I' for Inactive)
ROOT
ATOM      1  C4' PXY d   1      -2.020  -1.842   3.438  0.00  0.00     0.077 C 
ATOM      2  C1' PXY d   1       0.373   0.306  -1.365  0.00  0.00     0.077 C 
ATOM      3  C1  PXY d   1      -0.264  -0.248  -0.106  0.00  0.00    -0.082 A 
ATOM      4  C2  PXY d   1       0.451  -1.008   0.708  0.00  0.00     0.003 A 
ATOM      5  C3  PXY d   1      -0.118  -1.543   1.835  0.00  0.00     0.003 A 
ATOM      6  C4  PXY d   1      -1.416  -1.254   2.160  0.00  0.00    -0.082 A 
ATOM      7  C5  PXY d   1      -2.149  -0.470   1.341  0.00  0.00     0.003 A 
ATOM      8  C6  PXY d   1      -1.565   0.030   0.180  0.00  0.00     0.003 A 
ENDROOT
TORSDOF 0
ENDMDL
