MODEL 1
REMARK minimizedAffinity -2.56303191
REMARK minimizedRMSD -1
REMARK  0 active torsions:
REMARK  status: ('A' for Active; 'I' for Inactive)
ROOT
ATOM      1  C4' PXY d   1       0.378   0.767  -2.722  0.00  0.00     0.077 C 
ATOM      2  C1' PXY d   1      -1.190  -2.255   1.950  0.00  0.00     0.077 C 
ATOM      3  C1  PXY d   1      -0.769  -1.457   0.732  0.00  0.00    -0.082 A 
ATOM      4  C2  PXY d   1      -1.666  -1.151  -0.192  0.00  0.00     0.003 A 
ATOM      5  C3  PXY d   1      -1.295  -0.458  -1.315  0.00  0.00     0.003 A 
ATOM      6  C4  PXY d   1      -0.004  -0.029  -1.470  0.00  0.00    -0.082 A 
ATOM      7  C5  PXY d   1       0.914  -0.328  -0.528  0.00  0.00     0.003 A 
ATOM      8  C6  PXY d   1       0.527  -1.068   0.586  0.00  0.00     0.003 A 
ENDROOT
TORSDOF 0
ENDMDL
