MODEL 1
REMARK minimizedAffinity -5.52828598
REMARK minimizedRMSD -1
REMARK  0 active torsions:
REMARK  status: ('A' for Active; 'I' for Inactive)
ROOT
ATOM      1  C4' PXY d   1      -3.349  -0.387  -0.741  0.00  0.00     0.077 C 
ATOM      2  C1' PXY d   1       1.914   1.694   0.435  0.00  0.00     0.077 C 
ATOM      3  C1  PXY d   1       0.529   1.161   0.126  0.00  0.00    -0.082 A 
ATOM      4  C2  PXY d   1       0.222  -0.086   0.448  0.00  0.00     0.003 A 
ATOM      5  C3  PXY d   1      -1.015  -0.594   0.147  0.00  0.00     0.003 A 
ATOM      6  C4  PXY d   1      -1.966   0.197  -0.440  0.00  0.00    -0.082 A 
ATOM      7  C5  PXY d   1      -1.664   1.473  -0.761  0.00  0.00     0.003 A 
ATOM      8  C6  PXY d   1      -0.388   1.958  -0.485  0.00  0.00     0.003 A 
ENDROOT
TORSDOF 0
ENDMDL
