MODEL 1
REMARK minimizedAffinity -5.15089178
REMARK minimizedRMSD -1
REMARK  0 active torsions:
REMARK  status: ('A' for Active; 'I' for Inactive)
ROOT
ATOM      1  C4' PXY d   1       1.550   0.923   0.275  0.00  0.00     0.077 C 
ATOM      2  C1' PXY d   1      -3.630  -1.410  -0.795  0.00  0.00     0.077 C 
ATOM      3  C1  PXY d   1      -2.267  -0.802  -0.526  0.00  0.00    -0.082 A 
ATOM      4  C2  PXY d   1      -1.855  -0.646   0.722  0.00  0.00     0.003 A 
ATOM      5  C3  PXY d   1      -0.640  -0.068   0.984  0.00  0.00     0.003 A 
ATOM      6  C4  PXY d   1       0.186   0.305  -0.043  0.00  0.00    -0.082 A 
ATOM      7  C5  PXY d   1      -0.223   0.139  -1.319  0.00  0.00     0.003 A 
ATOM      8  C6  PXY d   1      -1.478  -0.411  -1.563  0.00  0.00     0.003 A 
ENDROOT
TORSDOF 0
ENDMDL
