MODEL 1
REMARK minimizedAffinity -5.21863747
REMARK minimizedRMSD -1
REMARK  0 active torsions:
REMARK  status: ('A' for Active; 'I' for Inactive)
ROOT
ATOM      1  C4' PXY d   1       2.960   3.357   0.764  0.00  0.00     0.077 C 
ATOM      2  C1' PXY d   1      -1.170  -0.687   0.862  0.00  0.00     0.077 C 
ATOM      3  C1  PXY d   1      -0.095   0.382   0.843  0.00  0.00    -0.082 A 
ATOM      4  C2  PXY d   1       0.845   0.347  -0.087  0.00  0.00     0.003 A 
ATOM      5  C3  PXY d   1       1.844   1.287  -0.100  0.00  0.00     0.003 A 
ATOM      6  C4  PXY d   1       1.849   2.304   0.816  0.00  0.00    -0.082 A 
ATOM      7  C5  PXY d   1       0.887   2.353   1.762  0.00  0.00     0.003 A 
ATOM      8  C6  PXY d   1      -0.094   1.366   1.783  0.00  0.00     0.003 A 
ENDROOT
TORSDOF 0
ENDMDL
