MODEL 1
REMARK minimizedAffinity -2.47367144
REMARK minimizedRMSD -1
REMARK  0 active torsions:
REMARK  status: ('A' for Active; 'I' for Inactive)
ROOT
ATOM      1  C4' PXY d   1       2.262   1.384   1.330  0.00  0.00     0.077 C 
ATOM      2  C1' PXY d   1      -2.211  -0.478  -1.823  0.00  0.00     0.077 C 
ATOM      3  C1  PXY d   1      -1.031   0.001  -1.001  0.00  0.00    -0.082 A 
ATOM      4  C2  PXY d   1      -1.242   0.705   0.099  0.00  0.00     0.003 A 
ATOM      5  C3  PXY d   1      -0.186   1.173   0.837  0.00  0.00     0.003 A 
ATOM      6  C4  PXY d   1       1.100   0.872   0.474  0.00  0.00    -0.082 A 
ATOM      7  C5  PXY d   1       1.324   0.144  -0.641  0.00  0.00     0.003 A 
ATOM      8  C6  PXY d   1       0.239  -0.286  -1.399  0.00  0.00     0.003 A 
ENDROOT
TORSDOF 0
ENDMDL
