MODEL 1
REMARK minimizedAffinity -4.74627209
REMARK minimizedRMSD -1
REMARK  0 active torsions:
REMARK  status: ('A' for Active; 'I' for Inactive)
ROOT
ATOM      1  C4' PXY d   1      -3.560  -0.636  -0.326  0.00  0.00     0.077 C 
ATOM      2  C1' PXY d   1       1.820   1.324   0.465  0.00  0.00     0.077 C 
ATOM      3  C1  PXY d   1       0.411   0.812   0.244  0.00  0.00    -0.082 A 
ATOM      4  C2  PXY d   1      -0.471   0.878   1.229  0.00  0.00     0.003 A 
ATOM      5  C3  PXY d   1      -1.741   0.391   1.057  0.00  0.00     0.003 A 
ATOM      6  C4  PXY d   1      -2.128  -0.122  -0.152  0.00  0.00    -0.082 A 
ATOM      7  C5  PXY d   1      -1.238  -0.184  -1.165  0.00  0.00     0.003 A 
ATOM      8  C6  PXY d   1       0.058   0.279  -0.957  0.00  0.00     0.003 A 
ENDROOT
TORSDOF 0
ENDMDL
