MODEL 1
REMARK minimizedAffinity -3.92759752
REMARK minimizedRMSD -1
REMARK  0 active torsions:
REMARK  status: ('A' for Active; 'I' for Inactive)
ROOT
ATOM      1  C4' PXY d   1       2.898   1.507  -0.259  0.00  0.00     0.077 C 
ATOM      2  C1' PXY d   1      -2.425  -0.571   0.619  0.00  0.00     0.077 C 
ATOM      3  C1  PXY d   1      -1.027  -0.026   0.402  0.00  0.00    -0.082 A 
ATOM      4  C2  PXY d   1      -0.754   0.654  -0.700  0.00  0.00     0.003 A 
ATOM      5  C3  PXY d   1       0.513   1.126  -0.928  0.00  0.00     0.003 A 
ATOM      6  C4  PXY d   1       1.498   0.946   0.007  0.00  0.00    -0.082 A 
ATOM      7  C5  PXY d   1       1.224   0.263   1.139  0.00  0.00     0.003 A 
ATOM      8  C6  PXY d   1      -0.058  -0.244   1.331  0.00  0.00     0.003 A 
ENDROOT
TORSDOF 0
ENDMDL
