MODEL 1
REMARK minimizedAffinity -5.26368332
REMARK minimizedRMSD -1
REMARK  0 active torsions:
REMARK  status: ('A' for Active; 'I' for Inactive)
ROOT
ATOM      1  C4' PXY d   1       2.378   3.733   1.143  0.00  0.00     0.077 C 
ATOM      2  C1' PXY d   1       0.357  -1.639   1.824  0.00  0.00     0.077 C 
ATOM      3  C1  PXY d   1       0.876  -0.226   1.651  0.00  0.00    -0.082 A 
ATOM      4  C2  PXY d   1       1.720   0.046   0.669  0.00  0.00     0.003 A 
ATOM      5  C3  PXY d   1       2.225   1.312   0.518  0.00  0.00     0.003 A 
ATOM      6  C4  PXY d   1       1.820   2.322   1.349  0.00  0.00    -0.082 A 
ATOM      7  C5  PXY d   1       0.952   2.056   2.347  0.00  0.00     0.003 A 
ATOM      8  C6  PXY d   1       0.483   0.755   2.509  0.00  0.00     0.003 A 
ENDROOT
TORSDOF 0
ENDMDL
