MODEL 1
REMARK minimizedAffinity -1.33522499
REMARK minimizedRMSD -1
REMARK  0 active torsions:
REMARK  status: ('A' for Active; 'I' for Inactive)
ROOT
ATOM      1  C4' PXY d   1       0.568   0.392   1.021  0.00  0.00     0.077 C 
ATOM      2  C1' PXY d   1      -3.273  -1.022  -3.061  0.00  0.00     0.077 C 
ATOM      3  C1  PXY d   1      -2.263  -0.639  -1.997  0.00  0.00    -0.082 A 
ATOM      4  C2  PXY d   1      -1.646  -1.587  -1.310  0.00  0.00     0.003 A 
ATOM      5  C3  PXY d   1      -0.754  -1.259  -0.322  0.00  0.00     0.003 A 
ATOM      6  C4  PXY d   1      -0.451   0.053  -0.070  0.00  0.00    -0.082 A 
ATOM      7  C5  PXY d   1      -1.069   1.025  -0.773  0.00  0.00     0.003 A 
ATOM      8  C6  PXY d   1      -2.002   0.672  -1.744  0.00  0.00     0.003 A 
ENDROOT
TORSDOF 0
ENDMDL
