MODEL 1
REMARK minimizedAffinity -2.22641325
REMARK minimizedRMSD -1
REMARK  1 active torsions:
REMARK  status: ('A' for Active; 'I' for Inactive)
REMARK    1  A    between atoms: N_2  and  C1_3 
ROOT
ATOM      1  C1  UNL d   1      -1.210   0.777   0.081  0.00  0.00     0.143 A 
ATOM      2  C2  UNL d   1      -0.658   2.061   0.014  0.00  0.00    -0.057 A 
ATOM      3  C3  UNL d   1       0.645   2.315   0.458  0.00  0.00     0.033 A 
ATOM      4  C4  UNL d   1       1.412   1.292   1.005  0.00  0.00    -0.042 A 
ATOM      5  C5  UNL d   1       0.875   0.013   1.104  0.00  0.00     0.033 A 
ATOM      6  C6  UNL d   1      -0.425  -0.236   0.653  0.00  0.00    -0.057 A 
ENDROOT
BRANCH   1   7
ATOM      7  N   UNL d   1      -2.534   0.481  -0.253  0.00  0.00    -0.732 N 
ATOM      8  C   UNL d   1      -3.619   0.872   0.620  0.00  0.00     0.284 C 
ATOM      9  H3  UNL d   1      -2.726   0.620  -1.242  0.00  0.00     0.395 HD
ENDBRANCH   1   7
TORSDOF 1
ENDMDL
