MODEL 1
REMARK minimizedAffinity -2.98861337
REMARK minimizedRMSD -1
REMARK  1 active torsions:
REMARK  status: ('A' for Active; 'I' for Inactive)
REMARK    1  A    between atoms: N_2  and  C1_3 
ROOT
ATOM      1  C1  UNL d   1       2.094  -0.115   0.952  0.00  0.00     0.143 A 
ATOM      2  C2  UNL d   1       2.175   1.280   0.878  0.00  0.00    -0.057 A 
ATOM      3  C3  UNL d   1       1.105   2.045   0.400  0.00  0.00     0.033 A 
ATOM      4  C4  UNL d   1      -0.059   1.425  -0.042  0.00  0.00    -0.042 A 
ATOM      5  C5  UNL d   1      -0.152   0.038  -0.002  0.00  0.00     0.033 A 
ATOM      6  C6  UNL d   1       0.918  -0.720   0.483  0.00  0.00    -0.057 A 
ENDROOT
BRANCH   1   7
ATOM      7  N   UNL d   1       3.160  -0.938   1.325  0.00  0.00    -0.732 N 
ATOM      8  C   UNL d   1       3.941  -1.632   0.324  0.00  0.00     0.284 C 
ATOM      9  H3  UNL d   1       3.712  -0.539   2.081  0.00  0.00     0.395 HD
ENDBRANCH   1   7
TORSDOF 1
ENDMDL
