MODEL 1
REMARK minimizedAffinity -3.09044456
REMARK minimizedRMSD -1
REMARK  1 active torsions:
REMARK  status: ('A' for Active; 'I' for Inactive)
REMARK    1  A    between atoms: N_2  and  C1_3 
ROOT
ATOM      1  C1  UNL d   1      -1.470   1.253   0.297  0.00  0.00     0.143 A 
ATOM      2  C2  UNL d   1      -2.572   0.550  -0.202  0.00  0.00    -0.057 A 
ATOM      3  C3  UNL d   1      -3.827   0.636   0.412  0.00  0.00     0.033 A 
ATOM      4  C4  UNL d   1      -3.997   1.408   1.557  0.00  0.00    -0.042 A 
ATOM      5  C5  UNL d   1      -2.910   2.096   2.085  0.00  0.00     0.033 A 
ATOM      6  C6  UNL d   1      -1.660   2.011   1.463  0.00  0.00    -0.057 A 
ENDROOT
BRANCH   1   7
ATOM      7  N   UNL d   1      -0.175   1.131  -0.211  0.00  0.00    -0.732 N 
ATOM      8  C   UNL d   1       0.842   0.413   0.528  0.00  0.00     0.284 C 
ATOM      9  H3  UNL d   1      -0.165   0.951  -1.212  0.00  0.00     0.395 HD
ENDBRANCH   1   7
TORSDOF 1
ENDMDL
