MODEL 1
REMARK minimizedAffinity -0.497468084
REMARK minimizedRMSD -1
REMARK  1 active torsions:
REMARK  status: ('A' for Active; 'I' for Inactive)
REMARK    1  A    between atoms: N_2  and  C1_3 
ROOT
ATOM      1  C1  UNL d   1       1.635   1.240  -0.569  0.00  0.00     0.143 A 
ATOM      2  C2  UNL d   1       0.881   0.175  -1.074  0.00  0.00    -0.057 A 
ATOM      3  C3  UNL d   1      -0.431  -0.055  -0.643  0.00  0.00     0.033 A 
ATOM      4  C4  UNL d   1      -1.004   0.763   0.326  0.00  0.00    -0.042 A 
ATOM      5  C5  UNL d   1      -0.265   1.812   0.860  0.00  0.00     0.033 A 
ATOM      6  C6  UNL d   1       1.043   2.040   0.420  0.00  0.00    -0.057 A 
ENDROOT
BRANCH   1   7
ATOM      7  N   UNL d   1       2.977   1.461  -0.886  0.00  0.00    -0.732 N 
ATOM      8  C   UNL d   1       3.775   0.415  -1.488  0.00  0.00     0.284 C 
ATOM      9  H3  UNL d   1       3.136   2.385  -1.282  0.00  0.00     0.395 HD
ENDBRANCH   1   7
TORSDOF 1
ENDMDL
