MODEL 1
REMARK minimizedAffinity 9.28788567
REMARK minimizedRMSD -1
REMARK  1 active torsions:
REMARK  status: ('A' for Active; 'I' for Inactive)
REMARK    1  A    between atoms: C1_2  and  C2_3 
ROOT
ATOM      1  C2  UNL d   1      -0.027   0.512  -0.712  0.00  0.00    -0.073 A 
ATOM      2  C3  UNL d   1      -1.152   0.163   0.044  0.00  0.00    -0.002 A 
ATOM      3  C4  UNL d   1      -1.421  -1.176   0.330  0.00  0.00     0.004 A 
ATOM      4  C5  UNL d   1      -0.567  -2.178  -0.131  0.00  0.00    -0.004 A 
ATOM      5  C6  UNL d   1       0.569  -1.848  -0.878  0.00  0.00    -0.075 A 
ATOM      6  C7  UNL d   1       1.497  -2.913  -1.383  0.00  0.00     0.076 C 
ATOM      7  C8  UNL d   1       0.831  -0.501  -1.163  0.00  0.00     0.001 A 
ENDROOT
BRANCH   1   8
ATOM      8  C1  UNL d   1       0.271   1.957  -1.017  0.00  0.00     0.053 C 
ATOM      9  C   UNL d   1       1.297   2.542  -0.060  0.00  0.00     0.018 C 
ENDBRANCH   1   8
TORSDOF 1
ENDMDL
