MODEL 1
REMARK minimizedAffinity 13.4454603
REMARK minimizedRMSD -1
REMARK  1 active torsions:
REMARK  status: ('A' for Active; 'I' for Inactive)
REMARK    1  A    between atoms: C1_2  and  C2_3 
ROOT
ATOM      1  C2  UNL d   1       2.742   0.888   0.201  0.00  0.00    -0.073 A 
ATOM      2  C3  UNL d   1       2.858  -0.497   0.364  0.00  0.00    -0.002 A 
ATOM      3  C4  UNL d   1       2.360  -1.365  -0.609  0.00  0.00     0.004 A 
ATOM      4  C5  UNL d   1       1.748  -0.859  -1.755  0.00  0.00    -0.004 A 
ATOM      5  C6  UNL d   1       1.633   0.522  -1.941  0.00  0.00    -0.075 A 
ATOM      6  C7  UNL d   1       0.975   1.083  -3.168  0.00  0.00     0.076 C 
ATOM      7  C8  UNL d   1       2.133   1.388  -0.959  0.00  0.00     0.001 A 
ENDROOT
BRANCH   1   8
ATOM      8  C1  UNL d   1       3.285   1.830   1.245  0.00  0.00     0.053 C 
ATOM      9  C   UNL d   1       2.246   2.847   1.689  0.00  0.00     0.018 C 
ENDBRANCH   1   8
TORSDOF 1
ENDMDL
