MODEL 1
REMARK minimizedAffinity 2.38190246
REMARK minimizedRMSD -1
REMARK  1 active torsions:
REMARK  status: ('A' for Active; 'I' for Inactive)
REMARK    1  A    between atoms: C1_2  and  C2_3 
ROOT
ATOM      1  C2  UNL d   1       5.463   0.369   4.626  0.00  0.00    -0.073 A 
ATOM      2  C3  UNL d   1       5.394  -0.473   3.510  0.00  0.00    -0.002 A 
ATOM      3  C4  UNL d   1       4.906   0.006   2.294  0.00  0.00     0.004 A 
ATOM      4  C5  UNL d   1       4.488   1.332   2.179  0.00  0.00    -0.004 A 
ATOM      5  C6  UNL d   1       4.560   2.192   3.279  0.00  0.00    -0.075 A 
ATOM      6  C7  UNL d   1       4.113   3.621   3.173  0.00  0.00     0.076 C 
ATOM      7  C8  UNL d   1       5.050   1.703   4.498  0.00  0.00     0.001 A 
ENDROOT
BRANCH   1   8
ATOM      8  C1  UNL d   1       5.996  -0.143   5.939  0.00  0.00     0.053 C 
ATOM      9  C   UNL d   1       6.000  -1.662   6.000  0.00  0.00     0.018 C 
ENDBRANCH   1   8
TORSDOF 1
ENDMDL
