MODEL 1
REMARK minimizedAffinity 8.78244686
REMARK minimizedRMSD -1
REMARK  1 active torsions:
REMARK  status: ('A' for Active; 'I' for Inactive)
REMARK    1  A    between atoms: C1_2  and  C2_3 
ROOT
ATOM      1  C2  UNL d   1       1.749   0.878  -3.324  0.00  0.00    -0.073 A 
ATOM      2  C3  UNL d   1       1.091   1.454  -4.416  0.00  0.00    -0.002 A 
ATOM      3  C4  UNL d   1       1.818   1.910  -5.517  0.00  0.00     0.004 A 
ATOM      4  C5  UNL d   1       3.207   1.789  -5.540  0.00  0.00    -0.004 A 
ATOM      5  C6  UNL d   1       3.882   1.206  -4.463  0.00  0.00    -0.075 A 
ATOM      6  C7  UNL d   1       5.377   1.070  -4.471  0.00  0.00     0.076 C 
ATOM      7  C8  UNL d   1       3.146   0.752  -3.360  0.00  0.00     0.001 A 
ENDROOT
BRANCH   1   8
ATOM      8  C1  UNL d   1       0.969   0.378  -2.136  0.00  0.00     0.053 C 
ATOM      9  C   UNL d   1       1.551  -0.907  -1.570  0.00  0.00     0.018 C 
ENDBRANCH   1   8
TORSDOF 1
ENDMDL
