MODEL 1
REMARK minimizedAffinity 2.67254996
REMARK minimizedRMSD -1
REMARK  1 active torsions:
REMARK  status: ('A' for Active; 'I' for Inactive)
REMARK    1  A    between atoms: C1_2  and  C2_3 
ROOT
ATOM      1  C2  UNL d   1       0.717  -1.918  -0.907  0.00  0.00    -0.073 A 
ATOM      2  C3  UNL d   1      -0.343  -2.585  -0.284  0.00  0.00    -0.002 A 
ATOM      3  C4  UNL d   1      -1.402  -1.865   0.269  0.00  0.00     0.004 A 
ATOM      4  C5  UNL d   1      -1.416  -0.472   0.198  0.00  0.00    -0.004 A 
ATOM      5  C6  UNL d   1      -0.372   0.213  -0.432  0.00  0.00    -0.075 A 
ATOM      6  C7  UNL d   1      -0.371   1.711  -0.515  0.00  0.00     0.076 C 
ATOM      7  C8  UNL d   1       0.690  -0.518  -0.982  0.00  0.00     0.001 A 
ENDROOT
BRANCH   1   8
ATOM      8  C1  UNL d   1       1.860  -2.692  -1.511  0.00  0.00     0.053 C 
ATOM      9  C   UNL d   1       1.457  -3.394  -2.798  0.00  0.00     0.018 C 
ENDBRANCH   1   8
TORSDOF 1
ENDMDL
