MODEL 1
REMARK minimizedAffinity 3.60902143
REMARK minimizedRMSD -1
REMARK  1 active torsions:
REMARK  status: ('A' for Active; 'I' for Inactive)
REMARK    1  A    between atoms: C1_2  and  C2_3 
ROOT
ATOM      1  C2  UNL d   1       1.710  -2.173  -2.363  0.00  0.00    -0.073 A 
ATOM      2  C3  UNL d   1       1.354  -3.262  -3.168  0.00  0.00    -0.002 A 
ATOM      3  C4  UNL d   1       1.099  -3.080  -4.527  0.00  0.00     0.004 A 
ATOM      4  C5  UNL d   1       1.203  -1.812  -5.098  0.00  0.00    -0.004 A 
ATOM      5  C6  UNL d   1       1.569  -0.713  -4.313  0.00  0.00    -0.075 A 
ATOM      6  C7  UNL d   1       1.684   0.658  -4.911  0.00  0.00     0.076 C 
ATOM      7  C8  UNL d   1       1.821  -0.903  -2.948  0.00  0.00     0.001 A 
ENDROOT
BRANCH   1   8
ATOM      8  C1  UNL d   1       1.993  -2.366  -0.896  0.00  0.00     0.053 C 
ATOM      9  C   UNL d   1       0.816  -1.950  -0.029  0.00  0.00     0.018 C 
ENDBRANCH   1   8
TORSDOF 1
ENDMDL
