MODEL 1
REMARK minimizedAffinity 2.07177377
REMARK minimizedRMSD -1
REMARK  1 active torsions:
REMARK  status: ('A' for Active; 'I' for Inactive)
REMARK    1  A    between atoms: C1_2  and  C2_3 
ROOT
ATOM      1  C2  UNL d   1       1.438  -0.863  -1.848  0.00  0.00    -0.073 A 
ATOM      2  C3  UNL d   1       0.494   0.080  -1.425  0.00  0.00    -0.002 A 
ATOM      3  C4  UNL d   1      -0.339  -0.195  -0.340  0.00  0.00     0.004 A 
ATOM      4  C5  UNL d   1      -0.232  -1.409   0.338  0.00  0.00    -0.004 A 
ATOM      5  C6  UNL d   1       0.713  -2.359  -0.062  0.00  0.00    -0.075 A 
ATOM      6  C7  UNL d   1       0.838  -3.672   0.655  0.00  0.00     0.076 C 
ATOM      7  C8  UNL d   1       1.544  -2.078  -1.155  0.00  0.00     0.001 A 
ENDROOT
BRANCH   1   8
ATOM      8  C1  UNL d   1       2.344  -0.569  -3.015  0.00  0.00     0.053 C 
ATOM      9  C   UNL d   1       1.652   0.270  -4.077  0.00  0.00     0.018 C 
ENDBRANCH   1   8
TORSDOF 1
ENDMDL
