MODEL 1
REMARK minimizedAffinity 1.35865605
REMARK minimizedRMSD -1
REMARK  1 active torsions:
REMARK  status: ('A' for Active; 'I' for Inactive)
REMARK    1  A    between atoms: C1_2  and  C2_3 
ROOT
ATOM      1  C2  UNL d   1       5.799   1.894   5.126  0.00  0.00    -0.073 A 
ATOM      2  C3  UNL d   1       5.962   0.813   6.000  0.00  0.00    -0.002 A 
ATOM      3  C4  UNL d   1       5.781  -0.494   5.546  0.00  0.00     0.004 A 
ATOM      4  C5  UNL d   1       5.443  -0.734   4.214  0.00  0.00    -0.004 A 
ATOM      5  C6  UNL d   1       5.288   0.332   3.322  0.00  0.00    -0.075 A 
ATOM      6  C7  UNL d   1       4.923   0.091   1.887  0.00  0.00     0.076 C 
ATOM      7  C8  UNL d   1       5.469   1.642   3.786  0.00  0.00     0.001 A 
ENDROOT
BRANCH   1   8
ATOM      8  C1  UNL d   1       6.000   3.306   5.610  0.00  0.00     0.053 C 
ATOM      9  C   UNL d   1       5.837   4.321   4.490  0.00  0.00     0.018 C 
ENDBRANCH   1   8
TORSDOF 1
ENDMDL
