MODEL 1
REMARK minimizedAffinity 3.39654732
REMARK minimizedRMSD -1
REMARK  1 active torsions:
REMARK  status: ('A' for Active; 'I' for Inactive)
REMARK    1  A    between atoms: C1_2  and  C2_3 
ROOT
ATOM      1  C2  UNL d   1       1.207   0.084  -2.740  0.00  0.00    -0.073 A 
ATOM      2  C3  UNL d   1       2.084  -0.932  -3.136  0.00  0.00    -0.002 A 
ATOM      3  C4  UNL d   1       2.150  -2.126  -2.417  0.00  0.00     0.004 A 
ATOM      4  C5  UNL d   1       1.335  -2.321  -1.302  0.00  0.00    -0.004 A 
ATOM      5  C6  UNL d   1       0.443  -1.322  -0.898  0.00  0.00    -0.075 A 
ATOM      6  C7  UNL d   1      -0.439  -1.514   0.301  0.00  0.00     0.076 C 
ATOM      7  C8  UNL d   1       0.385  -0.124  -1.623  0.00  0.00     0.001 A 
ENDROOT
BRANCH   1   8
ATOM      8  C1  UNL d   1       1.128   1.373  -3.516  0.00  0.00     0.053 C 
ATOM      9  C   UNL d   1       1.610   1.206  -4.949  0.00  0.00     0.018 C 
ENDBRANCH   1   8
TORSDOF 1
ENDMDL
