MODEL 1
REMARK minimizedAffinity 2.83866167
REMARK minimizedRMSD -1
REMARK  1 active torsions:
REMARK  status: ('A' for Active; 'I' for Inactive)
REMARK    1  A    between atoms: C1_2  and  C2_3 
ROOT
ATOM      1  C2  UNL d   1       1.311  -0.991  -1.888  0.00  0.00    -0.073 A 
ATOM      2  C3  UNL d   1       0.711   0.174  -1.394  0.00  0.00    -0.002 A 
ATOM      3  C4  UNL d   1      -0.252   0.098  -0.388  0.00  0.00     0.004 A 
ATOM      4  C5  UNL d   1      -0.621  -1.139   0.140  0.00  0.00    -0.004 A 
ATOM      5  C6  UNL d   1      -0.025  -2.313  -0.332  0.00  0.00    -0.075 A 
ATOM      6  C7  UNL d   1      -0.413  -3.652   0.223  0.00  0.00     0.076 C 
ATOM      7  C8  UNL d   1       0.940  -2.229  -1.345  0.00  0.00     0.001 A 
ENDROOT
BRANCH   1   8
ATOM      8  C1  UNL d   1       2.356  -0.914  -2.970  0.00  0.00     0.053 C 
ATOM      9  C   UNL d   1       1.922  -0.018  -4.119  0.00  0.00     0.018 C 
ENDBRANCH   1   8
TORSDOF 1
ENDMDL
