MODEL 1
REMARK minimizedAffinity -0.759254098
REMARK minimizedRMSD -1
REMARK  1 active torsions:
REMARK  status: ('A' for Active; 'I' for Inactive)
REMARK    1  A    between atoms: C1_2  and  C2_3 
ROOT
ATOM      1  C2  UNL d   1       0.449   1.261  -1.243  0.00  0.00    -0.073 A 
ATOM      2  C3  UNL d   1       0.777   1.668  -2.542  0.00  0.00    -0.002 A 
ATOM      3  C4  UNL d   1       1.383   0.776  -3.427  0.00  0.00     0.004 A 
ATOM      4  C5  UNL d   1       1.661  -0.531  -3.027  0.00  0.00    -0.004 A 
ATOM      5  C6  UNL d   1       1.330  -0.960  -1.737  0.00  0.00    -0.075 A 
ATOM      6  C7  UNL d   1       1.624  -2.362  -1.291  0.00  0.00     0.076 C 
ATOM      7  C8  UNL d   1       0.724  -0.057  -0.853  0.00  0.00     0.001 A 
ENDROOT
BRANCH   1   8
ATOM      8  C1  UNL d   1      -0.212   2.219  -0.285  0.00  0.00     0.053 C 
ATOM      9  C   UNL d   1       0.802   3.091   0.438  0.00  0.00     0.018 C 
ENDBRANCH   1   8
TORSDOF 1
ENDMDL
