MODEL 1
REMARK minimizedAffinity 11.0133238
REMARK minimizedRMSD -1
REMARK  1 active torsions:
REMARK  status: ('A' for Active; 'I' for Inactive)
REMARK    1  A    between atoms: C1_2  and  C2_3 
ROOT
ATOM      1  C2  UNL d   1      -3.625  -1.055   3.633  0.00  0.00    -0.073 A 
ATOM      2  C3  UNL d   1      -2.382  -1.129   2.994  0.00  0.00    -0.002 A 
ATOM      3  C4  UNL d   1      -1.557  -0.006   2.925  0.00  0.00     0.004 A 
ATOM      4  C5  UNL d   1      -1.962   1.199   3.500  0.00  0.00    -0.004 A 
ATOM      5  C6  UNL d   1      -3.195   1.289   4.153  0.00  0.00    -0.075 A 
ATOM      6  C7  UNL d   1      -3.646   2.578   4.775  0.00  0.00     0.076 C 
ATOM      7  C8  UNL d   1      -4.019   0.158   4.216  0.00  0.00     0.001 A 
ENDROOT
BRANCH   1   8
ATOM      8  C1  UNL d   1      -4.517  -2.267   3.715  0.00  0.00     0.053 C 
ATOM      9  C   UNL d   1      -5.988  -1.889   3.779  0.00  0.00     0.018 C 
ENDBRANCH   1   8
TORSDOF 1
ENDMDL
