MODEL 1
REMARK minimizedAffinity 19.0659332
REMARK minimizedRMSD -1
REMARK  1 active torsions:
REMARK  status: ('A' for Active; 'I' for Inactive)
REMARK    1  A    between atoms: C1_2  and  C2_3 
ROOT
ATOM      1  C2  UNL d   1       4.198   4.545   5.322  0.00  0.00    -0.076 A 
ATOM      2  C3  UNL d   1       3.720   3.266   5.655  0.00  0.00     0.004 A 
ATOM      3  C4  UNL d   1       4.235   2.125   5.042  0.00  0.00    -0.003 A 
ATOM      4  C5  UNL d   1       5.237   2.244   4.086  0.00  0.00     0.000 A 
ATOM      5  C6  UNL d   1       5.736   3.504   3.756  0.00  0.00     0.000 A 
ATOM      6  C7  UNL d   1       5.239   4.663   4.376  0.00  0.00    -0.073 A 
ATOM      7  C8  UNL d   1       5.810   5.997   3.977  0.00  0.00     0.078 C 
ENDROOT
BRANCH   1   8
ATOM      8  C1  UNL d   1       3.583   5.748   6.000  0.00  0.00     0.053 C 
ATOM      9  C   UNL d   1       2.114   5.926   5.650  0.00  0.00     0.018 C 
ENDBRANCH   1   8
TORSDOF 1
ENDMDL
