MODEL 1
REMARK minimizedAffinity 14.3570595
REMARK minimizedRMSD -1
REMARK  1 active torsions:
REMARK  status: ('A' for Active; 'I' for Inactive)
REMARK    1  A    between atoms: C1_2  and  C2_3 
ROOT
ATOM      1  C2  UNL d   1      -2.007  -3.617   2.004  0.00  0.00    -0.076 A 
ATOM      2  C3  UNL d   1      -2.525  -2.456   1.404  0.00  0.00     0.004 A 
ATOM      3  C4  UNL d   1      -2.151  -2.088   0.113  0.00  0.00    -0.003 A 
ATOM      4  C5  UNL d   1      -1.255  -2.876  -0.600  0.00  0.00     0.000 A 
ATOM      5  C6  UNL d   1      -0.744  -4.041  -0.027  0.00  0.00     0.000 A 
ATOM      6  C7  UNL d   1      -1.123  -4.434   1.268  0.00  0.00    -0.073 A 
ATOM      7  C8  UNL d   1      -0.537  -5.696   1.839  0.00  0.00     0.078 C 
ENDROOT
BRANCH   1   8
ATOM      8  C1  UNL d   1      -2.426  -3.950   3.418  0.00  0.00     0.053 C 
ATOM      9  C   UNL d   1      -2.835  -2.718   4.211  0.00  0.00     0.018 C 
ENDBRANCH   1   8
TORSDOF 1
ENDMDL
