MODEL 1
REMARK minimizedAffinity 14.0851612
REMARK minimizedRMSD -1
REMARK  1 active torsions:
REMARK  status: ('A' for Active; 'I' for Inactive)
REMARK    1  A    between atoms: C1_2  and  C2_3 
ROOT
ATOM      1  C2  UNL d   1      -1.552  -3.060   2.116  0.00  0.00    -0.076 A 
ATOM      2  C3  UNL d   1      -2.244  -1.974   1.552  0.00  0.00     0.004 A 
ATOM      3  C4  UNL d   1      -2.065  -1.626   0.215  0.00  0.00    -0.003 A 
ATOM      4  C5  UNL d   1      -1.192  -2.358  -0.582  0.00  0.00     0.000 A 
ATOM      5  C6  UNL d   1      -0.511  -3.450  -0.044  0.00  0.00     0.000 A 
ATOM      6  C7  UNL d   1      -0.692  -3.824   1.298  0.00  0.00    -0.073 A 
ATOM      7  C8  UNL d   1       0.073  -5.007   1.827  0.00  0.00     0.078 C 
ENDROOT
BRANCH   1   8
ATOM      8  C1  UNL d   1      -1.765  -3.375   3.579  0.00  0.00     0.053 C 
ATOM      9  C   UNL d   1      -1.472  -2.184   4.479  0.00  0.00     0.018 C 
ENDBRANCH   1   8
TORSDOF 1
ENDMDL
