MODEL 1
REMARK minimizedAffinity 7.7427659
REMARK minimizedRMSD -1
REMARK  1 active torsions:
REMARK  status: ('A' for Active; 'I' for Inactive)
REMARK    1  A    between atoms: C1_2  and  C2_3 
ROOT
ATOM      1  C2  UNL d   1      -1.657  -2.727   1.086  0.00  0.00    -0.076 A 
ATOM      2  C3  UNL d   1      -1.892  -1.396   0.701  0.00  0.00     0.004 A 
ATOM      3  C4  UNL d   1      -1.850  -1.019  -0.640  0.00  0.00    -0.003 A 
ATOM      4  C5  UNL d   1      -1.573  -1.968  -1.619  0.00  0.00     0.000 A 
ATOM      5  C6  UNL d   1      -1.355  -3.296  -1.256  0.00  0.00     0.000 A 
ATOM      6  C7  UNL d   1      -1.410  -3.696   0.090  0.00  0.00    -0.073 A 
ATOM      7  C8  UNL d   1      -1.161  -5.141   0.425  0.00  0.00     0.078 C 
ENDROOT
BRANCH   1   8
ATOM      8  C1  UNL d   1      -1.689  -3.072   2.558  0.00  0.00     0.053 C 
ATOM      9  C   UNL d   1      -1.311  -1.892   3.441  0.00  0.00     0.018 C 
ENDBRANCH   1   8
TORSDOF 1
ENDMDL
