MODEL 1
REMARK minimizedAffinity 5.33617687
REMARK minimizedRMSD -1
REMARK  1 active torsions:
REMARK  status: ('A' for Active; 'I' for Inactive)
REMARK    1  A    between atoms: C1_2  and  C2_3 
ROOT
ATOM      1  C2  UNL d   1      -1.741  -3.678   2.131  0.00  0.00    -0.076 A 
ATOM      2  C3  UNL d   1      -2.277  -2.462   1.672  0.00  0.00     0.004 A 
ATOM      3  C4  UNL d   1      -1.981  -1.983   0.397  0.00  0.00    -0.003 A 
ATOM      4  C5  UNL d   1      -1.144  -2.713  -0.440  0.00  0.00     0.000 A 
ATOM      5  C6  UNL d   1      -0.618  -3.930  -0.008  0.00  0.00     0.000 A 
ATOM      6  C7  UNL d   1      -0.919  -4.434   1.268  0.00  0.00    -0.073 A 
ATOM      7  C8  UNL d   1      -0.319  -5.749   1.685  0.00  0.00     0.078 C 
ENDROOT
BRANCH   1   8
ATOM      8  C1  UNL d   1      -2.075  -4.133   3.533  0.00  0.00     0.053 C 
ATOM      9  C   UNL d   1      -1.818  -3.054   4.574  0.00  0.00     0.018 C 
ENDBRANCH   1   8
TORSDOF 1
ENDMDL
