MODEL 1
REMARK minimizedAffinity 6.30973339
REMARK minimizedRMSD -1
REMARK  1 active torsions:
REMARK  status: ('A' for Active; 'I' for Inactive)
REMARK    1  A    between atoms: C1_2  and  C2_3 
ROOT
ATOM      1  C2  UNL d   1      -1.085  -3.013   0.363  0.00  0.00    -0.076 A 
ATOM      2  C3  UNL d   1      -1.057  -2.491  -0.942  0.00  0.00     0.004 A 
ATOM      3  C4  UNL d   1      -1.908  -1.452  -1.317  0.00  0.00    -0.003 A 
ATOM      4  C5  UNL d   1      -2.800  -0.919  -0.393  0.00  0.00     0.000 A 
ATOM      5  C6  UNL d   1      -2.829  -1.413   0.910  0.00  0.00     0.000 A 
ATOM      6  C7  UNL d   1      -1.967  -2.448   1.310  0.00  0.00    -0.073 A 
ATOM      7  C8  UNL d   1      -2.045  -2.947   2.727  0.00  0.00     0.078 C 
ENDROOT
BRANCH   1   8
ATOM      8  C1  UNL d   1      -0.158  -4.158   0.705  0.00  0.00     0.053 C 
ATOM      9  C   UNL d   1      -0.737  -5.511   0.322  0.00  0.00     0.018 C 
ENDBRANCH   1   8
TORSDOF 1
ENDMDL
