MODEL 1
REMARK minimizedAffinity 10.7721357
REMARK minimizedRMSD -1
REMARK  1 active torsions:
REMARK  status: ('A' for Active; 'I' for Inactive)
REMARK    1  A    between atoms: C1_2  and  C2_3 
ROOT
ATOM      1  C2  UNL d   1       4.316   1.330  -2.418  0.00  0.00    -0.076 A 
ATOM      2  C3  UNL d   1       3.059   0.702  -2.437  0.00  0.00     0.004 A 
ATOM      3  C4  UNL d   1       2.185   0.812  -1.357  0.00  0.00    -0.003 A 
ATOM      4  C5  UNL d   1       2.554   1.553  -0.240  0.00  0.00     0.000 A 
ATOM      5  C6  UNL d   1       3.790   2.197  -0.210  0.00  0.00     0.000 A 
ATOM      6  C7  UNL d   1       4.676   2.110  -1.298  0.00  0.00    -0.073 A 
ATOM      7  C8  UNL d   1       5.999   2.820  -1.210  0.00  0.00     0.078 C 
ENDROOT
BRANCH   1   8
ATOM      8  C1  UNL d   1       5.233   1.153  -3.607  0.00  0.00     0.053 C 
ATOM      9  C   UNL d   1       5.989  -0.166  -3.569  0.00  0.00     0.018 C 
ENDBRANCH   1   8
TORSDOF 1
ENDMDL
