MODEL 1
REMARK minimizedAffinity 16.9761734
REMARK minimizedRMSD -1
REMARK  1 active torsions:
REMARK  status: ('A' for Active; 'I' for Inactive)
REMARK    1  A    between atoms: C1_2  and  C2_3 
ROOT
ATOM      1  C2  UNL d   1      -3.413   0.254   5.952  0.00  0.00    -0.076 A 
ATOM      2  C3  UNL d   1      -2.507   1.329   5.974  0.00  0.00     0.004 A 
ATOM      3  C4  UNL d   1      -2.958   2.647   5.996  0.00  0.00    -0.003 A 
ATOM      4  C5  UNL d   1      -4.323   2.913   5.997  0.00  0.00     0.000 A 
ATOM      5  C6  UNL d   1      -5.236   1.859   5.993  0.00  0.00     0.000 A 
ATOM      6  C7  UNL d   1      -4.797   0.523   5.988  0.00  0.00    -0.073 A 
ATOM      7  C8  UNL d   1      -5.826  -0.574   5.978  0.00  0.00     0.078 C 
ENDROOT
BRANCH   1   8
ATOM      8  C1  UNL d   1      -2.865  -1.154   5.902  0.00  0.00     0.053 C 
ATOM      9  C   UNL d   1      -1.550  -1.241   5.142  0.00  0.00     0.018 C 
ENDBRANCH   1   8
TORSDOF 1
ENDMDL
