MODEL 1
REMARK minimizedAffinity 11.9493589
REMARK minimizedRMSD -1
REMARK  1 active torsions:
REMARK  status: ('A' for Active; 'I' for Inactive)
REMARK    1  A    between atoms: C1_2  and  C2_3 
ROOT
ATOM      1  C2  UNL d   1       3.693   2.726   0.295  0.00  0.00    -0.076 A 
ATOM      2  C3  UNL d   1       3.033   2.966  -0.922  0.00  0.00     0.004 A 
ATOM      3  C4  UNL d   1       2.340   1.948  -1.575  0.00  0.00    -0.003 A 
ATOM      4  C5  UNL d   1       2.296   0.673  -1.021  0.00  0.00     0.000 A 
ATOM      5  C6  UNL d   1       2.931   0.422   0.195  0.00  0.00     0.000 A 
ATOM      6  C7  UNL d   1       3.619   1.441   0.875  0.00  0.00    -0.073 A 
ATOM      7  C8  UNL d   1       4.291   1.113   2.180  0.00  0.00     0.078 C 
ENDROOT
BRANCH   1   8
ATOM      8  C1  UNL d   1       4.451   3.862   0.944  0.00  0.00     0.053 C 
ATOM      9  C   UNL d   1       4.919   4.901  -0.064  0.00  0.00     0.018 C 
ENDBRANCH   1   8
TORSDOF 1
ENDMDL
