MODEL 1
REMARK minimizedAffinity 10.2415476
REMARK minimizedRMSD -1
REMARK  1 active torsions:
REMARK  status: ('A' for Active; 'I' for Inactive)
REMARK    1  A    between atoms: C1_2  and  C2_3 
ROOT
ATOM      1  C2  UNL d   1      -1.783  -3.666   2.145  0.00  0.00    -0.076 A 
ATOM      2  C3  UNL d   1      -2.042  -2.366   1.676  0.00  0.00     0.004 A 
ATOM      3  C4  UNL d   1      -1.636  -1.968   0.403  0.00  0.00    -0.003 A 
ATOM      4  C5  UNL d   1      -0.965  -2.865  -0.422  0.00  0.00     0.000 A 
ATOM      5  C6  UNL d   1      -0.716  -4.164   0.020  0.00  0.00     0.000 A 
ATOM      6  C7  UNL d   1      -1.133  -4.585   1.294  0.00  0.00    -0.073 A 
ATOM      7  C8  UNL d   1      -0.832  -5.996   1.722  0.00  0.00     0.078 C 
ENDROOT
BRANCH   1   8
ATOM      8  C1  UNL d   1      -2.223  -4.032   3.544  0.00  0.00     0.053 C 
ATOM      9  C   UNL d   1      -2.467  -2.810   4.416  0.00  0.00     0.018 C 
ENDBRANCH   1   8
TORSDOF 1
ENDMDL
