MODEL 1
REMARK minimizedAffinity 7.45541239
REMARK minimizedRMSD -1
REMARK  1 active torsions:
REMARK  status: ('A' for Active; 'I' for Inactive)
REMARK    1  A    between atoms: C1_2  and  C2_3 
ROOT
ATOM      1  C2  UNL d   1      -1.666  -0.790  -1.807  0.00  0.00    -0.076 A 
ATOM      2  C3  UNL d   1      -1.727  -1.506  -0.599  0.00  0.00     0.004 A 
ATOM      3  C4  UNL d   1      -2.841  -1.412   0.234  0.00  0.00    -0.003 A 
ATOM      4  C5  UNL d   1      -3.911  -0.602  -0.127  0.00  0.00     0.000 A 
ATOM      5  C6  UNL d   1      -3.875   0.102  -1.331  0.00  0.00     0.000 A 
ATOM      6  C7  UNL d   1      -2.767   0.006  -2.190  0.00  0.00    -0.073 A 
ATOM      7  C8  UNL d   1      -2.778   0.792  -3.473  0.00  0.00     0.078 C 
ENDROOT
BRANCH   1   8
ATOM      8  C1  UNL d   1      -0.421  -0.909  -2.657  0.00  0.00     0.053 C 
ATOM      9  C   UNL d   1       0.814  -0.356  -1.962  0.00  0.00     0.018 C 
ENDBRANCH   1   8
TORSDOF 1
ENDMDL
