MODEL 1
REMARK minimizedAffinity 2.89351463
REMARK minimizedRMSD -1
REMARK  1 active torsions:
REMARK  status: ('A' for Active; 'I' for Inactive)
REMARK    1  A    between atoms: C1_2  and  C2_3 
ROOT
ATOM      1  C2  UNL d   1      -0.759  -0.017  -2.376  0.00  0.00    -0.076 A 
ATOM      2  C3  UNL d   1      -1.166  -0.754  -1.251  0.00  0.00     0.004 A 
ATOM      3  C4  UNL d   1      -2.511  -0.835  -0.895  0.00  0.00    -0.003 A 
ATOM      4  C5  UNL d   1      -3.471  -0.181  -1.659  0.00  0.00     0.000 A 
ATOM      5  C6  UNL d   1      -3.087   0.541  -2.789  0.00  0.00     0.000 A 
ATOM      6  C7  UNL d   1      -1.737   0.619  -3.171  0.00  0.00    -0.073 A 
ATOM      7  C8  UNL d   1      -1.378   1.416  -4.395  0.00  0.00     0.078 C 
ENDROOT
BRANCH   1   8
ATOM      8  C1  UNL d   1       0.717   0.058  -2.698  0.00  0.00     0.053 C 
ATOM      9  C   UNL d   1       1.417   1.188  -1.960  0.00  0.00     0.018 C 
ENDBRANCH   1   8
TORSDOF 1
ENDMDL
