MODEL 1
REMARK minimizedAffinity 20.3366261
REMARK minimizedRMSD -1
REMARK  1 active torsions:
REMARK  status: ('A' for Active; 'I' for Inactive)
REMARK    1  A    between atoms: C1_2  and  C2_3 
ROOT
ATOM      1  C2  UNL d   1      -3.351  -0.874  -0.264  0.00  0.00    -0.076 A 
ATOM      2  C3  UNL d   1      -2.941  -1.042  -1.598  0.00  0.00     0.004 A 
ATOM      3  C4  UNL d   1      -1.683  -1.560  -1.902  0.00  0.00    -0.003 A 
ATOM      4  C5  UNL d   1      -0.815  -1.920  -0.877  0.00  0.00     0.000 A 
ATOM      5  C6  UNL d   1      -1.212  -1.777   0.452  0.00  0.00     0.000 A 
ATOM      6  C7  UNL d   1      -2.483  -1.271   0.776  0.00  0.00    -0.073 A 
ATOM      7  C8  UNL d   1      -2.856  -1.131   2.226  0.00  0.00     0.078 C 
ENDROOT
BRANCH   1   8
ATOM      8  C1  UNL d   1      -4.715  -0.281   0.005  0.00  0.00     0.053 C 
ATOM      9  C   UNL d   1      -5.733  -1.329   0.428  0.00  0.00     0.018 C 
ENDBRANCH   1   8
TORSDOF 1
ENDMDL
