MODEL 1
REMARK minimizedAffinity -3.36040425
REMARK minimizedRMSD -1
REMARK  0 active torsions:
REMARK  status: ('A' for Active; 'I' for Inactive)
ROOT
ATOM      1  N1  IND d   1      -1.577  -0.567   2.208  0.00  0.00    -0.196 N 
ATOM      2  C2  IND d   1      -2.803  -0.463   1.612  0.00  0.00     0.054 A 
ATOM      3  C3  IND d   1      -2.668  -0.082   0.321  0.00  0.00    -0.031 A 
ATOM      4  C4  IND d   1      -0.526   0.326  -1.047  0.00  0.00     0.051 A 
ATOM      5  C5  IND d   1       0.834   0.390  -0.926  0.00  0.00    -0.031 A 
ATOM      6  C6  IND d   1       1.473   0.130   0.269  0.00  0.00     0.015 A 
ATOM      7  C7  IND d   1       0.773  -0.216   1.390  0.00  0.00    -0.016 A 
ATOM      8  C8  IND d   1      -0.609  -0.275   1.273  0.00  0.00    -0.047 A 
ATOM      9  C9  IND d   1      -1.265   0.029   0.073  0.00  0.00    -0.096 A 
ATOM     10  HN1 IND d   1      -1.435  -0.779   3.029  0.00  0.00     0.298 HD
ENDROOT
TORSDOF 0
ENDMDL
