MODEL 1
REMARK minimizedAffinity -1.68388891
REMARK minimizedRMSD -1
REMARK  0 active torsions:
REMARK  status: ('A' for Active; 'I' for Inactive)
ROOT
ATOM      1  N1  IND d   1       5.097   5.956   3.507  0.00  0.00    -0.196 N 
ATOM      2  C2  IND d   1       4.890   5.911   2.156  0.00  0.00     0.054 A 
ATOM      3  C3  IND d   1       3.566   5.877   1.884  0.00  0.00    -0.031 A 
ATOM      4  C4  IND d   1       1.562   5.989   3.495  0.00  0.00     0.051 A 
ATOM      5  C5  IND d   1       1.248   6.000   4.825  0.00  0.00    -0.031 A 
ATOM      6  C6  IND d   1       2.221   6.000   5.804  0.00  0.00     0.015 A 
ATOM      7  C7  IND d   1       3.550   6.000   5.487  0.00  0.00    -0.016 A 
ATOM      8  C8  IND d   1       3.872   5.981   4.137  0.00  0.00    -0.047 A 
ATOM      9  C9  IND d   1       2.889   5.938   3.140  0.00  0.00    -0.096 A 
ATOM     10  HN1 IND d   1       5.863   5.966   3.897  0.00  0.00     0.298 HD
ENDROOT
TORSDOF 0
ENDMDL
