MODEL 1
REMARK minimizedAffinity 0.924404323
REMARK minimizedRMSD -1
REMARK  0 active torsions:
REMARK  status: ('A' for Active; 'I' for Inactive)
ROOT
ATOM      1  N1  IND d   1       4.178   5.602   3.148  0.00  0.00    -0.196 N 
ATOM      2  C2  IND d   1       3.835   4.920   2.014  0.00  0.00     0.054 A 
ATOM      3  C3  IND d   1       2.614   4.356   2.156  0.00  0.00    -0.031 A 
ATOM      4  C4  IND d   1       0.961   4.507   4.123  0.00  0.00     0.051 A 
ATOM      5  C5  IND d   1       0.844   4.988   5.397  0.00  0.00    -0.031 A 
ATOM      6  C6  IND d   1       1.852   5.715   5.998  0.00  0.00     0.015 A 
ATOM      7  C7  IND d   1       3.014   5.999   5.339  0.00  0.00    -0.016 A 
ATOM      8  C8  IND d   1       3.140   5.507   4.048  0.00  0.00    -0.047 A 
ATOM      9  C9  IND d   1       2.138   4.732   3.449  0.00  0.00    -0.096 A 
ATOM     10  HN1 IND d   1       4.918   6.020   3.277  0.00  0.00     0.298 HD
ENDROOT
TORSDOF 0
ENDMDL
