MODEL 1
REMARK minimizedAffinity 3.90485978
REMARK minimizedRMSD -1
REMARK  0 active torsions:
REMARK  status: ('A' for Active; 'I' for Inactive)
ROOT
ATOM      1  N1  IND d   1       0.252  -0.926  -1.377  0.00  0.00    -0.196 N 
ATOM      2  C2  IND d   1       1.486  -1.137  -0.828  0.00  0.00     0.054 A 
ATOM      3  C3  IND d   1       1.447  -0.932   0.508  0.00  0.00    -0.031 A 
ATOM      4  C4  IND d   1      -0.555  -0.347   2.016  0.00  0.00     0.051 A 
ATOM      5  C5  IND d   1      -1.881  -0.019   1.966  0.00  0.00    -0.031 A 
ATOM      6  C6  IND d   1      -2.578   0.022   0.776  0.00  0.00     0.015 A 
ATOM      7  C7  IND d   1      -1.976  -0.276  -0.413  0.00  0.00    -0.016 A 
ATOM      8  C8  IND d   1      -0.628  -0.603  -0.368  0.00  0.00    -0.047 A 
ATOM      9  C9  IND d   1       0.095  -0.605   0.832  0.00  0.00    -0.096 A 
ATOM     10  HN1 IND d   1       0.058  -0.985  -2.213  0.00  0.00     0.298 HD
ENDROOT
TORSDOF 0
ENDMDL
