MODEL 1
REMARK minimizedAffinity 10.4263039
REMARK minimizedRMSD -1
REMARK  0 active torsions:
REMARK  status: ('A' for Active; 'I' for Inactive)
ROOT
ATOM      1  N1  IND d   1       0.181  -0.282  -0.156  0.00  0.00    -0.196 N 
ATOM      2  C2  IND d   1       1.466  -0.728  -0.020  0.00  0.00     0.054 A 
ATOM      3  C3  IND d   1       1.618  -1.377   1.156  0.00  0.00    -0.031 A 
ATOM      4  C4  IND d   1      -0.134  -1.915   2.964  0.00  0.00     0.051 A 
ATOM      5  C5  IND d   1      -1.437  -1.683   3.305  0.00  0.00    -0.031 A 
ATOM      6  C6  IND d   1      -2.286  -0.960   2.491  0.00  0.00     0.015 A 
ATOM      7  C7  IND d   1      -1.863  -0.450   1.296  0.00  0.00    -0.016 A 
ATOM      8  C8  IND d   1      -0.539  -0.677   0.951  0.00  0.00    -0.047 A 
ATOM      9  C9  IND d   1       0.339  -1.373   1.792  0.00  0.00    -0.096 A 
ATOM     10  HN1 IND d   1      -0.126   0.169  -0.820  0.00  0.00     0.298 HD
ENDROOT
TORSDOF 0
ENDMDL
