MODEL 1
REMARK minimizedAffinity 5.0923605
REMARK minimizedRMSD -1
REMARK  0 active torsions:
REMARK  status: ('A' for Active; 'I' for Inactive)
ROOT
ATOM      1  N1  IND d   1      -1.922  -0.921   0.626  0.00  0.00    -0.196 N 
ATOM      2  C2  IND d   1      -2.391  -0.779   1.903  0.00  0.00     0.054 A 
ATOM      3  C3  IND d   1      -1.362  -0.680   2.774  0.00  0.00    -0.031 A 
ATOM      4  C4  IND d   1       1.170  -0.625   2.314  0.00  0.00     0.051 A 
ATOM      5  C5  IND d   1       2.086  -0.759   1.307  0.00  0.00    -0.031 A 
ATOM      6  C6  IND d   1       1.704  -0.954  -0.004  0.00  0.00     0.015 A 
ATOM      7  C7  IND d   1       0.386  -1.013  -0.362  0.00  0.00    -0.016 A 
ATOM      8  C8  IND d   1      -0.545  -0.885   0.659  0.00  0.00    -0.047 A 
ATOM      9  C9  IND d   1      -0.164  -0.728   1.997  0.00  0.00    -0.096 A 
ATOM     10  HN1 IND d   1      -2.406  -1.017  -0.078  0.00  0.00     0.298 HD
ENDROOT
TORSDOF 0
ENDMDL
