MODEL 1
REMARK minimizedAffinity -1.09638524
REMARK minimizedRMSD -1
REMARK  0 active torsions:
REMARK  status: ('A' for Active; 'I' for Inactive)
ROOT
ATOM      1  N1  IND d   1       1.139   5.974   4.706  0.00  0.00    -0.196 N 
ATOM      2  C2  IND d   1       1.681   5.941   5.960  0.00  0.00     0.054 A 
ATOM      3  C3  IND d   1       3.030   5.906   5.889  0.00  0.00    -0.031 A 
ATOM      4  C4  IND d   1       4.562   6.000   3.822  0.00  0.00     0.051 A 
ATOM      5  C5  IND d   1       4.528   6.000   2.456  0.00  0.00    -0.031 A 
ATOM      6  C6  IND d   1       3.339   5.994   1.756  0.00  0.00     0.015 A 
ATOM      7  C7  IND d   1       2.134   5.999   2.399  0.00  0.00    -0.016 A 
ATOM      8  C8  IND d   1       2.164   5.992   3.786  0.00  0.00    -0.047 A 
ATOM      9  C9  IND d   1       3.367   5.955   4.502  0.00  0.00    -0.096 A 
ATOM     10  HN1 IND d   1       0.299   5.983   4.522  0.00  0.00     0.298 HD
ENDROOT
TORSDOF 0
ENDMDL
