MODEL 1
REMARK minimizedAffinity 3.83948636
REMARK minimizedRMSD -1
REMARK  0 active torsions:
REMARK  status: ('A' for Active; 'I' for Inactive)
ROOT
ATOM      1  N1  IND d   1       0.797  -0.992  -0.254  0.00  0.00    -0.196 N 
ATOM      2  C2  IND d   1       1.706  -1.892   0.229  0.00  0.00     0.054 A 
ATOM      3  C3  IND d   1       1.419  -2.207   1.512  0.00  0.00    -0.031 A 
ATOM      4  C4  IND d   1      -0.551  -1.443   2.983  0.00  0.00     0.051 A 
ATOM      5  C5  IND d   1      -1.623  -0.595   2.992  0.00  0.00    -0.031 A 
ATOM      6  C6  IND d   1      -1.951   0.177   1.897  0.00  0.00     0.015 A 
ATOM      7  C7  IND d   1      -1.223   0.122   0.742  0.00  0.00    -0.016 A 
ATOM      8  C8  IND d   1      -0.130  -0.733   0.731  0.00  0.00    -0.047 A 
ATOM      9  C9  IND d   1       0.233  -1.488   1.854  0.00  0.00    -0.096 A 
ATOM     10  HN1 IND d   1       0.803  -0.647  -1.042  0.00  0.00     0.298 HD
ENDROOT
TORSDOF 0
ENDMDL
