MODEL 1
REMARK minimizedAffinity 1.24641287
REMARK minimizedRMSD -1
REMARK  0 active torsions:
REMARK  status: ('A' for Active; 'I' for Inactive)
ROOT
ATOM      1  N1  IND d   1       1.811  -1.731  -1.225  0.00  0.00    -0.196 N 
ATOM      2  C2  IND d   1       1.081  -0.760  -1.852  0.00  0.00     0.054 A 
ATOM      3  C3  IND d   1       0.143  -0.263  -1.014  0.00  0.00    -0.031 A 
ATOM      4  C4  IND d   1      -0.304  -0.824   1.458  0.00  0.00     0.051 A 
ATOM      5  C5  IND d   1       0.082  -1.674   2.457  0.00  0.00    -0.031 A 
ATOM      6  C6  IND d   1       1.086  -2.604   2.276  0.00  0.00     0.015 A 
ATOM      7  C7  IND d   1       1.752  -2.710   1.088  0.00  0.00    -0.016 A 
ATOM      8  C8  IND d   1       1.358  -1.854   0.070  0.00  0.00    -0.047 A 
ATOM      9  C9  IND d   1       0.311  -0.938   0.234  0.00  0.00    -0.096 A 
ATOM     10  HN1 IND d   1       2.446  -2.189  -1.581  0.00  0.00     0.298 HD
ENDROOT
TORSDOF 0
ENDMDL
