MODEL 1
REMARK minimizedAffinity -2.77476501
REMARK minimizedRMSD -1
REMARK  2 active torsions:
REMARK  status: ('A' for Active; 'I' for Inactive)
REMARK    1  A    between atoms: C2'_3  and  C1'_4 
REMARK    2  A    between atoms: C1'_4  and  C1_5 
ROOT
ATOM      1  C1  I4B d   1       0.992  -1.094  -0.493  0.00  0.00    -0.075 A 
ATOM      2  C2  I4B d   1       0.090  -0.194  -1.002  0.00  0.00     0.003 A 
ATOM      3  C3  I4B d   1      -0.850   0.434  -0.149  0.00  0.00     0.002 A 
ATOM      4  C4  I4B d   1      -0.886   0.095   1.189  0.00  0.00    -0.004 A 
ATOM      5  C5  I4B d   1       0.044  -0.801   1.707  0.00  0.00     0.002 A 
ATOM      6  C6  I4B d   1       0.997  -1.391   0.864  0.00  0.00     0.003 A 
ENDROOT
BRANCH   1   7
ATOM      7  C1' I4B d   1       1.949  -1.763  -1.428  0.00  0.00     0.060 C 
BRANCH   7   8
ATOM      8  C2' I4B d   1       1.582  -1.356  -2.841  0.00  0.00    -0.013 C 
ATOM      9  C4' I4B d   1       2.659  -0.504  -3.460  0.00  0.00     0.013 C 
ATOM     10  C3' I4B d   1       1.356  -2.606  -3.638  0.00  0.00     0.013 C 
ENDBRANCH   7   8
ENDBRANCH   1   7
TORSDOF 2
ENDMDL
