MODEL 1
REMARK minimizedAffinity -4.65860701
REMARK minimizedRMSD -1
REMARK  2 active torsions:
REMARK  status: ('A' for Active; 'I' for Inactive)
REMARK    1  A    between atoms: C2'_3  and  C1'_4 
REMARK    2  A    between atoms: C1'_4  and  C1_5 
ROOT
ATOM      1  C1  I4B d   1       1.256   0.360  -0.950  0.00  0.00    -0.075 A 
ATOM      2  C2  I4B d   1       0.781   1.501  -1.546  0.00  0.00     0.003 A 
ATOM      3  C3  I4B d   1       1.280   1.907  -2.807  0.00  0.00     0.002 A 
ATOM      4  C4  I4B d   1       2.282   1.175  -3.410  0.00  0.00    -0.004 A 
ATOM      5  C5  I4B d   1       2.746   0.005  -2.815  0.00  0.00     0.002 A 
ATOM      6  C6  I4B d   1       2.222  -0.412  -1.583  0.00  0.00     0.003 A 
ENDROOT
BRANCH   1   7
ATOM      7  C1' I4B d   1       0.731  -0.022   0.398  0.00  0.00     0.060 C 
BRANCH   7   8
ATOM      8  C2' I4B d   1      -0.646  -0.625   0.209  0.00  0.00    -0.013 C 
ATOM      9  C4' I4B d   1      -0.611  -2.123   0.360  0.00  0.00     0.013 C 
ATOM     10  C3' I4B d   1      -1.566  -0.001   1.215  0.00  0.00     0.013 C 
ENDBRANCH   7   8
ENDBRANCH   1   7
TORSDOF 2
ENDMDL
