MODEL 1
REMARK minimizedAffinity -3.672755
REMARK minimizedRMSD -1
REMARK  2 active torsions:
REMARK  status: ('A' for Active; 'I' for Inactive)
REMARK    1  A    between atoms: C2'_3  and  C1'_4 
REMARK    2  A    between atoms: C1'_4  and  C1_5 
ROOT
ATOM      1  C1  I4B d   1      -0.270  -0.159   0.034  0.00  0.00    -0.075 A 
ATOM      2  C2  I4B d   1       0.509   0.158  -1.051  0.00  0.00     0.003 A 
ATOM      3  C3  I4B d   1       1.665  -0.606  -1.346  0.00  0.00     0.002 A 
ATOM      4  C4  I4B d   1       2.029  -1.639  -0.507  0.00  0.00    -0.004 A 
ATOM      5  C5  I4B d   1       1.225  -1.973   0.579  0.00  0.00     0.002 A 
ATOM      6  C6  I4B d   1       0.062  -1.236   0.845  0.00  0.00     0.003 A 
ENDROOT
BRANCH   1   7
ATOM      7  C1' I4B d   1      -1.465   0.690   0.335  0.00  0.00     0.060 C 
BRANCH   7   8
ATOM      8  C2' I4B d   1      -1.673   0.685   1.836  0.00  0.00    -0.013 C 
ATOM      9  C4' I4B d   1      -1.905   2.079   2.358  0.00  0.00     0.013 C 
ATOM     10  C3' I4B d   1      -2.840  -0.207   2.138  0.00  0.00     0.013 C 
ENDBRANCH   7   8
ENDBRANCH   1   7
TORSDOF 2
ENDMDL
