MODEL 1
REMARK minimizedAffinity -3.34449172
REMARK minimizedRMSD -1
REMARK  2 active torsions:
REMARK  status: ('A' for Active; 'I' for Inactive)
REMARK    1  A    between atoms: C2'_3  and  C1'_4 
REMARK    2  A    between atoms: C1'_4  and  C1_5 
ROOT
ATOM      1  C1  I4B d   1       1.000   0.058  -0.548  0.00  0.00    -0.075 A 
ATOM      2  C2  I4B d   1       0.957   1.159  -1.365  0.00  0.00     0.003 A 
ATOM      3  C3  I4B d   1       1.622   1.146  -2.615  0.00  0.00     0.002 A 
ATOM      4  C4  I4B d   1       2.355   0.036  -2.983  0.00  0.00    -0.004 A 
ATOM      5  C5  I4B d   1       2.379  -1.088  -2.163  0.00  0.00     0.002 A 
ATOM      6  C6  I4B d   1       1.688  -1.083  -0.943  0.00  0.00     0.003 A 
ENDROOT
BRANCH   1   7
ATOM      7  C1' I4B d   1       0.314   0.118   0.780  0.00  0.00     0.060 C 
BRANCH   7   8
ATOM      8  C2' I4B d   1      -1.179   0.176   0.532  0.00  0.00    -0.013 C 
ATOM      9  C4' I4B d   1      -1.943   0.293   1.825  0.00  0.00     0.013 C 
ATOM     10  C3' I4B d   1      -1.454   1.344  -0.367  0.00  0.00     0.013 C 
ENDBRANCH   7   8
ENDBRANCH   1   7
TORSDOF 2
ENDMDL
