MODEL 1
REMARK minimizedAffinity -2.00980377
REMARK minimizedRMSD -1
REMARK  2 active torsions:
REMARK  status: ('A' for Active; 'I' for Inactive)
REMARK    1  A    between atoms: C2'_3  and  C1'_4 
REMARK    2  A    between atoms: C1'_4  and  C1_5 
ROOT
ATOM      1  C1  I4B d   1      -0.896  -0.080   0.477  0.00  0.00    -0.075 A 
ATOM      2  C2  I4B d   1       0.393   0.109   0.911  0.00  0.00     0.003 A 
ATOM      3  C3  I4B d   1       1.438  -0.709   0.417  0.00  0.00     0.002 A 
ATOM      4  C4  I4B d   1       1.143  -1.729  -0.464  0.00  0.00    -0.004 A 
ATOM      5  C5  I4B d   1      -0.160  -1.904  -0.921  0.00  0.00     0.002 A 
ATOM      6  C6  I4B d   1      -1.184  -1.066  -0.457  0.00  0.00     0.003 A 
ENDROOT
BRANCH   1   7
ATOM      7  C1' I4B d   1      -1.980   0.781   1.044  0.00  0.00     0.060 C 
BRANCH   7   8
ATOM      8  C2' I4B d   1      -1.988   0.591   2.548  0.00  0.00    -0.013 C 
ATOM      9  C4' I4B d   1      -2.220   1.898   3.260  0.00  0.00     0.013 C 
ATOM     10  C3' I4B d   1      -3.058  -0.405   2.883  0.00  0.00     0.013 C 
ENDBRANCH   7   8
ENDBRANCH   1   7
TORSDOF 2
ENDMDL
