MODEL 1
REMARK minimizedAffinity -4.54366446
REMARK minimizedRMSD -1
REMARK  2 active torsions:
REMARK  status: ('A' for Active; 'I' for Inactive)
REMARK    1  A    between atoms: C2'_3  and  C1'_4 
REMARK    2  A    between atoms: C1'_4  and  C1_5 
ROOT
ATOM      1  C1  I4B d   1       0.738   0.149   0.166  0.00  0.00    -0.075 A 
ATOM      2  C2  I4B d   1       1.153   0.962  -0.859  0.00  0.00     0.003 A 
ATOM      3  C3  I4B d   1       1.723   0.402  -2.028  0.00  0.00     0.002 A 
ATOM      4  C4  I4B d   1       1.905  -0.964  -2.107  0.00  0.00    -0.004 A 
ATOM      5  C5  I4B d   1       1.463  -1.788  -1.077  0.00  0.00     0.002 A 
ATOM      6  C6  I4B d   1       0.864  -1.230   0.062  0.00  0.00     0.003 A 
ENDROOT
BRANCH   1   7
ATOM      7  C1' I4B d   1       0.170   0.777   1.399  0.00  0.00     0.060 C 
BRANCH   7   8
ATOM      8  C2' I4B d   1      -1.232   0.237   1.594  0.00  0.00    -0.013 C 
ATOM      9  C4' I4B d   1      -1.903   0.877   2.781  0.00  0.00     0.013 C 
ATOM     10  C3' I4B d   1      -2.005   0.489   0.334  0.00  0.00     0.013 C 
ENDBRANCH   7   8
ENDBRANCH   1   7
TORSDOF 2
ENDMDL
