MODEL 1
REMARK minimizedAffinity -4.33971024
REMARK minimizedRMSD -1
REMARK  2 active torsions:
REMARK  status: ('A' for Active; 'I' for Inactive)
REMARK    1  A    between atoms: C2'_3  and  C1'_4 
REMARK    2  A    between atoms: C1'_4  and  C1_5 
ROOT
ATOM      1  C1  I4B d   1      -0.852   0.222   0.914  0.00  0.00    -0.075 A 
ATOM      2  C2  I4B d   1      -2.173   0.592   0.946  0.00  0.00     0.003 A 
ATOM      3  C3  I4B d   1      -2.759   1.040   2.154  0.00  0.00     0.002 A 
ATOM      4  C4  I4B d   1      -2.005   1.055   3.310  0.00  0.00    -0.004 A 
ATOM      5  C5  I4B d   1      -0.659   0.701   3.271  0.00  0.00     0.002 A 
ATOM      6  C6  I4B d   1      -0.075   0.294   2.063  0.00  0.00     0.003 A 
ENDROOT
BRANCH   1   7
ATOM      7  C1' I4B d   1      -0.274  -0.278  -0.372  0.00  0.00     0.060 C 
BRANCH   7   8
ATOM      8  C2' I4B d   1       0.559  -1.506  -0.064  0.00  0.00    -0.013 C 
ATOM      9  C4' I4B d   1      -0.302  -2.736   0.044  0.00  0.00     0.013 C 
ATOM     10  C3' I4B d   1       1.583  -1.655  -1.149  0.00  0.00     0.013 C 
ENDBRANCH   7   8
ENDBRANCH   1   7
TORSDOF 2
ENDMDL
