MODEL 1
REMARK minimizedAffinity -3.68721986
REMARK minimizedRMSD -1
REMARK  2 active torsions:
REMARK  status: ('A' for Active; 'I' for Inactive)
REMARK    1  A    between atoms: C2'_3  and  C1'_4 
REMARK    2  A    between atoms: C1'_4  and  C1_5 
ROOT
ATOM      1  C1  I4B d   1      -0.275   0.016  -0.086  0.00  0.00    -0.075 A 
ATOM      2  C2  I4B d   1       0.107  -1.194   0.437  0.00  0.00     0.003 A 
ATOM      3  C3  I4B d   1       1.174  -1.918  -0.149  0.00  0.00     0.002 A 
ATOM      4  C4  I4B d   1       1.792  -1.423  -1.279  0.00  0.00    -0.004 A 
ATOM      5  C5  I4B d   1       1.419  -0.185  -1.794  0.00  0.00     0.002 A 
ATOM      6  C6  I4B d   1       0.387   0.545  -1.187  0.00  0.00     0.003 A 
ENDROOT
BRANCH   1   7
ATOM      7  C1' I4B d   1      -1.427   0.739   0.537  0.00  0.00     0.060 C 
BRANCH   7   8
ATOM      8  C2' I4B d   1      -1.426   0.427   2.020  0.00  0.00    -0.013 C 
ATOM      9  C4' I4B d   1      -1.016   1.629   2.830  0.00  0.00     0.013 C 
ATOM     10  C3' I4B d   1      -2.802  -0.035   2.396  0.00  0.00     0.013 C 
ENDBRANCH   7   8
ENDBRANCH   1   7
TORSDOF 2
ENDMDL
