MODEL 1
REMARK minimizedAffinity -5.08111668
REMARK minimizedRMSD -1
REMARK  2 active torsions:
REMARK  status: ('A' for Active; 'I' for Inactive)
REMARK    1  A    between atoms: C2'_3  and  C1'_4 
REMARK    2  A    between atoms: C1'_4  and  C1_5 
ROOT
ATOM      1  C1  I4B d   1       0.058   0.249  -1.488  0.00  0.00    -0.075 A 
ATOM      2  C2  I4B d   1       1.082  -0.665  -1.474  0.00  0.00     0.003 A 
ATOM      3  C3  I4B d   1       2.236  -0.455  -2.266  0.00  0.00     0.002 A 
ATOM      4  C4  I4B d   1       2.303   0.650  -3.090  0.00  0.00    -0.004 A 
ATOM      5  C5  I4B d   1       1.274   1.588  -3.086  0.00  0.00     0.002 A 
ATOM      6  C6  I4B d   1       0.150   1.393  -2.270  0.00  0.00     0.003 A 
ENDROOT
BRANCH   1   7
ATOM      7  C1' I4B d   1      -1.161  -0.021  -0.664  0.00  0.00     0.060 C 
BRANCH   7   8
ATOM      8  C2' I4B d   1      -0.709  -0.585   0.668  0.00  0.00    -0.013 C 
ATOM      9  C4' I4B d   1      -1.293   0.193   1.817  0.00  0.00     0.013 C 
ATOM     10  C3' I4B d   1      -1.121  -2.026   0.724  0.00  0.00     0.013 C 
ENDBRANCH   7   8
ENDBRANCH   1   7
TORSDOF 2
ENDMDL
