MODEL 1
REMARK minimizedAffinity -2.41266418
REMARK minimizedRMSD -1
REMARK  2 active torsions:
REMARK  status: ('A' for Active; 'I' for Inactive)
REMARK    1  A    between atoms: C2'_3  and  C1'_4 
REMARK    2  A    between atoms: C1'_4  and  C1_5 
ROOT
ATOM      1  C1  I4B d   1      -0.923   0.049   0.597  0.00  0.00    -0.075 A 
ATOM      2  C2  I4B d   1      -2.245   0.353   0.805  0.00  0.00     0.003 A 
ATOM      3  C3  I4B d   1      -2.698   0.714   2.097  0.00  0.00     0.002 A 
ATOM      4  C4  I4B d   1      -1.812   0.708   3.155  0.00  0.00    -0.004 A 
ATOM      5  C5  I4B d   1      -0.467   0.421   2.938  0.00  0.00     0.002 A 
ATOM      6  C6  I4B d   1      -0.017   0.101   1.649  0.00  0.00     0.003 A 
ENDROOT
BRANCH   1   7
ATOM      7  C1' I4B d   1      -0.485  -0.360  -0.773  0.00  0.00     0.060 C 
BRANCH   7   8
ATOM      8  C2' I4B d   1       0.777   0.408  -1.109  0.00  0.00    -0.013 C 
ATOM      9  C4' I4B d   1       1.761  -0.457  -1.852  0.00  0.00     0.013 C 
ATOM     10  C3' I4B d   1       0.388   1.607  -1.922  0.00  0.00     0.013 C 
ENDBRANCH   7   8
ENDBRANCH   1   7
TORSDOF 2
ENDMDL
