MODEL 1
REMARK minimizedAffinity -1.70473778
REMARK minimizedRMSD -1
REMARK  2 active torsions:
REMARK  status: ('A' for Active; 'I' for Inactive)
REMARK    1  A    between atoms: C2'_3  and  C1'_4 
REMARK    2  A    between atoms: C1'_4  and  C1_5 
ROOT
ATOM      1  C1  I4B d   1      -1.761   0.728   1.279  0.00  0.00    -0.075 A 
ATOM      2  C2  I4B d   1      -2.713  -0.053   1.887  0.00  0.00     0.003 A 
ATOM      3  C3  I4B d   1      -3.011   0.126   3.260  0.00  0.00     0.002 A 
ATOM      4  C4  I4B d   1      -2.302   1.055   3.994  0.00  0.00    -0.004 A 
ATOM      5  C5  I4B d   1      -1.353   1.861   3.371  0.00  0.00     0.002 A 
ATOM      6  C6  I4B d   1      -1.090   1.705   2.002  0.00  0.00     0.003 A 
ENDROOT
BRANCH   1   7
ATOM      7  C1' I4B d   1      -1.449   0.491  -0.164  0.00  0.00     0.060 C 
BRANCH   7   8
ATOM      8  C2' I4B d   1       0.057   0.406  -0.308  0.00  0.00    -0.013 C 
ATOM      9  C4' I4B d   1       0.509  -1.019  -0.488  0.00  0.00     0.013 C 
ATOM     10  C3' I4B d   1       0.458   1.253  -1.479  0.00  0.00     0.013 C 
ENDBRANCH   7   8
ENDBRANCH   1   7
TORSDOF 2
ENDMDL
