MODEL 1
REMARK minimizedAffinity -2.06488204
REMARK minimizedRMSD -1
REMARK  2 active torsions:
REMARK  status: ('A' for Active; 'I' for Inactive)
REMARK    1  A    between atoms: C2'_3  and  C1'_4 
REMARK    2  A    between atoms: C1'_4  and  C1_5 
ROOT
ATOM      1  C1  I4B d   1      -0.707   0.172   0.792  0.00  0.00    -0.075 A 
ATOM      2  C2  I4B d   1      -0.621   0.459  -0.548  0.00  0.00     0.003 A 
ATOM      3  C3  I4B d   1       0.150  -0.363  -1.405  0.00  0.00     0.002 A 
ATOM      4  C4  I4B d   1       0.855  -1.425  -0.876  0.00  0.00    -0.004 A 
ATOM      5  C5  I4B d   1       0.748  -1.728   0.478  0.00  0.00     0.002 A 
ATOM      6  C6  I4B d   1      -0.047  -0.933   1.316  0.00  0.00     0.003 A 
ENDROOT
BRANCH   1   7
ATOM      7  C1' I4B d   1      -1.503   1.080   1.674  0.00  0.00     0.060 C 
BRANCH   7   8
ATOM      8  C2' I4B d   1      -2.079   0.248   2.802  0.00  0.00    -0.013 C 
ATOM      9  C4' I4B d   1      -2.231   1.063   4.058  0.00  0.00     0.013 C 
ATOM     10  C3' I4B d   1      -3.400  -0.298   2.347  0.00  0.00     0.013 C 
ENDBRANCH   7   8
ENDBRANCH   1   7
TORSDOF 2
ENDMDL
