MODEL 1
REMARK minimizedAffinity -3.12307882
REMARK minimizedRMSD -1
REMARK  0 active torsions:
REMARK  status: ('A' for Active; 'I' for Inactive)
ROOT
ATOM      1  C   UNL d   1       1.105  -2.375  -0.254  0.00  0.00    -0.002 A 
ATOM      2  C1  UNL d   1      -0.015  -1.608   0.035  0.00  0.00     0.010 A 
ATOM      3  C2  UNL d   1       0.079  -0.218   0.122  0.00  0.00     0.041 A 
ATOM      4  C3  UNL d   1       1.329   0.395  -0.090  0.00  0.00    -0.075 A 
ATOM      5  S   UNL d   1       1.683   2.082  -0.036  0.00  0.00     0.015 SA
ATOM      6  C4  UNL d   1       3.329   1.824  -0.396  0.00  0.00     0.022 A 
ATOM      7  C5  UNL d   1       3.619   0.490  -0.557  0.00  0.00     0.026 A 
ATOM      8  C6  UNL d   1       2.471  -0.355  -0.384  0.00  0.00    -0.082 A 
ATOM      9  C7  UNL d   1       2.344  -1.763  -0.464  0.00  0.00     0.045 A 
ENDROOT
TORSDOF 0
ENDMDL
