MODEL 1
REMARK minimizedAffinity 7.23554659
REMARK minimizedRMSD -1
REMARK  0 active torsions:
REMARK  status: ('A' for Active; 'I' for Inactive)
ROOT
ATOM      1  C   UNL d   1      -1.398  -2.070  -6.000  0.00  0.00    -0.002 A 
ATOM      2  C1  UNL d   1      -1.435  -0.715  -5.705  0.00  0.00     0.010 A 
ATOM      3  C2  UNL d   1      -1.156  -0.261  -4.414  0.00  0.00     0.041 A 
ATOM      4  C3  UNL d   1      -0.833  -1.201  -3.416  0.00  0.00    -0.075 A 
ATOM      5  S   UNL d   1      -0.454  -0.876  -1.766  0.00  0.00     0.015 SA
ATOM      6  C4  UNL d   1      -0.233  -2.529  -1.413  0.00  0.00     0.022 A 
ATOM      7  C5  UNL d   1      -0.440  -3.324  -2.516  0.00  0.00     0.026 A 
ATOM      8  C6  UNL d   1      -0.789  -2.571  -3.689  0.00  0.00    -0.082 A 
ATOM      9  C7  UNL d   1      -1.078  -3.000  -5.007  0.00  0.00     0.045 A 
ENDROOT
TORSDOF 0
ENDMDL
