MODEL 1
REMARK minimizedAffinity -2.42835784
REMARK minimizedRMSD -1
REMARK  0 active torsions:
REMARK  status: ('A' for Active; 'I' for Inactive)
ROOT
ATOM      1  C   UNL d   1       2.881  -0.474   1.477  0.00  0.00    -0.002 A 
ATOM      2  C1  UNL d   1       2.942  -1.618   0.694  0.00  0.00     0.010 A 
ATOM      3  C2  UNL d   1       2.026  -1.820  -0.340  0.00  0.00     0.041 A 
ATOM      4  C3  UNL d   1       1.038  -0.843  -0.577  0.00  0.00    -0.075 A 
ATOM      5  S   UNL d   1      -0.188  -0.877  -1.788  0.00  0.00     0.015 SA
ATOM      6  C4  UNL d   1      -0.821   0.626  -1.295  0.00  0.00     0.022 A 
ATOM      7  C5  UNL d   1      -0.127   1.155  -0.233  0.00  0.00     0.026 A 
ATOM      8  C6  UNL d   1       0.957   0.317   0.198  0.00  0.00    -0.082 A 
ATOM      9  C7  UNL d   1       1.900   0.492   1.240  0.00  0.00     0.045 A 
ENDROOT
TORSDOF 0
ENDMDL
