MODEL 1
REMARK minimizedAffinity 1.70240629
REMARK minimizedRMSD -1
REMARK  0 active torsions:
REMARK  status: ('A' for Active; 'I' for Inactive)
ROOT
ATOM      1  C   UNL d   1       2.311  -0.230   1.615  0.00  0.00    -0.002 A 
ATOM      2  C1  UNL d   1       2.788  -0.706   0.402  0.00  0.00     0.010 A 
ATOM      3  C2  UNL d   1       1.936  -0.827  -0.698  0.00  0.00     0.041 A 
ATOM      4  C3  UNL d   1       0.584  -0.455  -0.557  0.00  0.00    -0.075 A 
ATOM      5  S   UNL d   1      -0.643  -0.517  -1.766  0.00  0.00     0.015 SA
ATOM      6  C4  UNL d   1      -1.828   0.090  -0.702  0.00  0.00     0.022 A 
ATOM      7  C5  UNL d   1      -1.317   0.338   0.550  0.00  0.00     0.026 A 
ATOM      8  C6  UNL d   1       0.081   0.028   0.655  0.00  0.00    -0.082 A 
ATOM      9  C7  UNL d   1       0.970   0.138   1.751  0.00  0.00     0.045 A 
ENDROOT
TORSDOF 0
ENDMDL
