MODEL 1
REMARK minimizedAffinity -2.07737517
REMARK minimizedRMSD -1
REMARK  0 active torsions:
REMARK  status: ('A' for Active; 'I' for Inactive)
ROOT
ATOM      1  C   UNL d   1       3.726  -0.012   0.785  0.00  0.00    -0.002 A 
ATOM      2  C1  UNL d   1       3.850  -1.184   0.052  0.00  0.00     0.010 A 
ATOM      3  C2  UNL d   1       2.737  -1.752  -0.571  0.00  0.00     0.041 A 
ATOM      4  C3  UNL d   1       1.487  -1.116  -0.445  0.00  0.00    -0.075 A 
ATOM      5  S   UNL d   1      -0.014  -1.630  -1.122  0.00  0.00     0.015 SA
ATOM      6  C4  UNL d   1      -0.854  -0.306  -0.455  0.00  0.00     0.022 A 
ATOM      7  C5  UNL d   1      -0.025   0.518   0.270  0.00  0.00     0.026 A 
ATOM      8  C6  UNL d   1       1.337   0.065   0.287  0.00  0.00    -0.082 A 
ATOM      9  C7  UNL d   1       2.484   0.616   0.908  0.00  0.00     0.045 A 
ENDROOT
TORSDOF 0
ENDMDL
