MODEL 1
REMARK minimizedAffinity -1.66429257
REMARK minimizedRMSD -1
REMARK  0 active torsions:
REMARK  status: ('A' for Active; 'I' for Inactive)
ROOT
ATOM      1  C   UNL d   1       4.142  -1.514  -2.953  0.00  0.00    -0.002 A 
ATOM      2  C1  UNL d   1       3.342  -2.542  -2.474  0.00  0.00     0.010 A 
ATOM      3  C2  UNL d   1       2.711  -2.431  -1.233  0.00  0.00     0.041 A 
ATOM      4  C3  UNL d   1       2.898  -1.258  -0.475  0.00  0.00    -0.075 A 
ATOM      5  S   UNL d   1       2.225  -0.901   1.071  0.00  0.00     0.015 SA
ATOM      6  C4  UNL d   1       2.982   0.625   1.131  0.00  0.00     0.022 A 
ATOM      7  C5  UNL d   1       3.735   0.872   0.007  0.00  0.00     0.026 A 
ATOM      8  C6  UNL d   1       3.698  -0.209  -0.937  0.00  0.00    -0.082 A 
ATOM      9  C7  UNL d   1       4.325  -0.352  -2.199  0.00  0.00     0.045 A 
ENDROOT
TORSDOF 0
ENDMDL
