MODEL 1
REMARK minimizedAffinity 0.925672948
REMARK minimizedRMSD -1
REMARK  0 active torsions:
REMARK  status: ('A' for Active; 'I' for Inactive)
ROOT
ATOM      1  C   UNL d   1       2.892  -1.202   0.913  0.00  0.00    -0.002 A 
ATOM      2  C1  UNL d   1       2.625   0.016   1.523  0.00  0.00     0.010 A 
ATOM      3  C2  UNL d   1       1.471   0.733   1.201  0.00  0.00     0.041 A 
ATOM      4  C3  UNL d   1       0.580   0.200   0.249  0.00  0.00    -0.075 A 
ATOM      5  S   UNL d   1      -0.896   0.902  -0.301  0.00  0.00     0.015 SA
ATOM      6  C4  UNL d   1      -1.207  -0.398  -1.357  0.00  0.00     0.022 A 
ATOM      7  C5  UNL d   1      -0.220  -1.353  -1.305  0.00  0.00     0.026 A 
ATOM      8  C6  UNL d   1       0.826  -1.024  -0.378  0.00  0.00    -0.082 A 
ATOM      9  C7  UNL d   1       2.005  -1.727  -0.032  0.00  0.00     0.045 A 
ENDROOT
TORSDOF 0
ENDMDL
