MODEL 1
REMARK minimizedAffinity 1.5773772
REMARK minimizedRMSD -1
REMARK  0 active torsions:
REMARK  status: ('A' for Active; 'I' for Inactive)
ROOT
ATOM      1  C   UNL d   1       2.546   1.226   1.526  0.00  0.00    -0.002 A 
ATOM      2  C1  UNL d   1       3.232   0.033   1.700  0.00  0.00     0.010 A 
ATOM      3  C2  UNL d   1       2.934  -1.080   0.911  0.00  0.00     0.041 A 
ATOM      4  C3  UNL d   1       1.925  -0.971  -0.067  0.00  0.00    -0.075 A 
ATOM      5  S   UNL d   1       1.390  -2.202  -1.149  0.00  0.00     0.015 SA
ATOM      6  C4  UNL d   1       0.239  -1.172  -1.869  0.00  0.00     0.022 A 
ATOM      7  C5  UNL d   1       0.249   0.083  -1.309  0.00  0.00     0.026 A 
ATOM      8  C6  UNL d   1       1.221   0.220  -0.262  0.00  0.00    -0.082 A 
ATOM      9  C7  UNL d   1       1.546   1.330   0.555  0.00  0.00     0.045 A 
ENDROOT
TORSDOF 0
ENDMDL
