MODEL 1
REMARK minimizedAffinity -0.305731833
REMARK minimizedRMSD -1
REMARK  0 active torsions:
REMARK  status: ('A' for Active; 'I' for Inactive)
ROOT
ATOM      1  C   UNL d   1       3.262   0.025   0.949  0.00  0.00    -0.002 A 
ATOM      2  C1  UNL d   1       2.250   0.946   1.179  0.00  0.00     0.010 A 
ATOM      3  C2  UNL d   1       0.984   0.766   0.618  0.00  0.00     0.041 A 
ATOM      4  C3  UNL d   1       0.750  -0.367  -0.185  0.00  0.00    -0.075 A 
ATOM      5  S   UNL d   1      -0.721  -0.795  -0.976  0.00  0.00     0.015 SA
ATOM      6  C4  UNL d   1      -0.041  -2.211  -1.638  0.00  0.00     0.022 A 
ATOM      7  C5  UNL d   1       1.276  -2.369  -1.275  0.00  0.00     0.026 A 
ATOM      8  C6  UNL d   1       1.753  -1.309  -0.431  0.00  0.00    -0.082 A 
ATOM      9  C7  UNL d   1       3.026  -1.098   0.151  0.00  0.00     0.045 A 
ENDROOT
TORSDOF 0
ENDMDL
