MODEL 1
REMARK minimizedAffinity 2.82649398
REMARK minimizedRMSD -1
REMARK  1 active torsions:
REMARK  status: ('A' for Active; 'I' for Inactive)
REMARK    1  A    between atoms: N_2  and  C1_3 
ROOT
ATOM      1  C1  UNL d   1       2.048   2.067  -1.639  0.00  0.00     0.143 A 
ATOM      2  C2  UNL d   1       3.429   2.169  -1.837  0.00  0.00    -0.057 A 
ATOM      3  C3  UNL d   1       4.329   2.002  -0.777  0.00  0.00     0.033 A 
ATOM      4  C4  UNL d   1       3.860   1.756   0.509  0.00  0.00    -0.042 A 
ATOM      5  C5  UNL d   1       2.491   1.675   0.734  0.00  0.00     0.033 A 
ATOM      6  C6  UNL d   1       1.598   1.837  -0.330  0.00  0.00    -0.057 A 
ENDROOT
BRANCH   1   7
ATOM      7  N   UNL d   1       1.099   2.321  -2.632  0.00  0.00    -0.732 N 
ATOM      8  C   UNL d   1       0.993   3.634  -3.232  0.00  0.00     0.284 C 
ATOM      9  H3  UNL d   1       1.015   1.553  -3.295  0.00  0.00     0.395 HD
ENDBRANCH   1   7
TORSDOF 1
ENDMDL
