MODEL 1
REMARK minimizedAffinity 0.208843261
REMARK minimizedRMSD -1
REMARK  1 active torsions:
REMARK  status: ('A' for Active; 'I' for Inactive)
REMARK    1  A    between atoms: N_2  and  C1_3 
ROOT
ATOM      1  C1  UNL d   1      -3.921  -0.821   2.633  0.00  0.00     0.143 A 
ATOM      2  C2  UNL d   1      -3.573   0.167   3.559  0.00  0.00    -0.057 A 
ATOM      3  C3  UNL d   1      -2.279   0.701   3.599  0.00  0.00     0.033 A 
ATOM      4  C4  UNL d   1      -1.300   0.233   2.729  0.00  0.00    -0.042 A 
ATOM      5  C5  UNL d   1      -1.617  -0.766   1.816  0.00  0.00     0.033 A 
ATOM      6  C6  UNL d   1      -2.913  -1.291   1.777  0.00  0.00    -0.057 A 
ENDROOT
BRANCH   1   7
ATOM      7  N   UNL d   1      -5.163  -1.461   2.609  0.00  0.00    -0.732 N 
ATOM      8  C   UNL d   1      -5.333  -2.764   3.216  0.00  0.00     0.284 C 
ATOM      9  H3  UNL d   1      -5.934  -0.820   2.779  0.00  0.00     0.395 HD
ENDBRANCH   1   7
TORSDOF 1
ENDMDL
