MODEL 1
REMARK minimizedAffinity 7.5921278
REMARK minimizedRMSD -1
REMARK  1 active torsions:
REMARK  status: ('A' for Active; 'I' for Inactive)
REMARK    1  A    between atoms: N_2  and  C1_3 
ROOT
ATOM      1  C1  UNL d   1      -2.286  -4.733  -4.087  0.00  0.00     0.143 A 
ATOM      2  C2  UNL d   1      -1.169  -5.134  -3.346  0.00  0.00    -0.057 A 
ATOM      3  C3  UNL d   1      -0.585  -4.287  -2.396  0.00  0.00     0.033 A 
ATOM      4  C4  UNL d   1      -1.092  -3.008  -2.191  0.00  0.00    -0.042 A 
ATOM      5  C5  UNL d   1      -2.186  -2.579  -2.934  0.00  0.00     0.033 A 
ATOM      6  C6  UNL d   1      -2.769  -3.432  -3.876  0.00  0.00    -0.057 A 
ENDROOT
BRANCH   1   7
ATOM      7  N   UNL d   1      -2.851  -5.491  -5.115  0.00  0.00    -0.732 N 
ATOM      8  C   UNL d   1      -3.910  -4.945  -5.938  0.00  0.00     0.284 C 
ATOM      9  H3  UNL d   1      -2.156  -6.024  -5.632  0.00  0.00     0.395 HD
ENDBRANCH   1   7
TORSDOF 1
ENDMDL
