MODEL 1
REMARK minimizedAffinity 10.4899101
REMARK minimizedRMSD -1
REMARK  1 active torsions:
REMARK  status: ('A' for Active; 'I' for Inactive)
REMARK    1  A    between atoms: N_2  and  C1_3 
ROOT
ATOM      1  C1  UNL d   1       3.390   3.271  -3.395  0.00  0.00     0.143 A 
ATOM      2  C2  UNL d   1       4.341   4.074  -2.758  0.00  0.00    -0.057 A 
ATOM      3  C3  UNL d   1       5.458   4.563  -3.446  0.00  0.00     0.033 A 
ATOM      4  C4  UNL d   1       5.658   4.231  -4.782  0.00  0.00    -0.042 A 
ATOM      5  C5  UNL d   1       4.739   3.413  -5.429  0.00  0.00     0.033 A 
ATOM      6  C6  UNL d   1       3.622   2.934  -4.738  0.00  0.00    -0.057 A 
ENDROOT
BRANCH   1   7
ATOM      7  N   UNL d   1       2.310   2.673  -2.739  0.00  0.00    -0.732 N 
ATOM      8  C   UNL d   1       2.531   1.663  -1.727  0.00  0.00     0.284 C 
ATOM      9  H3  UNL d   1       1.579   3.342  -2.507  0.00  0.00     0.395 HD
ENDBRANCH   1   7
TORSDOF 1
ENDMDL
