MODEL 1
REMARK minimizedAffinity 8.43171501
REMARK minimizedRMSD -1
REMARK  1 active torsions:
REMARK  status: ('A' for Active; 'I' for Inactive)
REMARK    1  A    between atoms: N_2  and  C1_3 
ROOT
ATOM      1  C1  UNL d   1      -3.893  -0.081   1.547  0.00  0.00     0.143 A 
ATOM      2  C2  UNL d   1      -3.102   0.543   2.518  0.00  0.00    -0.057 A 
ATOM      3  C3  UNL d   1      -1.793   0.115   2.773  0.00  0.00     0.033 A 
ATOM      4  C4  UNL d   1      -1.262  -0.968   2.080  0.00  0.00    -0.042 A 
ATOM      5  C5  UNL d   1      -2.039  -1.619   1.129  0.00  0.00     0.033 A 
ATOM      6  C6  UNL d   1      -3.343  -1.182   0.874  0.00  0.00    -0.057 A 
ENDROOT
BRANCH   1   7
ATOM      7  N   UNL d   1      -5.234   0.236   1.316  0.00  0.00    -0.732 N 
ATOM      8  C   UNL d   1      -5.698   0.552  -0.017  0.00  0.00     0.284 C 
ATOM      9  H3  UNL d   1      -5.870  -0.355   1.848  0.00  0.00     0.395 HD
ENDBRANCH   1   7
TORSDOF 1
ENDMDL
