MODEL 1
REMARK minimizedAffinity 11.1389275
REMARK minimizedRMSD -1
REMARK  1 active torsions:
REMARK  status: ('A' for Active; 'I' for Inactive)
REMARK    1  A    between atoms: N_2  and  C1_3 
ROOT
ATOM      1  C1  UNL d   1      -3.510  -0.152   1.571  0.00  0.00     0.143 A 
ATOM      2  C2  UNL d   1      -2.646  -1.068   0.962  0.00  0.00    -0.057 A 
ATOM      3  C3  UNL d   1      -1.320  -1.211   1.390  0.00  0.00     0.033 A 
ATOM      4  C4  UNL d   1      -0.827  -0.417   2.420  0.00  0.00    -0.042 A 
ATOM      5  C5  UNL d   1      -1.661   0.517   3.024  0.00  0.00     0.033 A 
ATOM      6  C6  UNL d   1      -2.985   0.651   2.596  0.00  0.00    -0.057 A 
ENDROOT
BRANCH   1   7
ATOM      7  N   UNL d   1      -4.809   0.106   1.126  0.00  0.00    -0.732 N 
ATOM      8  C   UNL d   1      -5.041   0.977  -0.007  0.00  0.00     0.284 C 
ATOM      9  H3  UNL d   1      -5.396  -0.725   1.138  0.00  0.00     0.395 HD
ENDBRANCH   1   7
TORSDOF 1
ENDMDL
