MODEL 1
REMARK minimizedAffinity 14.2339029
REMARK minimizedRMSD -1
REMARK  1 active torsions:
REMARK  status: ('A' for Active; 'I' for Inactive)
REMARK    1  A    between atoms: N_2  and  C1_3 
ROOT
ATOM      1  C1  UNL d   1      -4.889  -3.860   3.495  0.00  0.00     0.143 A 
ATOM      2  C2  UNL d   1      -4.904  -3.230   4.744  0.00  0.00    -0.057 A 
ATOM      3  C3  UNL d   1      -5.006  -3.968   5.929  0.00  0.00     0.033 A 
ATOM      4  C4  UNL d   1      -5.125  -5.353   5.884  0.00  0.00    -0.042 A 
ATOM      5  C5  UNL d   1      -5.138  -5.999   4.653  0.00  0.00     0.033 A 
ATOM      6  C6  UNL d   1      -5.029  -5.256   3.473  0.00  0.00    -0.057 A 
ENDROOT
BRANCH   1   7
ATOM      7  N   UNL d   1      -4.889  -3.174   2.278  0.00  0.00    -0.732 N 
ATOM      8  C   UNL d   1      -4.578  -1.762   2.227  0.00  0.00     0.284 C 
ATOM      9  H3  UNL d   1      -4.474  -3.719   1.525  0.00  0.00     0.395 HD
ENDBRANCH   1   7
TORSDOF 1
ENDMDL
