MODEL 1
REMARK minimizedAffinity 5.06136751
REMARK minimizedRMSD -1
REMARK  1 active torsions:
REMARK  status: ('A' for Active; 'I' for Inactive)
REMARK    1  A    between atoms: N_2  and  C1_3 
ROOT
ATOM      1  C1  UNL d   1      -3.660   0.840   4.518  0.00  0.00     0.143 A 
ATOM      2  C2  UNL d   1      -4.374   0.324   3.432  0.00  0.00    -0.057 A 
ATOM      3  C3  UNL d   1      -5.425  -0.583   3.619  0.00  0.00     0.033 A 
ATOM      4  C4  UNL d   1      -5.761  -1.012   4.899  0.00  0.00    -0.042 A 
ATOM      5  C5  UNL d   1      -5.049  -0.531   5.991  0.00  0.00     0.033 A 
ATOM      6  C6  UNL d   1      -4.005   0.379   5.798  0.00  0.00    -0.057 A 
ENDROOT
BRANCH   1   7
ATOM      7  N   UNL d   1      -2.541   1.668   4.391  0.00  0.00    -0.732 N 
ATOM      8  C   UNL d   1      -1.207   1.108   4.383  0.00  0.00     0.284 C 
ATOM      9  H3  UNL d   1      -2.684   2.412   3.711  0.00  0.00     0.395 HD
ENDBRANCH   1   7
TORSDOF 1
ENDMDL
