MODEL 1
REMARK minimizedAffinity 9.46485806
REMARK minimizedRMSD -1
REMARK  1 active torsions:
REMARK  status: ('A' for Active; 'I' for Inactive)
REMARK    1  A    between atoms: N_2  and  C1_3 
ROOT
ATOM      1  C1  UNL d   1      -2.827  -5.703  -4.021  0.00  0.00     0.143 A 
ATOM      2  C2  UNL d   1      -2.090  -5.997  -5.173  0.00  0.00    -0.057 A 
ATOM      3  C3  UNL d   1      -0.758  -5.586  -5.308  0.00  0.00     0.033 A 
ATOM      4  C4  UNL d   1      -0.147  -4.846  -4.301  0.00  0.00    -0.042 A 
ATOM      5  C5  UNL d   1      -0.869  -4.521  -3.158  0.00  0.00     0.033 A 
ATOM      6  C6  UNL d   1      -2.196  -4.940  -3.026  0.00  0.00    -0.057 A 
ENDROOT
BRANCH   1   7
ATOM      7  N   UNL d   1      -4.184  -5.999  -3.869  0.00  0.00    -0.732 N 
ATOM      8  C   UNL d   1      -5.071  -5.998  -5.013  0.00  0.00     0.284 C 
ATOM      9  H3  UNL d   1      -4.344  -6.765  -3.219  0.00  0.00     0.395 HD
ENDBRANCH   1   7
TORSDOF 1
ENDMDL
