MODEL 1
REMARK minimizedAffinity 8.88795948
REMARK minimizedRMSD -1
REMARK  1 active torsions:
REMARK  status: ('A' for Active; 'I' for Inactive)
REMARK    1  A    between atoms: N_2  and  C1_3 
ROOT
ATOM      1  C1  UNL d   1      -2.130  -1.036   1.659  0.00  0.00     0.143 A 
ATOM      2  C2  UNL d   1      -3.421  -0.504   1.579  0.00  0.00    -0.057 A 
ATOM      3  C3  UNL d   1      -3.834   0.530   2.428  0.00  0.00     0.033 A 
ATOM      4  C4  UNL d   1      -2.968   1.031   3.395  0.00  0.00    -0.042 A 
ATOM      5  C5  UNL d   1      -1.688   0.500   3.509  0.00  0.00     0.033 A 
ATOM      6  C6  UNL d   1      -1.280  -0.527   2.653  0.00  0.00    -0.057 A 
ENDROOT
BRANCH   1   7
ATOM      7  N   UNL d   1      -1.692  -2.131   0.909  0.00  0.00    -0.732 N 
ATOM      8  C   UNL d   1      -2.325  -3.425   1.055  0.00  0.00     0.284 C 
ATOM      9  H3  UNL d   1      -1.475  -1.881  -0.053  0.00  0.00     0.395 HD
ENDBRANCH   1   7
TORSDOF 1
ENDMDL
