MODEL 1
REMARK minimizedAffinity 10.916791
REMARK minimizedRMSD -1
REMARK  1 active torsions:
REMARK  status: ('A' for Active; 'I' for Inactive)
REMARK    1  A    between atoms: N_2  and  C1_3 
ROOT
ATOM      1  C1  UNL d   1       0.593  -2.353   1.925  0.00  0.00     0.143 A 
ATOM      2  C2  UNL d   1      -0.270  -3.189   1.209  0.00  0.00    -0.057 A 
ATOM      3  C3  UNL d   1      -1.565  -2.777   0.871  0.00  0.00     0.033 A 
ATOM      4  C4  UNL d   1      -2.031  -1.529   1.270  0.00  0.00    -0.042 A 
ATOM      5  C5  UNL d   1      -1.198  -0.691   2.004  0.00  0.00     0.033 A 
ATOM      6  C6  UNL d   1       0.096  -1.105   2.333  0.00  0.00    -0.057 A 
ENDROOT
BRANCH   1   7
ATOM      7  N   UNL d   1       1.857  -2.743   2.376  0.00  0.00    -0.732 N 
ATOM      8  C   UNL d   1       2.578  -1.935   3.337  0.00  0.00     0.284 C 
ATOM      9  H3  UNL d   1       1.916  -3.744   2.547  0.00  0.00     0.395 HD
ENDBRANCH   1   7
TORSDOF 1
ENDMDL
