MODEL 1
REMARK minimizedAffinity 4.60754967
REMARK minimizedRMSD -1
REMARK  1 active torsions:
REMARK  status: ('A' for Active; 'I' for Inactive)
REMARK    1  A    between atoms: N_2  and  C1_3 
ROOT
ATOM      1  C1  UNL d   1       0.130  -5.227  -4.243  0.00  0.00     0.143 A 
ATOM      2  C2  UNL d   1      -0.308  -6.000  -5.324  0.00  0.00    -0.057 A 
ATOM      3  C3  UNL d   1      -1.651  -6.000  -5.720  0.00  0.00     0.033 A 
ATOM      4  C4  UNL d   1      -2.588  -5.247  -5.020  0.00  0.00    -0.042 A 
ATOM      5  C5  UNL d   1      -2.180  -4.491  -3.927  0.00  0.00     0.033 A 
ATOM      6  C6  UNL d   1      -0.836  -4.490  -3.541  0.00  0.00    -0.057 A 
ENDROOT
BRANCH   1   7
ATOM      7  N   UNL d   1       1.433  -5.261  -3.740  0.00  0.00    -0.732 N 
ATOM      8  C   UNL d   1       2.470  -6.000  -4.428  0.00  0.00     0.284 C 
ATOM      9  H3  UNL d   1       1.735  -4.358  -3.381  0.00  0.00     0.395 HD
ENDBRANCH   1   7
TORSDOF 1
ENDMDL
