MODEL 1
REMARK minimizedAffinity 5.85717821
REMARK minimizedRMSD -1
REMARK  1 active torsions:
REMARK  status: ('A' for Active; 'I' for Inactive)
REMARK    1  A    between atoms: N_2  and  C1_3 
ROOT
ATOM      1  C1  UNL d   1       4.081   2.247  -0.064  0.00  0.00     0.143 A 
ATOM      2  C2  UNL d   1       5.078   2.883  -0.811  0.00  0.00    -0.057 A 
ATOM      3  C3  UNL d   1       5.999   3.748  -0.207  0.00  0.00     0.033 A 
ATOM      4  C4  UNL d   1       5.920   4.014   1.156  0.00  0.00    -0.042 A 
ATOM      5  C5  UNL d   1       4.922   3.413   1.914  0.00  0.00     0.033 A 
ATOM      6  C6  UNL d   1       4.010   2.545   1.306  0.00  0.00    -0.057 A 
ENDROOT
BRANCH   1   7
ATOM      7  N   UNL d   1       3.076   1.455  -0.623  0.00  0.00    -0.732 N 
ATOM      8  C   UNL d   1       2.378   1.883  -1.817  0.00  0.00     0.284 C 
ATOM      9  H3  UNL d   1       3.310   0.465  -0.611  0.00  0.00     0.395 HD
ENDBRANCH   1   7
TORSDOF 1
ENDMDL
