MODEL 1
REMARK minimizedAffinity 13.9288797
REMARK minimizedRMSD -1
REMARK  1 active torsions:
REMARK  status: ('A' for Active; 'I' for Inactive)
REMARK    1  A    between atoms: N_2  and  C1_3 
ROOT
ATOM      1  C1  UNL d   1       3.524   2.672  -2.922  0.00  0.00     0.143 A 
ATOM      2  C2  UNL d   1       4.380   3.578  -2.287  0.00  0.00    -0.057 A 
ATOM      3  C3  UNL d   1       5.299   4.342  -3.017  0.00  0.00     0.033 A 
ATOM      4  C4  UNL d   1       5.399   4.191  -4.396  0.00  0.00    -0.042 A 
ATOM      5  C5  UNL d   1       4.576   3.278  -5.045  0.00  0.00     0.033 A 
ATOM      6  C6  UNL d   1       3.656   2.523  -4.312  0.00  0.00    -0.057 A 
ENDROOT
BRANCH   1   7
ATOM      7  N   UNL d   1       2.658   1.813  -2.242  0.00  0.00    -0.732 N 
ATOM      8  C   UNL d   1       3.028   1.259  -0.957  0.00  0.00     0.284 C 
ATOM      9  H3  UNL d   1       1.688   2.112  -2.302  0.00  0.00     0.395 HD
ENDBRANCH   1   7
TORSDOF 1
ENDMDL
