MODEL 1
REMARK minimizedAffinity 6.12734556
REMARK minimizedRMSD -1
REMARK  0 active torsions:
REMARK  status: ('A' for Active; 'I' for Inactive)
ROOT
ATOM      1  C   UNL d   1      -0.958   1.931  -1.729  0.00  0.00     0.124 A 
ATOM      2  C1  UNL d   1      -1.992   1.142  -2.213  0.00  0.00     0.062 A 
ATOM      3  C2  UNL d   1      -3.028   1.718  -2.944  0.00  0.00     0.162 A 
ATOM      4  C3  UNL d   1      -3.034   3.090  -3.196  0.00  0.00    -0.034 A 
ATOM      5  C4  UNL d   1      -1.990   3.876  -2.705  0.00  0.00     0.162 A 
ATOM      6  C5  UNL d   1      -0.957   3.297  -1.975  0.00  0.00     0.062 A 
ATOM      7  F   UNL d   1       0.041   4.060  -1.508  0.00  0.00    -0.097 F 
ATOM      8  F1  UNL d   1      -1.965   5.198  -2.929  0.00  0.00    -0.096 F 
ATOM      9  I   UNL d   1      -4.580   3.953  -4.288  0.00  0.00    -0.060 I 
ATOM     10  F2  UNL d   1      -4.014   0.932  -3.399  0.00  0.00    -0.096 F 
ATOM     11  F3  UNL d   1      -1.995  -0.177  -1.975  0.00  0.00    -0.097 F 
ATOM     12  F4  UNL d   1       0.037   1.375  -1.025  0.00  0.00    -0.092 F 
ENDROOT
TORSDOF 0
ENDMDL
