MODEL 1
REMARK minimizedAffinity 12.5957928
REMARK minimizedRMSD -1
REMARK  0 active torsions:
REMARK  status: ('A' for Active; 'I' for Inactive)
ROOT
ATOM      1  C   UNL d   1      -0.586   4.297  -1.267  0.00  0.00     0.124 A 
ATOM      2  C1  UNL d   1      -0.429   2.948  -1.553  0.00  0.00     0.062 A 
ATOM      3  C2  UNL d   1      -0.578   1.997  -0.547  0.00  0.00     0.162 A 
ATOM      4  C3  UNL d   1      -0.887   2.392   0.754  0.00  0.00    -0.034 A 
ATOM      5  C4  UNL d   1      -1.042   3.750   1.035  0.00  0.00     0.162 A 
ATOM      6  C5  UNL d   1      -0.893   4.697   0.026  0.00  0.00     0.062 A 
ATOM      7  F   UNL d   1      -1.045   6.000   0.305  0.00  0.00    -0.097 F 
ATOM      8  F1  UNL d   1      -1.339   4.165   2.275  0.00  0.00    -0.096 F 
ATOM      9  I   UNL d   1      -1.110   0.973   2.261  0.00  0.00    -0.060 I 
ATOM     10  F2  UNL d   1      -0.421   0.700  -0.853  0.00  0.00    -0.096 F 
ATOM     11  F3  UNL d   1      -0.133   2.559  -2.801  0.00  0.00    -0.097 F 
ATOM     12  F4  UNL d   1      -0.442   5.210  -2.236  0.00  0.00    -0.092 F 
ENDROOT
TORSDOF 0
ENDMDL
