MODEL 1
REMARK minimizedAffinity 7.63464403
REMARK minimizedRMSD -1
REMARK  0 active torsions:
REMARK  status: ('A' for Active; 'I' for Inactive)
ROOT
ATOM      1  C   UNL d   1      -1.202   0.734  -1.763  0.00  0.00     0.124 A 
ATOM      2  C1  UNL d   1      -2.184   1.541  -2.321  0.00  0.00     0.062 A 
ATOM      3  C2  UNL d   1      -2.063   2.926  -2.272  0.00  0.00     0.162 A 
ATOM      4  C3  UNL d   1      -0.954   3.515  -1.664  0.00  0.00    -0.034 A 
ATOM      5  C4  UNL d   1       0.030   2.697  -1.105  0.00  0.00     0.162 A 
ATOM      6  C5  UNL d   1      -0.097   1.312  -1.156  0.00  0.00     0.062 A 
ATOM      7  F   UNL d   1       0.853   0.534  -0.616  0.00  0.00    -0.097 F 
ATOM      8  F1  UNL d   1       1.109   3.229  -0.513  0.00  0.00    -0.096 F 
ATOM      9  I   UNL d   1      -0.768   5.586  -1.590  0.00  0.00    -0.060 I 
ATOM     10  F2  UNL d   1      -3.027   3.682  -2.819  0.00  0.00    -0.096 F 
ATOM     11  F3  UNL d   1      -3.254   0.984  -2.907  0.00  0.00    -0.097 F 
ATOM     12  F4  UNL d   1      -1.322  -0.599  -1.810  0.00  0.00    -0.092 F 
ENDROOT
TORSDOF 0
ENDMDL
