MODEL 1
REMARK minimizedAffinity 9.69545174
REMARK minimizedRMSD -1
REMARK  0 active torsions:
REMARK  status: ('A' for Active; 'I' for Inactive)
ROOT
ATOM      1  C   UNL d   1       0.575   1.299   1.768  0.00  0.00     0.124 A 
ATOM      2  C1  UNL d   1       0.918   0.015   1.367  0.00  0.00     0.062 A 
ATOM      3  C2  UNL d   1       0.627  -0.417   0.076  0.00  0.00     0.162 A 
ATOM      4  C3  UNL d   1      -0.010   0.437  -0.825  0.00  0.00    -0.034 A 
ATOM      5  C4  UNL d   1      -0.351   1.727  -0.414  0.00  0.00     0.162 A 
ATOM      6  C5  UNL d   1      -0.059   2.154   0.877  0.00  0.00     0.062 A 
ATOM      7  F   UNL d   1      -0.390   3.395   1.262  0.00  0.00    -0.097 F 
ATOM      8  F1  UNL d   1      -0.964   2.574  -1.255  0.00  0.00    -0.096 F 
ATOM      9  I   UNL d   1      -0.446  -0.204  -2.756  0.00  0.00    -0.060 I 
ATOM     10  F2  UNL d   1       0.969  -1.663  -0.284  0.00  0.00    -0.096 F 
ATOM     11  F3  UNL d   1       1.529  -0.813   2.226  0.00  0.00    -0.097 F 
ATOM     12  F4  UNL d   1       0.856   1.711   3.011  0.00  0.00    -0.092 F 
ENDROOT
TORSDOF 0
ENDMDL
