MODEL 1
REMARK minimizedAffinity 8.60062504
REMARK minimizedRMSD -1
REMARK  0 active torsions:
REMARK  status: ('A' for Active; 'I' for Inactive)
ROOT
ATOM      1  C   UNL d   1       1.111   2.944   1.440  0.00  0.00     0.124 A 
ATOM      2  C1  UNL d   1       0.436   1.782   1.787  0.00  0.00     0.062 A 
ATOM      3  C2  UNL d   1      -0.453   1.195   0.891  0.00  0.00     0.162 A 
ATOM      4  C3  UNL d   1      -0.672   1.769  -0.361  0.00  0.00    -0.034 A 
ATOM      5  C4  UNL d   1       0.010   2.939  -0.702  0.00  0.00     0.162 A 
ATOM      6  C5  UNL d   1       0.897   3.521   0.196  0.00  0.00     0.062 A 
ATOM      7  F   UNL d   1       1.548   4.645  -0.140  0.00  0.00    -0.097 F 
ATOM      8  F1  UNL d   1      -0.178   3.517  -1.898  0.00  0.00    -0.096 F 
ATOM      9  I   UNL d   1      -2.000   0.894  -1.704  0.00  0.00    -0.060 I 
ATOM     10  F2  UNL d   1      -1.091   0.072   1.252  0.00  0.00    -0.096 F 
ATOM     11  F3  UNL d   1       0.641   1.223   2.988  0.00  0.00    -0.097 F 
ATOM     12  F4  UNL d   1       1.965   3.507   2.304  0.00  0.00    -0.092 F 
ENDROOT
TORSDOF 0
ENDMDL
