MODEL 1
REMARK minimizedAffinity -2.39503169
REMARK minimizedRMSD -1
REMARK  0 active torsions:
REMARK  status: ('A' for Active; 'I' for Inactive)
ROOT
ATOM      1  C   UNL d   1       0.345   4.016   0.543  0.00  0.00     0.124 A 
ATOM      2  C1  UNL d   1       0.180   3.213  -0.577  0.00  0.00     0.062 A 
ATOM      3  C2  UNL d   1       0.031   1.836  -0.435  0.00  0.00     0.162 A 
ATOM      4  C3  UNL d   1       0.045   1.254   0.832  0.00  0.00    -0.034 A 
ATOM      5  C4  UNL d   1       0.213   2.068   1.954  0.00  0.00     0.162 A 
ATOM      6  C5  UNL d   1       0.362   3.443   1.807  0.00  0.00     0.062 A 
ATOM      7  F   UNL d   1       0.521   4.217   2.890  0.00  0.00    -0.097 F 
ATOM      8  F1  UNL d   1       0.232   1.540   3.187  0.00  0.00    -0.096 F 
ATOM      9  I   UNL d   1      -0.177  -0.804   1.048  0.00  0.00    -0.060 I 
ATOM     10  F2  UNL d   1      -0.127   1.085  -1.535  0.00  0.00    -0.096 F 
ATOM     11  F3  UNL d   1       0.165   3.764  -1.799  0.00  0.00    -0.097 F 
ATOM     12  F4  UNL d   1       0.490   5.340   0.404  0.00  0.00    -0.092 F 
ENDROOT
TORSDOF 0
ENDMDL
