MODEL 1
REMARK minimizedAffinity 0.458086669
REMARK minimizedRMSD -1
REMARK  0 active torsions:
REMARK  status: ('A' for Active; 'I' for Inactive)
ROOT
ATOM      1  C   UNL d   1       0.368   0.568   1.409  0.00  0.00     0.124 A 
ATOM      2  C1  UNL d   1       0.251   0.299   0.052  0.00  0.00     0.062 A 
ATOM      3  C2  UNL d   1      -0.093   1.315  -0.836  0.00  0.00     0.162 A 
ATOM      4  C3  UNL d   1      -0.321   2.609  -0.369  0.00  0.00    -0.034 A 
ATOM      5  C4  UNL d   1      -0.203   2.872   0.997  0.00  0.00     0.162 A 
ATOM      6  C5  UNL d   1       0.141   1.853   1.880  0.00  0.00     0.062 A 
ATOM      7  F   UNL d   1       0.254   2.115   3.190  0.00  0.00    -0.097 F 
ATOM      8  F1  UNL d   1      -0.416   4.105   1.479  0.00  0.00    -0.096 F 
ATOM      9  I   UNL d   1      -0.836   4.131  -1.693  0.00  0.00    -0.060 I 
ATOM     10  F2  UNL d   1      -0.199   1.027  -2.141  0.00  0.00    -0.096 F 
ATOM     11  F3  UNL d   1       0.469  -0.942  -0.406  0.00  0.00    -0.097 F 
ATOM     12  F4  UNL d   1       0.699  -0.411   2.260  0.00  0.00    -0.092 F 
ENDROOT
TORSDOF 0
ENDMDL
