MODEL 1
REMARK minimizedAffinity -2.84151268
REMARK minimizedRMSD -1
REMARK  0 active torsions:
REMARK  status: ('A' for Active; 'I' for Inactive)
ROOT
ATOM      1  C1  BNZ d   1      -1.758   0.079   1.703  0.00  0.00     0.000 A 
ATOM      2  C2  BNZ d   1      -1.436  -0.309   0.430  0.00  0.00     0.000 A 
ATOM      3  C3  BNZ d   1      -0.311   0.166  -0.184  0.00  0.00     0.000 A 
ATOM      4  C4  BNZ d   1       0.468   1.059   0.460  0.00  0.00     0.000 A 
ATOM      5  C5  BNZ d   1       0.153   1.467   1.741  0.00  0.00     0.000 A 
ATOM      6  C6  BNZ d   1      -0.959   0.956   2.370  0.00  0.00     0.000 A 
ENDROOT
TORSDOF 0
ENDMDL
