MODEL 1
REMARK minimizedAffinity -4.38706303
REMARK minimizedRMSD -1
REMARK  0 active torsions:
REMARK  status: ('A' for Active; 'I' for Inactive)
ROOT
ATOM      1  C1  BNZ d   1      -0.052   0.347  -4.436  0.00  0.00     0.000 A 
ATOM      2  C2  BNZ d   1      -1.175  -0.422  -4.582  0.00  0.00     0.000 A 
ATOM      3  C3  BNZ d   1      -1.289  -1.625  -3.943  0.00  0.00     0.000 A 
ATOM      4  C4  BNZ d   1      -0.263  -2.075  -3.192  0.00  0.00     0.000 A 
ATOM      5  C5  BNZ d   1       0.880  -1.316  -3.042  0.00  0.00     0.000 A 
ATOM      6  C6  BNZ d   1       0.975  -0.088  -3.656  0.00  0.00     0.000 A 
ENDROOT
TORSDOF 0
ENDMDL
