MODEL 1
REMARK minimizedAffinity -5.15605021
REMARK minimizedRMSD -1
REMARK  0 active torsions:
REMARK  status: ('A' for Active; 'I' for Inactive)
ROOT
ATOM      1  C1  BNZ d   1      -1.788   0.001   0.596  0.00  0.00     0.000 A 
ATOM      2  C2  BNZ d   1      -1.960   0.701   1.761  0.00  0.00     0.000 A 
ATOM      3  C3  BNZ d   1      -0.890   1.245   2.415  0.00  0.00     0.000 A 
ATOM      4  C4  BNZ d   1       0.352   1.055   1.927  0.00  0.00     0.000 A 
ATOM      5  C5  BNZ d   1       0.543   0.344   0.759  0.00  0.00     0.000 A 
ATOM      6  C6  BNZ d   1      -0.540  -0.169   0.082  0.00  0.00     0.000 A 
ENDROOT
TORSDOF 0
ENDMDL
