MODEL 1
REMARK minimizedAffinity -3.99812174
REMARK minimizedRMSD -1
REMARK  0 active torsions:
REMARK  status: ('A' for Active; 'I' for Inactive)
ROOT
ATOM      1  C1  BNZ d   1       0.617   1.244  -1.319  0.00  0.00     0.000 A 
ATOM      2  C2  BNZ d   1       0.436   1.956  -0.163  0.00  0.00     0.000 A 
ATOM      3  C3  BNZ d   1       0.313   1.319   1.040  0.00  0.00     0.000 A 
ATOM      4  C4  BNZ d   1       0.330  -0.029   1.080  0.00  0.00     0.000 A 
ATOM      5  C5  BNZ d   1       0.502  -0.761  -0.077  0.00  0.00     0.000 A 
ATOM      6  C6  BNZ d   1       0.665  -0.115  -1.281  0.00  0.00     0.000 A 
ENDROOT
TORSDOF 0
ENDMDL
