MODEL 1
REMARK minimizedAffinity -2.66773391
REMARK minimizedRMSD -1
REMARK  0 active torsions:
REMARK  status: ('A' for Active; 'I' for Inactive)
ROOT
ATOM      1  C1  BNZ d   1      -0.864  -0.454   1.993  0.00  0.00     0.000 A 
ATOM      2  C2  BNZ d   1       0.019  -0.110   1.005  0.00  0.00     0.000 A 
ATOM      3  C3  BNZ d   1       0.805   1.003   1.124  0.00  0.00     0.000 A 
ATOM      4  C4  BNZ d   1       0.678   1.790   2.212  0.00  0.00     0.000 A 
ATOM      5  C5  BNZ d   1      -0.214   1.462   3.213  0.00  0.00     0.000 A 
ATOM      6  C6  BNZ d   1      -0.975   0.320   3.107  0.00  0.00     0.000 A 
ENDROOT
TORSDOF 0
ENDMDL
