MODEL 1
REMARK minimizedAffinity -5.46722364
REMARK minimizedRMSD -1
REMARK  0 active torsions:
REMARK  status: ('A' for Active; 'I' for Inactive)
ROOT
ATOM      1  C1  BNZ d   1      -1.727   0.974   1.817  0.00  0.00     0.000 A 
ATOM      2  C2  BNZ d   1      -1.632   0.316   0.620  0.00  0.00     0.000 A 
ATOM      3  C3  BNZ d   1      -0.455  -0.258   0.228  0.00  0.00     0.000 A 
ATOM      4  C4  BNZ d   1       0.635  -0.138   1.014  0.00  0.00     0.000 A 
ATOM      5  C5  BNZ d   1       0.558   0.530   2.219  0.00  0.00     0.000 A 
ATOM      6  C6  BNZ d   1      -0.639   1.073   2.629  0.00  0.00     0.000 A 
ENDROOT
TORSDOF 0
ENDMDL
