MODEL 1
REMARK minimizedAffinity 8.71746731
REMARK minimizedRMSD -1
REMARK  1 active torsions:
REMARK  status: ('A' for Active; 'I' for Inactive)
REMARK    1  A    between atoms: C1_2  and  C2_3 
ROOT
ATOM      1  C2  UNL d   1       1.236   0.092   0.486  0.00  0.00    -0.081 A 
ATOM      2  C3  UNL d   1       0.689   0.211  -0.797  0.00  0.00     0.006 A 
ATOM      3  C4  UNL d   1       0.275   1.456  -1.278  0.00  0.00     0.002 A 
ATOM      4  C5  UNL d   1       0.409   2.602  -0.488  0.00  0.00    -0.080 A 
ATOM      5  C6  UNL d   1      -0.003   3.949  -1.004  0.00  0.00     0.076 C 
ATOM      6  C7  UNL d   1       0.940   2.481   0.801  0.00  0.00     0.002 A 
ATOM      7  C8  UNL d   1       1.353   1.237   1.282  0.00  0.00     0.006 A 
ENDROOT
BRANCH   1   8
ATOM      8  C1  UNL d   1       1.743  -1.238   0.982  0.00  0.00     0.054 C 
ATOM      9  C   UNL d   1       3.139  -1.531   0.452  0.00  0.00     0.018 C 
ENDBRANCH   1   8
TORSDOF 1
ENDMDL
