MODEL 1
REMARK minimizedAffinity 7.44603872
REMARK minimizedRMSD -1
REMARK  1 active torsions:
REMARK  status: ('A' for Active; 'I' for Inactive)
REMARK    1  A    between atoms: C1_2  and  C2_3 
ROOT
ATOM      1  C2  UNL d   1      -1.272   3.023  -0.711  0.00  0.00    -0.081 A 
ATOM      2  C3  UNL d   1      -1.543   4.230  -1.369  0.00  0.00     0.006 A 
ATOM      3  C4  UNL d   1      -0.547   5.198  -1.511  0.00  0.00     0.002 A 
ATOM      4  C5  UNL d   1       0.738   4.973  -1.006  0.00  0.00    -0.080 A 
ATOM      5  C6  UNL d   1       1.826   5.992  -1.178  0.00  0.00     0.076 C 
ATOM      6  C7  UNL d   1       1.004   3.775  -0.334  0.00  0.00     0.002 A 
ATOM      7  C8  UNL d   1       0.008   2.807  -0.191  0.00  0.00     0.006 A 
ENDROOT
BRANCH   1   8
ATOM      8  C1  UNL d   1      -2.327   1.950  -0.613  0.00  0.00     0.054 C 
ATOM      9  C   UNL d   1      -3.459   2.195  -1.601  0.00  0.00     0.018 C 
ENDBRANCH   1   8
TORSDOF 1
ENDMDL
