MODEL 1
REMARK minimizedAffinity 4.2251606
REMARK minimizedRMSD -1
REMARK  1 active torsions:
REMARK  status: ('A' for Active; 'I' for Inactive)
REMARK    1  A    between atoms: C1_2  and  C2_3 
ROOT
ATOM      1  C2  UNL d   1      -0.038   0.252  -2.591  0.00  0.00    -0.081 A 
ATOM      2  C3  UNL d   1       1.036  -0.466  -2.053  0.00  0.00     0.006 A 
ATOM      3  C4  UNL d   1       1.527  -0.158  -0.781  0.00  0.00     0.002 A 
ATOM      4  C5  UNL d   1       0.947   0.865  -0.025  0.00  0.00    -0.080 A 
ATOM      5  C6  UNL d   1       1.444   1.185   1.353  0.00  0.00     0.076 C 
ATOM      6  C7  UNL d   1      -0.116   1.594  -0.570  0.00  0.00     0.002 A 
ATOM      7  C8  UNL d   1      -0.607   1.288  -1.841  0.00  0.00     0.006 A 
ENDROOT
BRANCH   1   8
ATOM      8  C1  UNL d   1      -0.611  -0.120  -3.935  0.00  0.00     0.054 C 
ATOM      9  C   UNL d   1      -1.857  -0.982  -3.786  0.00  0.00     0.018 C 
ENDBRANCH   1   8
TORSDOF 1
ENDMDL
