MODEL 1
REMARK minimizedAffinity 11.158061
REMARK minimizedRMSD -1
REMARK  1 active torsions:
REMARK  status: ('A' for Active; 'I' for Inactive)
REMARK    1  A    between atoms: C1_2  and  C2_3 
ROOT
ATOM      1  C2  UNL d   1       2.586  -1.166   2.273  0.00  0.00    -0.081 A 
ATOM      2  C3  UNL d   1       3.807  -1.832   2.112  0.00  0.00     0.006 A 
ATOM      3  C4  UNL d   1       4.579  -2.176   3.224  0.00  0.00     0.002 A 
ATOM      4  C5  UNL d   1       4.139  -1.867   4.516  0.00  0.00    -0.080 A 
ATOM      5  C6  UNL d   1       4.944  -2.258   5.720  0.00  0.00     0.076 C 
ATOM      6  C7  UNL d   1       2.928  -1.187   4.677  0.00  0.00     0.002 A 
ATOM      7  C8  UNL d   1       2.156  -0.842   3.565  0.00  0.00     0.006 A 
ENDROOT
BRANCH   1   8
ATOM      8  C1  UNL d   1       1.721  -0.852   1.080  0.00  0.00     0.054 C 
ATOM      9  C   UNL d   1       2.445  -1.156  -0.224  0.00  0.00     0.018 C 
ENDBRANCH   1   8
TORSDOF 1
ENDMDL
