MODEL 1
REMARK minimizedAffinity 6.61465979
REMARK minimizedRMSD -1
REMARK  1 active torsions:
REMARK  status: ('A' for Active; 'I' for Inactive)
REMARK    1  A    between atoms: C1_2  and  C2_3 
ROOT
ATOM      1  C2  UNL d   1      -3.226   2.807  -5.265  0.00  0.00    -0.081 A 
ATOM      2  C3  UNL d   1      -2.255   2.068  -5.952  0.00  0.00     0.006 A 
ATOM      3  C4  UNL d   1      -1.479   1.120  -5.281  0.00  0.00     0.002 A 
ATOM      4  C5  UNL d   1      -1.667   0.890  -3.913  0.00  0.00    -0.080 A 
ATOM      5  C6  UNL d   1      -0.862  -0.147  -3.187  0.00  0.00     0.076 C 
ATOM      6  C7  UNL d   1      -2.624   1.640  -3.223  0.00  0.00     0.002 A 
ATOM      7  C8  UNL d   1      -3.400   2.589  -3.894  0.00  0.00     0.006 A 
ENDROOT
BRANCH   1   8
ATOM      8  C1  UNL d   1      -4.108   3.784  -6.000  0.00  0.00     0.054 C 
ATOM      9  C   UNL d   1      -4.626   4.870  -5.069  0.00  0.00     0.018 C 
ENDBRANCH   1   8
TORSDOF 1
ENDMDL
