MODEL 1
REMARK minimizedAffinity 9.49754715
REMARK minimizedRMSD -1
REMARK  1 active torsions:
REMARK  status: ('A' for Active; 'I' for Inactive)
REMARK    1  A    between atoms: C1_2  and  C2_3 
ROOT
ATOM      1  C2  UNL d   1      -3.095   3.140  -4.760  0.00  0.00    -0.081 A 
ATOM      2  C3  UNL d   1      -3.237   2.099  -3.835  0.00  0.00     0.006 A 
ATOM      3  C4  UNL d   1      -2.238   1.132  -3.698  0.00  0.00     0.002 A 
ATOM      4  C5  UNL d   1      -1.078   1.194  -4.478  0.00  0.00    -0.080 A 
ATOM      5  C6  UNL d   1       0.015   0.180  -4.320  0.00  0.00     0.076 C 
ATOM      6  C7  UNL d   1      -0.944   2.224  -5.415  0.00  0.00     0.002 A 
ATOM      7  C8  UNL d   1      -1.943   3.191  -5.553  0.00  0.00     0.006 A 
ENDROOT
BRANCH   1   8
ATOM      8  C1  UNL d   1      -4.141   4.220  -4.865  0.00  0.00     0.054 C 
ATOM      9  C   UNL d   1      -3.570   5.581  -4.491  0.00  0.00     0.018 C 
ENDBRANCH   1   8
TORSDOF 1
ENDMDL
