MODEL 1
REMARK minimizedAffinity -0.28979072
REMARK minimizedRMSD -1
REMARK  1 active torsions:
REMARK  status: ('A' for Active; 'I' for Inactive)
REMARK    1  A    between atoms: C1_2  and  C2_3 
ROOT
ATOM      1  C2  UNL d   1      -5.173   2.058  -4.186  0.00  0.00    -0.081 A 
ATOM      2  C3  UNL d   1      -4.231   2.984  -3.722  0.00  0.00     0.006 A 
ATOM      3  C4  UNL d   1      -4.126   4.245  -4.314  0.00  0.00     0.002 A 
ATOM      4  C5  UNL d   1      -4.965   4.603  -5.374  0.00  0.00    -0.080 A 
ATOM      5  C6  UNL d   1      -4.883   5.964  -5.999  0.00  0.00     0.076 C 
ATOM      6  C7  UNL d   1      -5.895   3.672  -5.850  0.00  0.00     0.002 A 
ATOM      7  C8  UNL d   1      -6.000   2.411  -5.258  0.00  0.00     0.006 A 
ENDROOT
BRANCH   1   8
ATOM      8  C1  UNL d   1      -5.333   0.722  -3.507  0.00  0.00     0.054 C 
ATOM      9  C   UNL d   1      -4.882   0.781  -2.054  0.00  0.00     0.018 C 
ENDBRANCH   1   8
TORSDOF 1
ENDMDL
