MODEL 1
REMARK minimizedAffinity 12.9675388
REMARK minimizedRMSD -1
REMARK  1 active torsions:
REMARK  status: ('A' for Active; 'I' for Inactive)
REMARK    1  A    between atoms: C1_2  and  C2_3 
ROOT
ATOM      1  C2  UNL d   1       0.713   2.309   0.429  0.00  0.00    -0.081 A 
ATOM      2  C3  UNL d   1      -0.649   2.605   0.297  0.00  0.00     0.006 A 
ATOM      3  C4  UNL d   1      -1.059   3.804  -0.291  0.00  0.00     0.002 A 
ATOM      4  C5  UNL d   1      -0.116   4.722  -0.763  0.00  0.00    -0.080 A 
ATOM      5  C6  UNL d   1      -0.543   6.000  -1.423  0.00  0.00     0.076 C 
ATOM      6  C7  UNL d   1       1.245   4.434  -0.616  0.00  0.00     0.002 A 
ATOM      7  C8  UNL d   1       1.656   3.236  -0.028  0.00  0.00     0.006 A 
ENDROOT
BRANCH   1   8
ATOM      8  C1  UNL d   1       1.158   0.988   1.003  0.00  0.00     0.054 C 
ATOM      9  C   UNL d   1       1.452  -0.023  -0.096  0.00  0.00     0.018 C 
ENDBRANCH   1   8
TORSDOF 1
ENDMDL
