MODEL 1
REMARK minimizedAffinity 7.56064844
REMARK minimizedRMSD -1
REMARK  0 active torsions:
REMARK  status: ('A' for Active; 'I' for Inactive)
ROOT
ATOM      1  C1  BNZ d   1       0.724   3.561  -0.001  0.00  0.00     0.000 A 
ATOM      2  C2  BNZ d   1       1.105   4.647  -0.744  0.00  0.00     0.000 A 
ATOM      3  C3  BNZ d   1       0.534   5.871  -0.538  0.00  0.00     0.000 A 
ATOM      4  C4  BNZ d   1      -0.445   6.000   0.381  0.00  0.00     0.000 A 
ATOM      5  C5  BNZ d   1      -0.847   4.913   1.132  0.00  0.00     0.000 A 
ATOM      6  C6  BNZ d   1      -0.242   3.690   0.949  0.00  0.00     0.000 A 
ENDROOT
TORSDOF 0
ENDMDL
