MODEL 1
REMARK minimizedAffinity 3.63983321
REMARK minimizedRMSD -1
REMARK  0 active torsions:
REMARK  status: ('A' for Active; 'I' for Inactive)
ROOT
ATOM      1  C1  BNZ d   1      -0.752   5.999   0.868  0.00  0.00     0.000 A 
ATOM      2  C2  BNZ d   1      -0.864   4.848   1.601  0.00  0.00     0.000 A 
ATOM      3  C3  BNZ d   1      -0.264   3.692   1.186  0.00  0.00     0.000 A 
ATOM      4  C4  BNZ d   1       0.413   3.679   0.020  0.00  0.00     0.000 A 
ATOM      5  C5  BNZ d   1       0.527   4.829  -0.736  0.00  0.00     0.000 A 
ATOM      6  C6  BNZ d   1      -0.045   6.000  -0.295  0.00  0.00     0.000 A 
ENDROOT
TORSDOF 0
ENDMDL
