MODEL 1
REMARK minimizedAffinity 4.41986799
REMARK minimizedRMSD -1
REMARK  0 active torsions:
REMARK  status: ('A' for Active; 'I' for Inactive)
ROOT
ATOM      1  C1  BNZ d   1       1.440  -5.958  -1.095  0.00  0.00     0.000 A 
ATOM      2  C2  BNZ d   1       0.495  -5.959  -2.087  0.00  0.00     0.000 A 
ATOM      3  C3  BNZ d   1       0.862  -6.000  -3.403  0.00  0.00     0.000 A 
ATOM      4  C4  BNZ d   1       2.171  -6.000  -3.727  0.00  0.00     0.000 A 
ATOM      5  C5  BNZ d   1       3.135  -5.990  -2.739  0.00  0.00     0.000 A 
ATOM      6  C6  BNZ d   1       2.762  -5.988  -1.414  0.00  0.00     0.000 A 
ENDROOT
TORSDOF 0
ENDMDL
