MODEL 1
REMARK minimizedAffinity 4.20280933
REMARK minimizedRMSD -1
REMARK  0 active torsions:
REMARK  status: ('A' for Active; 'I' for Inactive)
ROOT
ATOM      1  C1  BNZ d   1       0.426   5.233  -0.580  0.00  0.00     0.000 A 
ATOM      2  C2  BNZ d   1       1.054   4.030  -0.392  0.00  0.00     0.000 A 
ATOM      3  C3  BNZ d   1       0.515   3.081   0.431  0.00  0.00     0.000 A 
ATOM      4  C4  BNZ d   1      -0.626   3.350   1.096  0.00  0.00     0.000 A 
ATOM      5  C5  BNZ d   1      -1.266   4.562   0.925  0.00  0.00     0.000 A 
ATOM      6  C6  BNZ d   1      -0.742   5.500   0.065  0.00  0.00     0.000 A 
ENDROOT
TORSDOF 0
ENDMDL
