MODEL 1
REMARK minimizedAffinity 8.63204002
REMARK minimizedRMSD -1
REMARK  0 active torsions:
REMARK  status: ('A' for Active; 'I' for Inactive)
ROOT
ATOM      1  C1  BNZ d   1      -4.447  -1.320   3.471  0.00  0.00     0.000 A 
ATOM      2  C2  BNZ d   1      -4.733  -2.373   4.299  0.00  0.00     0.000 A 
ATOM      3  C3  BNZ d   1      -5.522  -2.202   5.402  0.00  0.00     0.000 A 
ATOM      4  C4  BNZ d   1      -5.990  -0.972   5.698  0.00  0.00     0.000 A 
ATOM      5  C5  BNZ d   1      -5.703   0.101   4.879  0.00  0.00     0.000 A 
ATOM      6  C6  BNZ d   1      -4.941  -0.082   3.748  0.00  0.00     0.000 A 
ENDROOT
TORSDOF 0
ENDMDL
