MODEL 1
REMARK minimizedAffinity 1.04493344
REMARK minimizedRMSD -1
REMARK  0 active torsions:
REMARK  status: ('A' for Active; 'I' for Inactive)
ROOT
ATOM      1  C1  BNZ d   1       1.256   2.068   1.439  0.00  0.00     0.000 A 
ATOM      2  C2  BNZ d   1       0.621   3.013   0.676  0.00  0.00     0.000 A 
ATOM      3  C3  BNZ d   1      -0.670   3.375   0.942  0.00  0.00     0.000 A 
ATOM      4  C4  BNZ d   1      -1.337   2.764   1.943  0.00  0.00     0.000 A 
ATOM      5  C5  BNZ d   1      -0.714   1.803   2.714  0.00  0.00     0.000 A 
ATOM      6  C6  BNZ d   1       0.598   1.470   2.468  0.00  0.00     0.000 A 
ENDROOT
TORSDOF 0
ENDMDL
