MODEL 1
REMARK minimizedAffinity -4.97106791
REMARK minimizedRMSD -1
REMARK  0 active torsions:
REMARK  status: ('A' for Active; 'I' for Inactive)
ROOT
ATOM      1  O1  BZF d   1       0.235  -0.184  -1.130  0.00  0.00    -0.204 OA
ATOM      2  C2  BZF d   1       0.814  -1.083  -0.255  0.00  0.00     0.174 A 
ATOM      3  C3  BZF d   1       0.770  -0.615   1.010  0.00  0.00    -0.012 A 
ATOM      4  C3A BZF d   1       0.041   0.613   0.932  0.00  0.00    -0.107 A 
ATOM      5  C4  BZF d   1      -0.346   1.536   1.861  0.00  0.00     0.055 A 
ATOM      6  C5  BZF d   1      -0.983   2.663   1.447  0.00  0.00    -0.016 A 
ATOM      7  C6  BZF d   1      -1.244   2.901   0.114  0.00  0.00     0.022 A 
ATOM      8  C7  BZF d   1      -0.884   2.013  -0.844  0.00  0.00     0.029 A 
ATOM      9  C7A BZF d   1      -0.270   0.858  -0.426  0.00  0.00     0.058 A 
ENDROOT
TORSDOF 0
ENDMDL
