MODEL 1
REMARK minimizedAffinity -2.47706389
REMARK minimizedRMSD -1
REMARK  0 active torsions:
REMARK  status: ('A' for Active; 'I' for Inactive)
ROOT
ATOM      1  O1  BZF d   1       0.377   1.208  -1.956  0.00  0.00    -0.204 OA
ATOM      2  C2  BZF d   1      -0.036   2.526  -1.945  0.00  0.00     0.174 A 
ATOM      3  C3  BZF d   1      -0.316   2.929  -0.688  0.00  0.00    -0.012 A 
ATOM      4  C3A BZF d   1       0.027   1.820   0.148  0.00  0.00    -0.107 A 
ATOM      5  C4  BZF d   1      -0.012   1.614   1.497  0.00  0.00     0.055 A 
ATOM      6  C5  BZF d   1       0.323   0.392   1.989  0.00  0.00    -0.016 A 
ATOM      7  C6  BZF d   1       0.696  -0.646   1.161  0.00  0.00     0.022 A 
ATOM      8  C7  BZF d   1       0.755  -0.489  -0.184  0.00  0.00     0.029 A 
ATOM      9  C7A BZF d   1       0.448   0.754  -0.681  0.00  0.00     0.058 A 
ENDROOT
TORSDOF 0
ENDMDL
