MODEL 1
REMARK minimizedAffinity 7.55916357
REMARK minimizedRMSD -1
REMARK  0 active torsions:
REMARK  status: ('A' for Active; 'I' for Inactive)
ROOT
ATOM      1  O1  BZF d   1      -1.416  -0.718  -1.033  0.00  0.00    -0.204 OA
ATOM      2  C2  BZF d   1      -0.503   0.029  -0.314  0.00  0.00     0.174 A 
ATOM      3  C3  BZF d   1       0.452  -0.763   0.215  0.00  0.00    -0.012 A 
ATOM      4  C3A BZF d   1       0.167  -2.076  -0.275  0.00  0.00    -0.107 A 
ATOM      5  C4  BZF d   1       0.770  -3.290  -0.113  0.00  0.00     0.055 A 
ATOM      6  C5  BZF d   1       0.198  -4.391  -0.668  0.00  0.00    -0.016 A 
ATOM      7  C6  BZF d   1      -0.977  -4.315  -1.386  0.00  0.00     0.022 A 
ATOM      8  C7  BZF d   1      -1.610  -3.132  -1.578  0.00  0.00     0.029 A 
ATOM      9  C7A BZF d   1      -1.017  -2.013  -1.046  0.00  0.00     0.058 A 
ENDROOT
TORSDOF 0
ENDMDL
