MODEL 1
REMARK minimizedAffinity -3.68081284
REMARK minimizedRMSD -1
REMARK  0 active torsions:
REMARK  status: ('A' for Active; 'I' for Inactive)
ROOT
ATOM      1  O1  BZF d   1      -1.201  -2.843   0.683  0.00  0.00    -0.204 OA
ATOM      2  C2  BZF d   1      -0.954  -3.567  -0.467  0.00  0.00     0.174 A 
ATOM      3  C3  BZF d   1      -0.379  -2.791  -1.408  0.00  0.00    -0.012 A 
ATOM      4  C3A BZF d   1      -0.174  -1.524  -0.777  0.00  0.00    -0.107 A 
ATOM      5  C4  BZF d   1       0.373  -0.344  -1.194  0.00  0.00     0.055 A 
ATOM      6  C5  BZF d   1       0.355   0.726  -0.356  0.00  0.00    -0.016 A 
ATOM      7  C6  BZF d   1      -0.207   0.653   0.902  0.00  0.00     0.022 A 
ATOM      8  C7  BZF d   1      -0.757  -0.497   1.362  0.00  0.00     0.029 A 
ATOM      9  C7A BZF d   1      -0.710  -1.589   0.530  0.00  0.00     0.058 A 
ENDROOT
TORSDOF 0
ENDMDL
