MODEL 1
REMARK minimizedAffinity -0.902736962
REMARK minimizedRMSD -1
REMARK  0 active torsions:
REMARK  status: ('A' for Active; 'I' for Inactive)
ROOT
ATOM      1  O1  BZF d   1       0.162   2.253  -1.792  0.00  0.00    -0.204 OA
ATOM      2  C2  BZF d   1       0.127   3.551  -1.320  0.00  0.00     0.174 A 
ATOM      3  C3  BZF d   1       0.173   3.571   0.028  0.00  0.00    -0.012 A 
ATOM      4  C3A BZF d   1       0.333   2.204   0.419  0.00  0.00    -0.107 A 
ATOM      5  C4  BZF d   1       0.457   1.582   1.629  0.00  0.00     0.055 A 
ATOM      6  C5  BZF d   1       0.524   0.225   1.670  0.00  0.00    -0.016 A 
ATOM      7  C6  BZF d   1       0.464  -0.540   0.524  0.00  0.00     0.022 A 
ATOM      8  C7  BZF d   1       0.346   0.032  -0.699  0.00  0.00     0.029 A 
ATOM      9  C7A BZF d   1       0.312   1.405  -0.747  0.00  0.00     0.058 A 
ENDROOT
TORSDOF 0
ENDMDL
