MODEL 1
REMARK minimizedAffinity -1.91930234
REMARK minimizedRMSD -1
REMARK  0 active torsions:
REMARK  status: ('A' for Active; 'I' for Inactive)
ROOT
ATOM      1  O1  BZF d   1      -1.038   3.291  -0.794  0.00  0.00    -0.204 OA
ATOM      2  C2  BZF d   1      -0.996   3.699   0.525  0.00  0.00     0.174 A 
ATOM      3  C3  BZF d   1      -0.499   2.722   1.312  0.00  0.00    -0.012 A 
ATOM      4  C3A BZF d   1      -0.127   1.670   0.416  0.00  0.00    -0.107 A 
ATOM      5  C4  BZF d   1       0.438   0.440   0.596  0.00  0.00     0.055 A 
ATOM      6  C5  BZF d   1       0.603  -0.375  -0.479  0.00  0.00    -0.016 A 
ATOM      7  C6  BZF d   1       0.210   0.006  -1.746  0.00  0.00     0.022 A 
ATOM      8  C7  BZF d   1      -0.350   1.218  -1.974  0.00  0.00     0.029 A 
ATOM      9  C7A BZF d   1      -0.489   2.057  -0.895  0.00  0.00     0.058 A 
ENDROOT
TORSDOF 0
ENDMDL
