MODEL 1
REMARK minimizedAffinity -6.56613398
REMARK minimizedRMSD -1
REMARK  0 active torsions:
REMARK  status: ('A' for Active; 'I' for Inactive)
ROOT
ATOM      1  O1  BZF d   1       0.071   2.138  -1.473  0.00  0.00    -0.204 OA
ATOM      2  C2  BZF d   1      -0.290   3.469  -1.550  0.00  0.00     0.174 A 
ATOM      3  C3  BZF d   1      -0.791   3.897  -0.373  0.00  0.00    -0.012 A 
ATOM      4  C3A BZF d   1      -0.655   2.788   0.520  0.00  0.00    -0.107 A 
ATOM      5  C4  BZF d   1      -0.960   2.602   1.838  0.00  0.00     0.055 A 
ATOM      6  C5  BZF d   1      -0.769   1.376   2.393  0.00  0.00    -0.016 A 
ATOM      7  C6  BZF d   1      -0.281   0.315   1.659  0.00  0.00     0.022 A 
ATOM      8  C7  BZF d   1       0.041   0.453   0.350  0.00  0.00     0.029 A 
ATOM      9  C7A BZF d   1      -0.120   1.699  -0.205  0.00  0.00     0.058 A 
ENDROOT
TORSDOF 0
ENDMDL
