MODEL 1
REMARK minimizedAffinity -3.50412083
REMARK minimizedRMSD -1
REMARK  0 active torsions:
REMARK  status: ('A' for Active; 'I' for Inactive)
ROOT
ATOM      1  O1  BZF d   1      -0.863   3.285   0.292  0.00  0.00    -0.204 OA
ATOM      2  C2  BZF d   1      -0.925   3.333   1.671  0.00  0.00     0.174 A 
ATOM      3  C3  BZF d   1      -0.645   2.127   2.205  0.00  0.00    -0.012 A 
ATOM      4  C3A BZF d   1      -0.301   1.294   1.094  0.00  0.00    -0.107 A 
ATOM      5  C4  BZF d   1       0.087  -0.011   0.983  0.00  0.00     0.055 A 
ATOM      6  C5  BZF d   1       0.277  -0.541  -0.254  0.00  0.00    -0.016 A 
ATOM      7  C6  BZF d   1       0.082   0.203  -1.400  0.00  0.00     0.022 A 
ATOM      8  C7  BZF d   1      -0.298   1.502  -1.340  0.00  0.00     0.029 A 
ATOM      9  C7A BZF d   1      -0.459   2.050  -0.091  0.00  0.00     0.058 A 
ENDROOT
TORSDOF 0
ENDMDL
