MODEL 1
REMARK minimizedAffinity -0.283106327
REMARK minimizedRMSD -1
REMARK  0 active torsions:
REMARK  status: ('A' for Active; 'I' for Inactive)
ROOT
ATOM      1  C   UNL d   1       0.793  -0.660  -0.292  0.00  0.00     0.023 A 
ATOM      2  C1  UNL d   1       0.807  -0.582  -1.685  0.00  0.00     0.003 A 
ATOM      3  C2  UNL d   1      -0.331  -0.158  -2.374  0.00  0.00     0.048 A 
ATOM      4  C3  UNL d   1      -1.480   0.187  -1.664  0.00  0.00     0.023 A 
ATOM      5  C4  UNL d   1      -1.499   0.111  -0.270  0.00  0.00     0.048 A 
ATOM      6  C5  UNL d   1      -0.359  -0.314   0.414  0.00  0.00     0.003 A 
ATOM      7  I   UNL d   1      -3.176   0.819  -2.687  0.00  0.00    -0.146 I 
ENDROOT
TORSDOF 0
ENDMDL
