MODEL 1
REMARK minimizedAffinity -2.28395462
REMARK minimizedRMSD -1
REMARK  0 active torsions:
REMARK  status: ('A' for Active; 'I' for Inactive)
ROOT
ATOM      1  C   UNL d   1       2.194   4.449   0.614  0.00  0.00     0.023 A 
ATOM      2  C1  UNL d   1       0.808   4.396   0.762  0.00  0.00     0.003 A 
ATOM      3  C2  UNL d   1       0.119   3.214   0.482  0.00  0.00     0.048 A 
ATOM      4  C3  UNL d   1       0.824   2.088   0.057  0.00  0.00     0.023 A 
ATOM      5  C4  UNL d   1       2.211   2.136  -0.091  0.00  0.00     0.048 A 
ATOM      6  C5  UNL d   1       2.894   3.321   0.188  0.00  0.00     0.003 A 
ATOM      7  I   UNL d   1      -0.198   0.326  -0.359  0.00  0.00    -0.146 I 
ENDROOT
TORSDOF 0
ENDMDL
