MODEL 1
REMARK minimizedAffinity -2.79608941
REMARK minimizedRMSD -1
REMARK  0 active torsions:
REMARK  status: ('A' for Active; 'I' for Inactive)
ROOT
ATOM      1  C   UNL d   1      -0.409  -0.143  -0.500  0.00  0.00     0.023 A 
ATOM      2  C1  UNL d   1       0.929  -0.470  -0.280  0.00  0.00     0.003 A 
ATOM      3  C2  UNL d   1       1.868   0.539  -0.054  0.00  0.00     0.048 A 
ATOM      4  C3  UNL d   1       1.461   1.873  -0.049  0.00  0.00     0.023 A 
ATOM      5  C4  UNL d   1       0.124   2.205  -0.268  0.00  0.00     0.048 A 
ATOM      6  C5  UNL d   1      -0.811   1.193  -0.494  0.00  0.00     0.003 A 
ATOM      7  I   UNL d   1       2.857   3.376   0.288  0.00  0.00    -0.146 I 
ENDROOT
TORSDOF 0
ENDMDL
