MODEL 1
REMARK minimizedAffinity 1.28031945
REMARK minimizedRMSD -1
REMARK  0 active torsions:
REMARK  status: ('A' for Active; 'I' for Inactive)
ROOT
ATOM      1  C   UNL d   1      -2.772   1.382  -4.123  0.00  0.00     0.023 A 
ATOM      2  C1  UNL d   1      -3.583   0.915  -3.089  0.00  0.00     0.003 A 
ATOM      3  C2  UNL d   1      -3.026   0.618  -1.843  0.00  0.00     0.048 A 
ATOM      4  C3  UNL d   1      -1.657   0.792  -1.639  0.00  0.00     0.023 A 
ATOM      5  C4  UNL d   1      -0.842   1.260  -2.671  0.00  0.00     0.048 A 
ATOM      6  C5  UNL d   1      -1.404   1.555  -3.915  0.00  0.00     0.003 A 
ATOM      7  I   UNL d   1      -0.826   0.351   0.214  0.00  0.00    -0.146 I 
ENDROOT
TORSDOF 0
ENDMDL
