MODEL 1
REMARK minimizedAffinity -2.3202951
REMARK minimizedRMSD -1
REMARK  0 active torsions:
REMARK  status: ('A' for Active; 'I' for Inactive)
ROOT
ATOM      1  C   UNL d   1      -2.610   1.397  -4.648  0.00  0.00     0.023 A 
ATOM      2  C1  UNL d   1      -2.988   0.292  -3.885  0.00  0.00     0.003 A 
ATOM      3  C2  UNL d   1      -2.648   0.228  -2.532  0.00  0.00     0.048 A 
ATOM      4  C3  UNL d   1      -1.931   1.272  -1.948  0.00  0.00     0.023 A 
ATOM      5  C4  UNL d   1      -1.552   2.379  -2.708  0.00  0.00     0.048 A 
ATOM      6  C5  UNL d   1      -1.893   2.439  -4.060  0.00  0.00     0.003 A 
ATOM      7  I   UNL d   1      -1.424   1.178   0.065  0.00  0.00    -0.146 I 
ENDROOT
TORSDOF 0
ENDMDL
