MODEL 1
REMARK minimizedAffinity -3.23442912
REMARK minimizedRMSD -1
REMARK  0 active torsions:
REMARK  status: ('A' for Active; 'I' for Inactive)
ROOT
ATOM      1  C   UNL d   1      -3.333   0.115  -3.242  0.00  0.00     0.023 A 
ATOM      2  C1  UNL d   1      -1.974  -0.144  -3.059  0.00  0.00     0.003 A 
ATOM      3  C2  UNL d   1      -1.040   0.884  -3.202  0.00  0.00     0.048 A 
ATOM      4  C3  UNL d   1      -1.472   2.170  -3.526  0.00  0.00     0.023 A 
ATOM      5  C4  UNL d   1      -2.831   2.434  -3.709  0.00  0.00     0.048 A 
ATOM      6  C5  UNL d   1      -3.760   1.402  -3.567  0.00  0.00     0.003 A 
ATOM      7  I   UNL d   1      -0.084   3.702  -3.739  0.00  0.00    -0.146 I 
ENDROOT
TORSDOF 0
ENDMDL
