MODEL 1
REMARK minimizedAffinity 0.573587835
REMARK minimizedRMSD -1
REMARK  0 active torsions:
REMARK  status: ('A' for Active; 'I' for Inactive)
ROOT
ATOM      1  C   UNL d   1      -1.412  -0.504   0.002  0.00  0.00     0.023 A 
ATOM      2  C1  UNL d   1      -0.304   0.218  -0.441  0.00  0.00     0.003 A 
ATOM      3  C2  UNL d   1       0.957  -0.034   0.103  0.00  0.00     0.048 A 
ATOM      4  C3  UNL d   1       1.103  -1.010   1.088  0.00  0.00     0.023 A 
ATOM      5  C4  UNL d   1      -0.003  -1.736   1.533  0.00  0.00     0.048 A 
ATOM      6  C5  UNL d   1      -1.262  -1.480   0.987  0.00  0.00     0.003 A 
ATOM      7  I   UNL d   1       2.980  -1.388   1.898  0.00  0.00    -0.146 I 
ENDROOT
TORSDOF 0
ENDMDL
