MODEL 1
REMARK minimizedAffinity -2.30370092
REMARK minimizedRMSD -1
REMARK  0 active torsions:
REMARK  status: ('A' for Active; 'I' for Inactive)
ROOT
ATOM      1  C   UNL d   1       0.296  -0.481  -0.075  0.00  0.00     0.023 A 
ATOM      2  C1  UNL d   1       0.288  -0.782  -1.438  0.00  0.00     0.003 A 
ATOM      3  C2  UNL d   1      -0.693  -0.236  -2.268  0.00  0.00     0.048 A 
ATOM      4  C3  UNL d   1      -1.662   0.610  -1.731  0.00  0.00     0.023 A 
ATOM      5  C4  UNL d   1      -1.657   0.915  -0.368  0.00  0.00     0.048 A 
ATOM      6  C5  UNL d   1      -0.675   0.366   0.459  0.00  0.00     0.003 A 
ATOM      7  I   UNL d   1      -3.123   1.424  -2.965  0.00  0.00    -0.146 I 
ENDROOT
TORSDOF 0
ENDMDL
