MODEL 1
REMARK minimizedAffinity -3.6169467
REMARK minimizedRMSD -1
REMARK  0 active torsions:
REMARK  status: ('A' for Active; 'I' for Inactive)
ROOT
ATOM      1  C   UNL d   1       1.853   4.261   0.529  0.00  0.00     0.023 A 
ATOM      2  C1  UNL d   1       0.466   4.150   0.440  0.00  0.00     0.003 A 
ATOM      3  C2  UNL d   1      -0.122   2.908   0.193  0.00  0.00     0.048 A 
ATOM      4  C3  UNL d   1       0.683   1.780   0.037  0.00  0.00     0.023 A 
ATOM      5  C4  UNL d   1       2.072   1.886   0.127  0.00  0.00     0.048 A 
ATOM      6  C5  UNL d   1       2.656   3.131   0.373  0.00  0.00     0.003 A 
ATOM      7  I   UNL d   1      -0.189  -0.070  -0.330  0.00  0.00    -0.146 I 
ENDROOT
TORSDOF 0
ENDMDL
