MODEL 1
REMARK minimizedAffinity -4.28222275
REMARK minimizedRMSD -1
REMARK  0 active torsions:
REMARK  status: ('A' for Active; 'I' for Inactive)
ROOT
ATOM      1  C   UNL d   1       2.454   3.133   0.293  0.00  0.00     0.023 A 
ATOM      2  C1  UNL d   1       1.084   3.394   0.319  0.00  0.00     0.003 A 
ATOM      3  C2  UNL d   1       0.172   2.371   0.054  0.00  0.00     0.048 A 
ATOM      4  C3  UNL d   1       0.636   1.088  -0.234  0.00  0.00     0.023 A 
ATOM      5  C4  UNL d   1       2.006   0.822  -0.261  0.00  0.00     0.048 A 
ATOM      6  C5  UNL d   1       2.914   1.848   0.004  0.00  0.00     0.003 A 
ATOM      7  I   UNL d   1      -0.721  -0.436  -0.628  0.00  0.00    -0.146 I 
ENDROOT
TORSDOF 0
ENDMDL
