MODEL 1
REMARK minimizedAffinity -3.08659983
REMARK minimizedRMSD -1
REMARK  0 active torsions:
REMARK  status: ('A' for Active; 'I' for Inactive)
ROOT
ATOM      1  C   UNL d   1       1.807  -2.247   1.253  0.00  0.00     0.023 A 
ATOM      2  C1  UNL d   1       2.281  -1.542   0.146  0.00  0.00     0.003 A 
ATOM      3  C2  UNL d   1       1.430  -0.686  -0.555  0.00  0.00     0.048 A 
ATOM      4  C3  UNL d   1       0.106  -0.538  -0.143  0.00  0.00     0.023 A 
ATOM      5  C4  UNL d   1      -0.373  -1.241   0.964  0.00  0.00     0.048 A 
ATOM      6  C5  UNL d   1       0.482  -2.096   1.661  0.00  0.00     0.003 A 
ATOM      7  I   UNL d   1      -1.164   0.736  -1.185  0.00  0.00    -0.146 I 
ENDROOT
TORSDOF 0
ENDMDL
