MODEL 1
REMARK minimizedAffinity -3.75145698
REMARK minimizedRMSD -1
REMARK  0 active torsions:
REMARK  status: ('A' for Active; 'I' for Inactive)
ROOT
ATOM      1  C   UNL d   1       2.877   4.322   0.052  0.00  0.00     0.023 A 
ATOM      2  C1  UNL d   1       3.503   3.136  -0.335  0.00  0.00     0.003 A 
ATOM      3  C2  UNL d   1       2.782   1.940  -0.357  0.00  0.00     0.048 A 
ATOM      4  C3  UNL d   1       1.437   1.937   0.007  0.00  0.00     0.023 A 
ATOM      5  C4  UNL d   1       0.806   3.121   0.394  0.00  0.00     0.048 A 
ATOM      6  C5  UNL d   1       1.531   4.314   0.416  0.00  0.00     0.003 A 
ATOM      7  I   UNL d   1       0.362   0.158  -0.025  0.00  0.00    -0.146 I 
ENDROOT
TORSDOF 0
ENDMDL
