MODEL 1
REMARK minimizedAffinity -2.69014716
REMARK minimizedRMSD -1
REMARK  0 active torsions:
REMARK  status: ('A' for Active; 'I' for Inactive)
ROOT
ATOM      1  C   UNL d   1       0.453  -2.559   0.580  0.00  0.00     0.023 A 
ATOM      2  C1  UNL d   1       1.829  -2.438   0.773  0.00  0.00     0.003 A 
ATOM      3  C2  UNL d   1       2.473  -1.233   0.486  0.00  0.00     0.048 A 
ATOM      4  C3  UNL d   1       1.734  -0.151   0.007  0.00  0.00     0.023 A 
ATOM      5  C4  UNL d   1       0.356  -0.267  -0.187  0.00  0.00     0.048 A 
ATOM      6  C5  UNL d   1      -0.283  -1.474   0.101  0.00  0.00     0.003 A 
ATOM      7  I   UNL d   1       2.690   1.644  -0.421  0.00  0.00    -0.146 I 
ENDROOT
TORSDOF 0
ENDMDL
