MODEL 1
REMARK minimizedAffinity -2.61297536
REMARK minimizedRMSD -1
REMARK  0 active torsions:
REMARK  status: ('A' for Active; 'I' for Inactive)
ROOT
ATOM      1  C   UNL d   1       2.986   3.517  -0.445  0.00  0.00     0.023 A 
ATOM      2  C1  UNL d   1       1.701   3.716   0.061  0.00  0.00     0.003 A 
ATOM      3  C2  UNL d   1       0.811   2.644   0.149  0.00  0.00     0.048 A 
ATOM      4  C3  UNL d   1       1.212   1.375  -0.269  0.00  0.00     0.023 A 
ATOM      5  C4  UNL d   1       2.496   1.172  -0.775  0.00  0.00     0.048 A 
ATOM      6  C5  UNL d   1       3.383   2.247  -0.863  0.00  0.00     0.003 A 
ATOM      7  I   UNL d   1      -0.112  -0.222  -0.138  0.00  0.00    -0.146 I 
ENDROOT
TORSDOF 0
ENDMDL
