MODEL 1
REMARK minimizedAffinity -3.65725613
REMARK minimizedRMSD -1
REMARK  0 active torsions:
REMARK  status: ('A' for Active; 'I' for Inactive)
ROOT
ATOM      1  C   UNL d   1       2.082  -3.014   0.485  0.00  0.00     0.023 A 
ATOM      2  C1  UNL d   1       2.496  -2.107  -0.490  0.00  0.00     0.003 A 
ATOM      3  C2  UNL d   1       1.759  -0.944  -0.722  0.00  0.00     0.048 A 
ATOM      4  C3  UNL d   1       0.609  -0.694   0.026  0.00  0.00     0.023 A 
ATOM      5  C4  UNL d   1       0.191  -1.598   1.004  0.00  0.00     0.048 A 
ATOM      6  C5  UNL d   1       0.931  -2.759   1.232  0.00  0.00     0.003 A 
ATOM      7  I   UNL d   1      -0.490   1.037  -0.317  0.00  0.00    -0.146 I 
ENDROOT
TORSDOF 0
ENDMDL
