MODEL 1
REMARK minimizedAffinity -2.84784341
REMARK minimizedRMSD -1
REMARK  0 active torsions:
REMARK  status: ('A' for Active; 'I' for Inactive)
ROOT
ATOM      1  C   UNL d   1       1.171  -1.343  -0.431  0.00  0.00     0.172 C 
ATOM      2  N   UNL d   1       0.096  -0.387  -0.300  0.00  0.00    -0.070 N 
ATOM      3  C1  UNL d   1      -0.039   0.766  -1.026  0.00  0.00    -0.004 A 
ATOM      4  C2  UNL d   1      -1.190   1.398  -0.605  0.00  0.00    -0.047 A 
ATOM      5  C3  UNL d   1      -1.765   0.596   0.410  0.00  0.00    -0.047 A 
ATOM      6  C4  UNL d   1      -0.948  -0.502   0.579  0.00  0.00    -0.004 A 
ENDROOT
TORSDOF 0
ENDMDL
