MODEL 1
REMARK minimizedAffinity -2.12695718
REMARK minimizedRMSD -1
REMARK  0 active torsions:
REMARK  status: ('A' for Active; 'I' for Inactive)
ROOT
ATOM      1  C   UNL d   1       1.258   0.451  -3.820  0.00  0.00     0.172 C 
ATOM      2  N   UNL d   1       0.807   0.122  -2.489  0.00  0.00    -0.070 N 
ATOM      3  C1  UNL d   1       0.655  -1.143  -1.987  0.00  0.00    -0.004 A 
ATOM      4  C2  UNL d   1       0.209  -1.031  -0.688  0.00  0.00    -0.047 A 
ATOM      5  C3  UNL d   1       0.089   0.349  -0.398  0.00  0.00    -0.047 A 
ATOM      6  C4  UNL d   1       0.466   1.040  -1.531  0.00  0.00    -0.004 A 
ENDROOT
TORSDOF 0
ENDMDL
