MODEL 1
REMARK minimizedAffinity -3.39691758
REMARK minimizedRMSD -1
REMARK  0 active torsions:
REMARK  status: ('A' for Active; 'I' for Inactive)
ROOT
ATOM      1  C   UNL d   1       0.100  -0.703  -1.147  0.00  0.00     0.172 C 
ATOM      2  N   UNL d   1      -0.570  -0.238   0.045  0.00  0.00    -0.070 N 
ATOM      3  C1  UNL d   1       0.004  -0.094   1.280  0.00  0.00    -0.004 A 
ATOM      4  C2  UNL d   1      -0.963   0.372   2.144  0.00  0.00    -0.047 A 
ATOM      5  C3  UNL d   1      -2.160   0.512   1.403  0.00  0.00    -0.047 A 
ATOM      6  C4  UNL d   1      -1.889   0.128   0.107  0.00  0.00    -0.004 A 
ENDROOT
TORSDOF 0
ENDMDL
