MODEL 1
REMARK minimizedAffinity 9.5106039
REMARK minimizedRMSD -1
REMARK  0 active torsions:
REMARK  status: ('A' for Active; 'I' for Inactive)
ROOT
ATOM      1  C4' PXY d   1      -0.249   1.420  -1.182  0.00  0.00     0.077 C 
ATOM      2  C1' PXY d   1      -1.608  -4.172  -0.643  0.00  0.00     0.077 C 
ATOM      3  C1  PXY d   1      -1.239  -2.709  -0.787  0.00  0.00    -0.082 A 
ATOM      4  C2  PXY d   1      -1.967  -1.788  -0.177  0.00  0.00     0.003 A 
ATOM      5  C3  PXY d   1      -1.667  -0.458  -0.323  0.00  0.00     0.003 A 
ATOM      6  C4  PXY d   1      -0.578  -0.070  -1.057  0.00  0.00    -0.082 A 
ATOM      7  C5  PXY d   1       0.176  -1.004  -1.674  0.00  0.00     0.003 A 
ATOM      8  C6  PXY d   1      -0.170  -2.346  -1.547  0.00  0.00     0.003 A 
ENDROOT
TORSDOF 0
ENDMDL
