MODEL 1
REMARK minimizedAffinity -0.562784493
REMARK minimizedRMSD -1
REMARK  0 active torsions:
REMARK  status: ('A' for Active; 'I' for Inactive)
ROOT
ATOM      1  C4' PXY d   1       5.974   3.160   3.887  0.00  0.00     0.077 C 
ATOM      2  C1' PXY d   1       5.998  -2.429   5.363  0.00  0.00     0.077 C 
ATOM      3  C1  PXY d   1       5.987  -0.960   4.987  0.00  0.00    -0.082 A 
ATOM      4  C2  PXY d   1       5.977  -0.611   3.711  0.00  0.00     0.003 A 
ATOM      5  C3  PXY d   1       5.999   0.713   3.354  0.00  0.00     0.003 A 
ATOM      6  C4  PXY d   1       5.977   1.690   4.313  0.00  0.00    -0.082 A 
ATOM      7  C5  PXY d   1       5.975   1.342   5.617  0.00  0.00     0.003 A 
ATOM      8  C6  PXY d   1       5.995  -0.007   5.959  0.00  0.00     0.003 A 
ENDROOT
TORSDOF 0
ENDMDL
