MODEL 1
REMARK minimizedAffinity 3.7647655
REMARK minimizedRMSD -1
REMARK  0 active torsions:
REMARK  status: ('A' for Active; 'I' for Inactive)
ROOT
ATOM      1  C4' PXY d   1      -0.216  -2.040   0.317  0.00  0.00     0.077 C 
ATOM      2  C1' PXY d   1       2.990   1.390  -3.055  0.00  0.00     0.077 C 
ATOM      3  C1  PXY d   1       2.155   0.495  -2.160  0.00  0.00    -0.082 A 
ATOM      4  C2  PXY d   1       1.644  -0.624  -2.647  0.00  0.00     0.003 A 
ATOM      5  C3  PXY d   1       0.860  -1.429  -1.861  0.00  0.00     0.003 A 
ATOM      6  C4  PXY d   1       0.641  -1.111  -0.547  0.00  0.00    -0.082 A 
ATOM      7  C5  PXY d   1       1.168   0.023  -0.040  0.00  0.00     0.003 A 
ATOM      8  C6  PXY d   1       1.926   0.847  -0.866  0.00  0.00     0.003 A 
ENDROOT
TORSDOF 0
ENDMDL
