MODEL 1
REMARK minimizedAffinity 0.418491453
REMARK minimizedRMSD -1
REMARK  0 active torsions:
REMARK  status: ('A' for Active; 'I' for Inactive)
ROOT
ATOM      1  C4' PXY d   1       6.000   4.407   3.703  0.00  0.00     0.077 C 
ATOM      2  C1' PXY d   1       5.980  -1.027   5.674  0.00  0.00     0.077 C 
ATOM      3  C1  PXY d   1       5.991   0.394   5.146  0.00  0.00    -0.082 A 
ATOM      4  C2  PXY d   1       6.000   1.408   5.996  0.00  0.00     0.003 A 
ATOM      5  C3  PXY d   1       5.977   2.699   5.536  0.00  0.00     0.003 A 
ATOM      6  C4  PXY d   1       5.999   2.956   4.191  0.00  0.00    -0.082 A 
ATOM      7  C5  PXY d   1       6.000   1.927   3.318  0.00  0.00     0.003 A 
ATOM      8  C6  PXY d   1       5.981   0.623   3.805  0.00  0.00     0.003 A 
ENDROOT
TORSDOF 0
ENDMDL
