MODEL 1
REMARK minimizedAffinity -2.17222118
REMARK minimizedRMSD -1
REMARK  0 active torsions:
REMARK  status: ('A' for Active; 'I' for Inactive)
ROOT
ATOM      1  C4' PXY d   1       5.948   4.887   3.847  0.00  0.00     0.077 C 
ATOM      2  C1' PXY d   1       5.998  -0.665   5.456  0.00  0.00     0.077 C 
ATOM      3  C1  PXY d   1       5.980   0.794   5.046  0.00  0.00    -0.082 A 
ATOM      4  C2  PXY d   1       5.977   1.112   3.761  0.00  0.00     0.003 A 
ATOM      5  C3  PXY d   1       5.993   2.427   3.373  0.00  0.00     0.003 A 
ATOM      6  C4  PXY d   1       5.957   3.426   4.308  0.00  0.00    -0.082 A 
ATOM      7  C5  PXY d   1       5.949   3.110   5.620  0.00  0.00     0.003 A 
ATOM      8  C6  PXY d   1       5.975   1.769   5.994  0.00  0.00     0.003 A 
ENDROOT
TORSDOF 0
ENDMDL
