MODEL 1
REMARK minimizedAffinity -2.61654043
REMARK minimizedRMSD -1
REMARK  0 active torsions:
REMARK  status: ('A' for Active; 'I' for Inactive)
ROOT
ATOM      1  C4' PXY d   1       5.676   4.502   2.979  0.00  0.00     0.077 C 
ATOM      2  C1' PXY d   1       5.612  -0.591   5.713  0.00  0.00     0.077 C 
ATOM      3  C1  PXY d   1       5.630   0.738   4.985  0.00  0.00    -0.082 A 
ATOM      4  C2  PXY d   1       6.000   1.833   5.630  0.00  0.00     0.003 A 
ATOM      5  C3  PXY d   1       5.991   3.048   4.995  0.00  0.00     0.003 A 
ATOM      6  C4  PXY d   1       5.652   3.137   3.672  0.00  0.00    -0.082 A 
ATOM      7  C5  PXY d   1       5.283   2.023   3.004  0.00  0.00     0.003 A 
ATOM      8  C6  PXY d   1       5.259   0.805   3.677  0.00  0.00     0.003 A 
ENDROOT
TORSDOF 0
ENDMDL
