MODEL 1
REMARK minimizedAffinity -3.24896049
REMARK minimizedRMSD -1
REMARK  0 active torsions:
REMARK  status: ('A' for Active; 'I' for Inactive)
ROOT
ATOM      1  C4' PXY d   1       5.323  -1.359   5.917  0.00  0.00     0.077 C 
ATOM      2  C1' PXY d   1       6.000   3.767   3.332  0.00  0.00     0.077 C 
ATOM      3  C1  PXY d   1       5.830   2.427   4.020  0.00  0.00    -0.082 A 
ATOM      4  C2  PXY d   1       5.517   1.359   3.304  0.00  0.00     0.003 A 
ATOM      5  C3  PXY d   1       5.329   0.146   3.914  0.00  0.00     0.003 A 
ATOM      6  C4  PXY d   1       5.514   0.013   5.264  0.00  0.00    -0.082 A 
ATOM      7  C5  PXY d   1       5.843   1.095   6.000  0.00  0.00     0.003 A 
ATOM      8  C6  PXY d   1       5.990   2.327   5.367  0.00  0.00     0.003 A 
ENDROOT
TORSDOF 0
ENDMDL
