MODEL 1
REMARK minimizedAffinity 1.80344594
REMARK minimizedRMSD -1
REMARK  0 active torsions:
REMARK  status: ('A' for Active; 'I' for Inactive)
ROOT
ATOM      1  C4' PXY d   1       4.740   1.352   1.796  0.00  0.00     0.077 C 
ATOM      2  C1' PXY d   1       5.999   5.401   5.725  0.00  0.00     0.077 C 
ATOM      3  C1  PXY d   1       5.663   4.348   4.687  0.00  0.00    -0.082 A 
ATOM      4  C2  PXY d   1       5.612   3.074   5.041  0.00  0.00     0.003 A 
ATOM      5  C3  PXY d   1       5.341   2.106   4.109  0.00  0.00     0.003 A 
ATOM      6  C4  PXY d   1       5.067   2.450   2.812  0.00  0.00    -0.082 A 
ATOM      7  C5  PXY d   1       5.107   3.749   2.446  0.00  0.00     0.003 A 
ATOM      8  C6  PXY d   1       5.424   4.713   3.398  0.00  0.00     0.003 A 
ENDROOT
TORSDOF 0
ENDMDL
