MODEL 1
REMARK minimizedAffinity -4.46686935
REMARK minimizedRMSD -1
REMARK  0 active torsions:
REMARK  status: ('A' for Active; 'I' for Inactive)
ROOT
ATOM      1  C4' PXY d   1       5.698  -0.375   4.927  0.00  0.00     0.077 C 
ATOM      2  C1' PXY d   1       5.597   5.012   2.834  0.00  0.00     0.077 C 
ATOM      3  C1  PXY d   1       5.625   3.604   3.395  0.00  0.00    -0.082 A 
ATOM      4  C2  PXY d   1       6.000   2.598   2.621  0.00  0.00     0.003 A 
ATOM      5  C3  PXY d   1       6.000   1.314   3.103  0.00  0.00     0.003 A 
ATOM      6  C4  PXY d   1       5.664   1.064   4.406  0.00  0.00    -0.082 A 
ATOM      7  C5  PXY d   1       5.291   2.086   5.206  0.00  0.00     0.003 A 
ATOM      8  C6  PXY d   1       5.258   3.376   4.685  0.00  0.00     0.003 A 
ENDROOT
TORSDOF 0
ENDMDL
