MODEL 1
REMARK minimizedAffinity -3.0349226
REMARK minimizedRMSD -1
REMARK  0 active torsions:
REMARK  status: ('A' for Active; 'I' for Inactive)
ROOT
ATOM      1  C4' PXY d   1       5.728   5.307   3.432  0.00  0.00     0.077 C 
ATOM      2  C1' PXY d   1       5.920  -0.372   4.495  0.00  0.00     0.077 C 
ATOM      3  C1  PXY d   1       5.863   1.119   4.227  0.00  0.00    -0.082 A 
ATOM      4  C2  PXY d   1       5.999   1.567   2.990  0.00  0.00     0.003 A 
ATOM      5  C3  PXY d   1       5.982   2.914   2.734  0.00  0.00     0.003 A 
ATOM      6  C4  PXY d   1       5.770   3.809   3.748  0.00  0.00    -0.082 A 
ATOM      7  C5  PXY d   1       5.619   3.360   5.012  0.00  0.00     0.003 A 
ATOM      8  C6  PXY d   1       5.681   1.991   5.256  0.00  0.00     0.003 A 
ENDROOT
TORSDOF 0
ENDMDL
