MODEL 1
REMARK minimizedAffinity -3.44841719
REMARK minimizedRMSD -1
REMARK  0 active torsions:
REMARK  status: ('A' for Active; 'I' for Inactive)
ROOT
ATOM      1  C4' PXY d   1       5.505   4.878   3.382  0.00  0.00     0.077 C 
ATOM      2  C1' PXY d   1       5.420  -0.451   5.622  0.00  0.00     0.077 C 
ATOM      3  C1  PXY d   1       5.441   0.942   5.022  0.00  0.00    -0.082 A 
ATOM      4  C2  PXY d   1       6.000   1.935   5.695  0.00  0.00     0.003 A 
ATOM      5  C3  PXY d   1       6.000   3.207   5.182  0.00  0.00     0.003 A 
ATOM      6  C4  PXY d   1       5.469   3.454   3.944  0.00  0.00    -0.082 A 
ATOM      7  C5  PXY d   1       4.907   2.444   3.247  0.00  0.00     0.003 A 
ATOM      8  C6  PXY d   1       4.881   1.168   3.803  0.00  0.00     0.003 A 
ENDROOT
TORSDOF 0
ENDMDL
