MODEL 1
REMARK minimizedAffinity -0.872642934
REMARK minimizedRMSD -1
REMARK  0 active torsions:
REMARK  status: ('A' for Active; 'I' for Inactive)
ROOT
ATOM      1  C4' PXY d   1       5.625   6.000   0.412  0.00  0.00     0.077 C 
ATOM      2  C1' PXY d   1       6.000   3.085   5.389  0.00  0.00     0.077 C 
ATOM      3  C1  PXY d   1       5.895   3.859   4.090  0.00  0.00    -0.082 A 
ATOM      4  C2  PXY d   1       5.997   3.218   2.937  0.00  0.00     0.003 A 
ATOM      5  C3  PXY d   1       5.936   3.907   1.753  0.00  0.00     0.003 A 
ATOM      6  C4  PXY d   1       5.715   5.258   1.748  0.00  0.00    -0.082 A 
ATOM      7  C5  PXY d   1       5.599   5.917   2.920  0.00  0.00     0.003 A 
ATOM      8  C6  PXY d   1       5.705   5.206   4.112  0.00  0.00     0.003 A 
ENDROOT
TORSDOF 0
ENDMDL
