MODEL 1
REMARK minimizedAffinity -4.71208
REMARK minimizedRMSD -1
REMARK  0 active torsions:
REMARK  status: ('A' for Active; 'I' for Inactive)
ROOT
ATOM      1  C4' PXY d   1       5.975   3.188   2.628  0.00  0.00     0.077 C 
ATOM      2  C1' PXY d   1       5.641  -2.245   4.574  0.00  0.00     0.077 C 
ATOM      3  C1  PXY d   1       5.725  -0.815   4.076  0.00  0.00    -0.082 A 
ATOM      4  C2  PXY d   1       5.605  -0.566   2.782  0.00  0.00     0.003 A 
ATOM      5  C3  PXY d   1       5.710   0.717   2.310  0.00  0.00     0.003 A 
ATOM      6  C4  PXY d   1       5.887   1.762   3.178  0.00  0.00    -0.082 A 
ATOM      7  C5  PXY d   1       6.000   1.517   4.500  0.00  0.00     0.003 A 
ATOM      8  C6  PXY d   1       5.931   0.203   4.955  0.00  0.00     0.003 A 
ENDROOT
TORSDOF 0
ENDMDL
