MODEL 1
REMARK minimizedAffinity -1.22758055
REMARK minimizedRMSD -1
REMARK  0 active torsions:
REMARK  status: ('A' for Active; 'I' for Inactive)
ROOT
ATOM      1  C4' PXY d   1       5.270  -0.740   4.858  0.00  0.00     0.077 C 
ATOM      2  C1' PXY d   1       5.265   4.866   3.446  0.00  0.00     0.077 C 
ATOM      3  C1  PXY d   1       5.263   3.399   3.828  0.00  0.00    -0.082 A 
ATOM      4  C2  PXY d   1       6.000   2.542   3.140  0.00  0.00     0.003 A 
ATOM      5  C3  PXY d   1       5.985   1.207   3.452  0.00  0.00     0.003 A 
ATOM      6  C4  PXY d   1       5.249   0.752   4.513  0.00  0.00    -0.082 A 
ATOM      7  C5  PXY d   1       4.503   1.621   5.227  0.00  0.00     0.003 A 
ATOM      8  C6  PXY d   1       4.500   2.966   4.868  0.00  0.00     0.003 A 
ENDROOT
TORSDOF 0
ENDMDL
