MODEL 1
REMARK minimizedAffinity -2.25293493
REMARK minimizedRMSD -1
REMARK  0 active torsions:
REMARK  status: ('A' for Active; 'I' for Inactive)
ROOT
ATOM      1  C4' PXY d   1       5.280  -1.980   5.527  0.00  0.00     0.077 C 
ATOM      2  C1' PXY d   1       5.268   3.505   3.702  0.00  0.00     0.077 C 
ATOM      3  C1  PXY d   1       5.274   2.063   4.168  0.00  0.00    -0.082 A 
ATOM      4  C2  PXY d   1       4.577   1.718   5.239  0.00  0.00     0.003 A 
ATOM      5  C3  PXY d   1       4.597   0.425   5.694  0.00  0.00     0.003 A 
ATOM      6  C4  PXY d   1       5.295  -0.537   5.014  0.00  0.00    -0.082 A 
ATOM      7  C5  PXY d   1       6.000  -0.196   3.914  0.00  0.00     0.003 A 
ATOM      8  C6  PXY d   1       6.000   1.131   3.493  0.00  0.00     0.003 A 
ENDROOT
TORSDOF 0
ENDMDL
