MODEL 1
REMARK minimizedAffinity -1.70710719
REMARK minimizedRMSD -1
REMARK  0 active torsions:
REMARK  status: ('A' for Active; 'I' for Inactive)
ROOT
ATOM      1  C4' PXY d   1       5.622  -2.948   5.286  0.00  0.00     0.077 C 
ATOM      2  C1' PXY d   1       5.314   2.711   4.148  0.00  0.00     0.077 C 
ATOM      3  C1  PXY d   1       5.394   1.230   4.459  0.00  0.00    -0.082 A 
ATOM      4  C2  PXY d   1       5.947   0.406   3.583  0.00  0.00     0.003 A 
ATOM      5  C3  PXY d   1       5.999  -0.941   3.834  0.00  0.00     0.003 A 
ATOM      6  C4  PXY d   1       5.528  -1.443   5.018  0.00  0.00    -0.082 A 
ATOM      7  C5  PXY d   1       4.973  -0.608   5.921  0.00  0.00     0.003 A 
ATOM      8  C6  PXY d   1       4.892   0.750   5.629  0.00  0.00     0.003 A 
ENDROOT
TORSDOF 0
ENDMDL
