MODEL 1
REMARK minimizedAffinity -4.61640978
REMARK minimizedRMSD -1
REMARK  0 active torsions:
REMARK  status: ('A' for Active; 'I' for Inactive)
ROOT
ATOM      1  C4' PXY d   1       6.000   2.176   3.718  0.00  0.00     0.077 C 
ATOM      2  C1' PXY d   1       5.129  -3.312   5.311  0.00  0.00     0.077 C 
ATOM      3  C1  PXY d   1       5.359  -1.877   4.881  0.00  0.00    -0.082 A 
ATOM      4  C2  PXY d   1       5.726  -0.976   5.778  0.00  0.00     0.003 A 
ATOM      5  C3  PXY d   1       5.907   0.333   5.412  0.00  0.00     0.003 A 
ATOM      6  C4  PXY d   1       5.765   0.713   4.105  0.00  0.00    -0.082 A 
ATOM      7  C5  PXY d   1       5.402  -0.202   3.181  0.00  0.00     0.003 A 
ATOM      8  C6  PXY d   1       5.182  -1.517   3.580  0.00  0.00     0.003 A 
ENDROOT
TORSDOF 0
ENDMDL
