MODEL 1
REMARK minimizedAffinity -1.7419709
REMARK minimizedRMSD -1
REMARK  0 active torsions:
REMARK  status: ('A' for Active; 'I' for Inactive)
ROOT
ATOM      1  C4' PXY d   1       5.984   5.978   2.610  0.00  0.00     0.077 C 
ATOM      2  C1' PXY d   1       5.675   0.507   4.451  0.00  0.00     0.077 C 
ATOM      3  C1  PXY d   1       5.760   1.938   3.957  0.00  0.00    -0.082 A 
ATOM      4  C2  PXY d   1       5.953   2.919   4.823  0.00  0.00     0.003 A 
ATOM      5  C3  PXY d   1       6.000   4.222   4.397  0.00  0.00     0.003 A 
ATOM      6  C4  PXY d   1       5.902   4.518   3.064  0.00  0.00    -0.082 A 
ATOM      7  C5  PXY d   1       5.716   3.521   2.172  0.00  0.00     0.003 A 
ATOM      8  C6  PXY d   1       5.630   2.210   2.630  0.00  0.00     0.003 A 
ENDROOT
TORSDOF 0
ENDMDL
