MODEL 1
REMARK minimizedAffinity -1.19312859
REMARK minimizedRMSD -1
REMARK  0 active torsions:
REMARK  status: ('A' for Active; 'I' for Inactive)
ROOT
ATOM      1  C4' PXY d   1      -0.084  -4.650   0.593  0.00  0.00     0.077 C 
ATOM      2  C1' PXY d   1       1.616   0.522  -1.352  0.00  0.00     0.077 C 
ATOM      3  C1  PXY d   1       1.171  -0.830  -0.829  0.00  0.00    -0.082 A 
ATOM      4  C2  PXY d   1       1.345  -1.909  -1.575  0.00  0.00     0.003 A 
ATOM      5  C3  PXY d   1       0.920  -3.135  -1.131  0.00  0.00     0.003 A 
ATOM      6  C4  PXY d   1       0.359  -3.266   0.110  0.00  0.00    -0.082 A 
ATOM      7  C5  PXY d   1       0.187  -2.171   0.882  0.00  0.00     0.003 A 
ATOM      8  C6  PXY d   1       0.588  -0.930   0.396  0.00  0.00     0.003 A 
ENDROOT
TORSDOF 0
ENDMDL
