MODEL 1
REMARK minimizedAffinity 8.79629612
REMARK minimizedRMSD -1
REMARK  0 active torsions:
REMARK  status: ('A' for Active; 'I' for Inactive)
ROOT
ATOM      1  C   UNL d   1      -1.054   0.195  -2.053  0.00  0.00    -0.002 A 
ATOM      2  C1  UNL d   1      -2.116  -0.375  -2.740  0.00  0.00     0.010 A 
ATOM      3  C2  UNL d   1      -3.397  -0.388  -2.184  0.00  0.00     0.041 A 
ATOM      4  C3  UNL d   1      -3.594   0.189  -0.913  0.00  0.00    -0.075 A 
ATOM      5  S   UNL d   1      -5.075   0.289  -0.036  0.00  0.00     0.015 SA
ATOM      6  C4  UNL d   1      -4.332   1.092   1.271  0.00  0.00     0.022 A 
ATOM      7  C5  UNL d   1      -2.988   1.287   1.060  0.00  0.00     0.026 A 
ATOM      8  C6  UNL d   1      -2.540   0.770  -0.202  0.00  0.00    -0.082 A 
ATOM      9  C7  UNL d   1      -1.254   0.767  -0.793  0.00  0.00     0.045 A 
ENDROOT
TORSDOF 0
ENDMDL
