MODEL 1
REMARK minimizedAffinity 5.06447935
REMARK minimizedRMSD -1
REMARK  0 active torsions:
REMARK  status: ('A' for Active; 'I' for Inactive)
ROOT
ATOM      1  C   UNL d   1       5.530   4.471   4.759  0.00  0.00    -0.002 A 
ATOM      2  C1  UNL d   1       5.240   3.382   5.569  0.00  0.00     0.010 A 
ATOM      3  C2  UNL d   1       3.933   3.146   6.000  0.00  0.00     0.041 A 
ATOM      4  C3  UNL d   1       2.912   4.029   5.596  0.00  0.00    -0.075 A 
ATOM      5  S   UNL d   1       1.238   3.937   6.000  0.00  0.00     0.015 SA
ATOM      6  C4  UNL d   1       0.869   5.339   5.105  0.00  0.00     0.022 A 
ATOM      7  C5  UNL d   1       1.983   5.878   4.507  0.00  0.00     0.026 A 
ATOM      8  C6  UNL d   1       3.179   5.131   4.779  0.00  0.00    -0.082 A 
ATOM      9  C7  UNL d   1       4.514   5.344   4.360  0.00  0.00     0.045 A 
ENDROOT
TORSDOF 0
ENDMDL
