MODEL 1
REMARK minimizedAffinity 4.98536539
REMARK minimizedRMSD -1
REMARK  0 active torsions:
REMARK  status: ('A' for Active; 'I' for Inactive)
ROOT
ATOM      1  C   UNL d   1       3.852   0.887  -0.256  0.00  0.00    -0.002 A 
ATOM      2  C1  UNL d   1       4.159   0.960  -1.607  0.00  0.00     0.010 A 
ATOM      3  C2  UNL d   1       3.980  -0.148  -2.437  0.00  0.00     0.041 A 
ATOM      4  C3  UNL d   1       3.481  -1.342  -1.881  0.00  0.00    -0.075 A 
ATOM      5  S   UNL d   1       3.179  -2.826  -2.705  0.00  0.00     0.015 SA
ATOM      6  C4  UNL d   1       2.635  -3.592  -1.283  0.00  0.00     0.022 A 
ATOM      7  C5  UNL d   1       2.676  -2.751  -0.197  0.00  0.00     0.026 A 
ATOM      8  C6  UNL d   1       3.163  -1.440  -0.523  0.00  0.00    -0.082 A 
ATOM      9  C7  UNL d   1       3.357  -0.300   0.292  0.00  0.00     0.045 A 
ENDROOT
TORSDOF 0
ENDMDL
