MODEL 1
REMARK minimizedAffinity 11.1490412
REMARK minimizedRMSD -1
REMARK  0 active torsions:
REMARK  status: ('A' for Active; 'I' for Inactive)
ROOT
ATOM      1  C   UNL d   1       3.328  -0.846  -0.203  0.00  0.00    -0.002 A 
ATOM      2  C1  UNL d   1       2.507   0.008  -0.926  0.00  0.00     0.010 A 
ATOM      3  C2  UNL d   1       2.837   1.356  -1.073  0.00  0.00     0.041 A 
ATOM      4  C3  UNL d   1       4.020   1.837  -0.477  0.00  0.00    -0.075 A 
ATOM      5  S   UNL d   1       4.627   3.450  -0.525  0.00  0.00     0.015 SA
ATOM      6  C4  UNL d   1       5.992   3.043   0.412  0.00  0.00     0.022 A 
ATOM      7  C5  UNL d   1       6.000   1.714   0.762  0.00  0.00     0.026 A 
ATOM      8  C6  UNL d   1       4.864   0.996   0.255  0.00  0.00    -0.082 A 
ATOM      9  C7  UNL d   1       4.501  -0.366   0.386  0.00  0.00     0.045 A 
ENDROOT
TORSDOF 0
ENDMDL
