MODEL 1
REMARK minimizedAffinity 0.973008633
REMARK minimizedRMSD -1
REMARK  0 active torsions:
REMARK  status: ('A' for Active; 'I' for Inactive)
ROOT
ATOM      1  C   UNL d   1       3.096  -0.136  -1.668  0.00  0.00    -0.002 A 
ATOM      2  C1  UNL d   1       3.150  -0.872  -0.492  0.00  0.00     0.010 A 
ATOM      3  C2  UNL d   1       3.862  -0.398   0.610  0.00  0.00     0.041 A 
ATOM      4  C3  UNL d   1       4.524   0.842   0.512  0.00  0.00    -0.075 A 
ATOM      5  S   UNL d   1       5.457   1.623   1.734  0.00  0.00     0.015 SA
ATOM      6  C4  UNL d   1       5.804   2.952   0.725  0.00  0.00     0.022 A 
ATOM      7  C5  UNL d   1       5.231   2.820  -0.517  0.00  0.00     0.026 A 
ATOM      8  C6  UNL d   1       4.483   1.602  -0.661  0.00  0.00    -0.082 A 
ATOM      9  C7  UNL d   1       3.753   1.093  -1.762  0.00  0.00     0.045 A 
ENDROOT
TORSDOF 0
ENDMDL
