MODEL 1
REMARK minimizedAffinity 6.62544394
REMARK minimizedRMSD -1
REMARK  0 active torsions:
REMARK  status: ('A' for Active; 'I' for Inactive)
ROOT
ATOM      1  C   UNL d   1       5.622   1.660   1.382  0.00  0.00    -0.002 A 
ATOM      2  C1  UNL d   1       4.451   2.391   1.520  0.00  0.00     0.010 A 
ATOM      3  C2  UNL d   1       3.278   1.980   0.885  0.00  0.00     0.041 A 
ATOM      4  C3  UNL d   1       3.301   0.809   0.102  0.00  0.00    -0.075 A 
ATOM      5  S   UNL d   1       1.985   0.114  -0.768  0.00  0.00     0.015 SA
ATOM      6  C4  UNL d   1       2.946  -1.171  -1.342  0.00  0.00     0.022 A 
ATOM      7  C5  UNL d   1       4.242  -1.087  -0.891  0.00  0.00     0.026 A 
ATOM      8  C6  UNL d   1       4.468   0.055  -0.051  0.00  0.00    -0.082 A 
ATOM      9  C7  UNL d   1       5.642   0.499   0.605  0.00  0.00     0.045 A 
ENDROOT
TORSDOF 0
ENDMDL
