MODEL 1
REMARK minimizedAffinity 11.1064138
REMARK minimizedRMSD -1
REMARK  0 active torsions:
REMARK  status: ('A' for Active; 'I' for Inactive)
ROOT
ATOM      1  C   UNL d   1       6.000   2.947   0.483  0.00  0.00    -0.002 A 
ATOM      2  C1  UNL d   1       4.888   3.610  -0.016  0.00  0.00     0.010 A 
ATOM      3  C2  UNL d   1       3.747   2.899  -0.393  0.00  0.00     0.041 A 
ATOM      4  C3  UNL d   1       3.741   1.497  -0.257  0.00  0.00    -0.075 A 
ATOM      5  S   UNL d   1       2.456   0.419  -0.653  0.00  0.00     0.015 SA
ATOM      6  C4  UNL d   1       3.352  -0.947  -0.168  0.00  0.00     0.022 A 
ATOM      7  C5  UNL d   1       4.604  -0.608   0.288  0.00  0.00     0.026 A 
ATOM      8  C6  UNL d   1       4.849   0.807   0.245  0.00  0.00    -0.082 A 
ATOM      9  C7  UNL d   1       5.991   1.556   0.617  0.00  0.00     0.045 A 
ENDROOT
TORSDOF 0
ENDMDL
