MODEL 1
REMARK minimizedAffinity 7.81548738
REMARK minimizedRMSD -1
REMARK  2 active torsions:
REMARK  status: ('A' for Active; 'I' for Inactive)
REMARK    1  A    between atoms: C1_2  and  C2_3 
REMARK    2  A    between atoms: C2_3  and  C3_4 
ROOT
ATOM      1  C3  UNL d   1       2.510  -0.805   0.938  0.00  0.00    -0.075 A 
ATOM      2  C4  UNL d   1       3.585  -1.547   1.450  0.00  0.00     0.002 A 
ATOM      3  C5  UNL d   1       3.359  -2.745   2.128  0.00  0.00     0.002 A 
ATOM      4  C6  UNL d   1       2.059  -3.211   2.313  0.00  0.00    -0.004 A 
ATOM      5  C7  UNL d   1       0.983  -2.473   1.824  0.00  0.00     0.002 A 
ATOM      6  C8  UNL d   1       1.206  -1.277   1.141  0.00  0.00     0.002 A 
ENDROOT
BRANCH   1   7
ATOM      7  C2  UNL d   1       2.749   0.477   0.177  0.00  0.00     0.056 C 
BRANCH   7   8
ATOM      8  C1  UNL d   1       1.975   1.681   0.725  0.00  0.00     0.007 C 
ATOM      9  C   UNL d   1       1.919   1.717   2.246  0.00  0.00     0.009 C 
ENDBRANCH   7   8
ENDBRANCH   1   7
TORSDOF 2
ENDMDL
