MODEL 1
REMARK minimizedAffinity -1.19590414
REMARK minimizedRMSD -1
REMARK  2 active torsions:
REMARK  status: ('A' for Active; 'I' for Inactive)
REMARK    1  A    between atoms: C1_2  and  C2_3 
REMARK    2  A    between atoms: C2_3  and  C3_4 
ROOT
ATOM      1  C3  UNL d   1       2.396  -1.224   1.404  0.00  0.00    -0.075 A 
ATOM      2  C4  UNL d   1       3.038  -1.829   2.494  0.00  0.00     0.002 A 
ATOM      3  C5  UNL d   1       2.433  -2.885   3.177  0.00  0.00     0.002 A 
ATOM      4  C6  UNL d   1       1.177  -3.342   2.785  0.00  0.00    -0.004 A 
ATOM      5  C7  UNL d   1       0.522  -2.737   1.714  0.00  0.00     0.002 A 
ATOM      6  C8  UNL d   1       1.127  -1.684   1.027  0.00  0.00     0.002 A 
ENDROOT
BRANCH   1   7
ATOM      7  C2  UNL d   1       3.059  -0.101   0.643  0.00  0.00     0.056 C 
BRANCH   7   8
ATOM      8  C1  UNL d   1       2.581   1.297   1.052  0.00  0.00     0.007 C 
ATOM      9  C   UNL d   1       2.746   2.334  -0.050  0.00  0.00     0.009 C 
ENDBRANCH   7   8
ENDBRANCH   1   7
TORSDOF 2
ENDMDL
