MODEL 1
REMARK minimizedAffinity -3.32570267
REMARK minimizedRMSD -1
REMARK  2 active torsions:
REMARK  status: ('A' for Active; 'I' for Inactive)
REMARK    1  A    between atoms: C1_2  and  C2_3 
REMARK    2  A    between atoms: C2_3  and  C3_4 
ROOT
ATOM      1  C3  UNL d   1       1.458  -1.744   1.939  0.00  0.00    -0.075 A 
ATOM      2  C4  UNL d   1       0.503  -1.155   1.098  0.00  0.00     0.002 A 
ATOM      3  C5  UNL d   1      -0.786  -1.680   1.013  0.00  0.00     0.002 A 
ATOM      4  C6  UNL d   1      -1.134  -2.805   1.757  0.00  0.00    -0.004 A 
ATOM      5  C7  UNL d   1      -0.189  -3.409   2.583  0.00  0.00     0.002 A 
ATOM      6  C8  UNL d   1       1.101  -2.883   2.674  0.00  0.00     0.002 A 
ENDROOT
BRANCH   1   7
ATOM      7  C2  UNL d   1       2.847  -1.163   2.058  0.00  0.00     0.056 C 
BRANCH   7   8
ATOM      8  C1  UNL d   1       3.870  -1.791   1.106  0.00  0.00     0.007 C 
ATOM      9  C   UNL d   1       5.000  -2.512   1.829  0.00  0.00     0.009 C 
ENDBRANCH   7   8
ENDBRANCH   1   7
TORSDOF 2
ENDMDL
