MODEL 1
REMARK minimizedAffinity -3.48211765
REMARK minimizedRMSD -1
REMARK  2 active torsions:
REMARK  status: ('A' for Active; 'I' for Inactive)
REMARK    1  A    between atoms: C1_2  and  C2_3 
REMARK    2  A    between atoms: C2_3  and  C3_4 
ROOT
ATOM      1  C3  UNL d   1       2.518  -0.742   2.319  0.00  0.00    -0.075 A 
ATOM      2  C4  UNL d   1       2.465   0.591   1.888  0.00  0.00     0.002 A 
ATOM      3  C5  UNL d   1       3.288   1.035   0.854  0.00  0.00     0.002 A 
ATOM      4  C6  UNL d   1       4.181   0.157   0.244  0.00  0.00    -0.004 A 
ATOM      5  C7  UNL d   1       4.254  -1.166   0.674  0.00  0.00     0.002 A 
ATOM      6  C8  UNL d   1       3.428  -1.614   1.706  0.00  0.00     0.002 A 
ENDROOT
BRANCH   1   7
ATOM      7  C2  UNL d   1       1.609  -1.237   3.418  0.00  0.00     0.056 C 
BRANCH   7   8
ATOM      8  C1  UNL d   1       0.829  -2.506   3.059  0.00  0.00     0.007 C 
ATOM      9  C   UNL d   1       0.274  -2.489   1.641  0.00  0.00     0.009 C 
ENDBRANCH   7   8
ENDBRANCH   1   7
TORSDOF 2
ENDMDL
