MODEL 1
REMARK minimizedAffinity 6.00169802
REMARK minimizedRMSD -1
REMARK  2 active torsions:
REMARK  status: ('A' for Active; 'I' for Inactive)
REMARK    1  A    between atoms: C1_2  and  C2_3 
REMARK    2  A    between atoms: C2_3  and  C3_4 
ROOT
ATOM      1  C3  UNL d   1       2.486  -0.845   1.729  0.00  0.00    -0.075 A 
ATOM      2  C4  UNL d   1       1.934   0.154   2.545  0.00  0.00     0.002 A 
ATOM      3  C5  UNL d   1       2.324   1.485   2.398  0.00  0.00     0.002 A 
ATOM      4  C6  UNL d   1       3.277   1.833   1.443  0.00  0.00    -0.004 A 
ATOM      5  C7  UNL d   1       3.844   0.848   0.638  0.00  0.00     0.002 A 
ATOM      6  C8  UNL d   1       3.452  -0.485   0.780  0.00  0.00     0.002 A 
ENDROOT
BRANCH   1   7
ATOM      7  C2  UNL d   1       2.046  -2.283   1.863  0.00  0.00     0.056 C 
BRANCH   7   8
ATOM      8  C1  UNL d   1       0.549  -2.454   2.144  0.00  0.00     0.007 C 
ATOM      9  C   UNL d   1      -0.337  -1.746   1.127  0.00  0.00     0.009 C 
ENDBRANCH   7   8
ENDBRANCH   1   7
TORSDOF 2
ENDMDL
