MODEL 1
REMARK minimizedAffinity -1.78386581
REMARK minimizedRMSD -1
REMARK  2 active torsions:
REMARK  status: ('A' for Active; 'I' for Inactive)
REMARK    1  A    between atoms: C1_2  and  C2_3 
REMARK    2  A    between atoms: C2_3  and  C3_4 
ROOT
ATOM      1  C3  UNL d   1       1.484  -2.065  -1.161  0.00  0.00    -0.075 A 
ATOM      2  C4  UNL d   1       1.561  -1.314   0.021  0.00  0.00     0.002 A 
ATOM      3  C5  UNL d   1       0.505  -0.487   0.405  0.00  0.00     0.002 A 
ATOM      4  C6  UNL d   1      -0.634  -0.392  -0.391  0.00  0.00    -0.004 A 
ATOM      5  C7  UNL d   1      -0.714  -1.121  -1.576  0.00  0.00     0.002 A 
ATOM      6  C8  UNL d   1       0.339  -1.952  -1.961  0.00  0.00     0.002 A 
ENDROOT
BRANCH   1   7
ATOM      7  C2  UNL d   1       2.612  -2.984  -1.567  0.00  0.00     0.056 C 
BRANCH   7   8
ATOM      8  C1  UNL d   1       2.934  -2.952  -3.065  0.00  0.00     0.007 C 
ATOM      9  C   UNL d   1       4.057  -1.986  -3.417  0.00  0.00     0.009 C 
ENDBRANCH   7   8
ENDBRANCH   1   7
TORSDOF 2
ENDMDL
