MODEL 1
REMARK minimizedAffinity -5.19385242
REMARK minimizedRMSD -1
REMARK  1 active torsions:
REMARK  status: ('A' for Active; 'I' for Inactive)
REMARK    1  A    between atoms: C1_2  and  C2_3 
ROOT
ATOM      1  C2  UNL d   1      -0.294   0.011  -0.709  0.00  0.00    -0.081 A 
ATOM      2  C3  UNL d   1       0.380   1.145  -0.238  0.00  0.00     0.006 A 
ATOM      3  C4  UNL d   1       1.653   1.029   0.325  0.00  0.00     0.002 A 
ATOM      4  C5  UNL d   1       2.277  -0.220   0.418  0.00  0.00    -0.080 A 
ATOM      5  C6  UNL d   1       3.656  -0.354   0.992  0.00  0.00     0.076 C 
ATOM      6  C7  UNL d   1       1.596  -1.355  -0.036  0.00  0.00     0.002 A 
ATOM      7  C8  UNL d   1       0.323  -1.240  -0.598  0.00  0.00     0.006 A 
ENDROOT
BRANCH   1   8
ATOM      8  C1  UNL d   1      -1.640   0.141  -1.374  0.00  0.00     0.054 C 
ATOM      9  C   UNL d   1      -1.724  -0.721  -2.626  0.00  0.00     0.018 C 
ENDBRANCH   1   8
TORSDOF 1
ENDMDL
