MODEL 1
REMARK minimizedAffinity -2.191787
REMARK minimizedRMSD -1
REMARK  1 active torsions:
REMARK  status: ('A' for Active; 'I' for Inactive)
REMARK    1  A    between atoms: C1_2  and  C2_3 
ROOT
ATOM      1  C2  UNL d   1      -0.197   0.303   0.003  0.00  0.00    -0.081 A 
ATOM      2  C3  UNL d   1       0.770   1.275   0.286  0.00  0.00     0.006 A 
ATOM      3  C4  UNL d   1       2.100   0.909   0.505  0.00  0.00     0.002 A 
ATOM      4  C5  UNL d   1       2.486  -0.434   0.437  0.00  0.00    -0.080 A 
ATOM      5  C6  UNL d   1       3.916  -0.838   0.640  0.00  0.00     0.076 C 
ATOM      6  C7  UNL d   1       1.517  -1.407   0.171  0.00  0.00     0.002 A 
ATOM      7  C8  UNL d   1       0.187  -1.041  -0.048  0.00  0.00     0.006 A 
ENDROOT
BRANCH   1   8
ATOM      8  C1  UNL d   1      -1.620   0.701  -0.298  0.00  0.00     0.054 C 
ATOM      9  C   UNL d   1      -1.876   0.748  -1.797  0.00  0.00     0.018 C 
ENDBRANCH   1   8
TORSDOF 1
ENDMDL
