MODEL 1
REMARK minimizedAffinity -6.04627562
REMARK minimizedRMSD -1
REMARK  1 active torsions:
REMARK  status: ('A' for Active; 'I' for Inactive)
REMARK    1  A    between atoms: C1_2  and  C2_3 
ROOT
ATOM      1  C2  UNL d   1      -0.391  -0.169  -0.025  0.00  0.00    -0.081 A 
ATOM      2  C3  UNL d   1       0.447   0.953  -0.012  0.00  0.00     0.006 A 
ATOM      3  C4  UNL d   1       1.767   0.846   0.433  0.00  0.00     0.002 A 
ATOM      4  C5  UNL d   1       2.273  -0.384   0.865  0.00  0.00    -0.080 A 
ATOM      5  C6  UNL d   1       3.696  -0.519   1.317  0.00  0.00     0.076 C 
ATOM      6  C7  UNL d   1       1.430  -1.501   0.869  0.00  0.00     0.002 A 
ATOM      7  C8  UNL d   1       0.111  -1.395   0.424  0.00  0.00     0.006 A 
ENDROOT
BRANCH   1   8
ATOM      8  C1  UNL d   1      -1.795  -0.071  -0.565  0.00  0.00     0.054 C 
ATOM      9  C   UNL d   1      -1.854  -0.482  -2.030  0.00  0.00     0.018 C 
ENDBRANCH   1   8
TORSDOF 1
ENDMDL
