MODEL 1
REMARK minimizedAffinity -4.87707806
REMARK minimizedRMSD -1
REMARK  1 active torsions:
REMARK  status: ('A' for Active; 'I' for Inactive)
REMARK    1  A    between atoms: C1_2  and  C2_3 
ROOT
ATOM      1  C2  UNL d   1      -0.683   0.036  -0.531  0.00  0.00    -0.081 A 
ATOM      2  C3  UNL d   1      -0.150  -1.192  -0.118  0.00  0.00     0.006 A 
ATOM      3  C4  UNL d   1       1.133  -1.259   0.428  0.00  0.00     0.002 A 
ATOM      4  C5  UNL d   1       1.902  -0.100   0.579  0.00  0.00    -0.080 A 
ATOM      5  C6  UNL d   1       3.270  -0.154   1.192  0.00  0.00     0.076 C 
ATOM      6  C7  UNL d   1       1.377   1.124   0.151  0.00  0.00     0.002 A 
ATOM      7  C8  UNL d   1       0.094   1.192  -0.397  0.00  0.00     0.006 A 
ENDROOT
BRANCH   1   8
ATOM      8  C1  UNL d   1      -2.091   0.121  -1.061  0.00  0.00     0.054 C 
ATOM      9  C   UNL d   1      -2.156  -0.280  -2.528  0.00  0.00     0.018 C 
ENDBRANCH   1   8
TORSDOF 1
ENDMDL
