MODEL 1
REMARK minimizedAffinity 0.562014103
REMARK minimizedRMSD -1
REMARK  1 active torsions:
REMARK  status: ('A' for Active; 'I' for Inactive)
REMARK    1  A    between atoms: C1_2  and  C2_3 
ROOT
ATOM      1  C2  UNL d   1       1.684  -0.766   0.490  0.00  0.00    -0.081 A 
ATOM      2  C3  UNL d   1       1.389   0.603   0.489  0.00  0.00     0.006 A 
ATOM      3  C4  UNL d   1       0.065   1.042   0.559  0.00  0.00     0.002 A 
ATOM      4  C5  UNL d   1      -0.985   0.121   0.639  0.00  0.00    -0.080 A 
ATOM      5  C6  UNL d   1      -2.409   0.579   0.745  0.00  0.00     0.076 C 
ATOM      6  C7  UNL d   1      -0.692  -1.247   0.622  0.00  0.00     0.002 A 
ATOM      7  C8  UNL d   1       0.632  -1.687   0.551  0.00  0.00     0.006 A 
ENDROOT
BRANCH   1   8
ATOM      8  C1  UNL d   1       3.114  -1.242   0.480  0.00  0.00     0.054 C 
ATOM      9  C   UNL d   1       3.931  -0.563   1.570  0.00  0.00     0.018 C 
ENDBRANCH   1   8
TORSDOF 1
ENDMDL
