MODEL 1
REMARK minimizedAffinity -1.36863244
REMARK minimizedRMSD -1
REMARK  0 active torsions:
REMARK  status: ('A' for Active; 'I' for Inactive)
ROOT
ATOM      1  C   UNL d   1      -0.204  -1.524   1.207  0.00  0.00    -0.002 A 
ATOM      2  C1  UNL d   1      -1.027  -0.564   1.777  0.00  0.00     0.010 A 
ATOM      3  C2  UNL d   1      -1.612   0.429   0.989  0.00  0.00     0.041 A 
ATOM      4  C3  UNL d   1      -1.355   0.439  -0.397  0.00  0.00    -0.075 A 
ATOM      5  S   UNL d   1      -1.963   1.558  -1.559  0.00  0.00     0.015 SA
ATOM      6  C4  UNL d   1      -1.145   0.786  -2.840  0.00  0.00     0.022 A 
ATOM      7  C5  UNL d   1      -0.421  -0.300  -2.409  0.00  0.00     0.026 A 
ATOM      8  C6  UNL d   1      -0.530  -0.518  -0.994  0.00  0.00    -0.082 A 
ATOM      9  C7  UNL d   1       0.049  -1.511  -0.167  0.00  0.00     0.045 A 
ENDROOT
TORSDOF 0
ENDMDL
