MODEL 1
REMARK minimizedAffinity 2.03077006
REMARK minimizedRMSD -1
REMARK  0 active torsions:
REMARK  status: ('A' for Active; 'I' for Inactive)
ROOT
ATOM      1  C   UNL d   1       2.697  -1.946   1.755  0.00  0.00    -0.002 A 
ATOM      2  C1  UNL d   1       3.004  -0.794   1.045  0.00  0.00     0.010 A 
ATOM      3  C2  UNL d   1       1.997  -0.054   0.423  0.00  0.00     0.041 A 
ATOM      4  C3  UNL d   1       0.663  -0.495   0.528  0.00  0.00    -0.075 A 
ATOM      5  S   UNL d   1      -0.735   0.252  -0.152  0.00  0.00     0.015 SA
ATOM      6  C4  UNL d   1      -1.773  -0.941   0.485  0.00  0.00     0.022 A 
ATOM      7  C5  UNL d   1      -1.086  -1.893   1.201  0.00  0.00     0.026 A 
ATOM      8  C6  UNL d   1       0.329  -1.651   1.238  0.00  0.00    -0.082 A 
ATOM      9  C7  UNL d   1       1.372  -2.380   1.858  0.00  0.00     0.045 A 
ENDROOT
TORSDOF 0
ENDMDL
