MODEL 1
REMARK minimizedAffinity -1.34861541
REMARK minimizedRMSD -1
REMARK  0 active torsions:
REMARK  status: ('A' for Active; 'I' for Inactive)
ROOT
ATOM      1  C   UNL d   1      -2.708   0.848  -3.472  0.00  0.00    -0.002 A 
ATOM      2  C1  UNL d   1      -3.121   1.769  -2.520  0.00  0.00     0.010 A 
ATOM      3  C2  UNL d   1      -2.480   1.848  -1.282  0.00  0.00     0.041 A 
ATOM      4  C3  UNL d   1      -1.404   0.979  -1.015  0.00  0.00    -0.075 A 
ATOM      5  S   UNL d   1      -0.468   0.896   0.430  0.00  0.00     0.015 SA
ATOM      6  C4  UNL d   1       0.504  -0.363  -0.183  0.00  0.00     0.022 A 
ATOM      7  C5  UNL d   1       0.137  -0.724  -1.457  0.00  0.00     0.026 A 
ATOM      8  C6  UNL d   1      -0.968   0.044  -1.959  0.00  0.00    -0.082 A 
ATOM      9  C7  UNL d   1      -1.640  -0.012  -3.203  0.00  0.00     0.045 A 
ENDROOT
TORSDOF 0
ENDMDL
