MODEL 1
REMARK minimizedAffinity -3.89565992
REMARK minimizedRMSD -1
REMARK  0 active torsions:
REMARK  status: ('A' for Active; 'I' for Inactive)
ROOT
ATOM      1  C   UNL d   1      -1.468   2.986  -4.329  0.00  0.00    -0.002 A 
ATOM      2  C1  UNL d   1      -2.170   1.822  -4.053  0.00  0.00     0.010 A 
ATOM      3  C2  UNL d   1      -2.022   1.177  -2.823  0.00  0.00     0.041 A 
ATOM      4  C3  UNL d   1      -1.148   1.729  -1.866  0.00  0.00    -0.075 A 
ATOM      5  S   UNL d   1      -0.808   1.113  -0.291  0.00  0.00     0.015 SA
ATOM      6  C4  UNL d   1       0.277   2.381   0.052  0.00  0.00     0.022 A 
ATOM      7  C5  UNL d   1       0.389   3.262  -0.997  0.00  0.00     0.026 A 
ATOM      8  C6  UNL d   1      -0.430   2.901  -2.120  0.00  0.00    -0.082 A 
ATOM      9  C7  UNL d   1      -0.602   3.530  -3.376  0.00  0.00     0.045 A 
ENDROOT
TORSDOF 0
ENDMDL
