MODEL 1
REMARK minimizedAffinity -3.03717828
REMARK minimizedRMSD -1
REMARK  0 active torsions:
REMARK  status: ('A' for Active; 'I' for Inactive)
ROOT
ATOM      1  C   UNL d   1       2.580   3.519   0.412  0.00  0.00    -0.002 A 
ATOM      2  C1  UNL d   1       1.272   3.980   0.379  0.00  0.00     0.010 A 
ATOM      3  C2  UNL d   1       0.213   3.099   0.151  0.00  0.00     0.041 A 
ATOM      4  C3  UNL d   1       0.495   1.732  -0.045  0.00  0.00    -0.075 A 
ATOM      5  S   UNL d   1      -0.641   0.469  -0.340  0.00  0.00     0.015 SA
ATOM      6  C4  UNL d   1       0.584  -0.713  -0.429  0.00  0.00     0.022 A 
ATOM      7  C5  UNL d   1       1.834  -0.175  -0.241  0.00  0.00     0.026 A 
ATOM      8  C6  UNL d   1       1.804   1.243  -0.016  0.00  0.00    -0.082 A 
ATOM      9  C7  UNL d   1       2.855   2.162   0.217  0.00  0.00     0.045 A 
ENDROOT
TORSDOF 0
ENDMDL
