MODEL 1
REMARK minimizedAffinity -1.36576867
REMARK minimizedRMSD -1
REMARK  0 active torsions:
REMARK  status: ('A' for Active; 'I' for Inactive)
ROOT
ATOM      1  C   UNL d   1      -0.441   4.101  -3.786  0.00  0.00    -0.002 A 
ATOM      2  C1  UNL d   1       0.321   3.511  -2.787  0.00  0.00     0.010 A 
ATOM      3  C2  UNL d   1      -0.023   2.258  -2.277  0.00  0.00     0.041 A 
ATOM      4  C3  UNL d   1      -1.157   1.600  -2.794  0.00  0.00    -0.075 A 
ATOM      5  S   UNL d   1      -1.769   0.059  -2.323  0.00  0.00     0.015 SA
ATOM      6  C4  UNL d   1      -3.056   0.146  -3.437  0.00  0.00     0.022 A 
ATOM      7  C5  UNL d   1      -3.034   1.316  -4.159  0.00  0.00     0.026 A 
ATOM      8  C6  UNL d   1      -1.939   2.173  -3.801  0.00  0.00    -0.082 A 
ATOM      9  C7  UNL d   1      -1.564   3.445  -4.296  0.00  0.00     0.045 A 
ENDROOT
TORSDOF 0
ENDMDL
