MODEL 1
REMARK minimizedAffinity -1.48708236
REMARK minimizedRMSD -1
REMARK  0 active torsions:
REMARK  status: ('A' for Active; 'I' for Inactive)
ROOT
ATOM      1  C   UNL d   1      -2.807   1.182  -4.625  0.00  0.00    -0.002 A 
ATOM      2  C1  UNL d   1      -3.051   0.100  -3.791  0.00  0.00     0.010 A 
ATOM      3  C2  UNL d   1      -2.636   0.122  -2.458  0.00  0.00     0.041 A 
ATOM      4  C3  UNL d   1      -1.968   1.263  -1.972  0.00  0.00    -0.075 A 
ATOM      5  S   UNL d   1      -1.369   1.515  -0.375  0.00  0.00     0.015 SA
ATOM      6  C4  UNL d   1      -0.777   3.066  -0.761  0.00  0.00     0.022 A 
ATOM      7  C5  UNL d   1      -1.021   3.399  -2.073  0.00  0.00     0.026 A 
ATOM      8  C6  UNL d   1      -1.711   2.366  -2.792  0.00  0.00    -0.082 A 
ATOM      9  C7  UNL d   1      -2.143   2.311  -4.139  0.00  0.00     0.045 A 
ENDROOT
TORSDOF 0
ENDMDL
