MODEL 1
REMARK minimizedAffinity -3.04203534
REMARK minimizedRMSD -1
REMARK  0 active torsions:
REMARK  status: ('A' for Active; 'I' for Inactive)
ROOT
ATOM      1  C   UNL d   1       3.468   2.893  -0.677  0.00  0.00    -0.002 A 
ATOM      2  C1  UNL d   1       2.559   3.776  -0.113  0.00  0.00     0.010 A 
ATOM      3  C2  UNL d   1       1.268   3.355   0.212  0.00  0.00     0.041 A 
ATOM      4  C3  UNL d   1       0.904   2.017  -0.040  0.00  0.00    -0.075 A 
ATOM      5  S   UNL d   1      -0.621   1.278   0.277  0.00  0.00     0.015 SA
ATOM      6  C4  UNL d   1      -0.101  -0.228  -0.329  0.00  0.00     0.022 A 
ATOM      7  C5  UNL d   1       1.202  -0.185  -0.766  0.00  0.00     0.026 A 
ATOM      8  C6  UNL d   1       1.802   1.109  -0.607  0.00  0.00    -0.082 A 
ATOM      9  C7  UNL d   1       3.103   1.567  -0.926  0.00  0.00     0.045 A 
ENDROOT
TORSDOF 0
ENDMDL
