MODEL 1
REMARK minimizedAffinity -3.19293046
REMARK minimizedRMSD -1
REMARK  0 active torsions:
REMARK  status: ('A' for Active; 'I' for Inactive)
ROOT
ATOM      1  C   UNL d   1       1.083  -2.694   0.209  0.00  0.00    -0.002 A 
ATOM      2  C1  UNL d   1       1.040  -2.322  -1.127  0.00  0.00     0.010 A 
ATOM      3  C2  UNL d   1       0.289  -1.216  -1.532  0.00  0.00     0.041 A 
ATOM      4  C3  UNL d   1      -0.423  -0.484  -0.562  0.00  0.00    -0.075 A 
ATOM      5  S   UNL d   1      -1.409   0.906  -0.826  0.00  0.00     0.015 SA
ATOM      6  C4  UNL d   1      -1.795   1.038   0.829  0.00  0.00     0.022 A 
ATOM      7  C5  UNL d   1      -1.196   0.054   1.578  0.00  0.00     0.026 A 
ATOM      8  C6  UNL d   1      -0.395  -0.839   0.789  0.00  0.00    -0.082 A 
ATOM      9  C7  UNL d   1       0.375  -1.965   1.168  0.00  0.00     0.045 A 
ENDROOT
TORSDOF 0
ENDMDL
