MODEL 1
REMARK minimizedAffinity -3.53680158
REMARK minimizedRMSD -1
REMARK  0 active torsions:
REMARK  status: ('A' for Active; 'I' for Inactive)
ROOT
ATOM      1  C   UNL d   1       3.161   4.210  -0.065  0.00  0.00    -0.002 A 
ATOM      2  C1  UNL d   1       1.914   4.657   0.348  0.00  0.00     0.010 A 
ATOM      3  C2  UNL d   1       0.850   3.763   0.491  0.00  0.00     0.041 A 
ATOM      4  C3  UNL d   1       1.064   2.399   0.210  0.00  0.00    -0.075 A 
ATOM      5  S   UNL d   1      -0.090   1.123   0.316  0.00  0.00     0.015 SA
ATOM      6  C4  UNL d   1       1.045  -0.046  -0.185  0.00  0.00     0.022 A 
ATOM      7  C5  UNL d   1       2.280   0.507  -0.431  0.00  0.00     0.026 A 
ATOM      8  C6  UNL d   1       2.311   1.925  -0.207  0.00  0.00    -0.082 A 
ATOM      9  C7  UNL d   1       3.369   2.856  -0.343  0.00  0.00     0.045 A 
ENDROOT
TORSDOF 0
ENDMDL
