MODEL 1
REMARK minimizedAffinity -4.2739234
REMARK minimizedRMSD -1
REMARK  0 active torsions:
REMARK  status: ('A' for Active; 'I' for Inactive)
ROOT
ATOM      1  C   UNL d   1       3.402   3.367  -0.320  0.00  0.00    -0.002 A 
ATOM      2  C1  UNL d   1       2.284   4.116   0.019  0.00  0.00     0.010 A 
ATOM      3  C2  UNL d   1       1.031   3.511   0.131  0.00  0.00     0.041 A 
ATOM      4  C3  UNL d   1       0.919   2.127  -0.102  0.00  0.00    -0.075 A 
ATOM      5  S   UNL d   1      -0.514   1.171  -0.021  0.00  0.00     0.015 SA
ATOM      6  C4  UNL d   1       0.324  -0.255  -0.433  0.00  0.00     0.022 A 
ATOM      7  C5  UNL d   1       1.665  -0.026  -0.631  0.00  0.00     0.026 A 
ATOM      8  C6  UNL d   1       2.030   1.350  -0.444  0.00  0.00    -0.082 A 
ATOM      9  C7  UNL d   1       3.287   1.993  -0.551  0.00  0.00     0.045 A 
ENDROOT
TORSDOF 0
ENDMDL
