MODEL 1
REMARK minimizedAffinity -1.74104202
REMARK minimizedRMSD -1
REMARK  0 active torsions:
REMARK  status: ('A' for Active; 'I' for Inactive)
ROOT
ATOM      1  C   UNL d   1       0.605  -3.113   0.957  0.00  0.00    -0.002 A 
ATOM      2  C1  UNL d   1       1.974  -2.977   1.140  0.00  0.00     0.010 A 
ATOM      3  C2  UNL d   1       2.625  -1.796   0.781  0.00  0.00     0.041 A 
ATOM      4  C3  UNL d   1       1.870  -0.741   0.230  0.00  0.00    -0.075 A 
ATOM      5  S   UNL d   1       2.453   0.798  -0.282  0.00  0.00     0.015 SA
ATOM      6  C4  UNL d   1       0.899   1.313  -0.756  0.00  0.00     0.022 A 
ATOM      7  C5  UNL d   1      -0.054   0.346  -0.535  0.00  0.00     0.026 A 
ATOM      8  C6  UNL d   1       0.490  -0.853   0.037  0.00  0.00    -0.082 A 
ATOM      9  C7  UNL d   1      -0.141  -2.064   0.411  0.00  0.00     0.045 A 
ENDROOT
TORSDOF 0
ENDMDL
