MODEL 1
REMARK minimizedAffinity -2.20641208
REMARK minimizedRMSD -1
REMARK  0 active torsions:
REMARK  status: ('A' for Active; 'I' for Inactive)
ROOT
ATOM      1  C   UNL d   1       1.878  -2.793   0.729  0.00  0.00    -0.002 A 
ATOM      2  C1  UNL d   1       2.297  -1.974  -0.311  0.00  0.00     0.010 A 
ATOM      3  C2  UNL d   1       1.589  -0.813  -0.629  0.00  0.00     0.041 A 
ATOM      4  C3  UNL d   1       0.445  -0.484   0.123  0.00  0.00    -0.075 A 
ATOM      5  S   UNL d   1      -0.577   0.889  -0.085  0.00  0.00     0.015 SA
ATOM      6  C4  UNL d   1      -1.593   0.421   1.201  0.00  0.00     0.022 A 
ATOM      7  C5  UNL d   1      -1.177  -0.751   1.787  0.00  0.00     0.026 A 
ATOM      8  C6  UNL d   1       0.005  -1.292   1.175  0.00  0.00    -0.082 A 
ATOM      9  C7  UNL d   1       0.742  -2.463   1.473  0.00  0.00     0.045 A 
ENDROOT
TORSDOF 0
ENDMDL
