MODEL 1
REMARK minimizedAffinity 6.71924067
REMARK minimizedRMSD -1
REMARK  0 active torsions:
REMARK  status: ('A' for Active; 'I' for Inactive)
ROOT
ATOM      1  C   UNL d   1      -5.356  -5.703  -5.966  0.00  0.00    -0.002 A 
ATOM      2  C1  UNL d   1      -4.239  -5.892  -5.166  0.00  0.00     0.010 A 
ATOM      3  C2  UNL d   1      -3.740  -4.847  -4.385  0.00  0.00     0.041 A 
ATOM      4  C3  UNL d   1      -4.391  -3.598  -4.421  0.00  0.00    -0.075 A 
ATOM      5  S   UNL d   1      -3.958  -2.176  -3.548  0.00  0.00     0.015 SA
ATOM      6  C4  UNL d   1      -5.248  -1.284  -4.217  0.00  0.00     0.022 A 
ATOM      7  C5  UNL d   1      -6.000  -2.038  -5.087  0.00  0.00     0.026 A 
ATOM      8  C6  UNL d   1      -5.518  -3.384  -5.218  0.00  0.00    -0.082 A 
ATOM      9  C7  UNL d   1      -5.999  -4.463  -5.999  0.00  0.00     0.045 A 
ENDROOT
TORSDOF 0
ENDMDL
