MODEL 1
REMARK minimizedAffinity 12.0812778
REMARK minimizedRMSD -1
REMARK  0 active torsions:
REMARK  status: ('A' for Active; 'I' for Inactive)
ROOT
ATOM      1  C   UNL d   1      -5.243  -5.950  -5.994  0.00  0.00    -0.002 A 
ATOM      2  C1  UNL d   1      -3.972  -5.999  -5.440  0.00  0.00     0.010 A 
ATOM      3  C2  UNL d   1      -3.412  -4.866  -4.845  0.00  0.00     0.041 A 
ATOM      4  C3  UNL d   1      -4.160  -3.673  -4.814  0.00  0.00    -0.075 A 
ATOM      5  S   UNL d   1      -3.678  -2.162  -4.138  0.00  0.00     0.015 SA
ATOM      6  C4  UNL d   1      -5.149  -1.416  -4.568  0.00  0.00     0.022 A 
ATOM      7  C5  UNL d   1      -5.998  -2.283  -5.213  0.00  0.00     0.026 A 
ATOM      8  C6  UNL d   1      -5.442  -3.599  -5.365  0.00  0.00    -0.082 A 
ATOM      9  C7  UNL d   1      -5.982  -4.764  -5.962  0.00  0.00     0.045 A 
ENDROOT
TORSDOF 0
ENDMDL
