MODEL 1
REMARK minimizedAffinity 16.4595337
REMARK minimizedRMSD -1
REMARK  0 active torsions:
REMARK  status: ('A' for Active; 'I' for Inactive)
ROOT
ATOM      1  C   UNL d   1      -3.868  -6.000  -5.274  0.00  0.00    -0.002 A 
ATOM      2  C1  UNL d   1      -5.043  -5.868  -6.000  0.00  0.00     0.010 A 
ATOM      3  C2  UNL d   1      -5.747  -4.662  -6.000  0.00  0.00     0.041 A 
ATOM      4  C3  UNL d   1      -5.244  -3.579  -5.252  0.00  0.00    -0.075 A 
ATOM      5  S   UNL d   1      -5.935  -2.007  -5.105  0.00  0.00     0.015 SA
ATOM      6  C4  UNL d   1      -4.687  -1.472  -4.075  0.00  0.00     0.022 A 
ATOM      7  C5  UNL d   1      -3.757  -2.457  -3.839  0.00  0.00     0.026 A 
ATOM      8  C6  UNL d   1      -4.062  -3.687  -4.514  0.00  0.00    -0.082 A 
ATOM      9  C7  UNL d   1      -3.372  -4.923  -4.533  0.00  0.00     0.045 A 
ENDROOT
TORSDOF 0
ENDMDL
