MODEL 1
REMARK minimizedAffinity 25.2201023
REMARK minimizedRMSD -1
REMARK  0 active torsions:
REMARK  status: ('A' for Active; 'I' for Inactive)
ROOT
ATOM      1  C   UNL d   1      -4.927  -1.956  -1.614  0.00  0.00    -0.002 A 
ATOM      2  C1  UNL d   1      -5.991  -1.242  -1.083  0.00  0.00     0.010 A 
ATOM      3  C2  UNL d   1      -6.000   0.153  -1.121  0.00  0.00     0.041 A 
ATOM      4  C3  UNL d   1      -4.911   0.826  -1.709  0.00  0.00    -0.075 A 
ATOM      5  S   UNL d   1      -4.705   2.530  -1.869  0.00  0.00     0.015 SA
ATOM      6  C4  UNL d   1      -3.199   2.351  -2.647  0.00  0.00     0.022 A 
ATOM      7  C5  UNL d   1      -2.847   1.029  -2.789  0.00  0.00     0.026 A 
ATOM      8  C6  UNL d   1      -3.827   0.129  -2.251  0.00  0.00    -0.082 A 
ATOM      9  C7  UNL d   1      -3.848  -1.286  -2.196  0.00  0.00     0.045 A 
ENDROOT
TORSDOF 0
ENDMDL
