MODEL 1
REMARK minimizedAffinity 6.32341337
REMARK minimizedRMSD -1
REMARK  0 active torsions:
REMARK  status: ('A' for Active; 'I' for Inactive)
ROOT
ATOM      1  C4' PXY d   1       1.168  -0.932  -1.495  0.00  0.00     0.077 C 
ATOM      2  C1' PXY d   1       6.000   1.882  -0.028  0.00  0.00     0.077 C 
ATOM      3  C1  PXY d   1       4.733   1.150  -0.424  0.00  0.00    -0.082 A 
ATOM      4  C2  PXY d   1       3.919   0.696   0.515  0.00  0.00     0.003 A 
ATOM      5  C3  PXY d   1       2.785   0.003   0.174  0.00  0.00     0.003 A 
ATOM      6  C4  PXY d   1       2.454  -0.179  -1.141  0.00  0.00    -0.082 A 
ATOM      7  C5  PXY d   1       3.273   0.292  -2.105  0.00  0.00     0.003 A 
ATOM      8  C6  PXY d   1       4.440   0.956  -1.739  0.00  0.00     0.003 A 
ENDROOT
TORSDOF 0
ENDMDL
