MODEL 1
REMARK minimizedAffinity 5.27495098
REMARK minimizedRMSD -1
REMARK  0 active torsions:
REMARK  status: ('A' for Active; 'I' for Inactive)
ROOT
ATOM      1  C4' PXY d   1       2.256  -0.084  -0.758  0.00  0.00     0.077 C 
ATOM      2  C1' PXY d   1      -0.848   4.546   0.771  0.00  0.00     0.077 C 
ATOM      3  C1  PXY d   1      -0.023   3.338   0.374  0.00  0.00    -0.082 A 
ATOM      4  C2  PXY d   1      -0.467   2.525  -0.571  0.00  0.00     0.003 A 
ATOM      5  C3  PXY d   1       0.251   1.410  -0.919  0.00  0.00     0.003 A 
ATOM      6  C4  PXY d   1       1.461   1.153  -0.332  0.00  0.00    -0.082 A 
ATOM      7  C5  PXY d   1       1.926   1.984   0.625  0.00  0.00     0.003 A 
ATOM      8  C6  PXY d   1       1.162   3.088   0.993  0.00  0.00     0.003 A 
ENDROOT
TORSDOF 0
ENDMDL
