MODEL 1
REMARK minimizedAffinity 7.75054312
REMARK minimizedRMSD -1
REMARK  0 active torsions:
REMARK  status: ('A' for Active; 'I' for Inactive)
ROOT
ATOM      1  C4' PXY d   1       2.262  -0.163  -1.082  0.00  0.00     0.077 C 
ATOM      2  C1' PXY d   1      -0.540   4.467   0.951  0.00  0.00     0.077 C 
ATOM      3  C1  PXY d   1       0.206   3.258   0.422  0.00  0.00    -0.082 A 
ATOM      4  C2  PXY d   1      -0.308   2.557  -0.576  0.00  0.00     0.003 A 
ATOM      5  C3  PXY d   1       0.338   1.442  -1.045  0.00  0.00     0.003 A 
ATOM      6  C4  PXY d   1       1.548   1.071  -0.522  0.00  0.00    -0.082 A 
ATOM      7  C5  PXY d   1       2.084   1.787   0.489  0.00  0.00     0.003 A 
ATOM      8  C6  PXY d   1       1.393   2.892   0.978  0.00  0.00     0.003 A 
ENDROOT
TORSDOF 0
ENDMDL
