MODEL 1
REMARK minimizedAffinity 5.81750345
REMARK minimizedRMSD -1
REMARK  0 active torsions:
REMARK  status: ('A' for Active; 'I' for Inactive)
ROOT
ATOM      1  C4' PXY d   1       5.637   2.592  -2.985  0.00  0.00     0.077 C 
ATOM      2  C1' PXY d   1       2.748  -0.131   1.217  0.00  0.00     0.077 C 
ATOM      3  C1  PXY d   1       3.503   0.574   0.106  0.00  0.00    -0.082 A 
ATOM      4  C2  PXY d   1       4.487   1.405   0.409  0.00  0.00     0.003 A 
ATOM      5  C3  PXY d   1       5.158   2.075  -0.581  0.00  0.00     0.003 A 
ATOM      6  C4  PXY d   1       4.854   1.851  -1.897  0.00  0.00    -0.082 A 
ATOM      7  C5  PXY d   1       3.859   0.997  -2.215  0.00  0.00     0.003 A 
ATOM      8  C6  PXY d   1       3.162   0.358  -1.193  0.00  0.00     0.003 A 
ENDROOT
TORSDOF 0
ENDMDL
