MODEL 1
REMARK minimizedAffinity 3.16013002
REMARK minimizedRMSD -1
REMARK  0 active torsions:
REMARK  status: ('A' for Active; 'I' for Inactive)
ROOT
ATOM      1  C4' PXY d   1       5.510   2.688  -3.538  0.00  0.00     0.077 C 
ATOM      2  C1' PXY d   1       2.467   0.333   0.776  0.00  0.00     0.077 C 
ATOM      3  C1  PXY d   1       3.262   0.940  -0.363  0.00  0.00    -0.082 A 
ATOM      4  C2  PXY d   1       4.258   1.769  -0.097  0.00  0.00     0.003 A 
ATOM      5  C3  PXY d   1       4.966   2.353  -1.116  0.00  0.00     0.003 A 
ATOM      6  C4  PXY d   1       4.686   2.043  -2.420  0.00  0.00    -0.082 A 
ATOM      7  C5  PXY d   1       3.678   1.190  -2.699  0.00  0.00     0.003 A 
ATOM      8  C6  PXY d   1       2.945   0.641  -1.652  0.00  0.00     0.003 A 
ENDROOT
TORSDOF 0
ENDMDL
