MODEL 1
REMARK minimizedAffinity 5.50336647
REMARK minimizedRMSD -1
REMARK  0 active torsions:
REMARK  status: ('A' for Active; 'I' for Inactive)
ROOT
ATOM      1  C4' PXY d   1      -2.217   0.153  -1.569  0.00  0.00     0.077 C 
ATOM      2  C1' PXY d   1      -0.105   4.710   1.293  0.00  0.00     0.077 C 
ATOM      3  C1  PXY d   1      -0.669   3.515   0.551  0.00  0.00    -0.082 A 
ATOM      4  C2  PXY d   1       0.135   2.761  -0.182  0.00  0.00     0.003 A 
ATOM      5  C3  PXY d   1      -0.364   1.695  -0.885  0.00  0.00     0.003 A 
ATOM      6  C4  PXY d   1      -1.690   1.365  -0.795  0.00  0.00    -0.082 A 
ATOM      7  C5  PXY d   1      -2.514   2.123  -0.041  0.00  0.00     0.003 A 
ATOM      8  C6  PXY d   1      -1.996   3.225   0.632  0.00  0.00     0.003 A 
ENDROOT
TORSDOF 0
ENDMDL
