MODEL 1
REMARK minimizedAffinity 1.17838168
REMARK minimizedRMSD -1
REMARK  0 active torsions:
REMARK  status: ('A' for Active; 'I' for Inactive)
ROOT
ATOM      1  C4' PXY d   1       3.896  -0.408  -4.395  0.00  0.00     0.077 C 
ATOM      2  C1' PXY d   1       4.274   1.558   1.027  0.00  0.00     0.077 C 
ATOM      3  C1  PXY d   1       4.181   1.053  -0.399  0.00  0.00    -0.082 A 
ATOM      4  C2  PXY d   1       3.213   0.215  -0.735  0.00  0.00     0.003 A 
ATOM      5  C3  PXY d   1       3.134  -0.276  -2.012  0.00  0.00     0.003 A 
ATOM      6  C4  PXY d   1       4.022   0.135  -2.969  0.00  0.00    -0.082 A 
ATOM      7  C5  PXY d   1       5.006   0.998  -2.637  0.00  0.00     0.003 A 
ATOM      8  C6  PXY d   1       5.094   1.453  -1.325  0.00  0.00     0.003 A 
ENDROOT
TORSDOF 0
ENDMDL
