MODEL 1
REMARK minimizedAffinity -2.95738482
REMARK minimizedRMSD -1
REMARK  0 active torsions:
REMARK  status: ('A' for Active; 'I' for Inactive)
ROOT
ATOM      1  C4' PXY d   1      -2.244  -0.605  -3.019  0.00  0.00     0.077 C 
ATOM      2  C1' PXY d   1      -5.869   2.784  -5.984  0.00  0.00     0.077 C 
ATOM      3  C1  PXY d   1      -4.928   1.892  -5.198  0.00  0.00    -0.082 A 
ATOM      4  C2  PXY d   1      -3.623   2.099  -5.264  0.00  0.00     0.003 A 
ATOM      5  C3  PXY d   1      -2.756   1.282  -4.586  0.00  0.00     0.003 A 
ATOM      6  C4  PXY d   1      -3.232   0.276  -3.788  0.00  0.00    -0.082 A 
ATOM      7  C5  PXY d   1      -4.563   0.065  -3.707  0.00  0.00     0.003 A 
ATOM      8  C6  PXY d   1      -5.425   0.880  -4.436  0.00  0.00     0.003 A 
ENDROOT
TORSDOF 0
ENDMDL
