MODEL 1
REMARK minimizedAffinity 3.7365334
REMARK minimizedRMSD -1
REMARK  0 active torsions:
REMARK  status: ('A' for Active; 'I' for Inactive)
ROOT
ATOM      1  C4' PXY d   1       4.559   1.854  -3.050  0.00  0.00     0.077 C 
ATOM      2  C1' PXY d   1       0.833  -2.524  -2.439  0.00  0.00     0.077 C 
ATOM      3  C1  PXY d   1       1.817  -1.382  -2.609  0.00  0.00    -0.082 A 
ATOM      4  C2  PXY d   1       2.004  -0.528  -1.616  0.00  0.00     0.003 A 
ATOM      5  C3  PXY d   1       2.866   0.528  -1.764  0.00  0.00     0.003 A 
ATOM      6  C4  PXY d   1       3.583   0.681  -2.920  0.00  0.00    -0.082 A 
ATOM      7  C5  PXY d   1       3.405  -0.193  -3.934  0.00  0.00     0.003 A 
ATOM      8  C6  PXY d   1       2.495  -1.234  -3.779  0.00  0.00     0.003 A 
ENDROOT
TORSDOF 0
ENDMDL
