MODEL 1
REMARK minimizedAffinity 17.7815838
REMARK minimizedRMSD -1
REMARK  0 active torsions:
REMARK  status: ('A' for Active; 'I' for Inactive)
ROOT
ATOM      1  C4' PXY d   1       1.467   1.700   4.507  0.00  0.00     0.077 C 
ATOM      2  C1' PXY d   1       6.000  -1.836   5.115  0.00  0.00     0.077 C 
ATOM      3  C1  PXY d   1       4.814  -0.906   4.943  0.00  0.00    -0.082 A 
ATOM      4  C2  PXY d   1       4.304  -0.294   5.999  0.00  0.00     0.003 A 
ATOM      5  C3  PXY d   1       3.212   0.524   5.867  0.00  0.00     0.003 A 
ATOM      6  C4  PXY d   1       2.669   0.760   4.632  0.00  0.00    -0.082 A 
ATOM      7  C5  PXY d   1       3.190   0.148   3.548  0.00  0.00     0.003 A 
ATOM      8  C6  PXY d   1       4.273  -0.712   3.710  0.00  0.00     0.003 A 
ENDROOT
TORSDOF 0
ENDMDL
