MODEL 1
REMARK minimizedAffinity 9.61740494
REMARK minimizedRMSD -1
REMARK  0 active torsions:
REMARK  status: ('A' for Active; 'I' for Inactive)
ROOT
ATOM      1  C4' PXY d   1      -1.456   1.454  -1.107  0.00  0.00     0.077 C 
ATOM      2  C1' PXY d   1       0.036   5.959   2.194  0.00  0.00     0.077 C 
ATOM      3  C1  PXY d   1      -0.368   4.782   1.328  0.00  0.00    -0.082 A 
ATOM      4  C2  PXY d   1       0.352   3.672   1.356  0.00  0.00     0.003 A 
ATOM      5  C3  PXY d   1       0.020   2.609   0.555  0.00  0.00     0.003 A 
ATOM      6  C4  PXY d   1      -1.092   2.664  -0.243  0.00  0.00    -0.082 A 
ATOM      7  C5  PXY d   1      -1.837   3.789  -0.269  0.00  0.00     0.003 A 
ATOM      8  C6  PXY d   1      -1.459   4.871   0.520  0.00  0.00     0.003 A 
ENDROOT
TORSDOF 0
ENDMDL
