MODEL 1
REMARK minimizedAffinity 3.5039084
REMARK minimizedRMSD -1
REMARK  0 active torsions:
REMARK  status: ('A' for Active; 'I' for Inactive)
ROOT
ATOM      1  C4' PXY d   1       2.556   0.754   0.065  0.00  0.00     0.077 C 
ATOM      2  C1' PXY d   1      -2.465   3.618   0.077  0.00  0.00     0.077 C 
ATOM      3  C1  PXY d   1      -1.154   2.857   0.067  0.00  0.00    -0.082 A 
ATOM      4  C2  PXY d   1      -0.251   3.097   1.005  0.00  0.00     0.003 A 
ATOM      5  C3  PXY d   1       0.953   2.441   0.992  0.00  0.00     0.003 A 
ATOM      6  C4  PXY d   1       1.214   1.491   0.041  0.00  0.00    -0.082 A 
ATOM      7  C5  PXY d   1       0.294   1.233  -0.912  0.00  0.00     0.003 A 
ATOM      8  C6  PXY d   1      -0.905   1.940  -0.906  0.00  0.00     0.003 A 
ENDROOT
TORSDOF 0
ENDMDL
