MODEL 1
REMARK minimizedAffinity 7.32899857
REMARK minimizedRMSD -1
REMARK  0 active torsions:
REMARK  status: ('A' for Active; 'I' for Inactive)
ROOT
ATOM      1  C4' PXY d   1       6.000   2.604  -3.432  0.00  0.00     0.077 C 
ATOM      2  C1' PXY d   1       2.735  -0.110   0.491  0.00  0.00     0.077 C 
ATOM      3  C1  PXY d   1       3.587   0.593  -0.547  0.00  0.00    -0.082 A 
ATOM      4  C2  PXY d   1       4.658   1.270  -0.165  0.00  0.00     0.003 A 
ATOM      5  C3  PXY d   1       5.421   1.939  -1.087  0.00  0.00     0.003 A 
ATOM      6  C4  PXY d   1       5.116   1.870  -2.420  0.00  0.00    -0.082 A 
ATOM      7  C5  PXY d   1       4.031   1.173  -2.819  0.00  0.00     0.003 A 
ATOM      8  C6  PXY d   1       3.246   0.535  -1.863  0.00  0.00     0.003 A 
ENDROOT
TORSDOF 0
ENDMDL
