MODEL 1
REMARK minimizedAffinity -4.76676035
REMARK minimizedRMSD -1
REMARK  3 active torsions:
REMARK  status: ('A' for Active; 'I' for Inactive)
REMARK    1  A    between atoms: C3'_2  and  C2'_3 
REMARK    2  A    between atoms: C2'_3  and  C1'_4 
REMARK    3  A    between atoms: C1'_4  and  C1_5 
ROOT
ATOM      1  C1  N4B d   1       0.039  -0.120  -0.060  0.00  0.00    -0.075 A 
ATOM      2  C2  N4B d   1      -1.244   0.464  -0.135  0.00  0.00     0.002 A 
ATOM      3  C3  N4B d   1      -1.925   0.775   1.017  0.00  0.00     0.002 A 
ATOM      4  C4  N4B d   1      -1.352   0.496   2.249  0.00  0.00    -0.004 A 
ATOM      5  C5  N4B d   1      -0.101  -0.045   2.312  0.00  0.00     0.002 A 
ATOM      6  C6  N4B d   1       0.596  -0.359   1.163  0.00  0.00     0.002 A 
ENDROOT
BRANCH   1   7
ATOM      7  C1' N4B d   1       0.786  -0.556  -1.291  0.00  0.00     0.057 C 
BRANCH   7   8
ATOM      8  C2' N4B d   1       1.169   0.675  -2.107  0.00  0.00     0.009 C 
BRANCH   8   9
ATOM      9  C3' N4B d   1       1.507   0.321  -3.545  0.00  0.00     0.004 C 
ATOM     10  C4' N4B d   1       0.825   1.214  -4.539  0.00  0.00     0.003 C 
ENDBRANCH   8   9
ENDBRANCH   7   8
ENDBRANCH   1   7
TORSDOF 3
ENDMDL
