MODEL 1
REMARK minimizedAffinity -2.82864833
REMARK minimizedRMSD -1
REMARK  3 active torsions:
REMARK  status: ('A' for Active; 'I' for Inactive)
REMARK    1  A    between atoms: C3'_2  and  C2'_3 
REMARK    2  A    between atoms: C2'_3  and  C1'_4 
REMARK    3  A    between atoms: C1'_4  and  C1_5 
ROOT
ATOM      1  C1  N4B d   1      -0.000  -0.173   0.100  0.00  0.00    -0.075 A 
ATOM      2  C2  N4B d   1       0.602  -0.530   1.327  0.00  0.00     0.002 A 
ATOM      3  C3  N4B d   1      -0.073  -0.332   2.506  0.00  0.00     0.002 A 
ATOM      4  C4  N4B d   1      -1.337   0.237   2.486  0.00  0.00    -0.004 A 
ATOM      5  C5  N4B d   1      -1.922   0.555   1.295  0.00  0.00     0.002 A 
ATOM      6  C6  N4B d   1      -1.258   0.358   0.102  0.00  0.00     0.002 A 
ENDROOT
BRANCH   1   7
ATOM      7  C1' N4B d   1       0.732  -0.292  -1.208  0.00  0.00     0.057 C 
BRANCH   7   8
ATOM      8  C2' N4B d   1       0.748   1.069  -1.898  0.00  0.00     0.009 C 
BRANCH   8   9
ATOM      9  C3' N4B d   1       1.640   1.072  -3.128  0.00  0.00     0.004 C 
ATOM     10  C4' N4B d   1       0.912   1.483  -4.373  0.00  0.00     0.003 C 
ENDBRANCH   8   9
ENDBRANCH   7   8
ENDBRANCH   1   7
TORSDOF 3
ENDMDL
