MODEL 1
REMARK minimizedAffinity -2.55032492
REMARK minimizedRMSD -1
REMARK  3 active torsions:
REMARK  status: ('A' for Active; 'I' for Inactive)
REMARK    1  A    between atoms: C3'_2  and  C2'_3 
REMARK    2  A    between atoms: C2'_3  and  C1'_4 
REMARK    3  A    between atoms: C1'_4  and  C1_5 
ROOT
ATOM      1  C1  N4B d   1      -0.218  -0.107  -0.180  0.00  0.00    -0.075 A 
ATOM      2  C2  N4B d   1      -1.375   0.703  -0.212  0.00  0.00     0.002 A 
ATOM      3  C3  N4B d   1      -1.925   1.161   0.961  0.00  0.00     0.002 A 
ATOM      4  C4  N4B d   1      -1.349   0.808   2.172  0.00  0.00    -0.004 A 
ATOM      5  C5  N4B d   1      -0.217   0.047   2.193  0.00  0.00     0.002 A 
ATOM      6  C6  N4B d   1       0.349  -0.417   1.022  0.00  0.00     0.002 A 
ENDROOT
BRANCH   1   7
ATOM      7  C1' N4B d   1       0.369  -0.702  -1.431  0.00  0.00     0.057 C 
BRANCH   7   8
ATOM      8  C2' N4B d   1       1.353   0.290  -2.043  0.00  0.00     0.009 C 
BRANCH   8   9
ATOM      9  C3' N4B d   1       1.657  -0.034  -3.495  0.00  0.00     0.004 C 
ATOM     10  C4' N4B d   1       0.645  -0.954  -4.109  0.00  0.00     0.003 C 
ENDBRANCH   8   9
ENDBRANCH   7   8
ENDBRANCH   1   7
TORSDOF 3
ENDMDL
