MODEL 1
REMARK minimizedAffinity -3.60729885
REMARK minimizedRMSD -1
REMARK  3 active torsions:
REMARK  status: ('A' for Active; 'I' for Inactive)
REMARK    1  A    between atoms: C3'_2  and  C2'_3 
REMARK    2  A    between atoms: C2'_3  and  C1'_4 
REMARK    3  A    between atoms: C1'_4  and  C1_5 
ROOT
ATOM      1  C1  N4B d   1      -0.194  -0.294   0.367  0.00  0.00    -0.075 A 
ATOM      2  C2  N4B d   1       0.408  -0.449   1.635  0.00  0.00     0.002 A 
ATOM      3  C3  N4B d   1      -0.155   0.144   2.739  0.00  0.00     0.002 A 
ATOM      4  C4  N4B d   1      -1.303   0.907   2.597  0.00  0.00    -0.004 A 
ATOM      5  C5  N4B d   1      -1.893   1.031   1.372  0.00  0.00     0.002 A 
ATOM      6  C6  N4B d   1      -1.340   0.437   0.255  0.00  0.00     0.002 A 
ENDROOT
BRANCH   1   7
ATOM      7  C1' N4B d   1       0.432  -0.852  -0.882  0.00  0.00     0.057 C 
BRANCH   7   8
ATOM      8  C2' N4B d   1       0.424   0.220  -1.968  0.00  0.00     0.009 C 
BRANCH   8   9
ATOM      9  C3' N4B d   1       0.906  -0.320  -3.303  0.00  0.00     0.004 C 
ATOM     10  C4' N4B d   1       2.038   0.479  -3.878  0.00  0.00     0.003 C 
ENDBRANCH   8   9
ENDBRANCH   7   8
ENDBRANCH   1   7
TORSDOF 3
ENDMDL
