MODEL 1
REMARK minimizedAffinity -1.59988928
REMARK minimizedRMSD -1
REMARK  3 active torsions:
REMARK  status: ('A' for Active; 'I' for Inactive)
REMARK    1  A    between atoms: C3'_2  and  C2'_3 
REMARK    2  A    between atoms: C2'_3  and  C1'_4 
REMARK    3  A    between atoms: C1'_4  and  C1_5 
ROOT
ATOM      1  C1  N4B d   1      -0.290   0.634   0.786  0.00  0.00    -0.075 A 
ATOM      2  C2  N4B d   1       0.781  -0.287   0.769  0.00  0.00     0.002 A 
ATOM      3  C3  N4B d   1       1.256  -0.766  -0.427  0.00  0.00     0.002 A 
ATOM      4  C4  N4B d   1       0.666  -0.355  -1.613  0.00  0.00    -0.004 A 
ATOM      5  C5  N4B d   1      -0.351   0.555  -1.590  0.00  0.00     0.002 A 
ATOM      6  C6  N4B d   1      -0.835   1.048  -0.395  0.00  0.00     0.002 A 
ENDROOT
BRANCH   1   7
ATOM      7  C1' N4B d   1      -0.899   1.120   2.073  0.00  0.00     0.057 C 
BRANCH   7   8
ATOM      8  C2' N4B d   1      -0.811   0.012   3.118  0.00  0.00     0.009 C 
BRANCH   8   9
ATOM      9  C3' N4B d   1      -2.145  -0.684   3.323  0.00  0.00     0.004 C 
ATOM     10  C4' N4B d   1      -2.106  -1.703   4.423  0.00  0.00     0.003 C 
ENDBRANCH   8   9
ENDBRANCH   7   8
ENDBRANCH   1   7
TORSDOF 3
ENDMDL
