MODEL 1
REMARK minimizedAffinity 0.478975236
REMARK minimizedRMSD -1
REMARK  0 active torsions:
REMARK  status: ('A' for Active; 'I' for Inactive)
ROOT
ATOM      1  C1  DEN d   1       1.283  -0.964   0.840  0.00  0.00     0.130 A 
ATOM      2  C2  DEN d   1       1.534  -1.004   2.278  0.00  0.00    -0.031 A 
ATOM      3  C3  DEN d   1       0.265  -0.706   2.972  0.00  0.00     0.027 A 
ATOM      4  C4  DEN d   1      -2.053  -0.193   1.965  0.00  0.00     0.027 A 
ATOM      5  C5  DEN d   1      -2.757  -0.035   0.792  0.00  0.00    -0.003 A 
ATOM      6  C6  DEN d   1      -2.162  -0.141  -0.437  0.00  0.00     0.001 A 
ATOM      7  C7  DEN d   1      -0.832  -0.457  -0.522  0.00  0.00     0.017 A 
ATOM      8  C8  DEN d   1      -0.114  -0.611   0.657  0.00  0.00    -0.094 A 
ATOM      9  C9  DEN d   1      -0.736  -0.512   1.889  0.00  0.00    -0.072 A 
ENDROOT
TORSDOF 0
ENDMDL
