MODEL 1
REMARK minimizedAffinity -0.350466669
REMARK minimizedRMSD -1
REMARK  0 active torsions:
REMARK  status: ('A' for Active; 'I' for Inactive)
ROOT
ATOM      1  C1  DEN d   1      -2.899  -1.389  -1.196  0.00  0.00     0.130 A 
ATOM      2  C2  DEN d   1      -2.033  -0.248  -1.478  0.00  0.00    -0.031 A 
ATOM      3  C3  DEN d   1      -1.773   0.455  -0.206  0.00  0.00     0.027 A 
ATOM      4  C4  DEN d   1      -2.619  -0.114   2.164  0.00  0.00     0.027 A 
ATOM      5  C5  DEN d   1      -3.391  -0.984   2.901  0.00  0.00    -0.003 A 
ATOM      6  C6  DEN d   1      -4.075  -2.021   2.325  0.00  0.00     0.001 A 
ATOM      7  C7  DEN d   1      -3.964  -2.242   0.977  0.00  0.00     0.017 A 
ATOM      8  C8  DEN d   1      -3.193  -1.365   0.226  0.00  0.00    -0.094 A 
ATOM      9  C9  DEN d   1      -2.500  -0.329   0.829  0.00  0.00    -0.072 A 
ENDROOT
TORSDOF 0
ENDMDL
