MODEL 1
REMARK minimizedAffinity -1.79114687
REMARK minimizedRMSD -1
REMARK  0 active torsions:
REMARK  status: ('A' for Active; 'I' for Inactive)
ROOT
ATOM      1  C1  DEN d   1       0.552  -0.525   2.880  0.00  0.00     0.130 A 
ATOM      2  C2  DEN d   1       1.692  -1.179   3.517  0.00  0.00    -0.031 A 
ATOM      3  C3  DEN d   1       1.171  -2.159   4.490  0.00  0.00     0.027 A 
ATOM      4  C4  DEN d   1      -1.277  -2.729   5.068  0.00  0.00     0.027 A 
ATOM      5  C5  DEN d   1      -2.594  -2.428   4.797  0.00  0.00    -0.003 A 
ATOM      6  C6  DEN d   1      -2.951  -1.455   3.901  0.00  0.00     0.001 A 
ATOM      7  C7  DEN d   1      -1.980  -0.780   3.209  0.00  0.00     0.017 A 
ATOM      8  C8  DEN d   1      -0.651  -1.073   3.482  0.00  0.00    -0.094 A 
ATOM      9  C9  DEN d   1      -0.310  -2.068   4.383  0.00  0.00    -0.072 A 
ENDROOT
TORSDOF 0
ENDMDL
