MODEL 1
REMARK minimizedAffinity 0.560260534
REMARK minimizedRMSD -1
REMARK  0 active torsions:
REMARK  status: ('A' for Active; 'I' for Inactive)
ROOT
ATOM      1  C1  DEN d   1       1.103  -0.760   1.531  0.00  0.00     0.130 A 
ATOM      2  C2  DEN d   1       1.179  -0.966   2.974  0.00  0.00    -0.031 A 
ATOM      3  C3  DEN d   1      -0.172  -0.766   3.535  0.00  0.00     0.027 A 
ATOM      4  C4  DEN d   1      -2.364  -0.165   2.315  0.00  0.00     0.027 A 
ATOM      5  C5  DEN d   1      -2.924   0.122   1.090  0.00  0.00    -0.003 A 
ATOM      6  C6  DEN d   1      -2.181   0.168  -0.060  0.00  0.00     0.001 A 
ATOM      7  C7  DEN d   1      -0.842  -0.121  -0.015  0.00  0.00     0.017 A 
ATOM      8  C8  DEN d   1      -0.269  -0.404   1.217  0.00  0.00    -0.094 A 
ATOM      9  C9  DEN d   1      -1.040  -0.458   2.366  0.00  0.00    -0.072 A 
ENDROOT
TORSDOF 0
ENDMDL
