MODEL 1
REMARK minimizedAffinity 20.8249683
REMARK minimizedRMSD -1
REMARK  0 active torsions:
REMARK  status: ('A' for Active; 'I' for Inactive)
ROOT
ATOM      1  C   UNL d   1       4.115  -2.611  -4.870  0.00  0.00    -0.002 A 
ATOM      2  C1  UNL d   1       3.630  -3.680  -5.611  0.00  0.00     0.010 A 
ATOM      3  C2  UNL d   1       2.290  -3.725  -6.000  0.00  0.00     0.041 A 
ATOM      4  C3  UNL d   1       1.437  -2.667  -5.629  0.00  0.00    -0.075 A 
ATOM      5  S   UNL d   1      -0.241  -2.508  -5.994  0.00  0.00     0.015 SA
ATOM      6  C4  UNL d   1      -0.354  -1.017  -5.176  0.00  0.00     0.022 A 
ATOM      7  C5  UNL d   1       0.849  -0.636  -4.631  0.00  0.00     0.026 A 
ATOM      8  C6  UNL d   1       1.901  -1.580  -4.884  0.00  0.00    -0.082 A 
ATOM      9  C7  UNL d   1       3.265  -1.564  -4.504  0.00  0.00     0.045 A 
ENDROOT
TORSDOF 0
ENDMDL
