MODEL 1
REMARK minimizedAffinity 15.8116121
REMARK minimizedRMSD -1
REMARK  0 active torsions:
REMARK  status: ('A' for Active; 'I' for Inactive)
ROOT
ATOM      1  C   UNL d   1      -2.544   1.334   1.836  0.00  0.00    -0.002 A 
ATOM      2  C1  UNL d   1      -1.725   2.307   2.391  0.00  0.00     0.010 A 
ATOM      3  C2  UNL d   1      -0.420   1.999   2.779  0.00  0.00     0.041 A 
ATOM      4  C3  UNL d   1       0.054   0.685   2.597  0.00  0.00    -0.075 A 
ATOM      5  S   UNL d   1       1.617   0.079   2.997  0.00  0.00     0.015 SA
ATOM      6  C4  UNL d   1       1.235  -1.486   2.439  0.00  0.00     0.022 A 
ATOM      7  C5  UNL d   1      -0.050  -1.562   1.957  0.00  0.00     0.026 A 
ATOM      8  C6  UNL d   1      -0.752  -0.312   2.039  0.00  0.00    -0.082 A 
ATOM      9  C7  UNL d   1      -2.071   0.032   1.657  0.00  0.00     0.045 A 
ENDROOT
TORSDOF 0
ENDMDL
