MODEL 1
REMARK minimizedAffinity 9.84455585
REMARK minimizedRMSD -1
REMARK  0 active torsions:
REMARK  status: ('A' for Active; 'I' for Inactive)
ROOT
ATOM      1  C   UNL d   1      -1.881  -5.535  -5.783  0.00  0.00    -0.002 A 
ATOM      2  C1  UNL d   1      -2.091  -5.999  -4.492  0.00  0.00     0.010 A 
ATOM      3  C2  UNL d   1      -1.875  -5.165  -3.394  0.00  0.00     0.041 A 
ATOM      4  C3  UNL d   1      -1.442  -3.843  -3.616  0.00  0.00    -0.075 A 
ATOM      5  S   UNL d   1      -1.114  -2.642  -2.424  0.00  0.00     0.015 SA
ATOM      6  C4  UNL d   1      -0.688  -1.484  -3.600  0.00  0.00     0.022 A 
ATOM      7  C5  UNL d   1      -0.788  -1.985  -4.876  0.00  0.00     0.026 A 
ATOM      8  C6  UNL d   1      -1.224  -3.352  -4.907  0.00  0.00    -0.082 A 
ATOM      9  C7  UNL d   1      -1.451  -4.223  -6.000  0.00  0.00     0.045 A 
ENDROOT
TORSDOF 0
ENDMDL
