MODEL 1
REMARK minimizedAffinity 14.4501295
REMARK minimizedRMSD -1
REMARK  0 active torsions:
REMARK  status: ('A' for Active; 'I' for Inactive)
ROOT
ATOM      1  C   UNL d   1       1.678  -1.770   4.073  0.00  0.00    -0.002 A 
ATOM      2  C1  UNL d   1       2.386  -0.577   4.064  0.00  0.00     0.010 A 
ATOM      3  C2  UNL d   1       3.730  -0.545   4.441  0.00  0.00     0.041 A 
ATOM      4  C3  UNL d   1       4.358  -1.745   4.829  0.00  0.00    -0.075 A 
ATOM      5  S   UNL d   1       5.995  -1.947   5.329  0.00  0.00     0.015 SA
ATOM      6  C4  UNL d   1       5.794  -3.622   5.567  0.00  0.00     0.022 A 
ATOM      7  C5  UNL d   1       4.515  -4.035   5.276  0.00  0.00     0.026 A 
ATOM      8  C6  UNL d   1       3.666  -2.959   4.846  0.00  0.00    -0.082 A 
ATOM      9  C7  UNL d   1       2.304  -2.959   4.459  0.00  0.00     0.045 A 
ENDROOT
TORSDOF 0
ENDMDL
