MODEL 1
REMARK minimizedAffinity 14.5456009
REMARK minimizedRMSD -1
REMARK  0 active torsions:
REMARK  status: ('A' for Active; 'I' for Inactive)
ROOT
ATOM      1  C   UNL d   1      -2.001  -5.162  -5.632  0.00  0.00    -0.002 A 
ATOM      2  C1  UNL d   1      -2.235  -5.549  -4.320  0.00  0.00     0.010 A 
ATOM      3  C2  UNL d   1      -1.920  -4.696  -3.261  0.00  0.00     0.041 A 
ATOM      4  C3  UNL d   1      -1.362  -3.434  -3.545  0.00  0.00    -0.075 A 
ATOM      5  S   UNL d   1      -0.897  -2.224  -2.409  0.00  0.00     0.015 SA
ATOM      6  C4  UNL d   1      -0.378  -1.163  -3.638  0.00  0.00     0.022 A 
ATOM      7  C5  UNL d   1      -0.547  -1.704  -4.891  0.00  0.00     0.026 A 
ATOM      8  C6  UNL d   1      -1.118  -3.021  -4.858  0.00  0.00    -0.082 A 
ATOM      9  C7  UNL d   1      -1.448  -3.909  -5.910  0.00  0.00     0.045 A 
ENDROOT
TORSDOF 0
ENDMDL
