MODEL 1
REMARK minimizedAffinity -5.0532198
REMARK minimizedRMSD -1
REMARK  1 active torsions:
REMARK  status: ('A' for Active; 'I' for Inactive)
REMARK    1  A    between atoms: C1_2  and  C2_3 
ROOT
ATOM      1  C2  UNL d   1       0.349   1.541  -0.105  0.00  0.00    -0.076 A 
ATOM      2  C3  UNL d   1       1.181   0.444  -0.390  0.00  0.00     0.004 A 
ATOM      3  C4  UNL d   1       2.569   0.570  -0.363  0.00  0.00    -0.003 A 
ATOM      4  C5  UNL d   1       3.147   1.795  -0.049  0.00  0.00     0.000 A 
ATOM      5  C6  UNL d   1       2.337   2.889   0.254  0.00  0.00     0.000 A 
ATOM      6  C7  UNL d   1       0.937   2.775   0.247  0.00  0.00    -0.073 A 
ATOM      7  C8  UNL d   1       0.112   3.989   0.576  0.00  0.00     0.078 C 
ENDROOT
BRANCH   1   8
ATOM      8  C1  UNL d   1      -1.149   1.351  -0.176  0.00  0.00     0.053 C 
ATOM      9  C   UNL d   1      -1.645   1.158  -1.601  0.00  0.00     0.018 C 
ENDBRANCH   1   8
TORSDOF 1
ENDMDL
