MODEL 1
REMARK minimizedAffinity -5.00251245
REMARK minimizedRMSD -1
REMARK  1 active torsions:
REMARK  status: ('A' for Active; 'I' for Inactive)
REMARK    1  A    between atoms: C1_2  and  C2_3 
ROOT
ATOM      1  C2  UNL d   1      -0.142   2.907  -1.258  0.00  0.00    -0.076 A 
ATOM      2  C3  UNL d   1      -0.060   3.760  -2.373  0.00  0.00     0.004 A 
ATOM      3  C4  UNL d   1      -0.578   3.378  -3.609  0.00  0.00    -0.003 A 
ATOM      4  C5  UNL d   1      -1.187   2.136  -3.751  0.00  0.00     0.000 A 
ATOM      5  C6  UNL d   1      -1.293   1.284  -2.652  0.00  0.00     0.000 A 
ATOM      6  C7  UNL d   1      -0.791   1.661  -1.395  0.00  0.00    -0.073 A 
ATOM      7  C8  UNL d   1      -0.927   0.700  -0.246  0.00  0.00     0.078 C 
ENDROOT
BRANCH   1   8
ATOM      8  C1  UNL d   1       0.462   3.364   0.050  0.00  0.00     0.053 C 
ATOM      9  C   UNL d   1       1.980   3.283   0.051  0.00  0.00     0.018 C 
ENDBRANCH   1   8
TORSDOF 1
ENDMDL
