MODEL 1
REMARK minimizedAffinity -2.62024117
REMARK minimizedRMSD -1
REMARK  1 active torsions:
REMARK  status: ('A' for Active; 'I' for Inactive)
REMARK    1  A    between atoms: C1_2  and  C2_3 
ROOT
ATOM      1  C2  UNL d   1      -1.172   0.516  -1.239  0.00  0.00    -0.076 A 
ATOM      2  C3  UNL d   1      -1.850   0.843  -0.052  0.00  0.00     0.004 A 
ATOM      3  C4  UNL d   1      -1.535   0.214   1.151  0.00  0.00    -0.003 A 
ATOM      4  C5  UNL d   1      -0.536  -0.752   1.187  0.00  0.00     0.000 A 
ATOM      5  C6  UNL d   1       0.159  -1.077   0.023  0.00  0.00     0.000 A 
ATOM      6  C7  UNL d   1      -0.135  -0.440  -1.196  0.00  0.00    -0.073 A 
ATOM      7  C8  UNL d   1       0.642  -0.834  -2.422  0.00  0.00     0.078 C 
ENDROOT
BRANCH   1   8
ATOM      8  C1  UNL d   1      -1.576   1.212  -2.519  0.00  0.00     0.053 C 
ATOM      9  C   UNL d   1      -2.976   0.828  -2.975  0.00  0.00     0.018 C 
ENDBRANCH   1   8
TORSDOF 1
ENDMDL
