MODEL 1
REMARK minimizedAffinity -3.1488831
REMARK minimizedRMSD -1
REMARK  1 active torsions:
REMARK  status: ('A' for Active; 'I' for Inactive)
REMARK    1  A    between atoms: C1_2  and  C2_3 
ROOT
ATOM      1  C2  UNL d   1      -1.879   1.299  -1.868  0.00  0.00    -0.076 A 
ATOM      2  C3  UNL d   1      -2.501   0.164  -2.418  0.00  0.00     0.004 A 
ATOM      3  C4  UNL d   1      -2.946   0.160  -3.739  0.00  0.00    -0.003 A 
ATOM      4  C5  UNL d   1      -2.774   1.289  -4.532  0.00  0.00     0.000 A 
ATOM      5  C6  UNL d   1      -2.143   2.417  -4.008  0.00  0.00     0.000 A 
ATOM      6  C7  UNL d   1      -1.675   2.433  -2.683  0.00  0.00    -0.073 A 
ATOM      7  C8  UNL d   1      -1.007   3.678  -2.168  0.00  0.00     0.078 C 
ENDROOT
BRANCH   1   8
ATOM      8  C1  UNL d   1      -1.443   1.255  -0.421  0.00  0.00     0.053 C 
ATOM      9  C   UNL d   1      -0.697  -0.024  -0.076  0.00  0.00     0.018 C 
ENDBRANCH   1   8
TORSDOF 1
ENDMDL
