MODEL 1
REMARK minimizedAffinity 0.246732533
REMARK minimizedRMSD -1
REMARK  1 active torsions:
REMARK  status: ('A' for Active; 'I' for Inactive)
REMARK    1  A    between atoms: C1_2  and  C2_3 
ROOT
ATOM      1  C2  UNL d   1       0.954  -1.268   0.933  0.00  0.00    -0.076 A 
ATOM      2  C3  UNL d   1       1.355  -0.188   0.128  0.00  0.00     0.004 A 
ATOM      3  C4  UNL d   1       0.415   0.636  -0.488  0.00  0.00    -0.003 A 
ATOM      4  C5  UNL d   1      -0.943   0.394  -0.308  0.00  0.00     0.000 A 
ATOM      5  C6  UNL d   1      -1.358  -0.663   0.502  0.00  0.00     0.000 A 
ATOM      6  C7  UNL d   1      -0.423  -1.493   1.143  0.00  0.00    -0.073 A 
ATOM      7  C8  UNL d   1      -0.927  -2.622   2.000  0.00  0.00     0.078 C 
ENDROOT
BRANCH   1   8
ATOM      8  C1  UNL d   1       2.020  -2.145   1.552  0.00  0.00     0.053 C 
ATOM      9  C   UNL d   1       3.213  -1.345   2.052  0.00  0.00     0.018 C 
ENDBRANCH   1   8
TORSDOF 1
ENDMDL
