MODEL 1
REMARK minimizedAffinity -0.798156142
REMARK minimizedRMSD -1
REMARK  1 active torsions:
REMARK  status: ('A' for Active; 'I' for Inactive)
REMARK    1  A    between atoms: C1_2  and  C2_3 
ROOT
ATOM      1  C2  UNL d   1       0.297  -0.815   0.014  0.00  0.00    -0.076 A 
ATOM      2  C3  UNL d   1       0.897  -0.738  -1.255  0.00  0.00     0.004 A 
ATOM      3  C4  UNL d   1       0.200  -0.223  -2.347  0.00  0.00    -0.003 A 
ATOM      4  C5  UNL d   1      -1.107   0.223  -2.188  0.00  0.00     0.000 A 
ATOM      5  C6  UNL d   1      -1.711   0.170  -0.933  0.00  0.00     0.000 A 
ATOM      6  C7  UNL d   1      -1.018  -0.331   0.182  0.00  0.00    -0.073 A 
ATOM      7  C8  UNL d   1      -1.721  -0.370   1.511  0.00  0.00     0.078 C 
ENDROOT
BRANCH   1   8
ATOM      8  C1  UNL d   1       1.092  -1.408   1.155  0.00  0.00     0.053 C 
ATOM      9  C   UNL d   1       2.593  -1.328   0.924  0.00  0.00     0.018 C 
ENDBRANCH   1   8
TORSDOF 1
ENDMDL
