MODEL 1
REMARK minimizedAffinity -4.41631985
REMARK minimizedRMSD -1
REMARK  1 active torsions:
REMARK  status: ('A' for Active; 'I' for Inactive)
REMARK    1  A    between atoms: C1_2  and  C2_3 
ROOT
ATOM      1  C2  UNL d   1       0.189   2.300   0.097  0.00  0.00    -0.076 A 
ATOM      2  C3  UNL d   1      -0.087   3.650   0.372  0.00  0.00     0.004 A 
ATOM      3  C4  UNL d   1       0.942   4.555   0.630  0.00  0.00    -0.003 A 
ATOM      4  C5  UNL d   1       2.264   4.123   0.615  0.00  0.00     0.000 A 
ATOM      5  C6  UNL d   1       2.557   2.791   0.326  0.00  0.00     0.000 A 
ATOM      6  C7  UNL d   1       1.533   1.870   0.048  0.00  0.00    -0.073 A 
ATOM      7  C8  UNL d   1       1.906   0.444  -0.251  0.00  0.00     0.078 C 
ENDROOT
BRANCH   1   8
ATOM      8  C1  UNL d   1      -0.969   1.359  -0.148  0.00  0.00     0.053 C 
ATOM      9  C   UNL d   1      -1.818   1.777  -1.338  0.00  0.00     0.018 C 
ENDBRANCH   1   8
TORSDOF 1
ENDMDL
