MODEL 1
REMARK minimizedAffinity -2.31552148
REMARK minimizedRMSD -1
REMARK  1 active torsions:
REMARK  status: ('A' for Active; 'I' for Inactive)
REMARK    1  A    between atoms: C1_2  and  C2_3 
ROOT
ATOM      1  C2  UNL d   1      -1.420   1.846  -3.112  0.00  0.00    -0.076 A 
ATOM      2  C3  UNL d   1      -2.437   2.474  -3.852  0.00  0.00     0.004 A 
ATOM      3  C4  UNL d   1      -3.585   1.777  -4.227  0.00  0.00    -0.003 A 
ATOM      4  C5  UNL d   1      -3.734   0.442  -3.868  0.00  0.00     0.000 A 
ATOM      5  C6  UNL d   1      -2.743  -0.191  -3.119  0.00  0.00     0.000 A 
ATOM      6  C7  UNL d   1      -1.587   0.501  -2.719  0.00  0.00    -0.073 A 
ATOM      7  C8  UNL d   1      -0.547  -0.233  -1.917  0.00  0.00     0.078 C 
ENDROOT
BRANCH   1   8
ATOM      8  C1  UNL d   1      -0.186   2.644  -2.757  0.00  0.00     0.053 C 
ATOM      9  C   UNL d   1       0.050   3.807  -3.708  0.00  0.00     0.018 C 
ENDBRANCH   1   8
TORSDOF 1
ENDMDL
