MODEL 1
REMARK minimizedAffinity -4.32306671
REMARK minimizedRMSD -1
REMARK  1 active torsions:
REMARK  status: ('A' for Active; 'I' for Inactive)
REMARK    1  A    between atoms: C1_2  and  C2_3 
ROOT
ATOM      1  C2  UNL d   1       0.258  -0.451   0.140  0.00  0.00    -0.076 A 
ATOM      2  C3  UNL d   1      -0.437  -1.180   1.120  0.00  0.00     0.004 A 
ATOM      3  C4  UNL d   1       0.112  -2.331   1.682  0.00  0.00    -0.003 A 
ATOM      4  C5  UNL d   1       1.365  -2.772   1.274  0.00  0.00     0.000 A 
ATOM      5  C6  UNL d   1       2.077  -2.052   0.315  0.00  0.00     0.000 A 
ATOM      6  C7  UNL d   1       1.545  -0.880  -0.250  0.00  0.00    -0.073 A 
ATOM      7  C8  UNL d   1       2.354  -0.146  -1.284  0.00  0.00     0.078 C 
ENDROOT
BRANCH   1   8
ATOM      8  C1  UNL d   1      -0.399   0.774  -0.454  0.00  0.00     0.053 C 
ATOM      9  C   UNL d   1      -1.418   0.427  -1.528  0.00  0.00     0.018 C 
ENDBRANCH   1   8
TORSDOF 1
ENDMDL
