MODEL 1
REMARK minimizedAffinity -2.75189447
REMARK minimizedRMSD -1
REMARK  1 active torsions:
REMARK  status: ('A' for Active; 'I' for Inactive)
REMARK    1  A    between atoms: C1_2  and  C2_3 
ROOT
ATOM      1  C2  UNL d   1       0.091  -1.569   0.944  0.00  0.00    -0.076 A 
ATOM      2  C3  UNL d   1      -0.993  -1.601   1.838  0.00  0.00     0.004 A 
ATOM      3  C4  UNL d   1      -1.803  -0.482   2.022  0.00  0.00    -0.003 A 
ATOM      4  C5  UNL d   1      -1.543   0.687   1.315  0.00  0.00     0.000 A 
ATOM      5  C6  UNL d   1      -0.482   0.730   0.411  0.00  0.00     0.000 A 
ATOM      6  C7  UNL d   1       0.335  -0.394   0.201  0.00  0.00    -0.073 A 
ATOM      7  C8  UNL d   1       1.469  -0.290  -0.782  0.00  0.00     0.078 C 
ENDROOT
BRANCH   1   8
ATOM      8  C1  UNL d   1       0.952  -2.805   0.805  0.00  0.00     0.053 C 
ATOM      9  C   UNL d   1       2.258  -2.695   1.576  0.00  0.00     0.018 C 
ENDBRANCH   1   8
TORSDOF 1
ENDMDL
