MODEL 1
REMARK minimizedAffinity -3.10263586
REMARK minimizedRMSD -1
REMARK  1 active torsions:
REMARK  status: ('A' for Active; 'I' for Inactive)
REMARK    1  A    between atoms: C1_2  and  C2_3 
ROOT
ATOM      1  C2  UNL d   1       1.064   2.252  -0.157  0.00  0.00    -0.076 A 
ATOM      2  C3  UNL d   1      -0.218   1.966   0.342  0.00  0.00     0.004 A 
ATOM      3  C4  UNL d   1      -0.716   0.664   0.336  0.00  0.00    -0.003 A 
ATOM      4  C5  UNL d   1       0.061  -0.373  -0.168  0.00  0.00     0.000 A 
ATOM      5  C6  UNL d   1       1.342  -0.110  -0.651  0.00  0.00     0.000 A 
ATOM      6  C7  UNL d   1       1.866   1.194  -0.637  0.00  0.00    -0.073 A 
ATOM      7  C8  UNL d   1       3.252   1.422  -1.176  0.00  0.00     0.078 C 
ENDROOT
BRANCH   1   8
ATOM      8  C1  UNL d   1       1.541   3.687  -0.150  0.00  0.00     0.053 C 
ATOM      9  C   UNL d   1       2.559   3.958   0.947  0.00  0.00     0.018 C 
ENDBRANCH   1   8
TORSDOF 1
ENDMDL
