MODEL 1
REMARK minimizedAffinity -4.31889391
REMARK minimizedRMSD -1
REMARK  1 active torsions:
REMARK  status: ('A' for Active; 'I' for Inactive)
REMARK    1  A    between atoms: C1_2  and  C2_3 
ROOT
ATOM      1  C2  UNL d   1       0.513  -0.636  -0.001  0.00  0.00    -0.076 A 
ATOM      2  C3  UNL d   1       1.634  -0.806  -0.832  0.00  0.00     0.004 A 
ATOM      3  C4  UNL d   1       2.490  -1.894  -0.669  0.00  0.00    -0.003 A 
ATOM      4  C5  UNL d   1       2.239  -2.830   0.328  0.00  0.00     0.000 A 
ATOM      5  C6  UNL d   1       1.121  -2.687   1.150  0.00  0.00     0.000 A 
ATOM      6  C7  UNL d   1       0.239  -1.605   0.988  0.00  0.00    -0.073 A 
ATOM      7  C8  UNL d   1      -0.947  -1.497   1.907  0.00  0.00     0.078 C 
ENDROOT
BRANCH   1   8
ATOM      8  C1  UNL d   1      -0.365   0.578  -0.208  0.00  0.00     0.053 C 
ATOM      9  C   UNL d   1       0.412   1.882  -0.107  0.00  0.00     0.018 C 
ENDBRANCH   1   8
TORSDOF 1
ENDMDL
