MODEL 1
REMARK minimizedAffinity -3.55420446
REMARK minimizedRMSD -1
REMARK  1 active torsions:
REMARK  status: ('A' for Active; 'I' for Inactive)
REMARK    1  A    between atoms: C1_2  and  C2_3 
ROOT
ATOM      1  C2  UNL d   1      -0.783  -0.169  -0.499  0.00  0.00    -0.076 A 
ATOM      2  C3  UNL d   1      -0.029  -0.732  -1.544  0.00  0.00     0.004 A 
ATOM      3  C4  UNL d   1       0.852  -1.785  -1.306  0.00  0.00    -0.003 A 
ATOM      4  C5  UNL d   1       0.994  -2.293  -0.020  0.00  0.00     0.000 A 
ATOM      5  C6  UNL d   1       0.242  -1.758   1.026  0.00  0.00     0.000 A 
ATOM      6  C7  UNL d   1      -0.664  -0.707   0.800  0.00  0.00    -0.073 A 
ATOM      7  C8  UNL d   1      -1.445  -0.165   1.965  0.00  0.00     0.078 C 
ENDROOT
BRANCH   1   8
ATOM      8  C1  UNL d   1      -1.702   0.990  -0.812  0.00  0.00     0.053 C 
ATOM      9  C   UNL d   1      -1.236   1.796  -2.015  0.00  0.00     0.018 C 
ENDBRANCH   1   8
TORSDOF 1
ENDMDL
