MODEL 1
REMARK minimizedAffinity -4.47697592
REMARK minimizedRMSD -1
REMARK  1 active torsions:
REMARK  status: ('A' for Active; 'I' for Inactive)
REMARK    1  A    between atoms: C1_2  and  C2_3 
ROOT
ATOM      1  C2  UNL d   1       2.654   3.291  -0.033  0.00  0.00    -0.076 A 
ATOM      2  C3  UNL d   1       3.125   2.025  -0.421  0.00  0.00     0.004 A 
ATOM      3  C4  UNL d   1       2.284   0.914  -0.415  0.00  0.00    -0.003 A 
ATOM      4  C5  UNL d   1       0.958   1.050  -0.020  0.00  0.00     0.000 A 
ATOM      5  C6  UNL d   1       0.469   2.302   0.351  0.00  0.00     0.000 A 
ATOM      6  C7  UNL d   1       1.299   3.436   0.335  0.00  0.00    -0.073 A 
ATOM      7  C8  UNL d   1       0.720   4.761   0.751  0.00  0.00     0.078 C 
ENDROOT
BRANCH   1   8
ATOM      8  C1  UNL d   1       3.619   4.455  -0.034  0.00  0.00     0.053 C 
ATOM      9  C   UNL d   1       4.951   4.106  -0.679  0.00  0.00     0.018 C 
ENDBRANCH   1   8
TORSDOF 1
ENDMDL
