MODEL 1
REMARK minimizedAffinity 12.5743551
REMARK minimizedRMSD -1
REMARK  0 active torsions:
REMARK  status: ('A' for Active; 'I' for Inactive)
ROOT
ATOM      1  C4' PXY d   1      -1.869  -2.996   3.049  0.00  0.00     0.077 C 
ATOM      2  C1' PXY d   1       3.550  -2.300   1.158  0.00  0.00     0.077 C 
ATOM      3  C1  PXY d   1       2.131  -2.474   1.663  0.00  0.00    -0.082 A 
ATOM      4  C2  PXY d   1       1.495  -3.614   1.448  0.00  0.00     0.003 A 
ATOM      5  C3  PXY d   1       0.200  -3.776   1.870  0.00  0.00     0.003 A 
ATOM      6  C4  PXY d   1      -0.432  -2.780   2.565  0.00  0.00    -0.082 A 
ATOM      7  C5  PXY d   1       0.214  -1.618   2.798  0.00  0.00     0.003 A 
ATOM      8  C6  PXY d   1       1.514  -1.458   2.325  0.00  0.00     0.003 A 
ENDROOT
TORSDOF 0
ENDMDL
