MODEL 1
REMARK minimizedAffinity 13.6409473
REMARK minimizedRMSD -1
REMARK  0 active torsions:
REMARK  status: ('A' for Active; 'I' for Inactive)
ROOT
ATOM      1  C4' PXY d   1       3.152  -4.547  -0.423  0.00  0.00     0.077 C 
ATOM      2  C1' PXY d   1       0.318  -0.531   2.620  0.00  0.00     0.077 C 
ATOM      3  C1  PXY d   1       1.072  -1.578   1.823  0.00  0.00    -0.082 A 
ATOM      4  C2  PXY d   1       0.422  -2.331   0.951  0.00  0.00     0.003 A 
ATOM      5  C3  PXY d   1       1.082  -3.304   0.246  0.00  0.00     0.003 A 
ATOM      6  C4  PXY d   1       2.433  -3.472   0.396  0.00  0.00    -0.082 A 
ATOM      7  C5  PXY d   1       3.106  -2.700   1.276  0.00  0.00     0.003 A 
ATOM      8  C6  PXY d   1       2.409  -1.746   2.012  0.00  0.00     0.003 A 
ENDROOT
TORSDOF 0
ENDMDL
