MODEL 1
REMARK minimizedAffinity 10.382534
REMARK minimizedRMSD -1
REMARK  0 active torsions:
REMARK  status: ('A' for Active; 'I' for Inactive)
ROOT
ATOM      1  C4' PXY d   1      -1.921   1.945  -2.249  0.00  0.00     0.077 C 
ATOM      2  C1' PXY d   1      -5.999  -1.805  -3.901  0.00  0.00     0.077 C 
ATOM      3  C1  PXY d   1      -4.929  -0.828  -3.457  0.00  0.00    -0.082 A 
ATOM      4  C2  PXY d   1      -4.869   0.373  -4.009  0.00  0.00     0.003 A 
ATOM      5  C3  PXY d   1      -3.888   1.258  -3.641  0.00  0.00     0.003 A 
ATOM      6  C4  PXY d   1      -2.991   0.929  -2.660  0.00  0.00    -0.082 A 
ATOM      7  C5  PXY d   1      -3.052  -0.290  -2.085  0.00  0.00     0.003 A 
ATOM      8  C6  PXY d   1      -4.030  -1.189  -2.501  0.00  0.00     0.003 A 
ENDROOT
TORSDOF 0
ENDMDL
