MODEL 1
REMARK minimizedAffinity 12.0916042
REMARK minimizedRMSD -1
REMARK  0 active torsions:
REMARK  status: ('A' for Active; 'I' for Inactive)
ROOT
ATOM      1  C4' PXY d   1      -3.926   5.035  -4.176  0.00  0.00     0.077 C 
ATOM      2  C1' PXY d   1      -3.210  -0.339  -2.171  0.00  0.00     0.077 C 
ATOM      3  C1  PXY d   1      -3.402   1.065  -2.709  0.00  0.00    -0.082 A 
ATOM      4  C2  PXY d   1      -2.756   2.074  -2.146  0.00  0.00     0.003 A 
ATOM      5  C3  PXY d   1      -2.942   3.355  -2.599  0.00  0.00     0.003 A 
ATOM      6  C4  PXY d   1      -3.756   3.599  -3.673  0.00  0.00    -0.082 A 
ATOM      7  C5  PXY d   1      -4.410   2.574  -4.258  0.00  0.00     0.003 A 
ATOM      8  C6  PXY d   1      -4.240   1.286  -3.757  0.00  0.00     0.003 A 
ENDROOT
TORSDOF 0
ENDMDL
