MODEL 1
REMARK minimizedAffinity 4.92673016
REMARK minimizedRMSD -1
REMARK  0 active torsions:
REMARK  status: ('A' for Active; 'I' for Inactive)
ROOT
ATOM      1  C4' PXY d   1      -0.970  -1.108   2.652  0.00  0.00     0.077 C 
ATOM      2  C1' PXY d   1       4.146  -2.938   0.679  0.00  0.00     0.077 C 
ATOM      3  C1  PXY d   1       2.801  -2.456   1.184  0.00  0.00    -0.082 A 
ATOM      4  C2  PXY d   1       2.699  -1.967   2.409  0.00  0.00     0.003 A 
ATOM      5  C3  PXY d   1       1.484  -1.556   2.893  0.00  0.00     0.003 A 
ATOM      6  C4  PXY d   1       0.371  -1.597   2.097  0.00  0.00    -0.082 A 
ATOM      7  C5  PXY d   1       0.468  -2.085   0.842  0.00  0.00     0.003 A 
ATOM      8  C6  PXY d   1       1.703  -2.535   0.384  0.00  0.00     0.003 A 
ENDROOT
TORSDOF 0
ENDMDL
