MODEL 1
REMARK minimizedAffinity 8.09815979
REMARK minimizedRMSD -1
REMARK  0 active torsions:
REMARK  status: ('A' for Active; 'I' for Inactive)
ROOT
ATOM      1  C4' PXY d   1      -1.495  -1.013   2.380  0.00  0.00     0.077 C 
ATOM      2  C1' PXY d   1       3.915  -2.237   0.751  0.00  0.00     0.077 C 
ATOM      3  C1  PXY d   1       2.492  -1.918   1.166  0.00  0.00    -0.082 A 
ATOM      4  C2  PXY d   1       2.275  -1.160   2.228  0.00  0.00     0.003 A 
ATOM      5  C3  PXY d   1       0.994  -0.888   2.636  0.00  0.00     0.003 A 
ATOM      6  C4  PXY d   1      -0.075  -1.353   1.918  0.00  0.00    -0.082 A 
ATOM      7  C5  PXY d   1       0.138  -2.119   0.827  0.00  0.00     0.003 A 
ATOM      8  C6  PXY d   1       1.445  -2.417   0.454  0.00  0.00     0.003 A 
ENDROOT
TORSDOF 0
ENDMDL
