MODEL 1
REMARK minimizedAffinity 11.7642002
REMARK minimizedRMSD -1
REMARK  0 active torsions:
REMARK  status: ('A' for Active; 'I' for Inactive)
ROOT
ATOM      1  C4' PXY d   1      -6.000   1.157  -5.078  0.00  0.00     0.077 C 
ATOM      2  C1' PXY d   1      -4.547  -2.976  -1.306  0.00  0.00     0.077 C 
ATOM      3  C1  PXY d   1      -4.929  -1.901  -2.304  0.00  0.00    -0.082 A 
ATOM      4  C2  PXY d   1      -4.561  -0.648  -2.090  0.00  0.00     0.003 A 
ATOM      5  C3  PXY d   1      -4.925   0.341  -2.966  0.00  0.00     0.003 A 
ATOM      6  C4  PXY d   1      -5.628   0.037  -4.101  0.00  0.00    -0.082 A 
ATOM      7  C5  PXY d   1      -5.999  -1.240  -4.332  0.00  0.00     0.003 A 
ATOM      8  C6  PXY d   1      -5.654  -2.223  -3.410  0.00  0.00     0.003 A 
ENDROOT
TORSDOF 0
ENDMDL
