MODEL 1
REMARK minimizedAffinity 11.4265232
REMARK minimizedRMSD -1
REMARK  0 active torsions:
REMARK  status: ('A' for Active; 'I' for Inactive)
ROOT
ATOM      1  C4' PXY d   1      -0.745  -1.921   0.008  0.00  0.00     0.077 C 
ATOM      2  C1' PXY d   1       4.934  -1.961   1.082  0.00  0.00     0.077 C 
ATOM      3  C1  PXY d   1       3.447  -1.957   0.789  0.00  0.00    -0.082 A 
ATOM      4  C2  PXY d   1       2.681  -1.009   1.304  0.00  0.00     0.003 A 
ATOM      5  C3  PXY d   1       1.329  -1.009   1.076  0.00  0.00     0.003 A 
ATOM      6  C4  PXY d   1       0.763  -1.959   0.269  0.00  0.00    -0.082 A 
ATOM      7  C5  PXY d   1       1.539  -2.924  -0.269  0.00  0.00     0.003 A 
ATOM      8  C6  PXY d   1       2.903  -2.930   0.009  0.00  0.00     0.003 A 
ENDROOT
TORSDOF 0
ENDMDL
