MODEL 1
REMARK minimizedAffinity 14.041831
REMARK minimizedRMSD -1
REMARK  0 active torsions:
REMARK  status: ('A' for Active; 'I' for Inactive)
ROOT
ATOM      1  C4' PXY d   1      -3.357   4.161  -3.815  0.00  0.00     0.077 C 
ATOM      2  C1' PXY d   1      -0.707  -0.407  -1.463  0.00  0.00     0.077 C 
ATOM      3  C1  PXY d   1      -1.391   0.797  -2.080  0.00  0.00    -0.082 A 
ATOM      4  C2  PXY d   1      -2.682   0.996  -1.870  0.00  0.00     0.003 A 
ATOM      5  C3  PXY d   1      -3.323   2.062  -2.446  0.00  0.00     0.003 A 
ATOM      6  C4  PXY d   1      -2.623   2.964  -3.203  0.00  0.00    -0.082 A 
ATOM      7  C5  PXY d   1      -1.304   2.773  -3.414  0.00  0.00     0.003 A 
ATOM      8  C6  PXY d   1      -0.681   1.662  -2.854  0.00  0.00     0.003 A 
ENDROOT
TORSDOF 0
ENDMDL
