MODEL 1
REMARK minimizedAffinity 1.02484536
REMARK minimizedRMSD -1
REMARK  2 active torsions:
REMARK  status: ('A' for Active; 'I' for Inactive)
REMARK    1  A    between atoms: C2'_3  and  C1'_4 
REMARK    2  A    between atoms: C1'_4  and  C1_5 
ROOT
ATOM      1  C1  I4B d   1       0.332  -0.314   2.520  0.00  0.00    -0.075 A 
ATOM      2  C2  I4B d   1       0.420   0.906   1.898  0.00  0.00     0.003 A 
ATOM      3  C3  I4B d   1      -0.698   1.438   1.210  0.00  0.00     0.002 A 
ATOM      4  C4  I4B d   1      -1.860   0.699   1.128  0.00  0.00    -0.004 A 
ATOM      5  C5  I4B d   1      -1.955  -0.528   1.779  0.00  0.00     0.002 A 
ATOM      6  C6  I4B d   1      -0.856  -1.033   2.489  0.00  0.00     0.003 A 
ENDROOT
BRANCH   1   7
ATOM      7  C1' I4B d   1       1.542  -0.861   3.208  0.00  0.00     0.060 C 
BRANCH   7   8
ATOM      8  C2' I4B d   1       1.174  -1.133   4.653  0.00  0.00    -0.013 C 
ATOM      9  C4' I4B d   1       2.153  -2.079   5.296  0.00  0.00     0.013 C 
ATOM     10  C3' I4B d   1       1.135   0.180   5.376  0.00  0.00     0.013 C 
ENDBRANCH   7   8
ENDBRANCH   1   7
TORSDOF 2
ENDMDL
