MODEL 1
REMARK minimizedAffinity 2.21303034
REMARK minimizedRMSD -1
REMARK  2 active torsions:
REMARK  status: ('A' for Active; 'I' for Inactive)
REMARK    1  A    between atoms: C2'_3  and  C1'_4 
REMARK    2  A    between atoms: C1'_4  and  C1_5 
ROOT
ATOM      1  C1  I4B d   1       0.471  -1.246   3.111  0.00  0.00    -0.075 A 
ATOM      2  C2  I4B d   1      -0.807  -0.758   2.999  0.00  0.00     0.003 A 
ATOM      3  C3  I4B d   1      -1.134   0.156   1.968  0.00  0.00     0.002 A 
ATOM      4  C4  I4B d   1      -0.147   0.591   1.108  0.00  0.00    -0.004 A 
ATOM      5  C5  I4B d   1       1.143   0.078   1.208  0.00  0.00     0.002 A 
ATOM      6  C6  I4B d   1       1.451  -0.856   2.208  0.00  0.00     0.003 A 
ENDROOT
BRANCH   1   7
ATOM      7  C1' I4B d   1       0.789  -2.184   4.232  0.00  0.00     0.060 C 
BRANCH   7   8
ATOM      8  C2' I4B d   1       1.936  -1.591   5.025  0.00  0.00    -0.013 C 
ATOM      9  C4' I4B d   1       1.475  -0.430   5.865  0.00  0.00     0.013 C 
ATOM     10  C3' I4B d   1       2.520  -2.678   5.877  0.00  0.00     0.013 C 
ENDBRANCH   7   8
ENDBRANCH   1   7
TORSDOF 2
ENDMDL
