MODEL 1
REMARK minimizedAffinity 7.58431721
REMARK minimizedRMSD -1
REMARK  2 active torsions:
REMARK  status: ('A' for Active; 'I' for Inactive)
REMARK    1  A    between atoms: C2'_3  and  C1'_4 
REMARK    2  A    between atoms: C1'_4  and  C1_5 
ROOT
ATOM      1  C1  I4B d   1       0.183  -0.507   2.102  0.00  0.00    -0.075 A 
ATOM      2  C2  I4B d   1       0.130   0.860   1.986  0.00  0.00     0.003 A 
ATOM      3  C3  I4B d   1      -0.965   1.477   1.335  0.00  0.00     0.002 A 
ATOM      4  C4  I4B d   1      -1.953   0.694   0.774  0.00  0.00    -0.004 A 
ATOM      5  C5  I4B d   1      -1.908  -0.691   0.912  0.00  0.00     0.002 A 
ATOM      6  C6  I4B d   1      -0.840  -1.295   1.591  0.00  0.00     0.003 A 
ENDROOT
BRANCH   1   7
ATOM      7  C1' I4B d   1       1.371  -1.128   2.766  0.00  0.00     0.060 C 
BRANCH   7   8
ATOM      8  C2' I4B d   1       1.007  -1.401   4.212  0.00  0.00    -0.013 C 
ATOM      9  C4' I4B d   1       1.784  -2.570   4.758  0.00  0.00     0.013 C 
ATOM     10  C3' I4B d   1       1.279  -0.154   5.000  0.00  0.00     0.013 C 
ENDBRANCH   7   8
ENDBRANCH   1   7
TORSDOF 2
ENDMDL
