MODEL 1
REMARK minimizedAffinity 8.37471008
REMARK minimizedRMSD -1
REMARK  2 active torsions:
REMARK  status: ('A' for Active; 'I' for Inactive)
REMARK    1  A    between atoms: C2'_3  and  C1'_4 
REMARK    2  A    between atoms: C1'_4  and  C1_5 
ROOT
ATOM      1  C1  I4B d   1       1.490  -1.195   3.435  0.00  0.00    -0.075 A 
ATOM      2  C2  I4B d   1       0.822  -2.344   3.776  0.00  0.00     0.003 A 
ATOM      3  C3  I4B d   1       1.183  -3.060   4.943  0.00  0.00     0.002 A 
ATOM      4  C4  I4B d   1       2.245  -2.621   5.708  0.00  0.00    -0.004 A 
ATOM      5  C5  I4B d   1       2.907  -1.443   5.373  0.00  0.00     0.002 A 
ATOM      6  C6  I4B d   1       2.519  -0.718   4.237  0.00  0.00     0.003 A 
ENDROOT
BRANCH   1   7
ATOM      7  C1' I4B d   1       1.103  -0.482   2.178  0.00  0.00     0.060 C 
BRANCH   7   8
ATOM      8  C2' I4B d   1      -0.393  -0.250   2.215  0.00  0.00    -0.013 C 
ATOM      9  C4' I4B d   1      -0.715   1.168   2.607  0.00  0.00     0.013 C 
ATOM     10  C3' I4B d   1      -0.946  -0.576   0.859  0.00  0.00     0.013 C 
ENDBRANCH   7   8
ENDBRANCH   1   7
TORSDOF 2
ENDMDL
