MODEL 1
REMARK minimizedAffinity 7.60962534
REMARK minimizedRMSD -1
REMARK  2 active torsions:
REMARK  status: ('A' for Active; 'I' for Inactive)
REMARK    1  A    between atoms: C2'_3  and  C1'_4 
REMARK    2  A    between atoms: C1'_4  and  C1_5 
ROOT
ATOM      1  C1  I4B d   1      -0.738   0.187   1.669  0.00  0.00    -0.075 A 
ATOM      2  C2  I4B d   1       0.630   0.079   1.695  0.00  0.00     0.003 A 
ATOM      3  C3  I4B d   1       1.253  -0.891   2.517  0.00  0.00     0.002 A 
ATOM      4  C4  I4B d   1       0.478  -1.694   3.328  0.00  0.00    -0.004 A 
ATOM      5  C5  I4B d   1      -0.910  -1.599   3.283  0.00  0.00     0.002 A 
ATOM      6  C6  I4B d   1      -1.523  -0.661   2.439  0.00  0.00     0.003 A 
ENDROOT
BRANCH   1   7
ATOM      7  C1' I4B d   1      -1.362   1.245   0.815  0.00  0.00     0.060 C 
BRANCH   7   8
ATOM      8  C2' I4B d   1      -2.183   0.556  -0.256  0.00  0.00    -0.013 C 
ATOM      9  C4' I4B d   1      -2.022   1.238  -1.589  0.00  0.00     0.013 C 
ATOM     10  C3' I4B d   1      -1.745  -0.877  -0.325  0.00  0.00     0.013 C 
ENDBRANCH   7   8
ENDBRANCH   1   7
TORSDOF 2
ENDMDL
