MODEL 1
REMARK minimizedAffinity 2.41020465
REMARK minimizedRMSD -1
REMARK  2 active torsions:
REMARK  status: ('A' for Active; 'I' for Inactive)
REMARK    1  A    between atoms: C2'_3  and  C1'_4 
REMARK    2  A    between atoms: C1'_4  and  C1_5 
ROOT
ATOM      1  C1  I4B d   1       0.379  -0.824   2.807  0.00  0.00    -0.075 A 
ATOM      2  C2  I4B d   1      -0.928  -1.219   2.667  0.00  0.00     0.003 A 
ATOM      3  C3  I4B d   1      -1.818  -0.466   1.863  0.00  0.00     0.002 A 
ATOM      4  C4  I4B d   1      -1.374   0.694   1.261  0.00  0.00    -0.004 A 
ATOM      5  C5  I4B d   1      -0.043   1.081   1.386  0.00  0.00     0.002 A 
ATOM      6  C6  I4B d   1       0.843   0.311   2.154  0.00  0.00     0.003 A 
ENDROOT
BRANCH   1   7
ATOM      7  C1' I4B d   1       1.283  -1.624   3.691  0.00  0.00     0.060 C 
BRANCH   7   8
ATOM      8  C2' I4B d   1       1.924  -0.675   4.684  0.00  0.00    -0.013 C 
ATOM      9  C4' I4B d   1       1.191  -0.687   5.999  0.00  0.00     0.013 C 
ATOM     10  C3' I4B d   1       3.356  -1.086   4.858  0.00  0.00     0.013 C 
ENDBRANCH   7   8
ENDBRANCH   1   7
TORSDOF 2
ENDMDL
