MODEL 1
REMARK minimizedAffinity 2.47637105
REMARK minimizedRMSD -1
REMARK  2 active torsions:
REMARK  status: ('A' for Active; 'I' for Inactive)
REMARK    1  A    between atoms: C2'_3  and  C1'_4 
REMARK    2  A    between atoms: C1'_4  and  C1_5 
ROOT
ATOM      1  C1  I4B d   1      -0.547  -0.221   1.801  0.00  0.00    -0.075 A 
ATOM      2  C2  I4B d   1      -0.791  -1.004   2.902  0.00  0.00     0.003 A 
ATOM      3  C3  I4B d   1       0.281  -1.444   3.716  0.00  0.00     0.002 A 
ATOM      4  C4  I4B d   1       1.576  -1.121   3.367  0.00  0.00    -0.004 A 
ATOM      5  C5  I4B d   1       1.820  -0.309   2.263  0.00  0.00     0.002 A 
ATOM      6  C6  I4B d   1       0.752   0.155   1.482  0.00  0.00     0.003 A 
ENDROOT
BRANCH   1   7
ATOM      7  C1' I4B d   1      -1.699   0.198   0.945  0.00  0.00     0.060 C 
BRANCH   7   8
ATOM      8  C2' I4B d   1      -1.384  -0.192  -0.485  0.00  0.00    -0.013 C 
ATOM      9  C4' I4B d   1      -1.965  -1.540  -0.824  0.00  0.00     0.013 C 
ATOM     10  C3' I4B d   1      -1.930   0.875  -1.387  0.00  0.00     0.013 C 
ENDBRANCH   7   8
ENDBRANCH   1   7
TORSDOF 2
ENDMDL
