MODEL 1
REMARK minimizedAffinity 10.1850719
REMARK minimizedRMSD -1
REMARK  2 active torsions:
REMARK  status: ('A' for Active; 'I' for Inactive)
REMARK    1  A    between atoms: C2'_3  and  C1'_4 
REMARK    2  A    between atoms: C1'_4  and  C1_5 
ROOT
ATOM      1  C1  I4B d   1       0.117  -0.977   2.858  0.00  0.00    -0.075 A 
ATOM      2  C2  I4B d   1      -1.058  -1.295   2.223  0.00  0.00     0.003 A 
ATOM      3  C3  I4B d   1      -1.653  -0.378   1.323  0.00  0.00     0.002 A 
ATOM      4  C4  I4B d   1      -1.071   0.857   1.127  0.00  0.00    -0.004 A 
ATOM      5  C5  I4B d   1       0.132   1.169   1.754  0.00  0.00     0.002 A 
ATOM      6  C6  I4B d   1       0.737   0.242   2.615  0.00  0.00     0.003 A 
ENDROOT
BRANCH   1   7
ATOM      7  C1' I4B d   1       0.701  -1.955   3.827  0.00  0.00     0.060 C 
BRANCH   7   8
ATOM      8  C2' I4B d   1       1.685  -1.211   4.706  0.00  0.00    -0.013 C 
ATOM      9  C4' I4B d   1       1.044  -0.781   5.999  0.00  0.00     0.013 C 
ATOM     10  C3' I4B d   1       2.857  -2.113   4.956  0.00  0.00     0.013 C 
ENDBRANCH   7   8
ENDBRANCH   1   7
TORSDOF 2
ENDMDL
