MODEL 1
REMARK minimizedAffinity 0.879144669
REMARK minimizedRMSD -1
REMARK  3 active torsions:
REMARK  status: ('A' for Active; 'I' for Inactive)
REMARK    1  A    between atoms: C3'_2  and  C2'_3 
REMARK    2  A    between atoms: C2'_3  and  C1'_4 
REMARK    3  A    between atoms: C1'_4  and  C1_5 
ROOT
ATOM      1  C1  N4B d   1       5.936   0.752   3.772  0.00  0.00    -0.075 A 
ATOM      2  C2  N4B d   1       5.941  -0.573   3.284  0.00  0.00     0.002 A 
ATOM      3  C3  N4B d   1       5.963  -1.628   4.162  0.00  0.00     0.002 A 
ATOM      4  C4  N4B d   1       5.999  -1.384   5.527  0.00  0.00    -0.004 A 
ATOM      5  C5  N4B d   1       5.968  -0.102   5.991  0.00  0.00     0.002 A 
ATOM      6  C6  N4B d   1       5.942   0.969   5.120  0.00  0.00     0.002 A 
ENDROOT
BRANCH   1   7
ATOM      7  C1' N4B d   1       6.000   1.939   2.850  0.00  0.00     0.057 C 
BRANCH   7   8
ATOM      8  C2' N4B d   1       4.597   2.513   2.676  0.00  0.00     0.009 C 
BRANCH   8   9
ATOM      9  C3' N4B d   1       3.832   1.818   1.562  0.00  0.00     0.004 C 
ATOM     10  C4' N4B d   1       4.231   2.296   0.198  0.00  0.00     0.003 C 
ENDBRANCH   8   9
ENDBRANCH   7   8
ENDBRANCH   1   7
TORSDOF 3
ENDMDL
