MODEL 1
REMARK minimizedAffinity -1.75992692
REMARK minimizedRMSD -1
REMARK  3 active torsions:
REMARK  status: ('A' for Active; 'I' for Inactive)
REMARK    1  A    between atoms: C3'_2  and  C2'_3 
REMARK    2  A    between atoms: C2'_3  and  C1'_4 
REMARK    3  A    between atoms: C1'_4  and  C1_5 
ROOT
ATOM      1  C1  N4B d   1       5.010   1.533   4.451  0.00  0.00    -0.075 A 
ATOM      2  C2  N4B d   1       4.993   0.590   3.399  0.00  0.00     0.002 A 
ATOM      3  C3  N4B d   1       5.288  -0.727   3.653  0.00  0.00     0.002 A 
ATOM      4  C4  N4B d   1       5.620  -1.119   4.940  0.00  0.00    -0.004 A 
ATOM      5  C5  N4B d   1       5.611  -0.208   5.955  0.00  0.00     0.002 A 
ATOM      6  C6  N4B d   1       5.312   1.119   5.716  0.00  0.00     0.002 A 
ENDROOT
BRANCH   1   7
ATOM      7  C1' N4B d   1       4.779   2.999   4.207  0.00  0.00     0.057 C 
BRANCH   7   8
ATOM      8  C2' N4B d   1       5.997   3.588   3.503  0.00  0.00     0.009 C 
BRANCH   8   9
ATOM      9  C3' N4B d   1       5.981   5.107   3.514  0.00  0.00     0.004 C 
ATOM     10  C4' N4B d   1       5.999   5.678   4.901  0.00  0.00     0.003 C 
ENDBRANCH   8   9
ENDBRANCH   7   8
ENDBRANCH   1   7
TORSDOF 3
ENDMDL
