MODEL 1
REMARK minimizedAffinity -2.57230091
REMARK minimizedRMSD -1
REMARK  3 active torsions:
REMARK  status: ('A' for Active; 'I' for Inactive)
REMARK    1  A    between atoms: C3'_2  and  C2'_3 
REMARK    2  A    between atoms: C2'_3  and  C1'_4 
REMARK    3  A    between atoms: C1'_4  and  C1_5 
ROOT
ATOM      1  C1  N4B d   1       5.789   1.689   4.365  0.00  0.00    -0.075 A 
ATOM      2  C2  N4B d   1       5.696   1.201   5.687  0.00  0.00     0.002 A 
ATOM      3  C3  N4B d   1       5.753  -0.150   5.926  0.00  0.00     0.002 A 
ATOM      4  C4  N4B d   1       5.882  -1.030   4.862  0.00  0.00    -0.004 A 
ATOM      5  C5  N4B d   1       5.997  -0.549   3.590  0.00  0.00     0.002 A 
ATOM      6  C6  N4B d   1       5.946   0.806   3.335  0.00  0.00     0.002 A 
ENDROOT
BRANCH   1   7
ATOM      7  C1' N4B d   1       5.647   3.152   4.046  0.00  0.00     0.057 C 
BRANCH   7   8
ATOM      8  C2' N4B d   1       5.940   3.373   2.565  0.00  0.00     0.009 C 
BRANCH   8   9
ATOM      9  C3' N4B d   1       6.000   4.849   2.212  0.00  0.00     0.004 C 
ATOM     10  C4' N4B d   1       5.868   5.739   3.411  0.00  0.00     0.003 C 
ENDBRANCH   8   9
ENDBRANCH   7   8
ENDBRANCH   1   7
TORSDOF 3
ENDMDL
