MODEL 1
REMARK minimizedAffinity 1.06298566
REMARK minimizedRMSD -1
REMARK  3 active torsions:
REMARK  status: ('A' for Active; 'I' for Inactive)
REMARK    1  A    between atoms: C3'_2  and  C2'_3 
REMARK    2  A    between atoms: C2'_3  and  C1'_4 
REMARK    3  A    between atoms: C1'_4  and  C1_5 
ROOT
ATOM      1  C1  N4B d   1       5.881   0.515   3.743  0.00  0.00    -0.075 A 
ATOM      2  C2  N4B d   1       5.797  -0.831   3.325  0.00  0.00     0.002 A 
ATOM      3  C3  N4B d   1       5.814  -1.841   4.255  0.00  0.00     0.002 A 
ATOM      4  C4  N4B d   1       5.933  -1.532   5.601  0.00  0.00    -0.004 A 
ATOM      5  C5  N4B d   1       5.987  -0.228   5.999  0.00  0.00     0.002 A 
ATOM      6  C6  N4B d   1       5.967   0.798   5.075  0.00  0.00     0.002 A 
ENDROOT
BRANCH   1   7
ATOM      7  C1' N4B d   1       5.952   1.650   2.757  0.00  0.00     0.057 C 
BRANCH   7   8
ATOM      8  C2' N4B d   1       5.982   2.972   3.518  0.00  0.00     0.009 C 
BRANCH   8   9
ATOM      9  C3' N4B d   1       5.965   4.167   2.580  0.00  0.00     0.004 C 
ATOM     10  C4' N4B d   1       5.998   3.771   1.134  0.00  0.00     0.003 C 
ENDBRANCH   8   9
ENDBRANCH   7   8
ENDBRANCH   1   7
TORSDOF 3
ENDMDL
