MODEL 1
REMARK minimizedAffinity 9.80327511
REMARK minimizedRMSD -1
REMARK  3 active torsions:
REMARK  status: ('A' for Active; 'I' for Inactive)
REMARK    1  A    between atoms: C3'_2  and  C2'_3 
REMARK    2  A    between atoms: C2'_3  and  C1'_4 
REMARK    3  A    between atoms: C1'_4  and  C1_5 
ROOT
ATOM      1  C1  N4B d   1       6.000   4.870   2.004  0.00  0.00    -0.075 A 
ATOM      2  C2  N4B d   1       5.954   5.258   3.361  0.00  0.00     0.002 A 
ATOM      3  C3  N4B d   1       5.892   4.303   4.346  0.00  0.00     0.002 A 
ATOM      4  C4  N4B d   1       5.856   2.961   3.999  0.00  0.00    -0.004 A 
ATOM      5  C5  N4B d   1       5.927   2.594   2.687  0.00  0.00     0.002 A 
ATOM      6  C6  N4B d   1       5.993   3.542   1.687  0.00  0.00     0.002 A 
ENDROOT
BRANCH   1   7
ATOM      7  C1' N4B d   1       5.981   5.879   0.889  0.00  0.00     0.057 C 
BRANCH   7   8
ATOM      8  C2' N4B d   1       5.961   5.146  -0.449  0.00  0.00     0.009 C 
BRANCH   8   9
ATOM      9  C3' N4B d   1       5.351   5.994  -1.552  0.00  0.00     0.004 C 
ATOM     10  C4' N4B d   1       4.198   5.319  -2.233  0.00  0.00     0.003 C 
ENDBRANCH   8   9
ENDBRANCH   7   8
ENDBRANCH   1   7
TORSDOF 3
ENDMDL
