MODEL 1
REMARK minimizedAffinity -2.9934628
REMARK minimizedRMSD -1
REMARK  3 active torsions:
REMARK  status: ('A' for Active; 'I' for Inactive)
REMARK    1  A    between atoms: C3'_2  and  C2'_3 
REMARK    2  A    between atoms: C2'_3  and  C1'_4 
REMARK    3  A    between atoms: C1'_4  and  C1_5 
ROOT
ATOM      1  C1  N4B d   1       5.398   1.090   3.610  0.00  0.00    -0.075 A 
ATOM      2  C2  N4B d   1       5.617   0.978   5.001  0.00  0.00     0.002 A 
ATOM      3  C3  N4B d   1       5.704  -0.262   5.584  0.00  0.00     0.002 A 
ATOM      4  C4  N4B d   1       5.555  -1.399   4.804  0.00  0.00    -0.004 A 
ATOM      5  C5  N4B d   1       5.369  -1.283   3.458  0.00  0.00     0.002 A 
ATOM      6  C6  N4B d   1       5.284  -0.043   2.857  0.00  0.00     0.002 A 
ENDROOT
BRANCH   1   7
ATOM      7  C1' N4B d   1       5.211   2.424   2.940  0.00  0.00     0.057 C 
BRANCH   7   8
ATOM      8  C2' N4B d   1       5.971   3.489   3.725  0.00  0.00     0.009 C 
BRANCH   8   9
ATOM      9  C3' N4B d   1       5.973   4.828   3.009  0.00  0.00     0.004 C 
ATOM     10  C4' N4B d   1       5.981   5.992   3.954  0.00  0.00     0.003 C 
ENDBRANCH   8   9
ENDBRANCH   7   8
ENDBRANCH   1   7
TORSDOF 3
ENDMDL
