MODEL 1
REMARK minimizedAffinity -0.453358352
REMARK minimizedRMSD -1
REMARK  3 active torsions:
REMARK  status: ('A' for Active; 'I' for Inactive)
REMARK    1  A    between atoms: C3'_2  and  C2'_3 
REMARK    2  A    between atoms: C2'_3  and  C1'_4 
REMARK    3  A    between atoms: C1'_4  and  C1_5 
ROOT
ATOM      1  C1  N4B d   1       5.978   3.014   3.137  0.00  0.00    -0.075 A 
ATOM      2  C2  N4B d   1       5.988   3.845   1.995  0.00  0.00     0.002 A 
ATOM      3  C3  N4B d   1       6.000   5.211   2.141  0.00  0.00     0.002 A 
ATOM      4  C4  N4B d   1       5.982   5.765   3.412  0.00  0.00    -0.004 A 
ATOM      5  C5  N4B d   1       5.999   4.955   4.509  0.00  0.00     0.002 A 
ATOM      6  C6  N4B d   1       5.991   3.581   4.378  0.00  0.00     0.002 A 
ENDROOT
BRANCH   1   7
ATOM      7  C1' N4B d   1       5.879   1.517   3.027  0.00  0.00     0.057 C 
BRANCH   7   8
ATOM      8  C2' N4B d   1       5.994   0.904   4.420  0.00  0.00     0.009 C 
BRANCH   8   9
ATOM      9  C3' N4B d   1       5.081  -0.298   4.589  0.00  0.00     0.004 C 
ATOM     10  C4' N4B d   1       5.795  -1.497   5.139  0.00  0.00     0.003 C 
ENDBRANCH   8   9
ENDBRANCH   7   8
ENDBRANCH   1   7
TORSDOF 3
ENDMDL
