MODEL 1
REMARK minimizedAffinity -2.40105534
REMARK minimizedRMSD -1
REMARK  3 active torsions:
REMARK  status: ('A' for Active; 'I' for Inactive)
REMARK    1  A    between atoms: C3'_2  and  C2'_3 
REMARK    2  A    between atoms: C2'_3  and  C1'_4 
REMARK    3  A    between atoms: C1'_4  and  C1_5 
ROOT
ATOM      1  C1  N4B d   1       5.930   1.190   3.442  0.00  0.00    -0.075 A 
ATOM      2  C2  N4B d   1       5.968   2.459   2.822  0.00  0.00     0.002 A 
ATOM      3  C3  N4B d   1       5.999   3.597   3.589  0.00  0.00     0.002 A 
ATOM      4  C4  N4B d   1       5.974   3.493   4.972  0.00  0.00    -0.004 A 
ATOM      5  C5  N4B d   1       5.964   2.264   5.563  0.00  0.00     0.002 A 
ATOM      6  C6  N4B d   1       5.936   1.111   4.804  0.00  0.00     0.002 A 
ENDROOT
BRANCH   1   7
ATOM      7  C1' N4B d   1       5.808  -0.080   2.645  0.00  0.00     0.057 C 
BRANCH   7   8
ATOM      8  C2' N4B d   1       5.437  -1.225   3.582  0.00  0.00     0.009 C 
BRANCH   8   9
ATOM      9  C3' N4B d   1       5.966  -1.003   4.988  0.00  0.00     0.004 C 
ATOM     10  C4' N4B d   1       5.707  -2.168   5.897  0.00  0.00     0.003 C 
ENDBRANCH   8   9
ENDBRANCH   7   8
ENDBRANCH   1   7
TORSDOF 3
ENDMDL
