MODEL 1
REMARK minimizedAffinity 7.23181295
REMARK minimizedRMSD -1
REMARK  3 active torsions:
REMARK  status: ('A' for Active; 'I' for Inactive)
REMARK    1  A    between atoms: C3'_2  and  C2'_3 
REMARK    2  A    between atoms: C2'_3  and  C1'_4 
REMARK    3  A    between atoms: C1'_4  and  C1_5 
ROOT
ATOM      1  C1  N4B d   1       2.794   1.325  -4.645  0.00  0.00    -0.075 A 
ATOM      2  C2  N4B d   1       1.935   2.252  -5.277  0.00  0.00     0.002 A 
ATOM      3  C3  N4B d   1       2.462   3.324  -5.955  0.00  0.00     0.002 A 
ATOM      4  C4  N4B d   1       3.837   3.499  -5.999  0.00  0.00    -0.004 A 
ATOM      5  C5  N4B d   1       4.660   2.585  -5.408  0.00  0.00     0.002 A 
ATOM      6  C6  N4B d   1       4.145   1.501  -4.726  0.00  0.00     0.002 A 
ENDROOT
BRANCH   1   7
ATOM      7  C1' N4B d   1       2.262   0.186  -3.820  0.00  0.00     0.057 C 
BRANCH   7   8
ATOM      8  C2' N4B d   1       3.030   0.120  -2.503  0.00  0.00     0.009 C 
BRANCH   8   9
ATOM      9  C3' N4B d   1       2.120  -0.206  -1.331  0.00  0.00     0.004 C 
ATOM     10  C4' N4B d   1       1.210  -1.365  -1.607  0.00  0.00     0.003 C 
ENDBRANCH   8   9
ENDBRANCH   7   8
ENDBRANCH   1   7
TORSDOF 3
ENDMDL
