MODEL 1
REMARK minimizedAffinity -2.66614723
REMARK minimizedRMSD -1
REMARK  3 active torsions:
REMARK  status: ('A' for Active; 'I' for Inactive)
REMARK    1  A    between atoms: C3'_2  and  C2'_3 
REMARK    2  A    between atoms: C2'_3  and  C1'_4 
REMARK    3  A    between atoms: C1'_4  and  C1_5 
ROOT
ATOM      1  C1  N4B d   1       5.884   3.346   4.371  0.00  0.00    -0.075 A 
ATOM      2  C2  N4B d   1       5.970   2.983   3.008  0.00  0.00     0.002 A 
ATOM      3  C3  N4B d   1       5.999   3.956   2.039  0.00  0.00     0.002 A 
ATOM      4  C4  N4B d   1       5.925   5.291   2.406  0.00  0.00    -0.004 A 
ATOM      5  C5  N4B d   1       5.868   5.634   3.725  0.00  0.00     0.002 A 
ATOM      6  C6  N4B d   1       5.842   4.668   4.710  0.00  0.00     0.002 A 
ENDROOT
BRANCH   1   7
ATOM      7  C1' N4B d   1       5.762   2.317   5.461  0.00  0.00     0.057 C 
BRANCH   7   8
ATOM      8  C2' N4B d   1       6.000   0.931   4.869  0.00  0.00     0.009 C 
BRANCH   8   9
ATOM      9  C3' N4B d   1       5.698  -0.173   5.868  0.00  0.00     0.004 C 
ATOM     10  C4' N4B d   1       5.538  -1.516   5.220  0.00  0.00     0.003 C 
ENDBRANCH   8   9
ENDBRANCH   7   8
ENDBRANCH   1   7
TORSDOF 3
ENDMDL
