MODEL 1
REMARK minimizedAffinity 9.78653431
REMARK minimizedRMSD -1
REMARK  0 active torsions:
REMARK  status: ('A' for Active; 'I' for Inactive)
ROOT
ATOM      1  C   UNL d   1      -1.972   0.231   1.042  0.00  0.00     0.023 A 
ATOM      2  C1  UNL d   1      -3.354   0.300   0.864  0.00  0.00     0.003 A 
ATOM      3  C2  UNL d   1      -4.195   0.450   1.968  0.00  0.00     0.048 A 
ATOM      4  C3  UNL d   1      -3.648   0.532   3.248  0.00  0.00     0.023 A 
ATOM      5  C4  UNL d   1      -2.266   0.466   3.432  0.00  0.00     0.048 A 
ATOM      6  C5  UNL d   1      -1.429   0.314   2.325  0.00  0.00     0.003 A 
ATOM      7  I   UNL d   1      -4.898   0.756   4.893  0.00  0.00    -0.146 I 
ENDROOT
TORSDOF 0
ENDMDL
