MODEL 1
REMARK minimizedAffinity 4.00859499
REMARK minimizedRMSD -1
REMARK  0 active torsions:
REMARK  status: ('A' for Active; 'I' for Inactive)
ROOT
ATOM      1  C   UNL d   1      -5.446   5.562   5.901  0.00  0.00     0.023 A 
ATOM      2  C1  UNL d   1      -4.126   6.000   5.784  0.00  0.00     0.003 A 
ATOM      3  C2  UNL d   1      -3.330   5.545   4.731  0.00  0.00     0.048 A 
ATOM      4  C3  UNL d   1      -3.859   4.654   3.798  0.00  0.00     0.023 A 
ATOM      5  C4  UNL d   1      -5.179   4.214   3.911  0.00  0.00     0.048 A 
ATOM      6  C5  UNL d   1      -5.972   4.671   4.966  0.00  0.00     0.003 A 
ATOM      7  I   UNL d   1      -2.676   3.977   2.230  0.00  0.00    -0.146 I 
ENDROOT
TORSDOF 0
ENDMDL
