MODEL 1
REMARK minimizedAffinity 20.068758
REMARK minimizedRMSD -1
REMARK  0 active torsions:
REMARK  status: ('A' for Active; 'I' for Inactive)
ROOT
ATOM      1  C   UNL d   1       5.998   3.822  -6.000  0.00  0.00     0.023 A 
ATOM      2  C1  UNL d   1       5.046   2.803  -5.999  0.00  0.00     0.003 A 
ATOM      3  C2  UNL d   1       4.094   2.735  -4.980  0.00  0.00     0.048 A 
ATOM      4  C3  UNL d   1       4.099   3.691  -3.965  0.00  0.00     0.023 A 
ATOM      5  C4  UNL d   1       5.049   4.714  -3.962  0.00  0.00     0.048 A 
ATOM      6  C5  UNL d   1       6.000   4.777  -4.982  0.00  0.00     0.003 A 
ATOM      7  I   UNL d   1       2.683   3.593  -2.446  0.00  0.00    -0.146 I 
ENDROOT
TORSDOF 0
ENDMDL
