MODEL 1
REMARK minimizedAffinity 3.29310703
REMARK minimizedRMSD -1
REMARK  0 active torsions:
REMARK  status: ('A' for Active; 'I' for Inactive)
ROOT
ATOM      1  C   UNL d   1      -5.097  -2.035  -5.999  0.00  0.00     0.023 A 
ATOM      2  C1  UNL d   1      -5.296  -3.416  -5.999  0.00  0.00     0.003 A 
ATOM      3  C2  UNL d   1      -4.200  -4.281  -5.999  0.00  0.00     0.048 A 
ATOM      4  C3  UNL d   1      -2.907  -3.758  -5.999  0.00  0.00     0.023 A 
ATOM      5  C4  UNL d   1      -2.703  -2.377  -5.999  0.00  0.00     0.048 A 
ATOM      6  C5  UNL d   1      -3.802  -1.517  -5.999  0.00  0.00     0.003 A 
ATOM      7  I   UNL d   1      -1.273  -5.043  -6.000  0.00  0.00    -0.146 I 
ENDROOT
TORSDOF 0
ENDMDL
