MODEL 1
REMARK minimizedAffinity 2.2382803
REMARK minimizedRMSD -1
REMARK  0 active torsions:
REMARK  status: ('A' for Active; 'I' for Inactive)
ROOT
ATOM      1  C   UNL d   1      -3.750  -2.180  -5.996  0.00  0.00     0.023 A 
ATOM      2  C1  UNL d   1      -2.399  -1.833  -5.999  0.00  0.00     0.003 A 
ATOM      3  C2  UNL d   1      -1.420  -2.829  -5.998  0.00  0.00     0.048 A 
ATOM      4  C3  UNL d   1      -1.800  -4.171  -5.996  0.00  0.00     0.023 A 
ATOM      5  C4  UNL d   1      -3.151  -4.523  -5.995  0.00  0.00     0.048 A 
ATOM      6  C5  UNL d   1      -4.125  -3.524  -5.994  0.00  0.00     0.003 A 
ATOM      7  I   UNL d   1      -0.346  -5.656  -5.996  0.00  0.00    -0.146 I 
ENDROOT
TORSDOF 0
ENDMDL
