MODEL 1
REMARK minimizedAffinity 7.42756987
REMARK minimizedRMSD -1
REMARK  0 active torsions:
REMARK  status: ('A' for Active; 'I' for Inactive)
ROOT
ATOM      1  C   UNL d   1      -5.770   2.130   4.085  0.00  0.00     0.023 A 
ATOM      2  C1  UNL d   1      -5.992   1.905   5.443  0.00  0.00     0.003 A 
ATOM      3  C2  UNL d   1      -5.739   0.647   5.994  0.00  0.00     0.048 A 
ATOM      4  C3  UNL d   1      -5.263  -0.381   5.181  0.00  0.00     0.023 A 
ATOM      5  C4  UNL d   1      -5.039  -0.160   3.821  0.00  0.00     0.048 A 
ATOM      6  C5  UNL d   1      -5.294   1.099   3.275  0.00  0.00     0.003 A 
ATOM      7  I   UNL d   1      -4.886  -2.254   5.999  0.00  0.00    -0.146 I 
ENDROOT
TORSDOF 0
ENDMDL
