MODEL 1
REMARK minimizedAffinity 15.0551863
REMARK minimizedRMSD -1
REMARK  0 active torsions:
REMARK  status: ('A' for Active; 'I' for Inactive)
ROOT
ATOM      1  C   UNL d   1      -4.704  -0.828   4.302  0.00  0.00     0.023 A 
ATOM      2  C1  UNL d   1      -5.266   0.039   3.365  0.00  0.00     0.003 A 
ATOM      3  C2  UNL d   1      -5.639   1.331   3.743  0.00  0.00     0.048 A 
ATOM      4  C3  UNL d   1      -5.445   1.749   5.059  0.00  0.00     0.023 A 
ATOM      5  C4  UNL d   1      -4.883   0.885   6.000  0.00  0.00     0.048 A 
ATOM      6  C5  UNL d   1      -4.512  -0.405   5.618  0.00  0.00     0.003 A 
ATOM      7  I   UNL d   1      -5.999   3.671   5.624  0.00  0.00    -0.146 I 
ENDROOT
TORSDOF 0
ENDMDL
