MODEL 1
REMARK minimizedAffinity -2.06169939
REMARK minimizedRMSD -1
REMARK  0 active torsions:
REMARK  status: ('A' for Active; 'I' for Inactive)
ROOT
ATOM      1  C   UNL d   1      -0.034   1.701   3.959  0.00  0.00     0.023 A 
ATOM      2  C1  UNL d   1      -0.993   2.639   3.577  0.00  0.00     0.003 A 
ATOM      3  C2  UNL d   1      -2.050   2.261   2.746  0.00  0.00     0.048 A 
ATOM      4  C3  UNL d   1      -2.142   0.942   2.301  0.00  0.00     0.023 A 
ATOM      5  C4  UNL d   1      -1.185   0.000   2.682  0.00  0.00     0.048 A 
ATOM      6  C5  UNL d   1      -0.130   0.383   3.512  0.00  0.00     0.003 A 
ATOM      7  I   UNL d   1      -3.713   0.376   1.064  0.00  0.00    -0.146 I 
ENDROOT
TORSDOF 0
ENDMDL
