MODEL 1
REMARK minimizedAffinity 4.81745625
REMARK minimizedRMSD -1
REMARK  0 active torsions:
REMARK  status: ('A' for Active; 'I' for Inactive)
ROOT
ATOM      1  C   UNL d   1       1.120  -1.077  -3.538  0.00  0.00     0.023 A 
ATOM      2  C1  UNL d   1       1.197  -1.234  -4.922  0.00  0.00     0.003 A 
ATOM      3  C2  UNL d   1       2.268  -0.684  -5.630  0.00  0.00     0.048 A 
ATOM      4  C3  UNL d   1       3.259   0.021  -4.948  0.00  0.00     0.023 A 
ATOM      5  C4  UNL d   1       3.186   0.180  -3.563  0.00  0.00     0.048 A 
ATOM      6  C5  UNL d   1       2.114  -0.370  -2.860  0.00  0.00     0.003 A 
ATOM      7  I   UNL d   1       4.853   0.840  -6.000  0.00  0.00    -0.146 I 
ENDROOT
TORSDOF 0
ENDMDL
