MODEL 1
REMARK minimizedAffinity 10.7732048
REMARK minimizedRMSD -1
REMARK  0 active torsions:
REMARK  status: ('A' for Active; 'I' for Inactive)
ROOT
ATOM      1  C   UNL d   1      -3.842  -2.419   0.321  0.00  0.00     0.023 A 
ATOM      2  C1  UNL d   1      -4.292  -1.113   0.513  0.00  0.00     0.003 A 
ATOM      3  C2  UNL d   1      -3.425  -0.142   1.018  0.00  0.00     0.048 A 
ATOM      4  C3  UNL d   1      -2.109  -0.483   1.328  0.00  0.00     0.023 A 
ATOM      5  C4  UNL d   1      -1.654  -1.788   1.136  0.00  0.00     0.048 A 
ATOM      6  C5  UNL d   1      -2.524  -2.756   0.632  0.00  0.00     0.003 A 
ATOM      7  I   UNL d   1      -0.817   0.962   2.079  0.00  0.00    -0.146 I 
ENDROOT
TORSDOF 0
ENDMDL
