MODEL 1
REMARK minimizedAffinity 9.11775303
REMARK minimizedRMSD -1
REMARK  0 active torsions:
REMARK  status: ('A' for Active; 'I' for Inactive)
ROOT
ATOM      1  C   UNL d   1       5.944   0.162   1.198  0.00  0.00     0.023 A 
ATOM      2  C1  UNL d   1       5.913  -1.142   1.693  0.00  0.00     0.003 A 
ATOM      3  C2  UNL d   1       5.926  -1.368   3.071  0.00  0.00     0.048 A 
ATOM      4  C3  UNL d   1       5.969  -0.285   3.949  0.00  0.00     0.023 A 
ATOM      5  C4  UNL d   1       6.000   1.022   3.458  0.00  0.00     0.048 A 
ATOM      6  C5  UNL d   1       5.988   1.242   2.080  0.00  0.00     0.003 A 
ATOM      7  I   UNL d   1       5.988  -0.618   6.000  0.00  0.00    -0.146 I 
ENDROOT
TORSDOF 0
ENDMDL
