MODEL 1
REMARK minimizedAffinity 5.17483377
REMARK minimizedRMSD -1
REMARK  0 active torsions:
REMARK  status: ('A' for Active; 'I' for Inactive)
ROOT
ATOM      1  C   UNL d   1       0.293   1.021   2.441  0.00  0.00     0.023 A 
ATOM      2  C1  UNL d   1       0.304   0.261   1.271  0.00  0.00     0.003 A 
ATOM      3  C2  UNL d   1      -0.899  -0.112   0.668  0.00  0.00     0.048 A 
ATOM      4  C3  UNL d   1      -2.109   0.279   1.240  0.00  0.00     0.023 A 
ATOM      5  C4  UNL d   1      -2.125   1.040   2.410  0.00  0.00     0.048 A 
ATOM      6  C5  UNL d   1      -0.920   1.410   3.010  0.00  0.00     0.003 A 
ATOM      7  I   UNL d   1      -3.901  -0.276   0.345  0.00  0.00    -0.146 I 
ENDROOT
TORSDOF 0
ENDMDL
