MODEL 1
REMARK minimizedAffinity 7.40095711
REMARK minimizedRMSD -1
REMARK  0 active torsions:
REMARK  status: ('A' for Active; 'I' for Inactive)
ROOT
ATOM      1  C   UNL d   1      -5.226  -1.021   0.002  0.00  0.00     0.023 A 
ATOM      2  C1  UNL d   1      -4.998   0.342   0.190  0.00  0.00     0.003 A 
ATOM      3  C2  UNL d   1      -3.838   0.775   0.835  0.00  0.00     0.048 A 
ATOM      4  C3  UNL d   1      -2.909  -0.160   1.289  0.00  0.00     0.023 A 
ATOM      5  C4  UNL d   1      -3.132  -1.526   1.102  0.00  0.00     0.048 A 
ATOM      6  C5  UNL d   1      -4.294  -1.954   0.458  0.00  0.00     0.003 A 
ATOM      7  I   UNL d   1      -1.181   0.482   2.249  0.00  0.00    -0.146 I 
ENDROOT
TORSDOF 0
ENDMDL
