MODEL 1
REMARK minimizedAffinity 3.98615265
REMARK minimizedRMSD -1
REMARK  0 active torsions:
REMARK  status: ('A' for Active; 'I' for Inactive)
ROOT
ATOM      1  C   UNL d   1      -4.757   0.335   2.186  0.00  0.00     0.023 A 
ATOM      2  C1  UNL d   1      -3.884   0.499   1.111  0.00  0.00     0.003 A 
ATOM      3  C2  UNL d   1      -2.508   0.585   1.333  0.00  0.00     0.048 A 
ATOM      4  C3  UNL d   1      -2.012   0.506   2.634  0.00  0.00     0.023 A 
ATOM      5  C4  UNL d   1      -2.882   0.342   3.714  0.00  0.00     0.048 A 
ATOM      6  C5  UNL d   1      -4.257   0.257   3.486  0.00  0.00     0.003 A 
ATOM      7  I   UNL d   1       0.035   0.634   2.968  0.00  0.00    -0.146 I 
ENDROOT
TORSDOF 0
ENDMDL
