MODEL 1
REMARK minimizedAffinity 4.64843178
REMARK minimizedRMSD -1
REMARK  0 active torsions:
REMARK  status: ('A' for Active; 'I' for Inactive)
ROOT
ATOM      1  C   UNL d   1      -2.202  -1.060  -5.966  0.00  0.00     0.023 A 
ATOM      2  C1  UNL d   1      -3.593  -1.163  -5.949  0.00  0.00     0.003 A 
ATOM      3  C2  UNL d   1      -4.202  -2.420  -5.959  0.00  0.00     0.048 A 
ATOM      4  C3  UNL d   1      -3.413  -3.570  -5.984  0.00  0.00     0.023 A 
ATOM      5  C4  UNL d   1      -2.021  -3.472  -6.000  0.00  0.00     0.048 A 
ATOM      6  C5  UNL d   1      -1.417  -2.213  -5.991  0.00  0.00     0.003 A 
ATOM      7  I   UNL d   1      -4.316  -5.442  -5.999  0.00  0.00    -0.146 I 
ENDROOT
TORSDOF 0
ENDMDL
