MODEL 1
REMARK minimizedAffinity 11.6369028
REMARK minimizedRMSD -1
REMARK  0 active torsions:
REMARK  status: ('A' for Active; 'I' for Inactive)
ROOT
ATOM      1  C   UNL d   1      -5.706   0.358   2.865  0.00  0.00     0.023 A 
ATOM      2  C1  UNL d   1      -5.234   0.386   1.553  0.00  0.00     0.003 A 
ATOM      3  C2  UNL d   1      -3.876   0.595   1.302  0.00  0.00     0.048 A 
ATOM      4  C3  UNL d   1      -2.996   0.775   2.368  0.00  0.00     0.023 A 
ATOM      5  C4  UNL d   1      -3.463   0.747   3.683  0.00  0.00     0.048 A 
ATOM      6  C5  UNL d   1      -4.821   0.538   3.929  0.00  0.00     0.003 A 
ATOM      7  I   UNL d   1      -0.975   1.086   1.997  0.00  0.00    -0.146 I 
ENDROOT
TORSDOF 0
ENDMDL
