MODEL 1
REMARK minimizedAffinity 4.80351114
REMARK minimizedRMSD -1
REMARK  0 active torsions:
REMARK  status: ('A' for Active; 'I' for Inactive)
ROOT
ATOM      1  C   UNL d   1      -1.231   2.301   3.821  0.00  0.00     0.023 A 
ATOM      2  C1  UNL d   1      -1.350   1.383   2.778  0.00  0.00     0.003 A 
ATOM      3  C2  UNL d   1      -0.207   0.807   2.219  0.00  0.00     0.048 A 
ATOM      4  C3  UNL d   1       1.052   1.153   2.709  0.00  0.00     0.023 A 
ATOM      5  C4  UNL d   1       1.176   2.070   3.754  0.00  0.00     0.048 A 
ATOM      6  C5  UNL d   1       0.031   2.644   4.309  0.00  0.00     0.003 A 
ATOM      7  I   UNL d   1       2.754   0.296   1.879  0.00  0.00    -0.146 I 
ENDROOT
TORSDOF 0
ENDMDL
