MODEL 1
REMARK minimizedAffinity 9.63684368
REMARK minimizedRMSD -1
REMARK  0 active torsions:
REMARK  status: ('A' for Active; 'I' for Inactive)
ROOT
ATOM      1  O1  BZF d   1       5.026  -0.774   3.885  0.00  0.00    -0.204 OA
ATOM      2  C2  BZF d   1       5.486  -1.424   5.014  0.00  0.00     0.174 A 
ATOM      3  C3  BZF d   1       5.749  -0.542   6.000  0.00  0.00    -0.012 A 
ATOM      4  C3A BZF d   1       5.345   0.730   5.484  0.00  0.00    -0.107 A 
ATOM      5  C4  BZF d   1       5.344   1.994   6.000  0.00  0.00     0.055 A 
ATOM      6  C5  BZF d   1       4.953   3.029   5.210  0.00  0.00    -0.016 A 
ATOM      7  C6  BZF d   1       4.564   2.837   3.901  0.00  0.00     0.022 A 
ATOM      8  C7  BZF d   1       4.544   1.600   3.346  0.00  0.00     0.029 A 
ATOM      9  C7A BZF d   1       4.907   0.548   4.152  0.00  0.00     0.058 A 
ENDROOT
TORSDOF 0
ENDMDL
