MODEL 1
REMARK minimizedAffinity 8.26722145
REMARK minimizedRMSD -1
REMARK  0 active torsions:
REMARK  status: ('A' for Active; 'I' for Inactive)
ROOT
ATOM      1  O1  BZF d   1      -1.126   0.762  -0.340  0.00  0.00    -0.204 OA
ATOM      2  C2  BZF d   1      -0.396   1.775  -0.930  0.00  0.00     0.174 A 
ATOM      3  C3  BZF d   1       0.836   1.342  -1.268  0.00  0.00    -0.012 A 
ATOM      4  C3A BZF d   1       0.846  -0.052  -0.949  0.00  0.00    -0.107 A 
ATOM      5  C4  BZF d   1       1.784  -1.037  -1.071  0.00  0.00     0.055 A 
ATOM      6  C5  BZF d   1       1.504  -2.279  -0.597  0.00  0.00    -0.016 A 
ATOM      7  C6  BZF d   1       0.299  -2.570   0.009  0.00  0.00     0.022 A 
ATOM      8  C7  BZF d   1      -0.665  -1.628   0.148  0.00  0.00     0.029 A 
ATOM      9  C7A BZF d   1      -0.397  -0.380  -0.359  0.00  0.00     0.058 A 
ENDROOT
TORSDOF 0
ENDMDL
