MODEL 1
REMARK minimizedAffinity -3.37041807
REMARK minimizedRMSD -1
REMARK  0 active torsions:
REMARK  status: ('A' for Active; 'I' for Inactive)
ROOT
ATOM      1  O1  BZF d   1       0.899   1.557  -2.468  0.00  0.00    -0.204 OA
ATOM      2  C2  BZF d   1       0.797   1.471  -1.093  0.00  0.00     0.174 A 
ATOM      3  C3  BZF d   1       0.930   0.193  -0.683  0.00  0.00    -0.012 A 
ATOM      4  C3A BZF d   1       1.219  -0.555  -1.867  0.00  0.00    -0.107 A 
ATOM      5  C4  BZF d   1       1.470  -1.876  -2.106  0.00  0.00     0.055 A 
ATOM      6  C5  BZF d   1       1.642  -2.295  -3.387  0.00  0.00    -0.016 A 
ATOM      7  C6  BZF d   1       1.565  -1.422  -4.453  0.00  0.00     0.022 A 
ATOM      8  C7  BZF d   1       1.323  -0.102  -4.266  0.00  0.00     0.029 A 
ATOM      9  C7A BZF d   1       1.182   0.330  -2.970  0.00  0.00     0.058 A 
ENDROOT
TORSDOF 0
ENDMDL
