MODEL 1
REMARK minimizedAffinity 3.87110114
REMARK minimizedRMSD -1
REMARK  0 active torsions:
REMARK  status: ('A' for Active; 'I' for Inactive)
ROOT
ATOM      1  O1  BZF d   1       1.627  -2.623  -1.374  0.00  0.00    -0.204 OA
ATOM      2  C2  BZF d   1       1.099  -2.535  -0.101  0.00  0.00     0.174 A 
ATOM      3  C3  BZF d   1       0.695  -1.275   0.163  0.00  0.00    -0.012 A 
ATOM      4  C3A BZF d   1       0.904  -0.550  -1.052  0.00  0.00    -0.107 A 
ATOM      5  C4  BZF d   1       0.680   0.745  -1.423  0.00  0.00     0.055 A 
ATOM      6  C5  BZF d   1       1.063   1.152  -2.662  0.00  0.00    -0.016 A 
ATOM      7  C6  BZF d   1       1.676   0.295  -3.552  0.00  0.00     0.022 A 
ATOM      8  C7  BZF d   1       1.914  -1.000  -3.230  0.00  0.00     0.029 A 
ATOM      9  C7A BZF d   1       1.499  -1.424  -1.992  0.00  0.00     0.058 A 
ENDROOT
TORSDOF 0
ENDMDL
