MODEL 1
REMARK minimizedAffinity 10.7060156
REMARK minimizedRMSD -1
REMARK  0 active torsions:
REMARK  status: ('A' for Active; 'I' for Inactive)
ROOT
ATOM      1  O1  BZF d   1      -5.437  -0.642   3.878  0.00  0.00    -0.204 OA
ATOM      2  C2  BZF d   1      -5.448  -2.007   3.660  0.00  0.00     0.174 A 
ATOM      3  C3  BZF d   1      -4.241  -2.432   3.232  0.00  0.00    -0.012 A 
ATOM      4  C3A BZF d   1      -3.400  -1.275   3.267  0.00  0.00    -0.107 A 
ATOM      5  C4  BZF d   1      -2.084  -1.062   2.972  0.00  0.00     0.055 A 
ATOM      6  C5  BZF d   1      -1.588   0.201   3.041  0.00  0.00    -0.016 A 
ATOM      7  C6  BZF d   1      -2.379   1.273   3.397  0.00  0.00     0.022 A 
ATOM      8  C7  BZF d   1      -3.689   1.111   3.704  0.00  0.00     0.029 A 
ATOM      9  C7A BZF d   1      -4.185  -0.169   3.667  0.00  0.00     0.058 A 
ENDROOT
TORSDOF 0
ENDMDL
