MODEL 1
REMARK minimizedAffinity 4.94233418
REMARK minimizedRMSD -1
REMARK  0 active torsions:
REMARK  status: ('A' for Active; 'I' for Inactive)
ROOT
ATOM      1  O1  BZF d   1       0.668   1.042  -2.192  0.00  0.00    -0.204 OA
ATOM      2  C2  BZF d   1       1.332   0.845  -3.387  0.00  0.00     0.174 A 
ATOM      3  C3  BZF d   1       1.889  -0.383  -3.428  0.00  0.00    -0.012 A 
ATOM      4  C3A BZF d   1       1.473  -1.025  -2.219  0.00  0.00    -0.107 A 
ATOM      5  C4  BZF d   1       1.691  -2.266  -1.692  0.00  0.00     0.055 A 
ATOM      6  C5  BZF d   1       1.204  -2.554  -0.457  0.00  0.00    -0.016 A 
ATOM      7  C6  BZF d   1       0.500  -1.624   0.281  0.00  0.00     0.022 A 
ATOM      8  C7  BZF d   1       0.255  -0.382  -0.202  0.00  0.00     0.029 A 
ATOM      9  C7A BZF d   1       0.717  -0.099  -1.464  0.00  0.00     0.058 A 
ENDROOT
TORSDOF 0
ENDMDL
