MODEL 1
REMARK minimizedAffinity 5.08858681
REMARK minimizedRMSD -1
REMARK  0 active torsions:
REMARK  status: ('A' for Active; 'I' for Inactive)
ROOT
ATOM      1  O1  BZF d   1       0.895  -0.490  -5.116  0.00  0.00    -0.204 OA
ATOM      2  C2  BZF d   1       1.401   0.765  -4.835  0.00  0.00     0.174 A 
ATOM      3  C3  BZF d   1       1.821   0.836  -3.556  0.00  0.00    -0.012 A 
ATOM      4  C3A BZF d   1       1.647  -0.483  -3.029  0.00  0.00    -0.107 A 
ATOM      5  C4  BZF d   1       1.899  -1.049  -1.812  0.00  0.00     0.055 A 
ATOM      6  C5  BZF d   1       1.546  -2.344  -1.599  0.00  0.00    -0.016 A 
ATOM      7  C6  BZF d   1       0.935  -3.100  -2.578  0.00  0.00     0.022 A 
ATOM      8  C7  BZF d   1       0.669  -2.584  -3.802  0.00  0.00     0.029 A 
ATOM      9  C7A BZF d   1       1.054  -1.285  -4.031  0.00  0.00     0.058 A 
ENDROOT
TORSDOF 0
ENDMDL
