MODEL 1
REMARK minimizedAffinity -0.155528754
REMARK minimizedRMSD -1
REMARK  0 active torsions:
REMARK  status: ('A' for Active; 'I' for Inactive)
ROOT
ATOM      1  O1  BZF d   1       5.111   0.378   3.911  0.00  0.00    -0.204 OA
ATOM      2  C2  BZF d   1       5.483  -0.346   5.027  0.00  0.00     0.174 A 
ATOM      3  C3  BZF d   1       5.934   0.472   5.999  0.00  0.00    -0.012 A 
ATOM      4  C3A BZF d   1       5.753   1.797   5.491  0.00  0.00    -0.107 A 
ATOM      5  C4  BZF d   1       5.999   3.040   6.000  0.00  0.00     0.055 A 
ATOM      6  C5  BZF d   1       5.777   4.129   5.218  0.00  0.00    -0.016 A 
ATOM      7  C6  BZF d   1       5.315   4.012   3.923  0.00  0.00     0.022 A 
ATOM      8  C7  BZF d   1       5.052   2.801   3.376  0.00  0.00     0.029 A 
ATOM      9  C7A BZF d   1       5.244   1.700   4.175  0.00  0.00     0.058 A 
ENDROOT
TORSDOF 0
ENDMDL
