MODEL 1
REMARK minimizedAffinity -3.49482441
REMARK minimizedRMSD -1
REMARK  0 active torsions:
REMARK  status: ('A' for Active; 'I' for Inactive)
ROOT
ATOM      1  O1  BZF d   1       0.400   1.001  -1.683  0.00  0.00    -0.204 OA
ATOM      2  C2  BZF d   1       0.898   1.165  -2.961  0.00  0.00     0.174 A 
ATOM      3  C3  BZF d   1       1.523   0.046  -3.379  0.00  0.00    -0.012 A 
ATOM      4  C3A BZF d   1       1.329  -0.907  -2.330  0.00  0.00    -0.107 A 
ATOM      5  C4  BZF d   1       1.703  -2.210  -2.164  0.00  0.00     0.055 A 
ATOM      6  C5  BZF d   1       1.420  -2.835  -0.991  0.00  0.00    -0.016 A 
ATOM      7  C6  BZF d   1       0.769  -2.186   0.038  0.00  0.00     0.022 A 
ATOM      8  C7  BZF d   1       0.374  -0.895  -0.081  0.00  0.00     0.029 A 
ATOM      9  C7A BZF d   1       0.630  -0.271  -1.278  0.00  0.00     0.058 A 
ENDROOT
TORSDOF 0
ENDMDL
