MODEL 1
REMARK minimizedAffinity 4.18174124
REMARK minimizedRMSD -1
REMARK  0 active torsions:
REMARK  status: ('A' for Active; 'I' for Inactive)
ROOT
ATOM      1  O1  BZF d   1       3.835   0.071   5.385  0.00  0.00    -0.204 OA
ATOM      2  C2  BZF d   1       4.958  -0.646   5.753  0.00  0.00     0.174 A 
ATOM      3  C3  BZF d   1       5.994   0.181   5.999  0.00  0.00    -0.012 A 
ATOM      4  C3A BZF d   1       5.462   1.502   5.862  0.00  0.00    -0.107 A 
ATOM      5  C4  BZF d   1       6.000   2.750   6.000  0.00  0.00     0.055 A 
ATOM      6  C5  BZF d   1       5.230   3.835   5.724  0.00  0.00    -0.016 A 
ATOM      7  C6  BZF d   1       3.922   3.709   5.303  0.00  0.00     0.022 A 
ATOM      8  C7  BZF d   1       3.343   2.493   5.156  0.00  0.00     0.029 A 
ATOM      9  C7A BZF d   1       4.109   1.395   5.466  0.00  0.00     0.058 A 
ENDROOT
TORSDOF 0
ENDMDL
