MODEL 1
REMARK minimizedAffinity 6.47840834
REMARK minimizedRMSD -1
REMARK  0 active torsions:
REMARK  status: ('A' for Active; 'I' for Inactive)
ROOT
ATOM      1  O1  BZF d   1       3.816  -0.547   5.038  0.00  0.00    -0.204 OA
ATOM      2  C2  BZF d   1       4.978  -1.018   5.619  0.00  0.00     0.174 A 
ATOM      3  C3  BZF d   1       5.775   0.004   5.990  0.00  0.00    -0.012 A 
ATOM      4  C3A BZF d   1       5.027   1.189   5.702  0.00  0.00    -0.107 A 
ATOM      5  C4  BZF d   1       5.280   2.521   5.865  0.00  0.00     0.055 A 
ATOM      6  C5  BZF d   1       4.372   3.426   5.414  0.00  0.00    -0.016 A 
ATOM      7  C6  BZF d   1       3.204   3.034   4.792  0.00  0.00     0.022 A 
ATOM      8  C7  BZF d   1       2.907   1.724   4.613  0.00  0.00     0.029 A 
ATOM      9  C7A BZF d   1       3.808   0.807   5.097  0.00  0.00     0.058 A 
ENDROOT
TORSDOF 0
ENDMDL
