MODEL 1
REMARK minimizedAffinity 0.14678587
REMARK minimizedRMSD -1
REMARK  0 active torsions:
REMARK  status: ('A' for Active; 'I' for Inactive)
ROOT
ATOM      1  O1  BZF d   1       4.775  -0.663   4.029  0.00  0.00    -0.204 OA
ATOM      2  C2  BZF d   1       5.382  -1.411   5.019  0.00  0.00     0.174 A 
ATOM      3  C3  BZF d   1       6.000  -0.612   5.912  0.00  0.00    -0.012 A 
ATOM      4  C3A BZF d   1       5.686   0.723   5.502  0.00  0.00    -0.107 A 
ATOM      5  C4  BZF d   1       5.999   1.956   6.000  0.00  0.00     0.055 A 
ATOM      6  C5  BZF d   1       5.597   3.063   5.322  0.00  0.00    -0.016 A 
ATOM      7  C6  BZF d   1       4.887   2.975   4.143  0.00  0.00     0.022 A 
ATOM      8  C7  BZF d   1       4.549   1.774   3.613  0.00  0.00     0.029 A 
ATOM      9  C7A BZF d   1       4.925   0.653   4.312  0.00  0.00     0.058 A 
ENDROOT
TORSDOF 0
ENDMDL
