MODEL 1
REMARK minimizedAffinity 4.64242744
REMARK minimizedRMSD -1
REMARK  0 active torsions:
REMARK  status: ('A' for Active; 'I' for Inactive)
ROOT
ATOM      1  O1  BZF d   1       1.379  -3.077  -1.578  0.00  0.00    -0.204 OA
ATOM      2  C2  BZF d   1       1.692  -2.135  -0.618  0.00  0.00     0.174 A 
ATOM      3  C3  BZF d   1       1.896  -0.927  -1.181  0.00  0.00    -0.012 A 
ATOM      4  C3A BZF d   1       1.608  -1.107  -2.571  0.00  0.00    -0.107 A 
ATOM      5  C4  BZF d   1       1.614  -0.266  -3.648  0.00  0.00     0.055 A 
ATOM      6  C5  BZF d   1       1.354  -0.772  -4.882  0.00  0.00    -0.016 A 
ATOM      7  C6  BZF d   1       1.089  -2.112  -5.076  0.00  0.00     0.022 A 
ATOM      8  C7  BZF d   1       1.067  -2.983  -4.039  0.00  0.00     0.029 A 
ATOM      9  C7A BZF d   1       1.297  -2.469  -2.786  0.00  0.00     0.058 A 
ENDROOT
TORSDOF 0
ENDMDL
