MODEL 1
REMARK minimizedAffinity -1.15440369
REMARK minimizedRMSD -1
REMARK  0 active torsions:
REMARK  status: ('A' for Active; 'I' for Inactive)
ROOT
ATOM      1  O1  BZF d   1       1.136   1.485  -3.459  0.00  0.00    -0.204 OA
ATOM      2  C2  BZF d   1       1.820   1.022  -4.566  0.00  0.00     0.174 A 
ATOM      3  C3  BZF d   1       2.367  -0.186  -4.319  0.00  0.00    -0.012 A 
ATOM      4  C3A BZF d   1       1.925  -0.538  -3.005  0.00  0.00    -0.107 A 
ATOM      5  C4  BZF d   1       2.123  -1.629  -2.208  0.00  0.00     0.055 A 
ATOM      6  C5  BZF d   1       1.612  -1.630  -0.949  0.00  0.00    -0.016 A 
ATOM      7  C6  BZF d   1       0.903  -0.555  -0.453  0.00  0.00     0.022 A 
ATOM      8  C7  BZF d   1       0.676   0.547  -1.207  0.00  0.00     0.029 A 
ATOM      9  C7A BZF d   1       1.163   0.537  -2.491  0.00  0.00     0.058 A 
ENDROOT
TORSDOF 0
ENDMDL
