MODEL 1
REMARK minimizedAffinity 2.69682002
REMARK minimizedRMSD -1
REMARK  0 active torsions:
REMARK  status: ('A' for Active; 'I' for Inactive)
ROOT
ATOM      1  O1  BZF d   1       1.562  -2.952  -1.257  0.00  0.00    -0.204 OA
ATOM      2  C2  BZF d   1       2.305  -2.189  -2.137  0.00  0.00     0.174 A 
ATOM      3  C3  BZF d   1       1.934  -0.894  -2.078  0.00  0.00    -0.012 A 
ATOM      4  C3A BZF d   1       0.959  -0.829  -1.033  0.00  0.00    -0.107 A 
ATOM      5  C4  BZF d   1       0.231   0.191  -0.490  0.00  0.00     0.055 A 
ATOM      6  C5  BZF d   1      -0.690  -0.092   0.468  0.00  0.00    -0.016 A 
ATOM      7  C6  BZF d   1      -0.913  -1.382   0.902  0.00  0.00     0.022 A 
ATOM      8  C7  BZF d   1      -0.212  -2.426   0.397  0.00  0.00     0.029 A 
ATOM      9  C7A BZF d   1       0.743  -2.139  -0.548  0.00  0.00     0.058 A 
ENDROOT
TORSDOF 0
ENDMDL
