MODEL 1
REMARK minimizedAffinity -5.31466532
REMARK minimizedRMSD -1
REMARK  1 active torsions:
REMARK  status: ('A' for Active; 'I' for Inactive)
REMARK    1  A    between atoms: C3_4  and  O_7 
ROOT
ATOM      1  C   UNL d   1       0.025  -0.482   0.836  0.00  0.00    -0.033 A 
ATOM      2  C1  UNL d   1       1.244  -0.030   0.326  0.00  0.00     0.039 A 
ATOM      3  C2  UNL d   1       1.374   1.289  -0.113  0.00  0.00    -0.080 A 
ATOM      4  C3  UNL d   1       0.279   2.145  -0.037  0.00  0.00     0.150 A 
ATOM      5  C4  UNL d   1      -0.938   1.703   0.473  0.00  0.00    -0.007 A 
ATOM      6  C5  UNL d   1      -1.065   0.385   0.910  0.00  0.00     0.039 A 
ENDROOT
BRANCH   4   7
ATOM      7  O   UNL d   1       0.355   3.439  -0.459  0.00  0.00    -0.526 OA
ATOM      8  H5  UNL d   1       1.247   3.595  -0.813  0.00  0.00     0.418 HD
ENDBRANCH   4   7
TORSDOF 1
ENDMDL
