MODEL 1
REMARK minimizedAffinity -0.591182411
REMARK minimizedRMSD -1
REMARK  1 active torsions:
REMARK  status: ('A' for Active; 'I' for Inactive)
REMARK    1  A    between atoms: C3_4  and  O_7 
ROOT
ATOM      1  C   UNL d   1       0.434  -1.077   0.142  0.00  0.00    -0.033 A 
ATOM      2  C1  UNL d   1       1.451  -0.123   0.229  0.00  0.00     0.039 A 
ATOM      3  C2  UNL d   1       1.135   1.215   0.469  0.00  0.00    -0.080 A 
ATOM      4  C3  UNL d   1      -0.198   1.587   0.620  0.00  0.00     0.150 A 
ATOM      5  C4  UNL d   1      -1.215   0.641   0.538  0.00  0.00    -0.007 A 
ATOM      6  C5  UNL d   1      -0.898  -0.695   0.298  0.00  0.00     0.039 A 
ENDROOT
BRANCH   4   7
ATOM      7  O   UNL d   1      -0.555   2.882   0.851  0.00  0.00    -0.526 OA
ATOM      8  H5  UNL d   1       0.249   3.427   0.854  0.00  0.00     0.418 HD
ENDBRANCH   4   7
TORSDOF 1
ENDMDL
