MODEL 1
REMARK minimizedAffinity -2.1982615
REMARK minimizedRMSD -1
REMARK  1 active torsions:
REMARK  status: ('A' for Active; 'I' for Inactive)
REMARK    1  A    between atoms: C3_4  and  O_7 
ROOT
ATOM      1  C   UNL d   1       1.164   2.609   1.156  0.00  0.00    -0.033 A 
ATOM      2  C1  UNL d   1      -0.177   2.299   0.927  0.00  0.00     0.039 A 
ATOM      3  C2  UNL d   1      -0.533   1.028   0.472  0.00  0.00    -0.080 A 
ATOM      4  C3  UNL d   1       0.460   0.077   0.252  0.00  0.00     0.150 A 
ATOM      5  C4  UNL d   1       1.798   0.379   0.482  0.00  0.00    -0.007 A 
ATOM      6  C5  UNL d   1       2.152   1.649   0.936  0.00  0.00     0.039 A 
ENDROOT
BRANCH   4   7
ATOM      7  O   UNL d   1       0.162  -1.175  -0.196  0.00  0.00    -0.526 OA
ATOM      8  H5  UNL d   1      -0.798  -1.230  -0.339  0.00  0.00     0.418 HD
ENDBRANCH   4   7
TORSDOF 1
ENDMDL
