MODEL 1
REMARK minimizedAffinity -3.14161348
REMARK minimizedRMSD -1
REMARK  1 active torsions:
REMARK  status: ('A' for Active; 'I' for Inactive)
REMARK    1  A    between atoms: C3_4  and  O_7 
ROOT
ATOM      1  C   UNL d   1      -0.873  -0.146   0.453  0.00  0.00    -0.033 A 
ATOM      2  C1  UNL d   1      -1.762   0.864   0.825  0.00  0.00     0.039 A 
ATOM      3  C2  UNL d   1      -1.425   2.203   0.620  0.00  0.00    -0.080 A 
ATOM      4  C3  UNL d   1      -0.199   2.518   0.042  0.00  0.00     0.150 A 
ATOM      5  C4  UNL d   1       0.690   1.517  -0.335  0.00  0.00    -0.007 A 
ATOM      6  C5  UNL d   1       0.352   0.180  -0.129  0.00  0.00     0.039 A 
ENDROOT
BRANCH   4   7
ATOM      7  O   UNL d   1       0.176   3.811  -0.174  0.00  0.00    -0.526 OA
ATOM      8  H5  UNL d   1      -0.524   4.395   0.162  0.00  0.00     0.418 HD
ENDBRANCH   4   7
TORSDOF 1
ENDMDL
