MODEL 1
REMARK minimizedAffinity -2.36545205
REMARK minimizedRMSD -1
REMARK  1 active torsions:
REMARK  status: ('A' for Active; 'I' for Inactive)
REMARK    1  A    between atoms: C3_4  and  O_7 
ROOT
ATOM      1  C   UNL d   1      -0.026  -0.142   0.396  0.00  0.00    -0.033 A 
ATOM      2  C1  UNL d   1       0.818  -1.226   0.644  0.00  0.00     0.039 A 
ATOM      3  C2  UNL d   1       0.724  -2.379  -0.138  0.00  0.00    -0.080 A 
ATOM      4  C3  UNL d   1      -0.216  -2.434  -1.163  0.00  0.00     0.150 A 
ATOM      5  C4  UNL d   1      -1.057  -1.356  -1.418  0.00  0.00    -0.007 A 
ATOM      6  C5  UNL d   1      -0.962  -0.206  -0.636  0.00  0.00     0.039 A 
ENDROOT
BRANCH   4   7
ATOM      7  O   UNL d   1      -0.349  -3.540  -1.950  0.00  0.00    -0.526 OA
ATOM      8  H5  UNL d   1       0.277  -4.215  -1.639  0.00  0.00     0.418 HD
ENDBRANCH   4   7
TORSDOF 1
ENDMDL
