MODEL 1
REMARK minimizedAffinity -2.57915807
REMARK minimizedRMSD -1
REMARK  1 active torsions:
REMARK  status: ('A' for Active; 'I' for Inactive)
REMARK    1  A    between atoms: C3_4  and  O_7 
ROOT
ATOM      1  C   UNL d   1       1.889  -1.334   0.275  0.00  0.00    -0.033 A 
ATOM      2  C1  UNL d   1       0.611  -1.894   0.240  0.00  0.00     0.039 A 
ATOM      3  C2  UNL d   1      -0.515  -1.069   0.199  0.00  0.00    -0.080 A 
ATOM      4  C3  UNL d   1      -0.349   0.313   0.191  0.00  0.00     0.150 A 
ATOM      5  C4  UNL d   1       0.922   0.879   0.222  0.00  0.00    -0.007 A 
ATOM      6  C5  UNL d   1       2.045   0.053   0.264  0.00  0.00     0.039 A 
ENDROOT
BRANCH   4   7
ATOM      7  O   UNL d   1      -1.417   1.159   0.156  0.00  0.00    -0.526 OA
ATOM      8  H5  UNL d   1      -2.231   0.628   0.167  0.00  0.00     0.418 HD
ENDBRANCH   4   7
TORSDOF 1
ENDMDL
