MODEL 1
REMARK minimizedAffinity -2.5864203
REMARK minimizedRMSD -1
REMARK  1 active torsions:
REMARK  status: ('A' for Active; 'I' for Inactive)
REMARK    1  A    between atoms: C3_4  and  O_7 
ROOT
ATOM      1  C   UNL d   1      -0.428   0.725   0.483  0.00  0.00    -0.033 A 
ATOM      2  C1  UNL d   1      -0.193  -0.455   1.191  0.00  0.00     0.039 A 
ATOM      3  C2  UNL d   1       0.104  -1.635   0.506  0.00  0.00    -0.080 A 
ATOM      4  C3  UNL d   1       0.164  -1.621  -0.885  0.00  0.00     0.150 A 
ATOM      5  C4  UNL d   1      -0.065  -0.447  -1.597  0.00  0.00    -0.007 A 
ATOM      6  C5  UNL d   1      -0.363   0.729  -0.911  0.00  0.00     0.039 A 
ENDROOT
BRANCH   4   7
ATOM      7  O   UNL d   1       0.445  -2.748  -1.598  0.00  0.00    -0.526 OA
ATOM      8  H5  UNL d   1       0.552  -3.487  -0.976  0.00  0.00     0.418 HD
ENDBRANCH   4   7
TORSDOF 1
ENDMDL
