MODEL 1
REMARK minimizedAffinity -2.36823773
REMARK minimizedRMSD -1
REMARK  1 active torsions:
REMARK  status: ('A' for Active; 'I' for Inactive)
REMARK    1  A    between atoms: C3_4  and  O_7 
ROOT
ATOM      1  C   UNL d   1      -0.635  -3.781  -2.408  0.00  0.00    -0.033 A 
ATOM      2  C1  UNL d   1      -1.447  -3.733  -1.273  0.00  0.00     0.039 A 
ATOM      3  C2  UNL d   1      -1.240  -2.748  -0.306  0.00  0.00    -0.080 A 
ATOM      4  C3  UNL d   1      -0.220  -1.817  -0.486  0.00  0.00     0.150 A 
ATOM      5  C4  UNL d   1       0.590  -1.857  -1.616  0.00  0.00    -0.007 A 
ATOM      6  C5  UNL d   1       0.382  -2.842  -2.580  0.00  0.00     0.039 A 
ENDROOT
BRANCH   4   7
ATOM      7  O   UNL d   1       0.023  -0.840   0.434  0.00  0.00    -0.526 OA
ATOM      8  H5  UNL d   1      -0.595  -0.954   1.175  0.00  0.00     0.418 HD
ENDBRANCH   4   7
TORSDOF 1
ENDMDL
