MODEL 1
REMARK minimizedAffinity -1.31300569
REMARK minimizedRMSD -1
REMARK  1 active torsions:
REMARK  status: ('A' for Active; 'I' for Inactive)
REMARK    1  A    between atoms: C3_4  and  O_7 
ROOT
ATOM      1  C   UNL d   1      -0.693  -0.750  -0.453  0.00  0.00    -0.033 A 
ATOM      2  C1  UNL d   1      -1.695   0.219  -0.530  0.00  0.00     0.039 A 
ATOM      3  C2  UNL d   1      -1.602   1.385   0.232  0.00  0.00    -0.080 A 
ATOM      4  C3  UNL d   1      -0.502   1.570   1.065  0.00  0.00     0.150 A 
ATOM      5  C4  UNL d   1       0.502   0.611   1.145  0.00  0.00    -0.007 A 
ATOM      6  C5  UNL d   1       0.407  -0.553   0.383  0.00  0.00     0.039 A 
ENDROOT
BRANCH   4   7
ATOM      7  O   UNL d   1      -0.369   2.690   1.832  0.00  0.00    -0.526 OA
ATOM      8  H5  UNL d   1      -1.152   3.250   1.696  0.00  0.00     0.418 HD
ENDBRANCH   4   7
TORSDOF 1
ENDMDL
