MODEL 1
REMARK minimizedAffinity -2.59372687
REMARK minimizedRMSD -1
REMARK  1 active torsions:
REMARK  status: ('A' for Active; 'I' for Inactive)
REMARK    1  A    between atoms: C3_4  and  O_7 
ROOT
ATOM      1  C   UNL d   1      -0.408  -0.014   0.304  0.00  0.00    -0.033 A 
ATOM      2  C1  UNL d   1      -0.124  -1.359   0.553  0.00  0.00     0.039 A 
ATOM      3  C2  UNL d   1      -0.187  -2.291  -0.484  0.00  0.00    -0.080 A 
ATOM      4  C3  UNL d   1      -0.533  -1.867  -1.764  0.00  0.00     0.150 A 
ATOM      5  C4  UNL d   1      -0.813  -0.529  -2.020  0.00  0.00    -0.007 A 
ATOM      6  C5  UNL d   1      -0.751   0.401  -0.983  0.00  0.00     0.039 A 
ENDROOT
BRANCH   4   7
ATOM      7  O   UNL d   1      -0.612  -2.741  -2.808  0.00  0.00    -0.526 OA
ATOM      8  H5  UNL d   1      -0.421  -3.634  -2.476  0.00  0.00     0.418 HD
ENDBRANCH   4   7
TORSDOF 1
ENDMDL
