MODEL 1
REMARK minimizedAffinity -3.21266127
REMARK minimizedRMSD -1
REMARK  1 active torsions:
REMARK  status: ('A' for Active; 'I' for Inactive)
REMARK    1  A    between atoms: C3_4  and  O_7 
ROOT
ATOM      1  C   UNL d   1      -0.918   1.356  -0.027  0.00  0.00    -0.033 A 
ATOM      2  C1  UNL d   1      -0.820   2.622   0.553  0.00  0.00     0.039 A 
ATOM      3  C2  UNL d   1       0.413   3.088   1.015  0.00  0.00    -0.080 A 
ATOM      4  C3  UNL d   1       1.539   2.278   0.891  0.00  0.00     0.150 A 
ATOM      5  C4  UNL d   1       1.449   1.017   0.311  0.00  0.00    -0.007 A 
ATOM      6  C5  UNL d   1       0.217   0.554  -0.149  0.00  0.00     0.039 A 
ENDROOT
BRANCH   4   7
ATOM      7  O   UNL d   1       2.762   2.687   1.332  0.00  0.00    -0.526 OA
ATOM      8  H5  UNL d   1       2.666   3.566   1.735  0.00  0.00     0.418 HD
ENDBRANCH   4   7
TORSDOF 1
ENDMDL
