MODEL 1
REMARK minimizedAffinity -5.39531803
REMARK minimizedRMSD -1
REMARK  1 active torsions:
REMARK  status: ('A' for Active; 'I' for Inactive)
REMARK    1  A    between atoms: C3_4  and  O_7 
ROOT
ATOM      1  C   UNL d   1       1.184  -0.263   0.435  0.00  0.00    -0.033 A 
ATOM      2  C1  UNL d   1      -0.200  -0.085   0.490  0.00  0.00     0.039 A 
ATOM      3  C2  UNL d   1      -0.767   1.124   0.080  0.00  0.00    -0.080 A 
ATOM      4  C3  UNL d   1       0.059   2.144  -0.383  0.00  0.00     0.150 A 
ATOM      5  C4  UNL d   1       1.438   1.972  -0.445  0.00  0.00    -0.007 A 
ATOM      6  C5  UNL d   1       2.003   0.765  -0.034  0.00  0.00     0.039 A 
ENDROOT
BRANCH   4   7
ATOM      7  O   UNL d   1      -0.448   3.342  -0.789  0.00  0.00    -0.526 OA
ATOM      8  H5  UNL d   1      -1.411   3.327  -0.664  0.00  0.00     0.418 HD
ENDBRANCH   4   7
TORSDOF 1
ENDMDL
