MODEL 1
REMARK minimizedAffinity -0.375418991
REMARK minimizedRMSD -1
REMARK  1 active torsions:
REMARK  status: ('A' for Active; 'I' for Inactive)
REMARK    1  A    between atoms: C3_4  and  O_7 
ROOT
ATOM      1  C   UNL d   1       0.272   2.496   1.151  0.00  0.00    -0.033 A 
ATOM      2  C1  UNL d   1      -0.969   1.912   0.889  0.00  0.00     0.039 A 
ATOM      3  C2  UNL d   1      -1.038   0.617   0.372  0.00  0.00    -0.080 A 
ATOM      4  C3  UNL d   1       0.139  -0.083   0.123  0.00  0.00     0.150 A 
ATOM      5  C4  UNL d   1       1.379   0.491   0.386  0.00  0.00    -0.007 A 
ATOM      6  C5  UNL d   1       1.446   1.785   0.901  0.00  0.00     0.039 A 
ENDROOT
BRANCH   4   7
ATOM      7  O   UNL d   1       0.122  -1.348  -0.385  0.00  0.00    -0.526 OA
ATOM      8  H5  UNL d   1      -0.802  -1.603  -0.544  0.00  0.00     0.418 HD
ENDBRANCH   4   7
TORSDOF 1
ENDMDL
