MODEL 1
REMARK minimizedAffinity -4.08967447
REMARK minimizedRMSD -1
REMARK  1 active torsions:
REMARK  status: ('A' for Active; 'I' for Inactive)
REMARK    1  A    between atoms: C3_4  and  O_7 
ROOT
ATOM      1  C   UNL d   1      -0.669  -0.346   0.462  0.00  0.00    -0.033 A 
ATOM      2  C1  UNL d   1       0.555   0.046  -0.083  0.00  0.00     0.039 A 
ATOM      3  C2  UNL d   1       0.801   1.393  -0.356  0.00  0.00    -0.080 A 
ATOM      4  C3  UNL d   1      -0.184   2.337  -0.078  0.00  0.00     0.150 A 
ATOM      5  C4  UNL d   1      -1.404   1.954   0.469  0.00  0.00    -0.007 A 
ATOM      6  C5  UNL d   1      -1.648   0.609   0.740  0.00  0.00     0.039 A 
ENDROOT
BRANCH   4   7
ATOM      7  O   UNL d   1       0.008   3.663  -0.332  0.00  0.00    -0.526 OA
ATOM      8  H5  UNL d   1       0.885   3.775  -0.736  0.00  0.00     0.418 HD
ENDBRANCH   4   7
TORSDOF 1
ENDMDL
