MODEL 1
REMARK minimizedAffinity 3.49516654
REMARK minimizedRMSD -1
REMARK  1 active torsions:
REMARK  status: ('A' for Active; 'I' for Inactive)
REMARK    1  A    between atoms: C1_2  and  C2_3 
ROOT
ATOM      1  C2  UNL d   1      -3.694  -0.177  -3.157  0.00  0.00    -0.077 A 
ATOM      2  C3  UNL d   1      -2.383   0.173  -3.508  0.00  0.00     0.002 A 
ATOM      3  C4  UNL d   1      -2.143   0.990  -4.615  0.00  0.00     0.002 A 
ATOM      4  C5  UNL d   1      -3.208   1.468  -5.375  0.00  0.00    -0.004 A 
ATOM      5  C6  UNL d   1      -4.516   1.124  -5.035  0.00  0.00     0.002 A 
ATOM      6  C7  UNL d   1      -4.758   0.306  -3.930  0.00  0.00     0.002 A 
ENDROOT
BRANCH   1   7
ATOM      7  C1  UNL d   1      -3.959  -1.017  -1.935  0.00  0.00     0.055 C 
ATOM      8  C   UNL d   1      -4.606  -0.197  -0.828  0.00  0.00     0.019 C 
ENDBRANCH   1   7
TORSDOF 1
ENDMDL
