MODEL 1
REMARK minimizedAffinity 5.778543
REMARK minimizedRMSD -1
REMARK  1 active torsions:
REMARK  status: ('A' for Active; 'I' for Inactive)
REMARK    1  A    between atoms: C1_2  and  C2_3 
ROOT
ATOM      1  C2  UNL d   1       3.650  -0.632  -1.258  0.00  0.00    -0.077 A 
ATOM      2  C3  UNL d   1       2.853  -1.511  -0.511  0.00  0.00     0.002 A 
ATOM      3  C4  UNL d   1       2.484  -2.751  -1.036  0.00  0.00     0.002 A 
ATOM      4  C5  UNL d   1       2.911  -3.125  -2.309  0.00  0.00    -0.004 A 
ATOM      5  C6  UNL d   1       3.703  -2.257  -3.061  0.00  0.00     0.002 A 
ATOM      6  C7  UNL d   1       4.071  -1.017  -2.538  0.00  0.00     0.002 A 
ENDROOT
BRANCH   1   7
ATOM      7  C1  UNL d   1       4.089   0.685  -0.674  0.00  0.00     0.055 C 
ATOM      8  C   UNL d   1       5.568   0.666  -0.317  0.00  0.00     0.019 C 
ENDBRANCH   1   7
TORSDOF 1
ENDMDL
