MODEL 1
REMARK minimizedAffinity -0.740229666
REMARK minimizedRMSD -1
REMARK  1 active torsions:
REMARK  status: ('A' for Active; 'I' for Inactive)
REMARK    1  A    between atoms: C1_2  and  C2_3 
ROOT
ATOM      1  C2  UNL d   1       4.717   2.086  -0.656  0.00  0.00    -0.077 A 
ATOM      2  C3  UNL d   1       4.640   3.244  -1.442  0.00  0.00     0.002 A 
ATOM      3  C4  UNL d   1       5.235   4.431  -1.011  0.00  0.00     0.002 A 
ATOM      4  C5  UNL d   1       5.916   4.470   0.204  0.00  0.00    -0.004 A 
ATOM      5  C6  UNL d   1       5.996   3.324   0.994  0.00  0.00     0.002 A 
ATOM      6  C7  UNL d   1       5.400   2.137   0.566  0.00  0.00     0.002 A 
ENDROOT
BRANCH   1   7
ATOM      7  C1  UNL d   1       4.117   0.792  -1.141  0.00  0.00     0.055 C 
ATOM      8  C   UNL d   1       4.752  -0.406  -0.450  0.00  0.00     0.019 C 
ENDBRANCH   1   7
TORSDOF 1
ENDMDL
