MODEL 1
REMARK minimizedAffinity 5.93656445
REMARK minimizedRMSD -1
REMARK  1 active torsions:
REMARK  status: ('A' for Active; 'I' for Inactive)
REMARK    1  A    between atoms: C1_2  and  C2_3 
ROOT
ATOM      1  C2  UNL d   1       3.359  -0.197  -0.411  0.00  0.00    -0.077 A 
ATOM      2  C3  UNL d   1       3.641   1.115  -0.818  0.00  0.00     0.002 A 
ATOM      3  C4  UNL d   1       4.957   1.584  -0.826  0.00  0.00     0.002 A 
ATOM      4  C5  UNL d   1       5.999   0.746  -0.434  0.00  0.00    -0.004 A 
ATOM      5  C6  UNL d   1       5.728  -0.559  -0.027  0.00  0.00     0.002 A 
ATOM      6  C7  UNL d   1       4.414  -1.029  -0.016  0.00  0.00     0.002 A 
ENDROOT
BRANCH   1   7
ATOM      7  C1  UNL d   1       1.946  -0.720  -0.448  0.00  0.00     0.055 C 
ATOM      8  C   UNL d   1       0.934   0.414  -0.380  0.00  0.00     0.019 C 
ENDBRANCH   1   7
TORSDOF 1
ENDMDL
