MODEL 1
REMARK minimizedAffinity 11.6785631
REMARK minimizedRMSD -1
REMARK  1 active torsions:
REMARK  status: ('A' for Active; 'I' for Inactive)
REMARK    1  A    between atoms: C1_2  and  C2_3 
ROOT
ATOM      1  C2  UNL d   1       1.837   0.215  -0.133  0.00  0.00    -0.077 A 
ATOM      2  C3  UNL d   1       0.834   0.844  -0.883  0.00  0.00     0.002 A 
ATOM      3  C4  UNL d   1      -0.254   1.444  -0.245  0.00  0.00     0.002 A 
ATOM      4  C5  UNL d   1      -0.346   1.424   1.145  0.00  0.00    -0.004 A 
ATOM      5  C6  UNL d   1       0.646   0.799   1.900  0.00  0.00     0.002 A 
ATOM      6  C7  UNL d   1       1.733   0.198   1.264  0.00  0.00     0.002 A 
ENDROOT
BRANCH   1   7
ATOM      7  C1  UNL d   1       3.036  -0.389  -0.817  0.00  0.00     0.055 C 
ATOM      8  C   UNL d   1       4.203   0.587  -0.852  0.00  0.00     0.019 C 
ENDBRANCH   1   7
TORSDOF 1
ENDMDL
