MODEL 1
REMARK minimizedAffinity 6.80932617
REMARK minimizedRMSD -1
REMARK  1 active torsions:
REMARK  status: ('A' for Active; 'I' for Inactive)
REMARK    1  A    between atoms: C1_2  and  C2_3 
ROOT
ATOM      1  C2  UNL d   1       4.233  -0.182  -0.231  0.00  0.00    -0.077 A 
ATOM      2  C3  UNL d   1       5.506  -0.001   0.326  0.00  0.00     0.002 A 
ATOM      3  C4  UNL d   1       5.985  -0.885   1.296  0.00  0.00     0.002 A 
ATOM      4  C5  UNL d   1       5.198  -1.956   1.713  0.00  0.00    -0.004 A 
ATOM      5  C6  UNL d   1       3.930  -2.143   1.167  0.00  0.00     0.002 A 
ATOM      6  C7  UNL d   1       3.449  -1.261   0.198  0.00  0.00     0.002 A 
ENDROOT
BRANCH   1   7
ATOM      7  C1  UNL d   1       3.735   0.740  -1.313  0.00  0.00     0.055 C 
ATOM      8  C   UNL d   1       4.887   1.448  -2.011  0.00  0.00     0.019 C 
ENDBRANCH   1   7
TORSDOF 1
ENDMDL
