MODEL 1
REMARK minimizedAffinity 7.55319929
REMARK minimizedRMSD -1
REMARK  1 active torsions:
REMARK  status: ('A' for Active; 'I' for Inactive)
REMARK    1  A    between atoms: C1_2  and  C2_3 
ROOT
ATOM      1  C2  UNL d   1      -0.237   3.488   1.940  0.00  0.00    -0.077 A 
ATOM      2  C3  UNL d   1      -1.272   3.189   1.043  0.00  0.00     0.002 A 
ATOM      3  C4  UNL d   1      -1.554   1.864   0.706  0.00  0.00     0.002 A 
ATOM      4  C5  UNL d   1      -0.809   0.828   1.263  0.00  0.00    -0.004 A 
ATOM      5  C6  UNL d   1       0.224   1.114   2.155  0.00  0.00     0.002 A 
ATOM      6  C7  UNL d   1       0.508   2.438   2.493  0.00  0.00     0.002 A 
ENDROOT
BRANCH   1   7
ATOM      7  C1  UNL d   1       0.037   4.913   2.344  0.00  0.00     0.055 C 
ATOM      8  C   UNL d   1       1.326   5.024   3.144  0.00  0.00     0.019 C 
ENDBRANCH   1   7
TORSDOF 1
ENDMDL
