MODEL 1
REMARK minimizedAffinity 8.68377876
REMARK minimizedRMSD -1
REMARK  2 active torsions:
REMARK  status: ('A' for Active; 'I' for Inactive)
REMARK    1  A    between atoms: C1_2  and  C2_3 
REMARK    2  A    between atoms: C2_3  and  C3_4 
ROOT
ATOM      1  C3  UNL d   1       1.785   0.326   0.392  0.00  0.00    -0.075 A 
ATOM      2  C4  UNL d   1       0.691   0.926  -0.248  0.00  0.00     0.002 A 
ATOM      3  C5  UNL d   1      -0.433   1.312   0.484  0.00  0.00     0.002 A 
ATOM      4  C6  UNL d   1      -0.481   1.093   1.859  0.00  0.00    -0.004 A 
ATOM      5  C7  UNL d   1       0.594   0.483   2.502  0.00  0.00     0.002 A 
ATOM      6  C8  UNL d   1       1.721   0.100   1.773  0.00  0.00     0.002 A 
ENDROOT
BRANCH   1   7
ATOM      7  C2  UNL d   1       3.016  -0.067  -0.390  0.00  0.00     0.056 C 
BRANCH   7   8
ATOM      8  C1  UNL d   1       4.298   0.637   0.070  0.00  0.00     0.007 C 
ATOM      9  C   UNL d   1       4.932   1.497  -1.015  0.00  0.00     0.009 C 
ENDBRANCH   7   8
ENDBRANCH   1   7
TORSDOF 2
ENDMDL
