MODEL 1
REMARK minimizedAffinity 13.5998707
REMARK minimizedRMSD -1
REMARK  2 active torsions:
REMARK  status: ('A' for Active; 'I' for Inactive)
REMARK    1  A    between atoms: C1_2  and  C2_3 
REMARK    2  A    between atoms: C2_3  and  C3_4 
ROOT
ATOM      1  C3  UNL d   1      -1.124  -4.461  -2.158  0.00  0.00    -0.075 A 
ATOM      2  C4  UNL d   1      -0.260  -3.421  -2.530  0.00  0.00     0.002 A 
ATOM      3  C5  UNL d   1       0.888  -3.152  -1.784  0.00  0.00     0.002 A 
ATOM      4  C6  UNL d   1       1.180  -3.911  -0.652  0.00  0.00    -0.004 A 
ATOM      5  C7  UNL d   1       0.320  -4.936  -0.264  0.00  0.00     0.002 A 
ATOM      6  C8  UNL d   1      -0.827  -5.210  -1.012  0.00  0.00     0.002 A 
ENDROOT
BRANCH   1   7
ATOM      7  C2  UNL d   1      -2.352  -4.776  -2.978  0.00  0.00     0.056 C 
BRANCH   7   8
ATOM      8  C1  UNL d   1      -2.197  -5.998  -3.890  0.00  0.00     0.007 C 
ATOM      9  C   UNL d   1      -3.168  -6.000  -5.062  0.00  0.00     0.009 C 
ENDBRANCH   7   8
ENDBRANCH   1   7
TORSDOF 2
ENDMDL
