MODEL 1
REMARK minimizedAffinity 6.98985815
REMARK minimizedRMSD -1
REMARK  2 active torsions:
REMARK  status: ('A' for Active; 'I' for Inactive)
REMARK    1  A    between atoms: C1_2  and  C2_3 
REMARK    2  A    between atoms: C2_3  and  C3_4 
ROOT
ATOM      1  C3  UNL d   1       1.683  -2.240  -0.526  0.00  0.00    -0.075 A 
ATOM      2  C4  UNL d   1       0.928  -2.065  -1.695  0.00  0.00     0.002 A 
ATOM      3  C5  UNL d   1      -0.160  -2.896  -1.966  0.00  0.00     0.002 A 
ATOM      4  C6  UNL d   1      -0.500  -3.915  -1.080  0.00  0.00    -0.004 A 
ATOM      5  C7  UNL d   1       0.253  -4.109   0.076  0.00  0.00     0.002 A 
ATOM      6  C8  UNL d   1       1.340  -3.276   0.353  0.00  0.00     0.002 A 
ENDROOT
BRANCH   1   7
ATOM      7  C2  UNL d   1       2.843  -1.326  -0.212  0.00  0.00     0.056 C 
BRANCH   7   8
ATOM      8  C1  UNL d   1       2.801   0.014  -0.954  0.00  0.00     0.007 C 
ATOM      9  C   UNL d   1       4.154   0.708  -1.018  0.00  0.00     0.009 C 
ENDBRANCH   7   8
ENDBRANCH   1   7
TORSDOF 2
ENDMDL
