MODEL 1
REMARK minimizedAffinity 1.71765554
REMARK minimizedRMSD -1
REMARK  2 active torsions:
REMARK  status: ('A' for Active; 'I' for Inactive)
REMARK    1  A    between atoms: C1_2  and  C2_3 
REMARK    2  A    between atoms: C2_3  and  C3_4 
ROOT
ATOM      1  C3  UNL d   1       2.507  -1.353  -0.716  0.00  0.00    -0.075 A 
ATOM      2  C4  UNL d   1       3.532  -1.344  -1.673  0.00  0.00     0.002 A 
ATOM      3  C5  UNL d   1       4.351  -0.225  -1.824  0.00  0.00     0.002 A 
ATOM      4  C6  UNL d   1       4.149   0.902  -1.029  0.00  0.00    -0.004 A 
ATOM      5  C7  UNL d   1       3.123   0.911  -0.087  0.00  0.00     0.002 A 
ATOM      6  C8  UNL d   1       2.305  -0.210   0.069  0.00  0.00     0.002 A 
ENDROOT
BRANCH   1   7
ATOM      7  C2  UNL d   1       1.636  -2.572  -0.527  0.00  0.00     0.056 C 
BRANCH   7   8
ATOM      8  C1  UNL d   1       0.358  -2.562  -1.373  0.00  0.00     0.007 C 
ATOM      9  C   UNL d   1      -0.550  -3.755  -1.102  0.00  0.00     0.009 C 
ENDBRANCH   7   8
ENDBRANCH   1   7
TORSDOF 2
ENDMDL
