MODEL 1
REMARK minimizedAffinity 6.50059032
REMARK minimizedRMSD -1
REMARK  2 active torsions:
REMARK  status: ('A' for Active; 'I' for Inactive)
REMARK    1  A    between atoms: C1_2  and  C2_3 
REMARK    2  A    between atoms: C2_3  and  C3_4 
ROOT
ATOM      1  C3  UNL d   1       1.383   0.662  -0.213  0.00  0.00    -0.075 A 
ATOM      2  C4  UNL d   1       0.208   1.040  -0.879  0.00  0.00     0.002 A 
ATOM      3  C5  UNL d   1      -0.729   1.861  -0.252  0.00  0.00     0.002 A 
ATOM      4  C6  UNL d   1      -0.509   2.306   1.050  0.00  0.00    -0.004 A 
ATOM      5  C7  UNL d   1       0.646   1.923   1.727  0.00  0.00     0.002 A 
ATOM      6  C8  UNL d   1       1.588   1.105   1.100  0.00  0.00     0.002 A 
ENDROOT
BRANCH   1   7
ATOM      7  C2  UNL d   1       2.415  -0.203  -0.897  0.00  0.00     0.056 C 
BRANCH   7   8
ATOM      8  C1  UNL d   1       3.861   0.134  -0.518  0.00  0.00     0.007 C 
ATOM      9  C   UNL d   1       4.612   0.875  -1.616  0.00  0.00     0.009 C 
ENDBRANCH   7   8
ENDBRANCH   1   7
TORSDOF 2
ENDMDL
