MODEL 1
REMARK minimizedAffinity 4.51708126
REMARK minimizedRMSD -1
REMARK  2 active torsions:
REMARK  status: ('A' for Active; 'I' for Inactive)
REMARK    1  A    between atoms: C1_2  and  C2_3 
REMARK    2  A    between atoms: C2_3  and  C3_4 
ROOT
ATOM      1  C3  UNL d   1      -3.222   0.806  -0.244  0.00  0.00    -0.075 A 
ATOM      2  C4  UNL d   1      -2.998   1.498   0.956  0.00  0.00     0.002 A 
ATOM      3  C5  UNL d   1      -1.735   2.010   1.253  0.00  0.00     0.002 A 
ATOM      4  C6  UNL d   1      -0.679   1.828   0.363  0.00  0.00    -0.004 A 
ATOM      5  C7  UNL d   1      -0.886   1.128  -0.824  0.00  0.00     0.002 A 
ATOM      6  C8  UNL d   1      -2.150   0.619  -1.126  0.00  0.00     0.002 A 
ENDROOT
BRANCH   1   7
ATOM      7  C2  UNL d   1      -4.594   0.275  -0.585  0.00  0.00     0.056 C 
BRANCH   7   8
ATOM      8  C1  UNL d   1      -5.745   1.100   0.000  0.00  0.00     0.007 C 
ATOM      9  C   UNL d   1      -6.000   2.397  -0.756  0.00  0.00     0.009 C 
ENDBRANCH   7   8
ENDBRANCH   1   7
TORSDOF 2
ENDMDL
