MODEL 1
REMARK minimizedAffinity 3.32002711
REMARK minimizedRMSD -1
REMARK  2 active torsions:
REMARK  status: ('A' for Active; 'I' for Inactive)
REMARK    1  A    between atoms: C1_2  and  C2_3 
REMARK    2  A    between atoms: C2_3  and  C3_4 
ROOT
ATOM      1  C3  UNL d   1       3.547  -1.654  -1.438  0.00  0.00    -0.075 A 
ATOM      2  C4  UNL d   1       3.213  -2.367  -2.598  0.00  0.00     0.002 A 
ATOM      3  C5  UNL d   1       2.266  -3.390  -2.552  0.00  0.00     0.002 A 
ATOM      4  C6  UNL d   1       1.650  -3.720  -1.347  0.00  0.00    -0.004 A 
ATOM      5  C7  UNL d   1       1.987  -3.029  -0.185  0.00  0.00     0.002 A 
ATOM      6  C8  UNL d   1       2.931  -2.002  -0.228  0.00  0.00     0.002 A 
ENDROOT
BRANCH   1   7
ATOM      7  C2  UNL d   1       4.550  -0.525  -1.486  0.00  0.00     0.056 C 
BRANCH   7   8
ATOM      8  C1  UNL d   1       4.103   0.739  -0.745  0.00  0.00     0.007 C 
ATOM      9  C   UNL d   1       5.266   1.575  -0.228  0.00  0.00     0.009 C 
ENDBRANCH   7   8
ENDBRANCH   1   7
TORSDOF 2
ENDMDL
