MODEL 1
REMARK minimizedAffinity 6.66037798
REMARK minimizedRMSD -1
REMARK  0 active torsions:
REMARK  status: ('A' for Active; 'I' for Inactive)
ROOT
ATOM      1  C   UNL d   1      -1.934  -2.947   0.752  0.00  0.00     0.023 A 
ATOM      2  C1  UNL d   1      -0.692  -2.815   0.131  0.00  0.00     0.003 A 
ATOM      3  C2  UNL d   1      -0.615  -2.649  -1.253  0.00  0.00     0.048 A 
ATOM      4  C3  UNL d   1      -1.785  -2.613  -2.011  0.00  0.00     0.023 A 
ATOM      5  C4  UNL d   1      -3.031  -2.743  -1.394  0.00  0.00     0.048 A 
ATOM      6  C5  UNL d   1      -3.102  -2.910  -0.010  0.00  0.00     0.003 A 
ATOM      7  I   UNL d   1      -1.674  -2.365  -4.071  0.00  0.00    -0.146 I 
ENDROOT
TORSDOF 0
ENDMDL
