MODEL 1
REMARK minimizedAffinity 7.08104801
REMARK minimizedRMSD -1
REMARK  0 active torsions:
REMARK  status: ('A' for Active; 'I' for Inactive)
ROOT
ATOM      1  C   UNL d   1       4.056   0.053  -1.016  0.00  0.00     0.023 A 
ATOM      2  C1  UNL d   1       4.489  -0.070   0.304  0.00  0.00     0.003 A 
ATOM      3  C2  UNL d   1       3.646   0.300   1.354  0.00  0.00     0.048 A 
ATOM      4  C3  UNL d   1       2.371   0.791   1.076  0.00  0.00     0.023 A 
ATOM      5  C4  UNL d   1       1.933   0.915  -0.244  0.00  0.00     0.048 A 
ATOM      6  C5  UNL d   1       2.780   0.545  -1.290  0.00  0.00     0.003 A 
ATOM      7  I   UNL d   1       1.114   1.343   2.636  0.00  0.00    -0.146 I 
ENDROOT
TORSDOF 0
ENDMDL
