MODEL 1
REMARK minimizedAffinity 6.44056654
REMARK minimizedRMSD -1
REMARK  0 active torsions:
REMARK  status: ('A' for Active; 'I' for Inactive)
ROOT
ATOM      1  C   UNL d   1      -6.000  -5.813  -2.556  0.00  0.00     0.023 A 
ATOM      2  C1  UNL d   1      -4.981  -6.000  -1.622  0.00  0.00     0.003 A 
ATOM      3  C2  UNL d   1      -3.957  -5.058  -1.507  0.00  0.00     0.048 A 
ATOM      4  C3  UNL d   1      -3.958  -3.931  -2.327  0.00  0.00     0.023 A 
ATOM      5  C4  UNL d   1      -4.977  -3.739  -3.263  0.00  0.00     0.048 A 
ATOM      6  C5  UNL d   1      -5.998  -4.684  -3.375  0.00  0.00     0.003 A 
ATOM      7  I   UNL d   1      -2.435  -2.527  -2.157  0.00  0.00    -0.146 I 
ENDROOT
TORSDOF 0
ENDMDL
