MODEL 1
REMARK minimizedAffinity 2.41477156
REMARK minimizedRMSD -1
REMARK  0 active torsions:
REMARK  status: ('A' for Active; 'I' for Inactive)
ROOT
ATOM      1  C   UNL d   1       3.625   0.962  -1.351  0.00  0.00     0.023 A 
ATOM      2  C1  UNL d   1       4.110  -0.108  -0.599  0.00  0.00     0.003 A 
ATOM      3  C2  UNL d   1       3.531  -0.416   0.634  0.00  0.00     0.048 A 
ATOM      4  C3  UNL d   1       2.466   0.349   1.108  0.00  0.00     0.023 A 
ATOM      5  C4  UNL d   1       1.976   1.420   0.358  0.00  0.00     0.048 A 
ATOM      6  C5  UNL d   1       2.560   1.725  -0.873  0.00  0.00     0.003 A 
ATOM      7  I   UNL d   1       1.601  -0.108   2.942  0.00  0.00    -0.146 I 
ENDROOT
TORSDOF 0
ENDMDL
