MODEL 1
REMARK minimizedAffinity 6.44580889
REMARK minimizedRMSD -1
REMARK  0 active torsions:
REMARK  status: ('A' for Active; 'I' for Inactive)
ROOT
ATOM      1  C   UNL d   1       4.906  -0.568   0.645  0.00  0.00     0.023 A 
ATOM      2  C1  UNL d   1       3.754  -0.162  -0.028  0.00  0.00     0.003 A 
ATOM      3  C2  UNL d   1       2.669   0.348   0.688  0.00  0.00     0.048 A 
ATOM      4  C3  UNL d   1       2.743   0.450   2.077  0.00  0.00     0.023 A 
ATOM      5  C4  UNL d   1       3.895   0.046   2.755  0.00  0.00     0.048 A 
ATOM      6  C5  UNL d   1       4.977  -0.464   2.035  0.00  0.00     0.003 A 
ATOM      7  I   UNL d   1       1.129   1.209   3.145  0.00  0.00    -0.146 I 
ENDROOT
TORSDOF 0
ENDMDL
