MODEL 1
REMARK minimizedAffinity -0.492311805
REMARK minimizedRMSD -1
REMARK  0 active torsions:
REMARK  status: ('A' for Active; 'I' for Inactive)
ROOT
ATOM      1  C   UNL d   1       5.058   0.610   0.214  0.00  0.00     0.023 A 
ATOM      2  C1  UNL d   1       5.231  -0.199   1.337  0.00  0.00     0.003 A 
ATOM      3  C2  UNL d   1       4.217  -0.295   2.293  0.00  0.00     0.048 A 
ATOM      4  C3  UNL d   1       3.033   0.421   2.119  0.00  0.00     0.023 A 
ATOM      5  C4  UNL d   1       2.855   1.231   0.996  0.00  0.00     0.048 A 
ATOM      6  C5  UNL d   1       3.871   1.324   0.043  0.00  0.00     0.003 A 
ATOM      7  I   UNL d   1       1.523   0.279   3.540  0.00  0.00    -0.146 I 
ENDROOT
TORSDOF 0
ENDMDL
