MODEL 1
REMARK minimizedAffinity 2.78525472
REMARK minimizedRMSD -1
REMARK  0 active torsions:
REMARK  status: ('A' for Active; 'I' for Inactive)
ROOT
ATOM      1  C   UNL d   1       3.874   0.401   0.255  0.00  0.00     0.023 A 
ATOM      2  C1  UNL d   1       4.198  -0.150   1.495  0.00  0.00     0.003 A 
ATOM      3  C2  UNL d   1       3.356   0.051   2.590  0.00  0.00     0.048 A 
ATOM      4  C3  UNL d   1       2.191   0.803   2.439  0.00  0.00     0.023 A 
ATOM      5  C4  UNL d   1       1.863   1.355   1.200  0.00  0.00     0.048 A 
ATOM      6  C5  UNL d   1       2.709   1.153   0.107  0.00  0.00     0.003 A 
ATOM      7  I   UNL d   1       0.936   1.103   4.068  0.00  0.00    -0.146 I 
ENDROOT
TORSDOF 0
ENDMDL
