MODEL 1
REMARK minimizedAffinity 3.34794402
REMARK minimizedRMSD -1
REMARK  0 active torsions:
REMARK  status: ('A' for Active; 'I' for Inactive)
ROOT
ATOM      1  C   UNL d   1      -1.273  -3.022  -0.176  0.00  0.00     0.023 A 
ATOM      2  C1  UNL d   1      -0.158  -3.424  -0.910  0.00  0.00     0.003 A 
ATOM      3  C2  UNL d   1      -0.162  -3.318  -2.303  0.00  0.00     0.048 A 
ATOM      4  C3  UNL d   1      -1.285  -2.809  -2.954  0.00  0.00     0.023 A 
ATOM      5  C4  UNL d   1      -2.403  -2.405  -2.223  0.00  0.00     0.048 A 
ATOM      6  C5  UNL d   1      -2.395  -2.513  -0.831  0.00  0.00     0.003 A 
ATOM      7  I   UNL d   1      -1.293  -2.650  -5.026  0.00  0.00    -0.146 I 
ENDROOT
TORSDOF 0
ENDMDL
