MODEL 1
REMARK minimizedAffinity 10.0109482
REMARK minimizedRMSD -1
REMARK  0 active torsions:
REMARK  status: ('A' for Active; 'I' for Inactive)
ROOT
ATOM      1  C   UNL d   1       3.285   0.488   0.936  0.00  0.00     0.023 A 
ATOM      2  C1  UNL d   1       4.345  -0.129   0.272  0.00  0.00     0.003 A 
ATOM      3  C2  UNL d   1       4.639   0.216  -1.049  0.00  0.00     0.048 A 
ATOM      4  C3  UNL d   1       3.868   1.179  -1.699  0.00  0.00     0.023 A 
ATOM      5  C4  UNL d   1       2.807   1.799  -1.038  0.00  0.00     0.048 A 
ATOM      6  C5  UNL d   1       2.516   1.450   0.282  0.00  0.00     0.003 A 
ATOM      7  I   UNL d   1       4.304   1.695  -3.665  0.00  0.00    -0.146 I 
ENDROOT
TORSDOF 0
ENDMDL
