MODEL 1
REMARK minimizedAffinity 1.51403487
REMARK minimizedRMSD -1
REMARK  0 active torsions:
REMARK  status: ('A' for Active; 'I' for Inactive)
ROOT
ATOM      1  C   UNL d   1       4.818  -0.011   1.106  0.00  0.00     0.023 A 
ATOM      2  C1  UNL d   1       3.601   0.659   0.973  0.00  0.00     0.003 A 
ATOM      3  C2  UNL d   1       3.561   2.053   1.032  0.00  0.00     0.048 A 
ATOM      4  C3  UNL d   1       4.741   2.772   1.222  0.00  0.00     0.023 A 
ATOM      5  C4  UNL d   1       5.960   2.106   1.354  0.00  0.00     0.048 A 
ATOM      6  C5  UNL d   1       5.996   0.711   1.295  0.00  0.00     0.003 A 
ATOM      7  I   UNL d   1       4.683   4.848   1.309  0.00  0.00    -0.146 I 
ENDROOT
TORSDOF 0
ENDMDL
