MODEL 1
REMARK minimizedAffinity -0.249486864
REMARK minimizedRMSD -1
REMARK  0 active torsions:
REMARK  status: ('A' for Active; 'I' for Inactive)
ROOT
ATOM      1  C   UNL d   1      -1.869  -3.222  -0.945  0.00  0.00     0.023 A 
ATOM      2  C1  UNL d   1      -0.616  -3.347  -1.545  0.00  0.00     0.003 A 
ATOM      3  C2  UNL d   1      -0.472  -3.131  -2.917  0.00  0.00     0.048 A 
ATOM      4  C3  UNL d   1      -1.586  -2.789  -3.683  0.00  0.00     0.023 A 
ATOM      5  C4  UNL d   1      -2.842  -2.662  -3.087  0.00  0.00     0.048 A 
ATOM      6  C5  UNL d   1      -2.980  -2.880  -1.715  0.00  0.00     0.003 A 
ATOM      7  I   UNL d   1      -1.376  -2.467  -5.725  0.00  0.00    -0.146 I 
ENDROOT
TORSDOF 0
ENDMDL
