MODEL 1
REMARK minimizedAffinity 2.55802989
REMARK minimizedRMSD -1
REMARK  0 active torsions:
REMARK  status: ('A' for Active; 'I' for Inactive)
ROOT
ATOM      1  C   UNL d   1      -0.885  -2.237  -2.184  0.00  0.00     0.023 A 
ATOM      2  C1  UNL d   1      -1.733  -2.611  -1.142  0.00  0.00     0.003 A 
ATOM      3  C2  UNL d   1      -2.934  -3.267  -1.419  0.00  0.00     0.048 A 
ATOM      4  C3  UNL d   1      -3.281  -3.547  -2.741  0.00  0.00     0.023 A 
ATOM      5  C4  UNL d   1      -2.434  -3.176  -3.787  0.00  0.00     0.048 A 
ATOM      6  C5  UNL d   1      -1.235  -2.519  -3.505  0.00  0.00     0.003 A 
ATOM      7  I   UNL d   1      -5.068  -4.524  -3.155  0.00  0.00    -0.146 I 
ENDROOT
TORSDOF 0
ENDMDL
