MODEL 1
REMARK minimizedAffinity 1.25719774
REMARK minimizedRMSD -1
REMARK  0 active torsions:
REMARK  status: ('A' for Active; 'I' for Inactive)
ROOT
ATOM      1  C   UNL d   1      -2.241  -2.685   0.454  0.00  0.00     0.023 A 
ATOM      2  C1  UNL d   1      -3.117  -3.095  -0.552  0.00  0.00     0.003 A 
ATOM      3  C2  UNL d   1      -2.675  -3.175  -1.874  0.00  0.00     0.048 A 
ATOM      4  C3  UNL d   1      -1.357  -2.844  -2.184  0.00  0.00     0.023 A 
ATOM      5  C4  UNL d   1      -0.477  -2.434  -1.181  0.00  0.00     0.048 A 
ATOM      6  C5  UNL d   1      -0.923  -2.355   0.140  0.00  0.00     0.003 A 
ATOM      7  I   UNL d   1      -0.697  -2.962  -4.151  0.00  0.00    -0.146 I 
ENDROOT
TORSDOF 0
ENDMDL
