MODEL 1
REMARK minimizedAffinity 1.48252451
REMARK minimizedRMSD -1
REMARK  0 active torsions:
REMARK  status: ('A' for Active; 'I' for Inactive)
ROOT
ATOM      1  C   UNL d   1      -5.995   4.311  -5.702  0.00  0.00     0.020 A 
ATOM      2  C1  UNL d   1      -5.997   4.766  -4.384  0.00  0.00     0.020 A 
ATOM      3  C2  UNL d   1      -5.998   3.850  -3.330  0.00  0.00     0.034 A 
ATOM      4  C3  UNL d   1      -5.998   2.475  -3.592  0.00  0.00     0.017 A 
ATOM      5  C4  UNL d   1      -5.996   2.020  -4.916  0.00  0.00     0.017 A 
ATOM      6  C5  UNL d   1      -5.995   2.941  -5.967  0.00  0.00     0.034 A 
ATOM      7 Cl   UNL d   1      -5.996   0.339  -5.318  0.00  0.00    -0.070 Cl
ATOM      8 Cl1  UNL d   1      -6.000   1.399  -2.240  0.00  0.00    -0.070 Cl
ENDROOT
TORSDOF 0
ENDMDL
