MODEL 1
REMARK minimizedAffinity 4.3782711
REMARK minimizedRMSD -1
REMARK  0 active torsions:
REMARK  status: ('A' for Active; 'I' for Inactive)
ROOT
ATOM      1  C   UNL d   1       1.727   4.690   0.506  0.00  0.00     0.020 A 
ATOM      2  C1  UNL d   1       0.402   4.892   0.124  0.00  0.00     0.020 A 
ATOM      3  C2  UNL d   1      -0.631   4.281   0.838  0.00  0.00     0.034 A 
ATOM      4  C3  UNL d   1      -0.340   3.463   1.936  0.00  0.00     0.017 A 
ATOM      5  C4  UNL d   1       0.991   3.260   2.318  0.00  0.00     0.017 A 
ATOM      6  C5  UNL d   1       2.021   3.875   1.600  0.00  0.00     0.034 A 
ATOM      7 Cl   UNL d   1       1.428   2.265   3.662  0.00  0.00    -0.070 Cl
ATOM      8 Cl1  UNL d   1      -1.668   2.738   2.772  0.00  0.00    -0.070 Cl
ENDROOT
TORSDOF 0
ENDMDL
