MODEL 1
REMARK minimizedAffinity -1.05271566
REMARK minimizedRMSD -1
REMARK  0 active torsions:
REMARK  status: ('A' for Active; 'I' for Inactive)
ROOT
ATOM      1  C   UNL d   1      -4.639   2.813  -2.123  0.00  0.00     0.020 A 
ATOM      2  C1  UNL d   1      -5.594   3.804  -1.906  0.00  0.00     0.020 A 
ATOM      3  C2  UNL d   1      -5.999   4.627  -2.959  0.00  0.00     0.034 A 
ATOM      4  C3  UNL d   1      -5.447   4.461  -4.234  0.00  0.00     0.017 A 
ATOM      5  C4  UNL d   1      -4.488   3.465  -4.452  0.00  0.00     0.017 A 
ATOM      6  C5  UNL d   1      -4.087   2.643  -3.394  0.00  0.00     0.034 A 
ATOM      7 Cl   UNL d   1      -3.763   3.199  -5.998  0.00  0.00    -0.070 Cl
ATOM      8 Cl1  UNL d   1      -5.994   5.514  -5.490  0.00  0.00    -0.070 Cl
ENDROOT
TORSDOF 0
ENDMDL
