MODEL 1
REMARK minimizedAffinity -1.65845799
REMARK minimizedRMSD -1
REMARK  0 active torsions:
REMARK  status: ('A' for Active; 'I' for Inactive)
ROOT
ATOM      1  C   UNL d   1      -5.935   4.128  -5.660  0.00  0.00     0.020 A 
ATOM      2  C1  UNL d   1      -5.384   5.409  -5.669  0.00  0.00     0.020 A 
ATOM      3  C2  UNL d   1      -4.898   5.968  -4.485  0.00  0.00     0.034 A 
ATOM      4  C3  UNL d   1      -4.962   5.246  -3.288  0.00  0.00     0.017 A 
ATOM      5  C4  UNL d   1      -5.515   3.961  -3.280  0.00  0.00     0.017 A 
ATOM      6  C5  UNL d   1      -6.000   3.405  -4.468  0.00  0.00     0.034 A 
ATOM      7 Cl   UNL d   1      -5.627   3.009  -1.841  0.00  0.00    -0.070 Cl
ATOM      8 Cl1  UNL d   1      -4.341   6.000  -1.862  0.00  0.00    -0.070 Cl
ENDROOT
TORSDOF 0
ENDMDL
