MODEL 1
REMARK minimizedAffinity 5.74399614
REMARK minimizedRMSD -1
REMARK  0 active torsions:
REMARK  status: ('A' for Active; 'I' for Inactive)
ROOT
ATOM      1  C   UNL d   1       0.079  -3.014  -1.476  0.00  0.00     0.020 A 
ATOM      2  C1  UNL d   1       1.238  -2.268  -1.684  0.00  0.00     0.020 A 
ATOM      3  C2  UNL d   1       1.270  -0.916  -1.338  0.00  0.00     0.034 A 
ATOM      4  C3  UNL d   1       0.141  -0.305  -0.780  0.00  0.00     0.017 A 
ATOM      5  C4  UNL d   1      -1.022  -1.054  -0.571  0.00  0.00     0.017 A 
ATOM      6  C5  UNL d   1      -1.049  -2.408  -0.920  0.00  0.00     0.034 A 
ATOM      7 Cl   UNL d   1      -2.455  -0.371   0.112  0.00  0.00    -0.070 Cl
ATOM      8 Cl1  UNL d   1       0.252   1.371  -0.375  0.00  0.00    -0.070 Cl
ENDROOT
TORSDOF 0
ENDMDL
