MODEL 1
REMARK minimizedAffinity -3.21401286
REMARK minimizedRMSD -1
REMARK  0 active torsions:
REMARK  status: ('A' for Active; 'I' for Inactive)
ROOT
ATOM      1  C   UNL d   1      -4.500   2.117  -2.473  0.00  0.00     0.020 A 
ATOM      2  C1  UNL d   1      -4.501   3.296  -1.728  0.00  0.00     0.020 A 
ATOM      3  C2  UNL d   1      -4.968   4.482  -2.299  0.00  0.00     0.034 A 
ATOM      4  C3  UNL d   1      -5.436   4.491  -3.619  0.00  0.00     0.017 A 
ATOM      5  C4  UNL d   1      -5.434   3.307  -4.365  0.00  0.00     0.017 A 
ATOM      6  C5  UNL d   1      -4.966   2.123  -3.788  0.00  0.00     0.034 A 
ATOM      7 Cl   UNL d   1      -5.996   3.240  -5.998  0.00  0.00    -0.070 Cl
ATOM      8 Cl1  UNL d   1      -5.999   5.993  -4.261  0.00  0.00    -0.070 Cl
ENDROOT
TORSDOF 0
ENDMDL
