MODEL 1
REMARK minimizedAffinity -0.868295074
REMARK minimizedRMSD -1
REMARK  0 active torsions:
REMARK  status: ('A' for Active; 'I' for Inactive)
ROOT
ATOM      1  C   UNL d   1       0.651  -3.703  -0.758  0.00  0.00     0.020 A 
ATOM      2  C1  UNL d   1       0.234  -4.355  -1.917  0.00  0.00     0.020 A 
ATOM      3  C2  UNL d   1      -0.159  -3.613  -3.033  0.00  0.00     0.034 A 
ATOM      4  C3  UNL d   1      -0.136  -2.214  -2.992  0.00  0.00     0.017 A 
ATOM      5  C4  UNL d   1       0.283  -1.561  -1.827  0.00  0.00     0.017 A 
ATOM      6  C5  UNL d   1       0.675  -2.309  -0.713  0.00  0.00     0.034 A 
ATOM      7 Cl   UNL d   1       0.338   0.162  -1.701  0.00  0.00    -0.070 Cl
ATOM      8 Cl1  UNL d   1      -0.635  -1.360  -4.408  0.00  0.00    -0.070 Cl
ENDROOT
TORSDOF 0
ENDMDL
