MODEL 1
REMARK minimizedAffinity -3.70271921
REMARK minimizedRMSD -1
REMARK  0 active torsions:
REMARK  status: ('A' for Active; 'I' for Inactive)
ROOT
ATOM      1  C   UNL d   1      -4.878   4.850  -4.230  0.00  0.00     0.020 A 
ATOM      2  C1  UNL d   1      -4.877   4.220  -5.473  0.00  0.00     0.020 A 
ATOM      3  C2  UNL d   1      -5.226   2.871  -5.573  0.00  0.00     0.034 A 
ATOM      4  C3  UNL d   1      -5.577   2.148  -4.427  0.00  0.00     0.017 A 
ATOM      5  C4  UNL d   1      -5.578   2.782  -3.179  0.00  0.00     0.017 A 
ATOM      6  C5  UNL d   1      -5.228   4.132  -3.085  0.00  0.00     0.034 A 
ATOM      7 Cl   UNL d   1      -6.000   1.956  -1.721  0.00  0.00    -0.070 Cl
ATOM      8 Cl1  UNL d   1      -5.998   0.484  -4.625  0.00  0.00    -0.070 Cl
ENDROOT
TORSDOF 0
ENDMDL
