MODEL 1
REMARK minimizedAffinity -3.71771336
REMARK minimizedRMSD -1
REMARK  0 active torsions:
REMARK  status: ('A' for Active; 'I' for Inactive)
ROOT
ATOM      1  C   UNL d   1      -5.782   2.464  -1.782  0.00  0.00     0.020 A 
ATOM      2  C1  UNL d   1      -5.233   3.719  -2.046  0.00  0.00     0.020 A 
ATOM      3  C2  UNL d   1      -4.903   4.076  -3.355  0.00  0.00     0.034 A 
ATOM      4  C3  UNL d   1      -5.121   3.177  -4.405  0.00  0.00     0.017 A 
ATOM      5  C4  UNL d   1      -5.671   1.918  -4.140  0.00  0.00     0.017 A 
ATOM      6  C5  UNL d   1      -6.000   1.566  -2.827  0.00  0.00     0.034 A 
ATOM      7 Cl   UNL d   1      -5.969   0.755  -5.384  0.00  0.00    -0.070 Cl
ATOM      8 Cl1  UNL d   1      -4.689   3.685  -6.000  0.00  0.00    -0.070 Cl
ENDROOT
TORSDOF 0
ENDMDL
