MODEL 1
REMARK minimizedAffinity -3.57113767
REMARK minimizedRMSD -1
REMARK  0 active torsions:
REMARK  status: ('A' for Active; 'I' for Inactive)
ROOT
ATOM      1  C   UNL d   1      -5.595   4.901  -4.508  0.00  0.00     0.020 A 
ATOM      2  C1  UNL d   1      -4.641   4.626  -5.487  0.00  0.00     0.020 A 
ATOM      3  C2  UNL d   1      -4.090   3.347  -5.585  0.00  0.00     0.034 A 
ATOM      4  C3  UNL d   1      -4.494   2.337  -4.703  0.00  0.00     0.017 A 
ATOM      5  C4  UNL d   1      -5.452   2.614  -3.721  0.00  0.00     0.017 A 
ATOM      6  C5  UNL d   1      -6.000   3.897  -3.628  0.00  0.00     0.034 A 
ATOM      7 Cl   UNL d   1      -6.000   1.421  -2.598  0.00  0.00    -0.070 Cl
ATOM      8 Cl1  UNL d   1      -3.771   0.778  -4.882  0.00  0.00    -0.070 Cl
ENDROOT
TORSDOF 0
ENDMDL
