MODEL 1
REMARK minimizedAffinity 5.20033932
REMARK minimizedRMSD -1
REMARK  1 active torsions:
REMARK  status: ('A' for Active; 'I' for Inactive)
REMARK    1  A    between atoms: C1_2  and  C2_3 
ROOT
ATOM      1  C2  UNL d   1       4.904   4.098   2.915  0.00  0.00    -0.077 A 
ATOM      2  C3  UNL d   1       4.584   3.246   1.849  0.00  0.00     0.002 A 
ATOM      3  C4  UNL d   1       4.320   3.768   0.581  0.00  0.00     0.002 A 
ATOM      4  C5  UNL d   1       4.378   5.143   0.367  0.00  0.00    -0.004 A 
ATOM      5  C6  UNL d   1       4.693   6.000   1.421  0.00  0.00     0.002 A 
ATOM      6  C7  UNL d   1       4.956   5.480   2.689  0.00  0.00     0.002 A 
ENDROOT
BRANCH   1   7
ATOM      7  C1  UNL d   1       5.238   3.533   4.271  0.00  0.00     0.055 C 
ATOM      8  C   UNL d   1       5.980   2.210   4.152  0.00  0.00     0.019 C 
ENDBRANCH   1   7
TORSDOF 1
ENDMDL
