MODEL 1
REMARK minimizedAffinity 18.1742935
REMARK minimizedRMSD -1
REMARK  1 active torsions:
REMARK  status: ('A' for Active; 'I' for Inactive)
REMARK    1  A    between atoms: C1_2  and  C2_3 
ROOT
ATOM      1  C2  UNL d   1       0.452   1.684   4.356  0.00  0.00    -0.077 A 
ATOM      2  C3  UNL d   1       1.207   0.563   3.983  0.00  0.00     0.002 A 
ATOM      3  C4  UNL d   1       0.984  -0.061   2.754  0.00  0.00     0.002 A 
ATOM      4  C5  UNL d   1       0.010   0.430   1.888  0.00  0.00    -0.004 A 
ATOM      5  C6  UNL d   1      -0.747   1.542   2.251  0.00  0.00     0.002 A 
ATOM      6  C7  UNL d   1      -0.527   2.167   3.479  0.00  0.00     0.002 A 
ENDROOT
BRANCH   1   7
ATOM      7  C1  UNL d   1       0.724   2.389   5.659  0.00  0.00     0.055 C 
ATOM      8  C   UNL d   1      -0.386   3.372   6.000  0.00  0.00     0.019 C 
ENDBRANCH   1   7
TORSDOF 1
ENDMDL
