MODEL 1
REMARK minimizedAffinity 17.0864353
REMARK minimizedRMSD -1
REMARK  1 active torsions:
REMARK  status: ('A' for Active; 'I' for Inactive)
REMARK    1  A    between atoms: C1_2  and  C2_3 
ROOT
ATOM      1  C2  UNL d   1      -0.120  -0.981   1.551  0.00  0.00    -0.077 A 
ATOM      2  C3  UNL d   1       0.872  -1.694   2.240  0.00  0.00     0.002 A 
ATOM      3  C4  UNL d   1       1.629  -1.070   3.233  0.00  0.00     0.002 A 
ATOM      4  C5  UNL d   1       1.399   0.267   3.550  0.00  0.00    -0.004 A 
ATOM      5  C6  UNL d   1       0.417   0.985   2.870  0.00  0.00     0.002 A 
ATOM      6  C7  UNL d   1      -0.340   0.364   1.875  0.00  0.00     0.002 A 
ENDROOT
BRANCH   1   7
ATOM      7  C1  UNL d   1      -0.971  -1.666   0.514  0.00  0.00     0.055 C 
ATOM      8  C   UNL d   1      -0.151  -2.049  -0.709  0.00  0.00     0.019 C 
ENDBRANCH   1   7
TORSDOF 1
ENDMDL
