MODEL 1
REMARK minimizedAffinity 16.1400318
REMARK minimizedRMSD -1
REMARK  1 active torsions:
REMARK  status: ('A' for Active; 'I' for Inactive)
REMARK    1  A    between atoms: C1_2  and  C2_3 
ROOT
ATOM      1  C2  UNL d   1      -0.375  -0.887   0.979  0.00  0.00    -0.077 A 
ATOM      2  C3  UNL d   1       0.600  -1.571   1.720  0.00  0.00     0.002 A 
ATOM      3  C4  UNL d   1       1.468  -0.872   2.559  0.00  0.00     0.002 A 
ATOM      4  C5  UNL d   1       1.369   0.514   2.670  0.00  0.00    -0.004 A 
ATOM      5  C6  UNL d   1       0.404   1.203   1.936  0.00  0.00     0.002 A 
ATOM      6  C7  UNL d   1      -0.464   0.506   1.095  0.00  0.00     0.002 A 
ENDROOT
BRANCH   1   7
ATOM      7  C1  UNL d   1      -1.345  -1.645   0.111  0.00  0.00     0.055 C 
ATOM      8  C   UNL d   1      -0.719  -2.016  -1.226  0.00  0.00     0.019 C 
ENDBRANCH   1   7
TORSDOF 1
ENDMDL
