MODEL 1
REMARK minimizedAffinity 16.3908367
REMARK minimizedRMSD -1
REMARK  1 active torsions:
REMARK  status: ('A' for Active; 'I' for Inactive)
REMARK    1  A    between atoms: C1_2  and  C2_3 
ROOT
ATOM      1  C2  UNL d   1      -0.446   0.248   1.973  0.00  0.00    -0.077 A 
ATOM      2  C3  UNL d   1      -0.842   1.559   2.271  0.00  0.00     0.002 A 
ATOM      3  C4  UNL d   1      -2.196   1.899   2.302  0.00  0.00     0.002 A 
ATOM      4  C5  UNL d   1      -3.164   0.933   2.040  0.00  0.00    -0.004 A 
ATOM      5  C6  UNL d   1      -2.781  -0.374   1.742  0.00  0.00     0.002 A 
ATOM      6  C7  UNL d   1      -1.428  -0.715   1.709  0.00  0.00     0.002 A 
ENDROOT
BRANCH   1   7
ATOM      7  C1  UNL d   1       1.011  -0.132   1.988  0.00  0.00     0.055 C 
ATOM      8  C   UNL d   1       1.296  -1.195   3.039  0.00  0.00     0.019 C 
ENDBRANCH   1   7
TORSDOF 1
ENDMDL
