MODEL 1
REMARK minimizedAffinity 4.2141943
REMARK minimizedRMSD -1
REMARK  1 active torsions:
REMARK  status: ('A' for Active; 'I' for Inactive)
REMARK    1  A    between atoms: C1_2  and  C2_3 
ROOT
ATOM      1  C2  UNL d   1       4.277   1.382  -5.268  0.00  0.00    -0.077 A 
ATOM      2  C3  UNL d   1       5.141   1.247  -4.173  0.00  0.00     0.002 A 
ATOM      3  C4  UNL d   1       6.000   2.289  -3.818  0.00  0.00     0.002 A 
ATOM      4  C5  UNL d   1       5.999   3.475  -4.551  0.00  0.00    -0.004 A 
ATOM      5  C6  UNL d   1       5.145   3.618  -5.643  0.00  0.00     0.002 A 
ATOM      6  C7  UNL d   1       4.287   2.576  -6.000  0.00  0.00     0.002 A 
ENDROOT
BRANCH   1   7
ATOM      7  C1  UNL d   1       3.315   0.278  -5.623  0.00  0.00     0.055 C 
ATOM      8  C   UNL d   1       2.030   0.383  -4.816  0.00  0.00     0.019 C 
ENDBRANCH   1   7
TORSDOF 1
ENDMDL
