MODEL 1
REMARK minimizedAffinity 11.1819372
REMARK minimizedRMSD -1
REMARK  1 active torsions:
REMARK  status: ('A' for Active; 'I' for Inactive)
REMARK    1  A    between atoms: C1_2  and  C2_3 
ROOT
ATOM      1  C2  UNL d   1      -0.819  -1.896  -3.890  0.00  0.00    -0.077 A 
ATOM      2  C3  UNL d   1      -0.202  -0.682  -3.555  0.00  0.00     0.002 A 
ATOM      3  C4  UNL d   1       0.980  -0.292  -4.188  0.00  0.00     0.002 A 
ATOM      4  C5  UNL d   1       1.553  -1.108  -5.161  0.00  0.00    -0.004 A 
ATOM      5  C6  UNL d   1       0.949  -2.318  -5.499  0.00  0.00     0.002 A 
ATOM      6  C7  UNL d   1      -0.232  -2.710  -4.867  0.00  0.00     0.002 A 
ENDROOT
BRANCH   1   7
ATOM      7  C1  UNL d   1      -2.120  -2.295  -3.244  0.00  0.00     0.055 C 
ATOM      8  C   UNL d   1      -1.887  -2.959  -1.894  0.00  0.00     0.019 C 
ENDBRANCH   1   7
TORSDOF 1
ENDMDL
