MODEL 1
REMARK minimizedAffinity 12.8110065
REMARK minimizedRMSD -1
REMARK  1 active torsions:
REMARK  status: ('A' for Active; 'I' for Inactive)
REMARK    1  A    between atoms: C1_2  and  C2_3 
ROOT
ATOM      1  C2  UNL d   1      -4.076  -0.253  -0.690  0.00  0.00    -0.077 A 
ATOM      2  C3  UNL d   1      -3.765   0.635   0.349  0.00  0.00     0.002 A 
ATOM      3  C4  UNL d   1      -4.360   1.897   0.401  0.00  0.00     0.002 A 
ATOM      4  C5  UNL d   1      -5.271   2.280  -0.580  0.00  0.00    -0.004 A 
ATOM      5  C6  UNL d   1      -5.586   1.405  -1.618  0.00  0.00     0.002 A 
ATOM      6  C7  UNL d   1      -4.991   0.143  -1.673  0.00  0.00     0.002 A 
ENDROOT
BRANCH   1   7
ATOM      7  C1  UNL d   1      -3.473  -1.633  -0.720  0.00  0.00     0.055 C 
ATOM      8  C   UNL d   1      -3.516  -2.287   0.653  0.00  0.00     0.019 C 
ENDBRANCH   1   7
TORSDOF 1
ENDMDL
