MODEL 1
REMARK minimizedAffinity -3.47272968
REMARK minimizedRMSD -1
REMARK  2 active torsions:
REMARK  status: ('A' for Active; 'I' for Inactive)
REMARK    1  A    between atoms: C2'_3  and  C1'_4 
REMARK    2  A    between atoms: C1'_4  and  C1_5 
ROOT
ATOM      1  C1  I4B d   1       0.354  -0.612  -1.285  0.00  0.00    -0.075 A 
ATOM      2  C2  I4B d   1      -0.830  -0.065  -0.856  0.00  0.00     0.003 A 
ATOM      3  C3  I4B d   1      -1.049   0.169   0.523  0.00  0.00     0.002 A 
ATOM      4  C4  I4B d   1      -0.085  -0.202   1.437  0.00  0.00    -0.004 A 
ATOM      5  C5  I4B d   1       1.124  -0.734   0.999  0.00  0.00     0.002 A 
ATOM      6  C6  I4B d   1       1.351  -0.929  -0.371  0.00  0.00     0.003 A 
ENDROOT
BRANCH   1   7
ATOM      7  C1' I4B d   1       0.539  -0.876  -2.745  0.00  0.00     0.060 C 
BRANCH   7   8
ATOM      8  C2' I4B d   1       0.917   0.431  -3.412  0.00  0.00    -0.013 C 
ATOM      9  C4' I4B d   1       2.379   0.455  -3.774  0.00  0.00     0.013 C 
ATOM     10  C3' I4B d   1       0.055   0.596  -4.628  0.00  0.00     0.013 C 
ENDBRANCH   7   8
ENDBRANCH   1   7
TORSDOF 2
ENDMDL
