MODEL 1
REMARK minimizedAffinity -4.9698081
REMARK minimizedRMSD -1
REMARK  2 active torsions:
REMARK  status: ('A' for Active; 'I' for Inactive)
REMARK    1  A    between atoms: C2'_3  and  C1'_4 
REMARK    2  A    between atoms: C1'_4  and  C1_5 
ROOT
ATOM      1  C1  I4B d   1       0.318  -0.678  -3.179  0.00  0.00    -0.075 A 
ATOM      2  C2  I4B d   1      -0.792  -1.110  -3.860  0.00  0.00     0.003 A 
ATOM      3  C3  I4B d   1      -0.938  -0.825  -5.239  0.00  0.00     0.002 A 
ATOM      4  C4  I4B d   1       0.020  -0.066  -5.881  0.00  0.00    -0.004 A 
ATOM      5  C5  I4B d   1       1.156   0.351  -5.194  0.00  0.00     0.002 A 
ATOM      6  C6  I4B d   1       1.313   0.033  -3.837  0.00  0.00     0.003 A 
ENDROOT
BRANCH   1   7
ATOM      7  C1' I4B d   1       0.424  -0.969  -1.715  0.00  0.00     0.060 C 
BRANCH   7   8
ATOM      8  C2' I4B d   1      -0.770  -0.339  -1.027  0.00  0.00    -0.013 C 
ATOM      9  C4' I4B d   1      -1.142  -1.096   0.221  0.00  0.00     0.013 C 
ATOM     10  C3' I4B d   1      -0.424   1.086  -0.713  0.00  0.00     0.013 C 
ENDBRANCH   7   8
ENDBRANCH   1   7
TORSDOF 2
ENDMDL
