MODEL 1
REMARK minimizedAffinity -6.03144026
REMARK minimizedRMSD -1
REMARK  2 active torsions:
REMARK  status: ('A' for Active; 'I' for Inactive)
REMARK    1  A    between atoms: C2'_3  and  C1'_4 
REMARK    2  A    between atoms: C1'_4  and  C1_5 
ROOT
ATOM      1  C1  I4B d   1      -0.005  -0.492  -0.620  0.00  0.00    -0.075 A 
ATOM      2  C2  I4B d   1       0.624   0.177   0.400  0.00  0.00     0.003 A 
ATOM      3  C3  I4B d   1      -0.135   0.860   1.380  0.00  0.00     0.002 A 
ATOM      4  C4  I4B d   1      -1.511   0.890   1.275  0.00  0.00    -0.004 A 
ATOM      5  C5  I4B d   1      -2.149   0.192   0.253  0.00  0.00     0.002 A 
ATOM      6  C6  I4B d   1      -1.392  -0.514  -0.693  0.00  0.00     0.003 A 
ENDROOT
BRANCH   1   7
ATOM      7  C1' I4B d   1       0.829  -1.175  -1.657  0.00  0.00     0.060 C 
BRANCH   7   8
ATOM      8  C2' I4B d   1       0.570  -0.496  -2.986  0.00  0.00    -0.013 C 
ATOM      9  C4' I4B d   1       1.817   0.167  -3.511  0.00  0.00     0.013 C 
ATOM     10  C3' I4B d   1       0.063  -1.532  -3.944  0.00  0.00     0.013 C 
ENDBRANCH   7   8
ENDBRANCH   1   7
TORSDOF 2
ENDMDL
