MODEL 1
REMARK minimizedAffinity -3.0177083
REMARK minimizedRMSD -1
REMARK  2 active torsions:
REMARK  status: ('A' for Active; 'I' for Inactive)
REMARK    1  A    between atoms: C2'_3  and  C1'_4 
REMARK    2  A    between atoms: C1'_4  and  C1_5 
ROOT
ATOM      1  C1  I4B d   1       0.551  -0.283  -1.834  0.00  0.00    -0.075 A 
ATOM      2  C2  I4B d   1       1.342   0.834  -1.728  0.00  0.00     0.003 A 
ATOM      3  C3  I4B d   1       1.847   1.463  -2.891  0.00  0.00     0.002 A 
ATOM      4  C4  I4B d   1       1.578   0.917  -4.130  0.00  0.00    -0.004 A 
ATOM      5  C5  I4B d   1       0.757  -0.202  -4.237  0.00  0.00     0.002 A 
ATOM      6  C6  I4B d   1       0.230  -0.798  -3.083  0.00  0.00     0.003 A 
ENDROOT
BRANCH   1   7
ATOM      7  C1' I4B d   1       0.062  -0.942  -0.583  0.00  0.00     0.060 C 
BRANCH   7   8
ATOM      8  C2' I4B d   1       0.698  -0.234   0.596  0.00  0.00    -0.013 C 
ATOM      9  C4' I4B d   1      -0.298  -0.020   1.706  0.00  0.00     0.013 C 
ATOM     10  C3' I4B d   1       1.859  -1.061   1.062  0.00  0.00     0.013 C 
ENDBRANCH   7   8
ENDBRANCH   1   7
TORSDOF 2
ENDMDL
