MODEL 1
REMARK minimizedAffinity -5.5781436
REMARK minimizedRMSD -1
REMARK  2 active torsions:
REMARK  status: ('A' for Active; 'I' for Inactive)
REMARK    1  A    between atoms: C2'_3  and  C1'_4 
REMARK    2  A    between atoms: C1'_4  and  C1_5 
ROOT
ATOM      1  C1  I4B d   1       0.037  -0.651  -0.202  0.00  0.00    -0.075 A 
ATOM      2  C2  I4B d   1       0.564  -0.326   1.023  0.00  0.00     0.003 A 
ATOM      3  C3  I4B d   1      -0.259   0.246   2.024  0.00  0.00     0.002 A 
ATOM      4  C4  I4B d   1      -1.581   0.522   1.741  0.00  0.00    -0.004 A 
ATOM      5  C5  I4B d   1      -2.119   0.171   0.506  0.00  0.00     0.002 A 
ATOM      6  C6  I4B d   1      -1.308  -0.430  -0.468  0.00  0.00     0.003 A 
ENDROOT
BRANCH   1   7
ATOM      7  C1' I4B d   1       0.942  -1.224  -1.246  0.00  0.00     0.060 C 
BRANCH   7   8
ATOM      8  C2' I4B d   1       0.919  -0.296  -2.444  0.00  0.00    -0.013 C 
ATOM      9  C4' I4B d   1       2.311   0.121  -2.837  0.00  0.00     0.013 C 
ATOM     10  C3' I4B d   1       0.229  -1.008  -3.569  0.00  0.00     0.013 C 
ENDBRANCH   7   8
ENDBRANCH   1   7
TORSDOF 2
ENDMDL
