MODEL 1
REMARK minimizedAffinity -0.730355144
REMARK minimizedRMSD -1
REMARK  2 active torsions:
REMARK  status: ('A' for Active; 'I' for Inactive)
REMARK    1  A    between atoms: C2'_3  and  C1'_4 
REMARK    2  A    between atoms: C1'_4  and  C1_5 
ROOT
ATOM      1  C1  I4B d   1      -0.344   0.206   1.755  0.00  0.00    -0.075 A 
ATOM      2  C2  I4B d   1      -0.494   0.260   3.118  0.00  0.00     0.003 A 
ATOM      3  C3  I4B d   1       0.607  -0.010   3.967  0.00  0.00     0.002 A 
ATOM      4  C4  I4B d   1       1.817  -0.377   3.415  0.00  0.00    -0.004 A 
ATOM      5  C5  I4B d   1       1.973  -0.409   2.032  0.00  0.00     0.002 A 
ATOM      6  C6  I4B d   1       0.889  -0.103   1.196  0.00  0.00     0.003 A 
ENDROOT
BRANCH   1   7
ATOM      7  C1' I4B d   1      -1.536   0.465   0.889  0.00  0.00     0.060 C 
BRANCH   7   8
ATOM      8  C2' I4B d   1      -1.351  -0.307  -0.402  0.00  0.00    -0.013 C 
ATOM      9  C4' I4B d   1      -2.603  -1.059  -0.772  0.00  0.00     0.013 C 
ATOM     10  C3' I4B d   1      -0.970   0.670  -1.475  0.00  0.00     0.013 C 
ENDBRANCH   7   8
ENDBRANCH   1   7
TORSDOF 2
ENDMDL
