MODEL 1
REMARK minimizedAffinity -3.42065525
REMARK minimizedRMSD -1
REMARK  2 active torsions:
REMARK  status: ('A' for Active; 'I' for Inactive)
REMARK    1  A    between atoms: C2'_3  and  C1'_4 
REMARK    2  A    between atoms: C1'_4  and  C1_5 
ROOT
ATOM      1  C1  I4B d   1      -0.693  -0.147  -1.082  0.00  0.00    -0.075 A 
ATOM      2  C2  I4B d   1      -1.871   0.541  -0.933  0.00  0.00     0.003 A 
ATOM      3  C3  I4B d   1      -2.342   0.878   0.359  0.00  0.00     0.002 A 
ATOM      4  C4  I4B d   1      -1.633   0.466   1.469  0.00  0.00    -0.004 A 
ATOM      5  C5  I4B d   1      -0.427  -0.212   1.315  0.00  0.00     0.002 A 
ATOM      6  C6  I4B d   1       0.053  -0.510   0.032  0.00  0.00     0.003 A 
ENDROOT
BRANCH   1   7
ATOM      7  C1' I4B d   1      -0.243  -0.515  -2.460  0.00  0.00     0.060 C 
BRANCH   7   8
ATOM      8  C2' I4B d   1       0.592   0.628  -3.000  0.00  0.00    -0.013 C 
ATOM      9  C4' I4B d   1       2.006   0.190  -3.274  0.00  0.00     0.013 C 
ATOM     10  C3' I4B d   1      -0.069   1.135  -4.247  0.00  0.00     0.013 C 
ENDBRANCH   7   8
ENDBRANCH   1   7
TORSDOF 2
ENDMDL
