MODEL 1
REMARK minimizedAffinity -2.58499169
REMARK minimizedRMSD -1
REMARK  0 active torsions:
REMARK  status: ('A' for Active; 'I' for Inactive)
ROOT
ATOM      1  C   UNL d   1      -2.183  -3.033   0.374  0.00  0.00     0.077 C 
ATOM      2  C1  UNL d   1      -0.945  -2.186   0.339  0.00  0.00    -0.074 A 
ATOM      3  C2  UNL d   1       0.316  -2.764   0.165  0.00  0.00    -0.005 A 
ATOM      4  C3  UNL d   1       1.457  -1.963   0.124  0.00  0.00     0.006 A 
ATOM      5  C4  UNL d   1       1.349  -0.579   0.256  0.00  0.00    -0.005 A 
ATOM      6  C5  UNL d   1       0.096   0.018   0.430  0.00  0.00    -0.074 A 
ATOM      7  C6  UNL d   1      -0.039   1.505   0.564  0.00  0.00     0.077 C 
ATOM      8  C7  UNL d   1      -1.047  -0.793   0.463  0.00  0.00    -0.001 A 
ENDROOT
TORSDOF 0
ENDMDL
