MODEL 1
REMARK minimizedAffinity -3.68923402
REMARK minimizedRMSD -1
REMARK  0 active torsions:
REMARK  status: ('A' for Active; 'I' for Inactive)
ROOT
ATOM      1  C   UNL d   1       1.264  -2.535  -2.194  0.00  0.00     0.077 C 
ATOM      2  C1  UNL d   1       0.651  -1.869  -0.999  0.00  0.00    -0.074 A 
ATOM      3  C2  UNL d   1       0.176  -2.622   0.080  0.00  0.00    -0.005 A 
ATOM      4  C3  UNL d   1      -0.383  -1.988   1.189  0.00  0.00     0.006 A 
ATOM      5  C4  UNL d   1      -0.473  -0.596   1.231  0.00  0.00    -0.005 A 
ATOM      6  C5  UNL d   1      -0.003   0.174   0.162  0.00  0.00    -0.074 A 
ATOM      7  C6  UNL d   1      -0.083   1.671   0.196  0.00  0.00     0.077 C 
ATOM      8  C7  UNL d   1       0.564  -0.471  -0.946  0.00  0.00    -0.001 A 
ENDROOT
TORSDOF 0
ENDMDL
