MODEL 1
REMARK minimizedAffinity -3.37116814
REMARK minimizedRMSD -1
REMARK  0 active torsions:
REMARK  status: ('A' for Active; 'I' for Inactive)
ROOT
ATOM      1  C   UNL d   1       0.279  -3.334  -0.244  0.00  0.00     0.077 C 
ATOM      2  C1  UNL d   1      -0.001  -1.883   0.018  0.00  0.00    -0.074 A 
ATOM      3  C2  UNL d   1      -1.250  -1.465   0.488  0.00  0.00    -0.005 A 
ATOM      4  C3  UNL d   1      -1.491  -0.114   0.736  0.00  0.00     0.006 A 
ATOM      5  C4  UNL d   1      -0.488   0.831   0.517  0.00  0.00    -0.005 A 
ATOM      6  C5  UNL d   1       0.767   0.431   0.048  0.00  0.00    -0.074 A 
ATOM      7  C6  UNL d   1       1.859   1.433  -0.184  0.00  0.00     0.077 C 
ATOM      8  C7  UNL d   1       1.005  -0.929  -0.193  0.00  0.00    -0.001 A 
ENDROOT
TORSDOF 0
ENDMDL
