MODEL 1
REMARK minimizedAffinity -2.39417887
REMARK minimizedRMSD -1
REMARK  0 active torsions:
REMARK  status: ('A' for Active; 'I' for Inactive)
ROOT
ATOM      1  C   UNL d   1       0.048  -2.885   0.989  0.00  0.00     0.077 C 
ATOM      2  C1  UNL d   1       0.208  -1.461   0.548  0.00  0.00    -0.074 A 
ATOM      3  C2  UNL d   1       0.575  -0.464   1.458  0.00  0.00    -0.005 A 
ATOM      4  C3  UNL d   1       0.730   0.855   1.031  0.00  0.00     0.006 A 
ATOM      5  C4  UNL d   1       0.518   1.190  -0.307  0.00  0.00    -0.005 A 
ATOM      6  C5  UNL d   1       0.151   0.207  -1.231  0.00  0.00    -0.074 A 
ATOM      7  C6  UNL d   1      -0.070   0.548  -2.674  0.00  0.00     0.077 C 
ATOM      8  C7  UNL d   1       0.005  -1.118  -0.796  0.00  0.00    -0.001 A 
ENDROOT
TORSDOF 0
ENDMDL
