MODEL 1
REMARK minimizedAffinity -4.76249552
REMARK minimizedRMSD -1
REMARK  0 active torsions:
REMARK  status: ('A' for Active; 'I' for Inactive)
ROOT
ATOM      1  C   UNL d   1       1.090   2.905   1.435  0.00  0.00     0.077 C 
ATOM      2  C1  UNL d   1       0.689   1.805   0.498  0.00  0.00    -0.074 A 
ATOM      3  C2  UNL d   1       0.231   2.091  -0.792  0.00  0.00    -0.005 A 
ATOM      4  C3  UNL d   1      -0.129   1.058  -1.657  0.00  0.00     0.006 A 
ATOM      5  C4  UNL d   1      -0.035  -0.271  -1.241  0.00  0.00    -0.005 A 
ATOM      6  C5  UNL d   1       0.422  -0.577   0.045  0.00  0.00    -0.074 A 
ATOM      7  C6  UNL d   1       0.539  -2.000   0.505  0.00  0.00     0.077 C 
ATOM      8  C7  UNL d   1       0.789   0.467   0.905  0.00  0.00    -0.001 A 
ENDROOT
TORSDOF 0
ENDMDL
