MODEL 1
REMARK minimizedAffinity -3.31386042
REMARK minimizedRMSD -1
REMARK  0 active torsions:
REMARK  status: ('A' for Active; 'I' for Inactive)
ROOT
ATOM      1  C   UNL d   1      -1.597   0.074   1.187  0.00  0.00     0.077 C 
ATOM      2  C1  UNL d   1      -0.519  -0.465   0.294  0.00  0.00    -0.074 A 
ATOM      3  C2  UNL d   1       0.437  -1.362   0.782  0.00  0.00    -0.005 A 
ATOM      4  C3  UNL d   1       1.428  -1.862  -0.062  0.00  0.00     0.006 A 
ATOM      5  C4  UNL d   1       1.475  -1.470  -1.400  0.00  0.00    -0.005 A 
ATOM      6  C5  UNL d   1       0.528  -0.574  -1.906  0.00  0.00    -0.074 A 
ATOM      7  C6  UNL d   1       0.558  -0.150  -3.344  0.00  0.00     0.077 C 
ATOM      8  C7  UNL d   1      -0.470  -0.082  -1.053  0.00  0.00    -0.001 A 
ENDROOT
TORSDOF 0
ENDMDL
