MODEL 1
REMARK minimizedAffinity -3.87312579
REMARK minimizedRMSD -1
REMARK  0 active torsions:
REMARK  status: ('A' for Active; 'I' for Inactive)
ROOT
ATOM      1  C   UNL d   1      -0.998  -0.128   1.254  0.00  0.00     0.077 C 
ATOM      2  C1  UNL d   1      -0.551  -1.172   0.275  0.00  0.00    -0.074 A 
ATOM      3  C2  UNL d   1      -0.774  -2.531   0.520  0.00  0.00    -0.005 A 
ATOM      4  C3  UNL d   1      -0.361  -3.490  -0.404  0.00  0.00     0.006 A 
ATOM      5  C4  UNL d   1       0.277  -3.101  -1.583  0.00  0.00    -0.005 A 
ATOM      6  C5  UNL d   1       0.508  -1.747  -1.846  0.00  0.00    -0.074 A 
ATOM      7  C6  UNL d   1       1.184  -1.311  -3.112  0.00  0.00     0.077 C 
ATOM      8  C7  UNL d   1       0.084  -0.789  -0.915  0.00  0.00    -0.001 A 
ENDROOT
TORSDOF 0
ENDMDL
