MODEL 1
REMARK minimizedAffinity -5.31897259
REMARK minimizedRMSD -1
REMARK  0 active torsions:
REMARK  status: ('A' for Active; 'I' for Inactive)
ROOT
ATOM      1  C   UNL d   1       0.158  -2.699   0.956  0.00  0.00     0.077 C 
ATOM      2  C1  UNL d   1      -0.055  -1.480   0.108  0.00  0.00    -0.074 A 
ATOM      3  C2  UNL d   1      -0.494  -0.279   0.673  0.00  0.00    -0.005 A 
ATOM      4  C3  UNL d   1      -0.678   0.849  -0.127  0.00  0.00     0.006 A 
ATOM      5  C4  UNL d   1      -0.426   0.787  -1.498  0.00  0.00    -0.005 A 
ATOM      6  C5  UNL d   1       0.015  -0.405  -2.081  0.00  0.00    -0.074 A 
ATOM      7  C6  UNL d   1       0.300  -0.486  -3.551  0.00  0.00     0.077 C 
ATOM      8  C7  UNL d   1       0.204  -1.532  -1.269  0.00  0.00    -0.001 A 
ENDROOT
TORSDOF 0
ENDMDL
