MODEL 1
REMARK minimizedAffinity -2.83914304
REMARK minimizedRMSD -1
REMARK  0 active torsions:
REMARK  status: ('A' for Active; 'I' for Inactive)
ROOT
ATOM      1  C   UNL d   1       0.426  -2.877   0.865  0.00  0.00     0.077 C 
ATOM      2  C1  UNL d   1       0.030  -1.477   0.501  0.00  0.00    -0.074 A 
ATOM      3  C2  UNL d   1      -1.314  -1.093   0.479  0.00  0.00    -0.005 A 
ATOM      4  C3  UNL d   1      -1.667   0.215   0.148  0.00  0.00     0.006 A 
ATOM      5  C4  UNL d   1      -0.680   1.151  -0.164  0.00  0.00    -0.005 A 
ATOM      6  C5  UNL d   1       0.670   0.786  -0.147  0.00  0.00    -0.074 A 
ATOM      7  C6  UNL d   1       1.743   1.782  -0.470  0.00  0.00     0.077 C 
ATOM      8  C7  UNL d   1       1.016  -0.529   0.194  0.00  0.00    -0.001 A 
ENDROOT
TORSDOF 0
ENDMDL
