MODEL 1
REMARK minimizedAffinity -3.85539579
REMARK minimizedRMSD -1
REMARK  0 active torsions:
REMARK  status: ('A' for Active; 'I' for Inactive)
ROOT
ATOM      1  C   UNL d   1       0.516  -3.515   0.613  0.00  0.00     0.077 C 
ATOM      2  C1  UNL d   1      -0.056  -2.130   0.669  0.00  0.00    -0.074 A 
ATOM      3  C2  UNL d   1      -1.335  -1.901   1.188  0.00  0.00    -0.005 A 
ATOM      4  C3  UNL d   1      -1.851  -0.606   1.242  0.00  0.00     0.006 A 
ATOM      5  C4  UNL d   1      -1.094   0.471   0.780  0.00  0.00    -0.005 A 
ATOM      6  C5  UNL d   1       0.187   0.262   0.259  0.00  0.00    -0.074 A 
ATOM      7  C6  UNL d   1       1.017   1.411  -0.233  0.00  0.00     0.077 C 
ATOM      8  C7  UNL d   1       0.701  -1.041   0.214  0.00  0.00    -0.001 A 
ENDROOT
TORSDOF 0
ENDMDL
