MODEL 1
REMARK minimizedAffinity -2.71313834
REMARK minimizedRMSD -1
REMARK  0 active torsions:
REMARK  status: ('A' for Active; 'I' for Inactive)
ROOT
ATOM      1  C   UNL d   1       0.128   4.703   1.859  0.00  0.00     0.077 C 
ATOM      2  C1  UNL d   1       0.876   3.958   0.793  0.00  0.00    -0.074 A 
ATOM      3  C2  UNL d   1       2.181   4.319   0.445  0.00  0.00    -0.005 A 
ATOM      4  C3  UNL d   1       2.867   3.611  -0.542  0.00  0.00     0.006 A 
ATOM      5  C4  UNL d   1       2.255   2.537  -1.189  0.00  0.00    -0.005 A 
ATOM      6  C5  UNL d   1       0.951   2.161  -0.854  0.00  0.00    -0.074 A 
ATOM      7  C6  UNL d   1       0.282   1.003  -1.533  0.00  0.00     0.077 C 
ATOM      8  C7  UNL d   1       0.271   2.873   0.144  0.00  0.00    -0.001 A 
ENDROOT
TORSDOF 0
ENDMDL
