MODEL 1
REMARK minimizedAffinity 0.190876245
REMARK minimizedRMSD -1
REMARK  0 active torsions:
REMARK  status: ('A' for Active; 'I' for Inactive)
ROOT
ATOM      1  C   UNL d   1       1.162   4.211   2.476  0.00  0.00     0.077 C 
ATOM      2  C1  UNL d   1       1.495   3.584   1.155  0.00  0.00    -0.074 A 
ATOM      3  C2  UNL d   1       2.625   3.984   0.434  0.00  0.00    -0.005 A 
ATOM      4  C3  UNL d   1       2.927   3.385  -0.789  0.00  0.00     0.006 A 
ATOM      5  C4  UNL d   1       2.104   2.382  -1.302  0.00  0.00    -0.005 A 
ATOM      6  C5  UNL d   1       0.971   1.968  -0.595  0.00  0.00    -0.074 A 
ATOM      7  C6  UNL d   1       0.082   0.884  -1.128  0.00  0.00     0.077 C 
ATOM      8  C7  UNL d   1       0.678   2.570   0.636  0.00  0.00    -0.001 A 
ENDROOT
TORSDOF 0
ENDMDL
