MODEL 1
REMARK minimizedAffinity -5.45860052
REMARK minimizedRMSD -1
REMARK  0 active torsions:
REMARK  status: ('A' for Active; 'I' for Inactive)
ROOT
ATOM      1  C   UNL d   1       0.834  -3.303  -2.928  0.00  0.00     0.077 C 
ATOM      2  C1  UNL d   1       0.325  -2.539  -1.742  0.00  0.00    -0.074 A 
ATOM      3  C2  UNL d   1       0.020  -3.192  -0.543  0.00  0.00    -0.005 A 
ATOM      4  C3  UNL d   1      -0.444  -2.467   0.554  0.00  0.00     0.006 A 
ATOM      5  C4  UNL d   1      -0.607  -1.084   0.465  0.00  0.00    -0.005 A 
ATOM      6  C5  UNL d   1      -0.306  -0.414  -0.725  0.00  0.00    -0.074 A 
ATOM      7  C6  UNL d   1      -0.466   1.074  -0.835  0.00  0.00     0.077 C 
ATOM      8  C7  UNL d   1       0.166  -1.148  -1.821  0.00  0.00    -0.001 A 
ENDROOT
TORSDOF 0
ENDMDL
