MODEL 1
REMARK minimizedAffinity -2.17681718
REMARK minimizedRMSD -1
REMARK  0 active torsions:
REMARK  status: ('A' for Active; 'I' for Inactive)
ROOT
ATOM      1  C   UNL d   1      -2.269   0.652   1.100  0.00  0.00     0.077 C 
ATOM      2  C1  UNL d   1      -1.049  -0.012   0.534  0.00  0.00    -0.074 A 
ATOM      3  C2  UNL d   1      -0.069   0.732  -0.131  0.00  0.00    -0.005 A 
ATOM      4  C3  UNL d   1       1.065   0.102  -0.643  0.00  0.00     0.006 A 
ATOM      5  C4  UNL d   1       1.231  -1.275  -0.495  0.00  0.00    -0.005 A 
ATOM      6  C5  UNL d   1       0.262  -2.035   0.168  0.00  0.00    -0.074 A 
ATOM      7  C6  UNL d   1       0.430  -3.515   0.344  0.00  0.00     0.077 C 
ATOM      8  C7  UNL d   1      -0.871  -1.394   0.686  0.00  0.00    -0.001 A 
ENDROOT
TORSDOF 0
ENDMDL
