MODEL 1
REMARK minimizedAffinity -5.17602205
REMARK minimizedRMSD -1
REMARK  0 active torsions:
REMARK  status: ('A' for Active; 'I' for Inactive)
ROOT
ATOM      1  C   UNL d   1       0.329  -3.183   0.645  0.00  0.00     0.077 C 
ATOM      2  C1  UNL d   1      -0.112  -1.750   0.629  0.00  0.00    -0.074 A 
ATOM      3  C2  UNL d   1      -0.950  -1.244   1.627  0.00  0.00    -0.005 A 
ATOM      4  C3  UNL d   1      -1.344   0.094   1.604  0.00  0.00     0.006 A 
ATOM      5  C4  UNL d   1      -0.904   0.938   0.584  0.00  0.00    -0.005 A 
ATOM      6  C5  UNL d   1      -0.065   0.451  -0.423  0.00  0.00    -0.074 A 
ATOM      7  C6  UNL d   1       0.425   1.347  -1.521  0.00  0.00     0.077 C 
ATOM      8  C7  UNL d   1       0.332  -0.893  -0.389  0.00  0.00    -0.001 A 
ENDROOT
TORSDOF 0
ENDMDL
