MODEL 1
REMARK minimizedAffinity -5.5545907
REMARK minimizedRMSD -1
REMARK  0 active torsions:
REMARK  status: ('A' for Active; 'I' for Inactive)
ROOT
ATOM      1  C   UNL d   1      -2.523   0.459   2.589  0.00  0.00     0.077 C 
ATOM      2  C1  UNL d   1      -1.467   0.065   1.599  0.00  0.00    -0.074 A 
ATOM      3  C2  UNL d   1      -0.829   1.026   0.808  0.00  0.00    -0.005 A 
ATOM      4  C3  UNL d   1       0.158   0.646  -0.101  0.00  0.00     0.006 A 
ATOM      5  C4  UNL d   1       0.515  -0.697  -0.229  0.00  0.00    -0.005 A 
ATOM      6  C5  UNL d   1      -0.112  -1.672   0.553  0.00  0.00    -0.074 A 
ATOM      7  C6  UNL d   1       0.268  -3.118   0.435  0.00  0.00     0.077 C 
ATOM      8  C7  UNL d   1      -1.097  -1.281   1.470  0.00  0.00    -0.001 A 
ENDROOT
TORSDOF 0
ENDMDL
