MODEL 1
REMARK minimizedAffinity -3.07205939
REMARK minimizedRMSD -1
REMARK  0 active torsions:
REMARK  status: ('A' for Active; 'I' for Inactive)
ROOT
ATOM      1  C   UNL d   1       2.570  -1.884  -1.837  0.00  0.00     0.023 A 
ATOM      2  C1  UNL d   1       1.634  -2.606  -1.097  0.00  0.00     0.003 A 
ATOM      3  C2  UNL d   1       0.612  -1.939  -0.419  0.00  0.00     0.048 A 
ATOM      4  C3  UNL d   1       0.532  -0.548  -0.486  0.00  0.00     0.023 A 
ATOM      5  C4  UNL d   1       1.466   0.179  -1.225  0.00  0.00     0.048 A 
ATOM      6  C5  UNL d   1       2.486  -0.493  -1.901  0.00  0.00     0.003 A 
ATOM      7  I   UNL d   1      -0.989   0.448   0.522  0.00  0.00    -0.146 I 
ENDROOT
TORSDOF 0
ENDMDL
