MODEL 1
REMARK minimizedAffinity -2.39385653
REMARK minimizedRMSD -1
REMARK  0 active torsions:
REMARK  status: ('A' for Active; 'I' for Inactive)
ROOT
ATOM      1  C   UNL d   1       2.781  -0.076  -1.920  0.00  0.00     0.023 A 
ATOM      2  C1  UNL d   1       2.202   1.077  -1.391  0.00  0.00     0.003 A 
ATOM      3  C2  UNL d   1       1.185   0.977  -0.440  0.00  0.00     0.048 A 
ATOM      4  C3  UNL d   1       0.753  -0.281  -0.020  0.00  0.00     0.023 A 
ATOM      5  C4  UNL d   1       1.330  -1.438  -0.546  0.00  0.00     0.048 A 
ATOM      6  C5  UNL d   1       2.346  -1.332  -1.498  0.00  0.00     0.003 A 
ATOM      7  I   UNL d   1      -0.760  -0.434   1.397  0.00  0.00    -0.146 I 
ENDROOT
TORSDOF 0
ENDMDL
