MODEL 1
REMARK minimizedAffinity -2.62102032
REMARK minimizedRMSD -1
REMARK  0 active torsions:
REMARK  status: ('A' for Active; 'I' for Inactive)
ROOT
ATOM      1  C   UNL d   1      -3.503   0.497   1.635  0.00  0.00     0.023 A 
ATOM      2  C1  UNL d   1      -3.421   0.940   0.315  0.00  0.00     0.003 A 
ATOM      3  C2  UNL d   1      -2.174   1.120  -0.286  0.00  0.00     0.048 A 
ATOM      4  C3  UNL d   1      -1.012   0.856   0.439  0.00  0.00     0.023 A 
ATOM      5  C4  UNL d   1      -1.090   0.412   1.760  0.00  0.00     0.048 A 
ATOM      6  C5  UNL d   1      -2.339   0.234   2.357  0.00  0.00     0.003 A 
ATOM      7  I   UNL d   1       0.845   1.123  -0.454  0.00  0.00    -0.146 I 
ENDROOT
TORSDOF 0
ENDMDL
