MODEL 1
REMARK minimizedAffinity 1.28794622
REMARK minimizedRMSD -1
REMARK  0 active torsions:
REMARK  status: ('A' for Active; 'I' for Inactive)
ROOT
ATOM      1  C   UNL d   1      -4.682   0.903   2.392  0.00  0.00     0.023 A 
ATOM      2  C1  UNL d   1      -4.465  -0.177   1.536  0.00  0.00     0.003 A 
ATOM      3  C2  UNL d   1      -3.166  -0.508   1.144  0.00  0.00     0.048 A 
ATOM      4  C3  UNL d   1      -2.089   0.244   1.612  0.00  0.00     0.023 A 
ATOM      5  C4  UNL d   1      -2.302   1.325   2.469  0.00  0.00     0.048 A 
ATOM      6  C5  UNL d   1      -3.602   1.653   2.857  0.00  0.00     0.003 A 
ATOM      7  I   UNL d   1      -0.156  -0.247   1.029  0.00  0.00    -0.146 I 
ENDROOT
TORSDOF 0
ENDMDL
