MODEL 1
REMARK minimizedAffinity -1.69039583
REMARK minimizedRMSD -1
REMARK  0 active torsions:
REMARK  status: ('A' for Active; 'I' for Inactive)
ROOT
ATOM      1  C   UNL d   1      -3.776  -0.013   2.175  0.00  0.00     0.023 A 
ATOM      2  C1  UNL d   1      -3.374  -0.643   0.997  0.00  0.00     0.003 A 
ATOM      3  C2  UNL d   1      -2.101  -0.404   0.476  0.00  0.00     0.048 A 
ATOM      4  C3  UNL d   1      -1.234   0.465   1.138  0.00  0.00     0.023 A 
ATOM      5  C4  UNL d   1      -1.632   1.098   2.317  0.00  0.00     0.048 A 
ATOM      6  C5  UNL d   1      -2.907   0.856   2.834  0.00  0.00     0.003 A 
ATOM      7  I   UNL d   1       0.661   0.823   0.364  0.00  0.00    -0.146 I 
ENDROOT
TORSDOF 0
ENDMDL
