MODEL 1
REMARK minimizedAffinity -1.6970017
REMARK minimizedRMSD -1
REMARK  0 active torsions:
REMARK  status: ('A' for Active; 'I' for Inactive)
ROOT
ATOM      1  C   UNL d   1       1.806  -0.476  -1.385  0.00  0.00     0.023 A 
ATOM      2  C1  UNL d   1       1.410   0.850  -1.216  0.00  0.00     0.003 A 
ATOM      3  C2  UNL d   1       0.250   1.148  -0.499  0.00  0.00     0.048 A 
ATOM      4  C3  UNL d   1      -0.509   0.115   0.048  0.00  0.00     0.023 A 
ATOM      5  C4  UNL d   1      -0.117  -1.215  -0.117  0.00  0.00     0.048 A 
ATOM      6  C5  UNL d   1       1.044  -1.508  -0.836  0.00  0.00     0.003 A 
ATOM      7  I   UNL d   1      -2.237   0.555   1.117  0.00  0.00    -0.146 I 
ENDROOT
TORSDOF 0
ENDMDL
