MODEL 1
REMARK minimizedAffinity -4.07862806
REMARK minimizedRMSD -1
REMARK  0 active torsions:
REMARK  status: ('A' for Active; 'I' for Inactive)
ROOT
ATOM      1  C   UNL d   1       2.157  -0.625  -2.992  0.00  0.00     0.023 A 
ATOM      2  C1  UNL d   1       2.008   0.674  -2.504  0.00  0.00     0.003 A 
ATOM      3  C2  UNL d   1       1.336   0.896  -1.300  0.00  0.00     0.048 A 
ATOM      4  C3  UNL d   1       0.817  -0.185  -0.588  0.00  0.00     0.023 A 
ATOM      5  C4  UNL d   1       0.965  -1.486  -1.072  0.00  0.00     0.048 A 
ATOM      6  C5  UNL d   1       1.636  -1.703  -2.276  0.00  0.00     0.003 A 
ATOM      7  I   UNL d   1      -0.183   0.143   1.204  0.00  0.00    -0.146 I 
ENDROOT
TORSDOF 0
ENDMDL
