MODEL 1
REMARK minimizedAffinity -1.64964306
REMARK minimizedRMSD -1
REMARK  0 active torsions:
REMARK  status: ('A' for Active; 'I' for Inactive)
ROOT
ATOM      1  C   UNL d   1       2.381   0.044  -1.776  0.00  0.00     0.023 A 
ATOM      2  C1  UNL d   1       1.795   1.262  -1.432  0.00  0.00     0.003 A 
ATOM      3  C2  UNL d   1       0.769   1.303  -0.486  0.00  0.00     0.048 A 
ATOM      4  C3  UNL d   1       0.333   0.121   0.112  0.00  0.00     0.023 A 
ATOM      5  C4  UNL d   1       0.916  -1.100  -0.228  0.00  0.00     0.048 A 
ATOM      6  C5  UNL d   1       1.942  -1.136  -1.175  0.00  0.00     0.003 A 
ATOM      7  I   UNL d   1      -1.195   0.179   1.520  0.00  0.00    -0.146 I 
ENDROOT
TORSDOF 0
ENDMDL
