MODEL 1
REMARK minimizedAffinity -1.90426302
REMARK minimizedRMSD -1
REMARK  0 active torsions:
REMARK  status: ('A' for Active; 'I' for Inactive)
ROOT
ATOM      1  C   UNL d   1       1.753   0.196  -1.890  0.00  0.00     0.023 A 
ATOM      2  C1  UNL d   1       1.136  -0.976  -1.454  0.00  0.00     0.003 A 
ATOM      3  C2  UNL d   1       0.106  -0.916  -0.513  0.00  0.00     0.048 A 
ATOM      4  C3  UNL d   1      -0.302   0.320  -0.013  0.00  0.00     0.023 A 
ATOM      5  C4  UNL d   1       0.312   1.495  -0.446  0.00  0.00     0.048 A 
ATOM      6  C5  UNL d   1       1.342   1.430  -1.387  0.00  0.00     0.003 A 
ATOM      7  I   UNL d   1      -1.835   0.411   1.388  0.00  0.00    -0.146 I 
ENDROOT
TORSDOF 0
ENDMDL
