MODEL 1
REMARK minimizedAffinity -0.475420058
REMARK minimizedRMSD -1
REMARK  0 active torsions:
REMARK  status: ('A' for Active; 'I' for Inactive)
ROOT
ATOM      1  C   UNL d   1       1.195  -2.125  -1.146  0.00  0.00     0.023 A 
ATOM      2  C1  UNL d   1       1.839  -1.012  -1.686  0.00  0.00     0.003 A 
ATOM      3  C2  UNL d   1       1.734   0.231  -1.057  0.00  0.00     0.048 A 
ATOM      4  C3  UNL d   1       0.984   0.353   0.112  0.00  0.00     0.023 A 
ATOM      5  C4  UNL d   1       0.338  -0.758   0.657  0.00  0.00     0.048 A 
ATOM      6  C5  UNL d   1       0.445  -1.998   0.024  0.00  0.00     0.003 A 
ATOM      7  I   UNL d   1       0.827   2.201   1.050  0.00  0.00    -0.146 I 
ENDROOT
TORSDOF 0
ENDMDL
