MODEL 1
REMARK minimizedAffinity -3.11547399
REMARK minimizedRMSD -1
REMARK  0 active torsions:
REMARK  status: ('A' for Active; 'I' for Inactive)
ROOT
ATOM      1  C   UNL d   1      -4.989   0.778  -5.765  0.00  0.00     0.023 A 
ATOM      2  C1  UNL d   1      -5.991   1.735  -5.927  0.00  0.00     0.003 A 
ATOM      3  C2  UNL d   1      -5.661   3.090  -5.992  0.00  0.00     0.048 A 
ATOM      4  C3  UNL d   1      -4.326   3.482  -5.896  0.00  0.00     0.023 A 
ATOM      5  C4  UNL d   1      -3.319   2.528  -5.735  0.00  0.00     0.048 A 
ATOM      6  C5  UNL d   1      -3.654   1.174  -5.669  0.00  0.00     0.003 A 
ATOM      7  I   UNL d   1      -3.832   5.498  -5.994  0.00  0.00    -0.146 I 
ENDROOT
TORSDOF 0
ENDMDL
