MODEL 1
REMARK minimizedAffinity -4.16705418
REMARK minimizedRMSD -1
REMARK  0 active torsions:
REMARK  status: ('A' for Active; 'I' for Inactive)
ROOT
ATOM      1  C   UNL d   1       1.843   0.973  -1.845  0.00  0.00     0.023 A 
ATOM      2  C1  UNL d   1       0.834   0.066  -2.169  0.00  0.00     0.003 A 
ATOM      3  C2  UNL d   1      -0.122  -0.289  -1.215  0.00  0.00     0.048 A 
ATOM      4  C3  UNL d   1      -0.064   0.269   0.062  0.00  0.00     0.023 A 
ATOM      5  C4  UNL d   1       0.943   1.178   0.391  0.00  0.00     0.048 A 
ATOM      6  C5  UNL d   1       1.897   1.529  -0.566  0.00  0.00     0.003 A 
ATOM      7  I   UNL d   1      -1.486  -0.257   1.484  0.00  0.00    -0.146 I 
ENDROOT
TORSDOF 0
ENDMDL
