MODEL 1
REMARK minimizedAffinity 1.2815733
REMARK minimizedRMSD -1
REMARK  0 active torsions:
REMARK  status: ('A' for Active; 'I' for Inactive)
ROOT
ATOM      1  C   UNL d   1      -4.032   1.091   1.980  0.00  0.00     0.023 A 
ATOM      2  C1  UNL d   1      -4.072   0.069   1.032  0.00  0.00     0.003 A 
ATOM      3  C2  UNL d   1      -2.886  -0.514   0.582  0.00  0.00     0.048 A 
ATOM      4  C3  UNL d   1      -1.663  -0.071   1.085  0.00  0.00     0.023 A 
ATOM      5  C4  UNL d   1      -1.619   0.952   2.034  0.00  0.00     0.048 A 
ATOM      6  C5  UNL d   1      -2.807   1.532   2.481  0.00  0.00     0.003 A 
ATOM      7  I   UNL d   1       0.104  -0.937   0.416  0.00  0.00    -0.146 I 
ENDROOT
TORSDOF 0
ENDMDL
