MODEL 1
REMARK minimizedAffinity -2.44912767
REMARK minimizedRMSD -1
REMARK  0 active torsions:
REMARK  status: ('A' for Active; 'I' for Inactive)
ROOT
ATOM      1  C   UNL d   1      -3.248   0.596   2.747  0.00  0.00     0.023 A 
ATOM      2  C1  UNL d   1      -1.939   0.803   3.183  0.00  0.00     0.003 A 
ATOM      3  C2  UNL d   1      -0.869   0.581   2.314  0.00  0.00     0.048 A 
ATOM      4  C3  UNL d   1      -1.115   0.152   1.010  0.00  0.00     0.023 A 
ATOM      5  C4  UNL d   1      -2.423  -0.056   0.569  0.00  0.00     0.048 A 
ATOM      6  C5  UNL d   1      -3.489   0.167   1.442  0.00  0.00     0.003 A 
ATOM      7  I   UNL d   1       0.476  -0.180  -0.286  0.00  0.00    -0.146 I 
ENDROOT
TORSDOF 0
ENDMDL
