MODEL 1
REMARK minimizedAffinity -2.10740852
REMARK minimizedRMSD -1
REMARK  0 active torsions:
REMARK  status: ('A' for Active; 'I' for Inactive)
ROOT
ATOM      1  C   UNL d   1      -3.287   0.028   1.980  0.00  0.00     0.023 A 
ATOM      2  C1  UNL d   1      -2.057  -0.486   2.391  0.00  0.00     0.003 A 
ATOM      3  C2  UNL d   1      -0.915  -0.266   1.618  0.00  0.00     0.048 A 
ATOM      4  C3  UNL d   1      -1.010   0.469   0.437  0.00  0.00     0.023 A 
ATOM      5  C4  UNL d   1      -2.239   0.985   0.023  0.00  0.00     0.048 A 
ATOM      6  C5  UNL d   1      -3.378   0.762   0.798  0.00  0.00     0.003 A 
ATOM      7  I   UNL d   1       0.689   0.797  -0.715  0.00  0.00    -0.146 I 
ENDROOT
TORSDOF 0
ENDMDL
