MODEL 1
REMARK minimizedAffinity -2.20063829
REMARK minimizedRMSD -1
REMARK  0 active torsions:
REMARK  status: ('A' for Active; 'I' for Inactive)
ROOT
ATOM      1  C   UNL d   1       1.394  -0.052   0.063  0.00  0.00     0.023 A 
ATOM      2  C1  UNL d   1       0.856   1.224   0.230  0.00  0.00     0.003 A 
ATOM      3  C2  UNL d   1      -0.441   1.378   0.723  0.00  0.00     0.048 A 
ATOM      4  C3  UNL d   1      -1.195   0.250   1.048  0.00  0.00     0.023 A 
ATOM      5  C4  UNL d   1      -0.661  -1.029   0.884  0.00  0.00     0.048 A 
ATOM      6  C5  UNL d   1       0.637  -1.177   0.390  0.00  0.00     0.003 A 
ATOM      7  I   UNL d   1      -3.126   0.476   1.782  0.00  0.00    -0.146 I 
ENDROOT
TORSDOF 0
ENDMDL
