MODEL 1
REMARK minimizedAffinity -0.981645226
REMARK minimizedRMSD -1
REMARK  0 active torsions:
REMARK  status: ('A' for Active; 'I' for Inactive)
ROOT
ATOM      1  C   UNL d   1       1.576   1.931  -0.316  0.00  0.00     0.023 A 
ATOM      2  C1  UNL d   1       0.693   1.471   0.661  0.00  0.00     0.003 A 
ATOM      3  C2  UNL d   1       0.386   0.112   0.743  0.00  0.00     0.048 A 
ATOM      4  C3  UNL d   1       0.967  -0.784  -0.154  0.00  0.00     0.023 A 
ATOM      5  C4  UNL d   1       1.852  -0.329  -1.133  0.00  0.00     0.048 A 
ATOM      6  C5  UNL d   1       2.155   1.032  -1.212  0.00  0.00     0.003 A 
ATOM      7  I   UNL d   1       0.512  -2.808  -0.034  0.00  0.00    -0.146 I 
ENDROOT
TORSDOF 0
ENDMDL
