MODEL 1
REMARK minimizedAffinity -2.04771662
REMARK minimizedRMSD -1
REMARK  0 active torsions:
REMARK  status: ('A' for Active; 'I' for Inactive)
ROOT
ATOM      1  C   UNL d   1      -1.454  -2.576  -5.994  0.00  0.00     0.023 A 
ATOM      2  C1  UNL d   1      -2.800  -2.208  -6.000  0.00  0.00     0.003 A 
ATOM      3  C2  UNL d   1      -3.794  -3.189  -6.000  0.00  0.00     0.048 A 
ATOM      4  C3  UNL d   1      -3.435  -4.536  -5.992  0.00  0.00     0.023 A 
ATOM      5  C4  UNL d   1      -2.090  -4.910  -5.985  0.00  0.00     0.048 A 
ATOM      6  C5  UNL d   1      -1.100  -3.926  -5.987  0.00  0.00     0.003 A 
ATOM      7  I   UNL d   1      -4.913  -5.998  -5.992  0.00  0.00    -0.146 I 
ENDROOT
TORSDOF 0
ENDMDL
