MODEL 1
REMARK minimizedAffinity 10.4812708
REMARK minimizedRMSD -1
REMARK  0 active torsions:
REMARK  status: ('A' for Active; 'I' for Inactive)
ROOT
ATOM      1  C   UNL d   1       1.112   2.325   1.984  0.00  0.00     0.023 A 
ATOM      2  C1  UNL d   1       1.605   3.276   1.091  0.00  0.00     0.003 A 
ATOM      3  C2  UNL d   1       0.981   3.464  -0.145  0.00  0.00     0.048 A 
ATOM      4  C3  UNL d   1      -0.136   2.700  -0.479  0.00  0.00     0.023 A 
ATOM      5  C4  UNL d   1      -0.633   1.748   0.412  0.00  0.00     0.048 A 
ATOM      6  C5  UNL d   1      -0.006   1.562   1.646  0.00  0.00     0.003 A 
ATOM      7  I   UNL d   1      -1.066   2.979  -2.317  0.00  0.00    -0.146 I 
ENDROOT
TORSDOF 0
ENDMDL
