MODEL 1
REMARK minimizedAffinity 4.50629902
REMARK minimizedRMSD -1
REMARK  0 active torsions:
REMARK  status: ('A' for Active; 'I' for Inactive)
ROOT
ATOM      1  C   UNL d   1      -0.237  -3.295  -5.996  0.00  0.00     0.023 A 
ATOM      2  C1  UNL d   1      -0.146  -4.687  -5.998  0.00  0.00     0.003 A 
ATOM      3  C2  UNL d   1      -1.306  -5.463  -5.998  0.00  0.00     0.048 A 
ATOM      4  C3  UNL d   1      -2.555  -4.841  -5.995  0.00  0.00     0.023 A 
ATOM      5  C4  UNL d   1      -2.650  -3.449  -5.994  0.00  0.00     0.048 A 
ATOM      6  C5  UNL d   1      -1.487  -2.676  -5.993  0.00  0.00     0.003 A 
ATOM      7  I   UNL d   1      -4.283  -5.995  -5.995  0.00  0.00    -0.146 I 
ENDROOT
TORSDOF 0
ENDMDL
