MODEL 1
REMARK minimizedAffinity 19.9474277
REMARK minimizedRMSD -1
REMARK  0 active torsions:
REMARK  status: ('A' for Active; 'I' for Inactive)
ROOT
ATOM      1  C   UNL d   1       4.082  -1.671   0.189  0.00  0.00     0.023 A 
ATOM      2  C1  UNL d   1       2.795  -1.205  -0.079  0.00  0.00     0.003 A 
ATOM      3  C2  UNL d   1       1.814  -2.085  -0.538  0.00  0.00     0.048 A 
ATOM      4  C3  UNL d   1       2.126  -3.431  -0.725  0.00  0.00     0.023 A 
ATOM      5  C4  UNL d   1       3.412  -3.903  -0.458  0.00  0.00     0.048 A 
ATOM      6  C5  UNL d   1       4.390  -3.018  -0.000  0.00  0.00     0.003 A 
ATOM      7  I   UNL d   1       0.666  -4.744  -1.407  0.00  0.00    -0.146 I 
ENDROOT
TORSDOF 0
ENDMDL
