MODEL 1
REMARK minimizedAffinity 7.14828634
REMARK minimizedRMSD -1
REMARK  0 active torsions:
REMARK  status: ('A' for Active; 'I' for Inactive)
ROOT
ATOM      1  C   UNL d   1      -5.261  -5.046  -6.000  0.00  0.00     0.023 A 
ATOM      2  C1  UNL d   1      -4.945  -3.688  -6.000  0.00  0.00     0.003 A 
ATOM      3  C2  UNL d   1      -3.609  -3.280  -5.993  0.00  0.00     0.048 A 
ATOM      4  C3  UNL d   1      -2.594  -4.237  -5.987  0.00  0.00     0.023 A 
ATOM      5  C4  UNL d   1      -2.906  -5.597  -5.988  0.00  0.00     0.048 A 
ATOM      6  C5  UNL d   1      -4.243  -6.000  -5.994  0.00  0.00     0.003 A 
ATOM      7  I   UNL d   1      -0.606  -3.632  -5.977  0.00  0.00    -0.146 I 
ENDROOT
TORSDOF 0
ENDMDL
