MODEL 1
REMARK minimizedAffinity 2.61770201
REMARK minimizedRMSD -1
REMARK  0 active torsions:
REMARK  status: ('A' for Active; 'I' for Inactive)
ROOT
ATOM      1  C   UNL d   1      -1.039  -1.917  -5.620  0.00  0.00     0.023 A 
ATOM      2  C1  UNL d   1      -2.402  -1.837  -5.906  0.00  0.00     0.003 A 
ATOM      3  C2  UNL d   1      -3.166  -3.002  -5.999  0.00  0.00     0.048 A 
ATOM      4  C3  UNL d   1      -2.562  -4.243  -5.804  0.00  0.00     0.023 A 
ATOM      5  C4  UNL d   1      -1.199  -4.328  -5.517  0.00  0.00     0.048 A 
ATOM      6  C5  UNL d   1      -0.438  -3.161  -5.426  0.00  0.00     0.003 A 
ATOM      7  I   UNL d   1      -3.698  -5.978  -5.943  0.00  0.00    -0.146 I 
ENDROOT
TORSDOF 0
ENDMDL
