MODEL 1
REMARK minimizedAffinity 1.67695141
REMARK minimizedRMSD -1
REMARK  0 active torsions:
REMARK  status: ('A' for Active; 'I' for Inactive)
ROOT
ATOM      1  C   UNL d   1      -4.692  -0.005   2.338  0.00  0.00     0.023 A 
ATOM      2  C1  UNL d   1      -5.626   0.304   3.327  0.00  0.00     0.003 A 
ATOM      3  C2  UNL d   1      -6.000  -0.663   4.263  0.00  0.00     0.048 A 
ATOM      4  C3  UNL d   1      -5.435  -1.936   4.205  0.00  0.00     0.023 A 
ATOM      5  C4  UNL d   1      -4.499  -2.250   3.217  0.00  0.00     0.048 A 
ATOM      6  C5  UNL d   1      -4.130  -1.280   2.283  0.00  0.00     0.003 A 
ATOM      7  I   UNL d   1      -5.989  -3.377   5.597  0.00  0.00    -0.146 I 
ENDROOT
TORSDOF 0
ENDMDL
