MODEL 1
REMARK minimizedAffinity 7.58406115
REMARK minimizedRMSD -1
REMARK  0 active torsions:
REMARK  status: ('A' for Active; 'I' for Inactive)
ROOT
ATOM      1  C   UNL d   1      -4.556  -4.830  -5.952  0.00  0.00     0.023 A 
ATOM      2  C1  UNL d   1      -3.987  -3.557  -5.999  0.00  0.00     0.003 A 
ATOM      3  C2  UNL d   1      -2.598  -3.412  -5.997  0.00  0.00     0.048 A 
ATOM      4  C3  UNL d   1      -1.784  -4.543  -5.949  0.00  0.00     0.023 A 
ATOM      5  C4  UNL d   1      -2.349  -5.818  -5.903  0.00  0.00     0.048 A 
ATOM      6  C5  UNL d   1      -3.738  -5.959  -5.904  0.00  0.00     0.003 A 
ATOM      7  I   UNL d   1       0.283  -4.329  -5.947  0.00  0.00    -0.146 I 
ENDROOT
TORSDOF 0
ENDMDL
