MODEL 1
REMARK minimizedAffinity 6.622262
REMARK minimizedRMSD -1
REMARK  0 active torsions:
REMARK  status: ('A' for Active; 'I' for Inactive)
ROOT
ATOM      1  C   UNL d   1      -6.000  -0.930   4.751  0.00  0.00     0.023 A 
ATOM      2  C1  UNL d   1      -5.462  -1.951   3.967  0.00  0.00     0.003 A 
ATOM      3  C2  UNL d   1      -4.923  -1.660   2.712  0.00  0.00     0.048 A 
ATOM      4  C3  UNL d   1      -4.925  -0.346   2.247  0.00  0.00     0.023 A 
ATOM      5  C4  UNL d   1      -5.461   0.679   3.028  0.00  0.00     0.048 A 
ATOM      6  C5  UNL d   1      -5.999   0.383   4.281  0.00  0.00     0.003 A 
ATOM      7  I   UNL d   1      -4.124   0.090   0.379  0.00  0.00    -0.146 I 
ENDROOT
TORSDOF 0
ENDMDL
