MODEL 1
REMARK minimizedAffinity 6.08954
REMARK minimizedRMSD -1
REMARK  0 active torsions:
REMARK  status: ('A' for Active; 'I' for Inactive)
ROOT
ATOM      1  C   UNL d   1      -0.034  -4.129  -2.749  0.00  0.00     0.023 A 
ATOM      2  C1  UNL d   1       0.495  -4.004  -4.034  0.00  0.00     0.003 A 
ATOM      3  C2  UNL d   1      -0.079  -3.112  -4.942  0.00  0.00     0.048 A 
ATOM      4  C3  UNL d   1      -1.181  -2.348  -4.559  0.00  0.00     0.023 A 
ATOM      5  C4  UNL d   1      -1.713  -2.470  -3.274  0.00  0.00     0.048 A 
ATOM      6  C5  UNL d   1      -1.136  -3.363  -2.369  0.00  0.00     0.003 A 
ATOM      7  I   UNL d   1      -2.037  -1.020  -5.909  0.00  0.00    -0.146 I 
ENDROOT
TORSDOF 0
ENDMDL
