MODEL 1
REMARK minimizedAffinity -1.05607188
REMARK minimizedRMSD -1
REMARK  0 active torsions:
REMARK  status: ('A' for Active; 'I' for Inactive)
ROOT
ATOM      1  C   UNL d   1       1.048  -3.584   3.041  0.00  0.00     0.023 A 
ATOM      2  C1  UNL d   1       1.798  -2.849   3.958  0.00  0.00     0.003 A 
ATOM      3  C2  UNL d   1       2.370  -1.633   3.579  0.00  0.00     0.048 A 
ATOM      4  C3  UNL d   1       2.187  -1.157   2.282  0.00  0.00     0.023 A 
ATOM      5  C4  UNL d   1       1.436  -1.889   1.360  0.00  0.00     0.048 A 
ATOM      6  C5  UNL d   1       0.867  -3.105   1.743  0.00  0.00     0.003 A 
ATOM      7  I   UNL d   1       3.037   0.653   1.715  0.00  0.00    -0.146 I 
ENDROOT
TORSDOF 0
ENDMDL
