MODEL 1
REMARK minimizedAffinity 11.4397354
REMARK minimizedRMSD -1
REMARK  0 active torsions:
REMARK  status: ('A' for Active; 'I' for Inactive)
ROOT
ATOM      1  C   UNL d   1       2.674  -2.750   4.856  0.00  0.00     0.023 A 
ATOM      2  C1  UNL d   1       1.535  -2.239   4.233  0.00  0.00     0.003 A 
ATOM      3  C2  UNL d   1       1.655  -1.234   3.270  0.00  0.00     0.048 A 
ATOM      4  C3  UNL d   1       2.917  -0.745   2.935  0.00  0.00     0.023 A 
ATOM      5  C4  UNL d   1       4.060  -1.254   3.555  0.00  0.00     0.048 A 
ATOM      6  C5  UNL d   1       3.935  -2.258   4.517  0.00  0.00     0.003 A 
ATOM      7  I   UNL d   1       3.098   0.750   1.502  0.00  0.00    -0.146 I 
ENDROOT
TORSDOF 0
ENDMDL
