MODEL 1
REMARK minimizedAffinity 14.1717672
REMARK minimizedRMSD -1
REMARK  0 active torsions:
REMARK  status: ('A' for Active; 'I' for Inactive)
ROOT
ATOM      1  C   UNL d   1      -0.233  -1.903  -0.985  0.00  0.00     0.023 A 
ATOM      2  C1  UNL d   1       0.989  -2.544  -0.779  0.00  0.00     0.003 A 
ATOM      3  C2  UNL d   1       1.643  -2.425   0.449  0.00  0.00     0.048 A 
ATOM      4  C3  UNL d   1       1.069  -1.665   1.467  0.00  0.00     0.023 A 
ATOM      5  C4  UNL d   1      -0.153  -1.022   1.266  0.00  0.00     0.048 A 
ATOM      6  C5  UNL d   1      -0.803  -1.143   0.036  0.00  0.00     0.003 A 
ATOM      7  I   UNL d   1       2.041  -1.487   3.296  0.00  0.00    -0.146 I 
ENDROOT
TORSDOF 0
ENDMDL
