MODEL 1
REMARK minimizedAffinity 10.5204449
REMARK minimizedRMSD -1
REMARK  0 active torsions:
REMARK  status: ('A' for Active; 'I' for Inactive)
ROOT
ATOM      1  C   UNL d   1      -4.079   3.610   1.779  0.00  0.00     0.023 A 
ATOM      2  C1  UNL d   1      -3.382   2.673   1.017  0.00  0.00     0.003 A 
ATOM      3  C2  UNL d   1      -3.850   2.311  -0.247  0.00  0.00     0.048 A 
ATOM      4  C3  UNL d   1      -5.017   2.891  -0.745  0.00  0.00     0.023 A 
ATOM      5  C4  UNL d   1      -5.717   3.830   0.014  0.00  0.00     0.048 A 
ATOM      6  C5  UNL d   1      -5.246   4.188   1.278  0.00  0.00     0.003 A 
ATOM      7  I   UNL d   1      -5.716   2.354  -2.627  0.00  0.00    -0.146 I 
ENDROOT
TORSDOF 0
ENDMDL
