MODEL 1
REMARK minimizedAffinity 6.51172686
REMARK minimizedRMSD -1
REMARK  0 active torsions:
REMARK  status: ('A' for Active; 'I' for Inactive)
ROOT
ATOM      1  C   UNL d   1      -5.942   3.612  -4.747  0.00  0.00     0.023 A 
ATOM      2  C1  UNL d   1      -5.925   2.504  -5.594  0.00  0.00     0.003 A 
ATOM      3  C2  UNL d   1      -5.941   1.214  -5.059  0.00  0.00     0.048 A 
ATOM      4  C3  UNL d   1      -5.975   1.040  -3.676  0.00  0.00     0.023 A 
ATOM      5  C4  UNL d   1      -5.993   2.146  -2.824  0.00  0.00     0.048 A 
ATOM      6  C5  UNL d   1      -5.976   3.433  -3.364  0.00  0.00     0.003 A 
ATOM      7  I   UNL d   1      -6.000  -0.879  -2.877  0.00  0.00    -0.146 I 
ENDROOT
TORSDOF 0
ENDMDL
