MODEL 1
REMARK minimizedAffinity 6.03471375
REMARK minimizedRMSD -1
REMARK  0 active torsions:
REMARK  status: ('A' for Active; 'I' for Inactive)
ROOT
ATOM      1  C   UNL d   1       1.838  -1.541   3.154  0.00  0.00     0.023 A 
ATOM      2  C1  UNL d   1       1.902  -2.584   4.078  0.00  0.00     0.003 A 
ATOM      3  C2  UNL d   1       3.096  -2.847   4.754  0.00  0.00     0.048 A 
ATOM      4  C3  UNL d   1       4.221  -2.064   4.501  0.00  0.00     0.023 A 
ATOM      5  C4  UNL d   1       4.161  -1.018   3.577  0.00  0.00     0.048 A 
ATOM      6  C5  UNL d   1       2.966  -0.759   2.904  0.00  0.00     0.003 A 
ATOM      7  I   UNL d   1       5.998  -2.454   5.504  0.00  0.00    -0.146 I 
ENDROOT
TORSDOF 0
ENDMDL
