MODEL 1
REMARK minimizedAffinity 13.8261871
REMARK minimizedRMSD -1
REMARK  0 active torsions:
REMARK  status: ('A' for Active; 'I' for Inactive)
ROOT
ATOM      1  C   UNL d   1       3.994  -1.303   1.615  0.00  0.00     0.023 A 
ATOM      2  C1  UNL d   1       5.382  -1.322   1.752  0.00  0.00     0.003 A 
ATOM      3  C2  UNL d   1       5.959  -1.587   2.995  0.00  0.00     0.048 A 
ATOM      4  C3  UNL d   1       5.142  -1.834   4.098  0.00  0.00     0.023 A 
ATOM      5  C4  UNL d   1       3.753  -1.817   3.966  0.00  0.00     0.048 A 
ATOM      6  C5  UNL d   1       3.180  -1.550   2.721  0.00  0.00     0.003 A 
ATOM      7  I   UNL d   1       5.999  -2.229   5.950  0.00  0.00    -0.146 I 
ENDROOT
TORSDOF 0
ENDMDL
