MODEL 1
REMARK minimizedAffinity -1.1792959
REMARK minimizedRMSD -1
REMARK  0 active torsions:
REMARK  status: ('A' for Active; 'I' for Inactive)
ROOT
ATOM      1  C1  DEN d   1      -2.060  -1.163   0.548  0.00  0.00     0.130 A 
ATOM      2  C2  DEN d   1      -2.884  -1.293  -0.651  0.00  0.00    -0.031 A 
ATOM      3  C3  DEN d   1      -2.128  -0.727  -1.787  0.00  0.00     0.027 A 
ATOM      4  C4  DEN d   1       0.225   0.328  -1.806  0.00  0.00     0.027 A 
ATOM      5  C5  DEN d   1       1.308   0.671  -1.026  0.00  0.00    -0.003 A 
ATOM      6  C6  DEN d   1       1.330   0.459   0.327  0.00  0.00     0.001 A 
ATOM      7  C7  DEN d   1       0.266  -0.153   0.935  0.00  0.00     0.017 A 
ATOM      8  C8  DEN d   1      -0.832  -0.494   0.158  0.00  0.00    -0.094 A 
ATOM      9  C9  DEN d   1      -0.830  -0.283  -1.211  0.00  0.00    -0.072 A 
ENDROOT
TORSDOF 0
ENDMDL
