MODEL 1
REMARK minimizedAffinity -0.132372543
REMARK minimizedRMSD -1
REMARK  0 active torsions:
REMARK  status: ('A' for Active; 'I' for Inactive)
ROOT
ATOM      1  C1  DEN d   1      -0.873   0.135   0.580  0.00  0.00     0.130 A 
ATOM      2  C2  DEN d   1      -0.955  -0.195  -0.840  0.00  0.00    -0.031 A 
ATOM      3  C3  DEN d   1       0.340   0.143  -1.464  0.00  0.00     0.027 A 
ATOM      4  C4  DEN d   1       2.456   1.134  -0.372  0.00  0.00     0.027 A 
ATOM      5  C5  DEN d   1       3.002   1.593   0.806  0.00  0.00    -0.003 A 
ATOM      6  C6  DEN d   1       2.289   1.629   1.975  0.00  0.00     0.001 A 
ATOM      7  C7  DEN d   1       1.003   1.157   2.001  0.00  0.00     0.017 A 
ATOM      8  C8  DEN d   1       0.444   0.700   0.815  0.00  0.00    -0.094 A 
ATOM      9  C9  DEN d   1       1.185   0.660  -0.354  0.00  0.00    -0.072 A 
ENDROOT
TORSDOF 0
ENDMDL
