MODEL 1
REMARK minimizedAffinity 1.64717019
REMARK minimizedRMSD -1
REMARK  0 active torsions:
REMARK  status: ('A' for Active; 'I' for Inactive)
ROOT
ATOM      1  C1  DEN d   1       1.235   1.889   1.751  0.00  0.00     0.130 A 
ATOM      2  C2  DEN d   1       2.378   2.516   1.091  0.00  0.00    -0.031 A 
ATOM      3  C3  DEN d   1       2.487   1.949  -0.268  0.00  0.00     0.027 A 
ATOM      4  C4  DEN d   1       1.003   0.175  -1.411  0.00  0.00     0.027 A 
ATOM      5  C5  DEN d   1      -0.081  -0.657  -1.244  0.00  0.00    -0.003 A 
ATOM      6  C6  DEN d   1      -0.776  -0.724  -0.066  0.00  0.00     0.001 A 
ATOM      7  C7  DEN d   1      -0.422   0.090   0.978  0.00  0.00     0.017 A 
ATOM      8  C8  DEN d   1       0.675   0.926   0.820  0.00  0.00    -0.094 A 
ATOM      9  C9  DEN d   1       1.357   0.988  -0.383  0.00  0.00    -0.072 A 
ENDROOT
TORSDOF 0
ENDMDL
