MODEL 1
REMARK minimizedAffinity -3.56365156
REMARK minimizedRMSD -1
REMARK  0 active torsions:
REMARK  status: ('A' for Active; 'I' for Inactive)
ROOT
ATOM      1  C1  DEN d   1      -2.344  -0.149   0.942  0.00  0.00     0.130 A 
ATOM      2  C2  DEN d   1      -3.168  -0.599  -0.177  0.00  0.00    -0.031 A 
ATOM      3  C3  DEN d   1      -2.313  -0.658  -1.380  0.00  0.00     0.027 A 
ATOM      4  C4  DEN d   1       0.195  -0.104  -1.615  0.00  0.00     0.027 A 
ATOM      5  C5  DEN d   1       1.317   0.330  -0.944  0.00  0.00    -0.003 A 
ATOM      6  C6  DEN d   1       1.289   0.664   0.384  0.00  0.00     0.001 A 
ATOM      7  C7  DEN d   1       0.126   0.527   1.095  0.00  0.00     0.017 A 
ATOM      8  C8  DEN d   1      -1.011   0.097   0.423  0.00  0.00    -0.094 A 
ATOM      9  C9  DEN d   1      -0.960  -0.248  -0.917  0.00  0.00    -0.072 A 
ENDROOT
TORSDOF 0
ENDMDL
