MODEL 1
REMARK minimizedAffinity -4.91461325
REMARK minimizedRMSD -1
REMARK  0 active torsions:
REMARK  status: ('A' for Active; 'I' for Inactive)
ROOT
ATOM      1  C1  DEN d   1       1.145  -0.398   1.007  0.00  0.00     0.130 A 
ATOM      2  C2  DEN d   1       1.918  -0.068  -0.187  0.00  0.00    -0.031 A 
ATOM      3  C3  DEN d   1       0.972   0.128  -1.304  0.00  0.00     0.027 A 
ATOM      4  C4  DEN d   1      -1.602  -0.041  -1.299  0.00  0.00     0.027 A 
ATOM      5  C5  DEN d   1      -2.708  -0.307  -0.522  0.00  0.00    -0.003 A 
ATOM      6  C6  DEN d   1      -2.606  -0.653   0.800  0.00  0.00     0.001 A 
ATOM      7  C7  DEN d   1      -1.373  -0.697   1.397  0.00  0.00     0.017 A 
ATOM      8  C8  DEN d   1      -0.253  -0.437   0.618  0.00  0.00    -0.094 A 
ATOM      9  C9  DEN d   1      -0.378  -0.078  -0.713  0.00  0.00    -0.072 A 
ENDROOT
TORSDOF 0
ENDMDL
