MODEL 1
REMARK minimizedAffinity -4.05419445
REMARK minimizedRMSD -1
REMARK  0 active torsions:
REMARK  status: ('A' for Active; 'I' for Inactive)
ROOT
ATOM      1  C1  DEN d   1      -2.183  -0.847   1.434  0.00  0.00     0.130 A 
ATOM      2  C2  DEN d   1      -3.421  -1.572   1.163  0.00  0.00    -0.031 A 
ATOM      3  C3  DEN d   1      -3.591  -1.654  -0.301  0.00  0.00     0.027 A 
ATOM      4  C4  DEN d   1      -2.063  -0.737  -2.166  0.00  0.00     0.027 A 
ATOM      5  C5  DEN d   1      -0.904  -0.039  -2.426  0.00  0.00    -0.003 A 
ATOM      6  C6  DEN d   1      -0.115   0.464  -1.425  0.00  0.00     0.001 A 
ATOM      7  C7  DEN d   1      -0.450   0.237  -0.117  0.00  0.00     0.017 A 
ATOM      8  C8  DEN d   1      -1.621  -0.459   0.153  0.00  0.00    -0.094 A 
ATOM      9  C9  DEN d   1      -2.399  -0.970  -0.872  0.00  0.00    -0.072 A 
ENDROOT
TORSDOF 0
ENDMDL
