MODEL 1
REMARK minimizedAffinity -5.15470266
REMARK minimizedRMSD -1
REMARK  0 active torsions:
REMARK  status: ('A' for Active; 'I' for Inactive)
ROOT
ATOM      1  C1  DEN d   1      -1.759   0.662  -1.089  0.00  0.00     0.130 A 
ATOM      2  C2  DEN d   1      -3.061   0.101  -0.739  0.00  0.00    -0.031 A 
ATOM      3  C3  DEN d   1      -2.844  -0.973   0.252  0.00  0.00     0.027 A 
ATOM      4  C4  DEN d   1      -0.631  -1.812   1.277  0.00  0.00     0.027 A 
ATOM      5  C5  DEN d   1       0.737  -1.650   1.280  0.00  0.00    -0.003 A 
ATOM      6  C6  DEN d   1       1.367  -0.738   0.476  0.00  0.00     0.001 A 
ATOM      7  C7  DEN d   1       0.623   0.080  -0.333  0.00  0.00     0.017 A 
ATOM      8  C8  DEN d   1      -0.756  -0.081  -0.348  0.00  0.00    -0.094 A 
ATOM      9  C9  DEN d   1      -1.374  -1.001   0.482  0.00  0.00    -0.072 A 
ENDROOT
TORSDOF 0
ENDMDL
