MODEL 1
REMARK minimizedAffinity 0.132997617
REMARK minimizedRMSD -1
REMARK  0 active torsions:
REMARK  status: ('A' for Active; 'I' for Inactive)
ROOT
ATOM      1  C1  DEN d   1      -1.190   0.127  -1.427  0.00  0.00     0.130 A 
ATOM      2  C2  DEN d   1      -2.460  -0.568  -1.237  0.00  0.00    -0.031 A 
ATOM      3  C3  DEN d   1      -2.324  -1.454  -0.063  0.00  0.00     0.027 A 
ATOM      4  C4  DEN d   1      -0.284  -1.810   1.473  0.00  0.00     0.027 A 
ATOM      5  C5  DEN d   1       1.026  -1.450   1.702  0.00  0.00    -0.003 A 
ATOM      6  C6  DEN d   1       1.694  -0.571   0.891  0.00  0.00     0.001 A 
ATOM      7  C7  DEN d   1       1.040   0.012  -0.162  0.00  0.00     0.017 A 
ATOM      8  C8  DEN d   1      -0.278  -0.353  -0.404  0.00  0.00    -0.094 A 
ATOM      9  C9  DEN d   1      -0.940  -1.233   0.435  0.00  0.00    -0.072 A 
ENDROOT
TORSDOF 0
ENDMDL
