MODEL 1
REMARK minimizedAffinity -1.94295037
REMARK minimizedRMSD -1
REMARK  0 active torsions:
REMARK  status: ('A' for Active; 'I' for Inactive)
ROOT
ATOM      1  C1  DEN d   1       0.178   0.669  -0.230  0.00  0.00     0.130 A 
ATOM      2  C2  DEN d   1       1.556   0.494   0.219  0.00  0.00    -0.031 A 
ATOM      3  C3  DEN d   1       1.582  -0.620   1.188  0.00  0.00     0.027 A 
ATOM      4  C4  DEN d   1      -0.366  -2.086   2.028  0.00  0.00     0.027 A 
ATOM      5  C5  DEN d   1      -1.723  -2.308   1.941  0.00  0.00    -0.003 A 
ATOM      6  C6  DEN d   1      -2.540  -1.537   1.157  0.00  0.00     0.001 A 
ATOM      7  C7  DEN d   1      -2.000  -0.536   0.393  0.00  0.00     0.017 A 
ATOM      8  C8  DEN d   1      -0.634  -0.302   0.481  0.00  0.00    -0.094 A 
ATOM      9  C9  DEN d   1       0.177  -1.100   1.270  0.00  0.00    -0.072 A 
ENDROOT
TORSDOF 0
ENDMDL
