MODEL 1
REMARK minimizedAffinity -4.1676569
REMARK minimizedRMSD -1
REMARK  0 active torsions:
REMARK  status: ('A' for Active; 'I' for Inactive)
ROOT
ATOM      1  C4' PXY d   1       0.772  -1.263  -0.856  0.00  0.00     0.077 C 
ATOM      2  C1' PXY d   1      -1.627   3.024   2.191  0.00  0.00     0.077 C 
ATOM      3  C1  PXY d   1      -0.989   1.898   1.401  0.00  0.00    -0.082 A 
ATOM      4  C2  PXY d   1      -1.217   1.800   0.101  0.00  0.00     0.003 A 
ATOM      5  C3  PXY d   1      -0.674   0.770  -0.623  0.00  0.00     0.003 A 
ATOM      6  C4  PXY d   1       0.156  -0.138  -0.020  0.00  0.00    -0.082 A 
ATOM      7  C5  PXY d   1       0.402  -0.038   1.303  0.00  0.00     0.003 A 
ATOM      8  C6  PXY d   1      -0.192   0.991   2.028  0.00  0.00     0.003 A 
ENDROOT
TORSDOF 0
ENDMDL
