MODEL 1
REMARK minimizedAffinity 0.260775685
REMARK minimizedRMSD -1
REMARK  0 active torsions:
REMARK  status: ('A' for Active; 'I' for Inactive)
ROOT
ATOM      1  C4' PXY d   1      -1.702   3.394   1.712  0.00  0.00     0.077 C 
ATOM      2  C1' PXY d   1       0.760  -1.491  -0.155  0.00  0.00     0.077 C 
ATOM      3  C1  PXY d   1       0.117  -0.213   0.347  0.00  0.00    -0.082 A 
ATOM      4  C2  PXY d   1      -0.795   0.395  -0.394  0.00  0.00     0.003 A 
ATOM      5  C3  PXY d   1      -1.363   1.569   0.030  0.00  0.00     0.003 A 
ATOM      6  C4  PXY d   1      -1.034   2.097   1.250  0.00  0.00    -0.082 A 
ATOM      7  C5  PXY d   1      -0.112   1.476   2.016  0.00  0.00     0.003 A 
ATOM      8  C6  PXY d   1       0.483   0.308   1.549  0.00  0.00     0.003 A 
ENDROOT
TORSDOF 0
ENDMDL
