MODEL 1
REMARK minimizedAffinity -5.450284
REMARK minimizedRMSD -1
REMARK  0 active torsions:
REMARK  status: ('A' for Active; 'I' for Inactive)
ROOT
ATOM      1  C4' PXY d   1       1.135  -0.633   2.970  0.00  0.00     0.077 C 
ATOM      2  C1' PXY d   1      -1.187   2.151  -1.533  0.00  0.00     0.077 C 
ATOM      3  C1  PXY d   1      -0.579   1.432  -0.345  0.00  0.00    -0.082 A 
ATOM      4  C2  PXY d   1       0.190   0.373  -0.544  0.00  0.00     0.003 A 
ATOM      5  C3  PXY d   1       0.721  -0.308   0.520  0.00  0.00     0.003 A 
ATOM      6  C4  PXY d   1       0.508   0.130   1.800  0.00  0.00    -0.082 A 
ATOM      7  C5  PXY d   1      -0.266   1.216   2.011  0.00  0.00     0.003 A 
ATOM      8  C6  PXY d   1      -0.830   1.869   0.919  0.00  0.00     0.003 A 
ENDROOT
TORSDOF 0
ENDMDL
