MODEL 1
REMARK minimizedAffinity -3.2681489
REMARK minimizedRMSD -1
REMARK  0 active torsions:
REMARK  status: ('A' for Active; 'I' for Inactive)
ROOT
ATOM      1  C4' PXY d   1       0.157   1.523   1.492  0.00  0.00     0.077 C 
ATOM      2  C1' PXY d   1      -0.480  -3.247  -1.709  0.00  0.00     0.077 C 
ATOM      3  C1  PXY d   1      -0.300  -1.998  -0.869  0.00  0.00    -0.082 A 
ATOM      4  C2  PXY d   1      -1.313  -1.542  -0.151  0.00  0.00     0.003 A 
ATOM      5  C3  PXY d   1      -1.177  -0.395   0.589  0.00  0.00     0.003 A 
ATOM      6  C4  PXY d   1       0.024   0.260   0.637  0.00  0.00    -0.082 A 
ATOM      7  C5  PXY d   1       1.065  -0.206  -0.085  0.00  0.00     0.003 A 
ATOM      8  C6  PXY d   1       0.895  -1.347  -0.862  0.00  0.00     0.003 A 
ENDROOT
TORSDOF 0
ENDMDL
