MODEL 1
REMARK minimizedAffinity -4.33337498
REMARK minimizedRMSD -1
REMARK  0 active torsions:
REMARK  status: ('A' for Active; 'I' for Inactive)
ROOT
ATOM      1  C4' PXY d   1      -0.015   1.283   0.991  0.00  0.00     0.077 C 
ATOM      2  C1' PXY d   1      -0.446  -3.859  -1.616  0.00  0.00     0.077 C 
ATOM      3  C1  PXY d   1      -0.320  -2.513  -0.930  0.00  0.00    -0.082 A 
ATOM      4  C2  PXY d   1      -1.396  -1.934  -0.422  0.00  0.00     0.003 A 
ATOM      5  C3  PXY d   1      -1.306  -0.702   0.174  0.00  0.00     0.003 A 
ATOM      6  C4  PXY d   1      -0.093  -0.080   0.298  0.00  0.00    -0.082 A 
ATOM      7  C5  PXY d   1       1.012  -0.669  -0.208  0.00  0.00     0.003 A 
ATOM      8  C6  PXY d   1       0.892  -1.900  -0.845  0.00  0.00     0.003 A 
ENDROOT
TORSDOF 0
ENDMDL
