MODEL 1
REMARK minimizedAffinity -1.88393092
REMARK minimizedRMSD -1
REMARK  0 active torsions:
REMARK  status: ('A' for Active; 'I' for Inactive)
ROOT
ATOM      1  C4' PXY d   1      -1.134  -5.368  -1.551  0.00  0.00     0.077 C 
ATOM      2  C1' PXY d   1       0.059   0.235  -0.778  0.00  0.00     0.077 C 
ATOM      3  C1  PXY d   1      -0.265  -1.231  -0.985  0.00  0.00    -0.082 A 
ATOM      4  C2  PXY d   1       0.348  -2.147  -0.253  0.00  0.00     0.003 A 
ATOM      5  C3  PXY d   1       0.090  -3.479  -0.450  0.00  0.00     0.003 A 
ATOM      6  C4  PXY d   1      -0.844  -3.875  -1.369  0.00  0.00    -0.082 A 
ATOM      7  C5  PXY d   1      -1.482  -2.947  -2.112  0.00  0.00     0.003 A 
ATOM      8  C6  PXY d   1      -1.176  -1.602  -1.926  0.00  0.00     0.003 A 
ENDROOT
TORSDOF 0
ENDMDL
