MODEL 1
REMARK minimizedAffinity 2.29541802
REMARK minimizedRMSD -1
REMARK  0 active torsions:
REMARK  status: ('A' for Active; 'I' for Inactive)
ROOT
ATOM      1  C4' PXY d   1       0.810  -0.114  -2.581  0.00  0.00     0.077 C 
ATOM      2  C1' PXY d   1      -1.978  -5.177  -2.491  0.00  0.00     0.077 C 
ATOM      3  C1  PXY d   1      -1.248  -3.848  -2.502  0.00  0.00    -0.082 A 
ATOM      4  C2  PXY d   1      -1.258  -3.105  -3.596  0.00  0.00     0.003 A 
ATOM      5  C3  PXY d   1      -0.576  -1.916  -3.633  0.00  0.00     0.003 A 
ATOM      6  C4  PXY d   1       0.079  -1.458  -2.522  0.00  0.00    -0.082 A 
ATOM      7  C5  PXY d   1       0.085  -2.205  -1.398  0.00  0.00     0.003 A 
ATOM      8  C6  PXY d   1      -0.579  -3.429  -1.394  0.00  0.00     0.003 A 
ENDROOT
TORSDOF 0
ENDMDL
