MODEL 1
REMARK minimizedAffinity -0.401559561
REMARK minimizedRMSD -1
REMARK  2 active torsions:
REMARK  status: ('A' for Active; 'I' for Inactive)
REMARK    1  A    between atoms: C1_2  and  C2_3 
REMARK    2  A    between atoms: C2_3  and  C3_4 
ROOT
ATOM      1  C3  UNL d   1       0.260   0.261   0.396  0.00  0.00    -0.075 A 
ATOM      2  C4  UNL d   1      -0.046  -0.218   1.678  0.00  0.00     0.002 A 
ATOM      3  C5  UNL d   1       0.613  -1.335   2.193  0.00  0.00     0.002 A 
ATOM      4  C6  UNL d   1       1.577  -1.991   1.430  0.00  0.00    -0.004 A 
ATOM      5  C7  UNL d   1       1.877  -1.534   0.149  0.00  0.00     0.002 A 
ATOM      6  C8  UNL d   1       1.222  -0.414  -0.366  0.00  0.00     0.002 A 
ENDROOT
BRANCH   1   7
ATOM      7  C2  UNL d   1      -0.428   1.487  -0.155  0.00  0.00     0.056 C 
BRANCH   7   8
ATOM      8  C1  UNL d   1       0.198   2.027  -1.446  0.00  0.00     0.007 C 
ATOM      9  C   UNL d   1      -0.769   2.856  -2.281  0.00  0.00     0.009 C 
ENDBRANCH   7   8
ENDBRANCH   1   7
TORSDOF 2
ENDMDL
