MODEL 1
REMARK minimizedAffinity -0.914752424
REMARK minimizedRMSD -1
REMARK  2 active torsions:
REMARK  status: ('A' for Active; 'I' for Inactive)
REMARK    1  A    between atoms: C1_2  and  C2_3 
REMARK    2  A    between atoms: C2_3  and  C3_4 
ROOT
ATOM      1  C3  UNL d   1      -1.008   1.120  -1.358  0.00  0.00    -0.075 A 
ATOM      2  C4  UNL d   1       0.079   0.374  -1.836  0.00  0.00     0.002 A 
ATOM      3  C5  UNL d   1       0.791  -0.469  -0.982  0.00  0.00     0.002 A 
ATOM      4  C6  UNL d   1       0.433  -0.568   0.360  0.00  0.00    -0.004 A 
ATOM      5  C7  UNL d   1      -0.634   0.181   0.851  0.00  0.00     0.002 A 
ATOM      6  C8  UNL d   1      -1.351   1.022  -0.003  0.00  0.00     0.002 A 
ENDROOT
BRANCH   1   7
ATOM      7  C2  UNL d   1      -1.801   2.012  -2.284  0.00  0.00     0.056 C 
BRANCH   7   8
ATOM      8  C1  UNL d   1      -1.439   3.497  -2.180  0.00  0.00     0.007 C 
ATOM      9  C   UNL d   1      -0.109   3.839  -2.839  0.00  0.00     0.009 C 
ENDBRANCH   7   8
ENDBRANCH   1   7
TORSDOF 2
ENDMDL
