MODEL 1
REMARK minimizedAffinity -3.61464858
REMARK minimizedRMSD -1
REMARK  2 active torsions:
REMARK  status: ('A' for Active; 'I' for Inactive)
REMARK    1  A    between atoms: C1_2  and  C2_3 
REMARK    2  A    between atoms: C2_3  and  C3_4 
ROOT
ATOM      1  C3  UNL d   1      -0.046  -0.426  -0.367  0.00  0.00    -0.075 A 
ATOM      2  C4  UNL d   1       1.123  -1.122  -0.708  0.00  0.00     0.002 A 
ATOM      3  C5  UNL d   1       1.855  -1.799   0.267  0.00  0.00     0.002 A 
ATOM      4  C6  UNL d   1       1.434  -1.782   1.595  0.00  0.00    -0.004 A 
ATOM      5  C7  UNL d   1       0.284  -1.080   1.949  0.00  0.00     0.002 A 
ATOM      6  C8  UNL d   1      -0.453  -0.405   0.974  0.00  0.00     0.002 A 
ENDROOT
BRANCH   1   7
ATOM      7  C2  UNL d   1      -0.859   0.284  -1.422  0.00  0.00     0.056 C 
BRANCH   7   8
ATOM      8  C1  UNL d   1      -0.475   1.755  -1.620  0.00  0.00     0.007 C 
ATOM      9  C   UNL d   1      -1.424   2.503  -2.546  0.00  0.00     0.009 C 
ENDBRANCH   7   8
ENDBRANCH   1   7
TORSDOF 2
ENDMDL
