MODEL 1
REMARK minimizedAffinity 9.32927418
REMARK minimizedRMSD -1
REMARK  1 active torsions:
REMARK  status: ('A' for Active; 'I' for Inactive)
REMARK    1  A    between atoms: C1_2  and  C2_3 
ROOT
ATOM      1  C2  UNL d   1       1.850  -3.422   0.558  0.00  0.00    -0.076 A 
ATOM      2  C3  UNL d   1       0.468  -3.186   0.460  0.00  0.00     0.004 A 
ATOM      3  C4  UNL d   1      -0.092  -1.999   0.929  0.00  0.00    -0.003 A 
ATOM      4  C5  UNL d   1       0.721  -1.028   1.503  0.00  0.00     0.000 A 
ATOM      5  C6  UNL d   1       2.096  -1.238   1.593  0.00  0.00     0.000 A 
ATOM      6  C7  UNL d   1       2.679  -2.422   1.110  0.00  0.00    -0.073 A 
ATOM      7  C8  UNL d   1       4.168  -2.598   1.238  0.00  0.00     0.078 C 
ENDROOT
BRANCH   1   8
ATOM      8  C1  UNL d   1       2.397  -4.739   0.057  0.00  0.00     0.053 C 
ATOM      9  C   UNL d   1       1.732  -5.936   0.720  0.00  0.00     0.018 C 
ENDBRANCH   1   8
TORSDOF 1
ENDMDL
