MODEL 1
REMARK minimizedAffinity 3.41118598
REMARK minimizedRMSD -1
REMARK  1 active torsions:
REMARK  status: ('A' for Active; 'I' for Inactive)
REMARK    1  A    between atoms: C1_2  and  C2_3 
ROOT
ATOM      1  C2  UNL d   1      -3.607   1.191   3.796  0.00  0.00    -0.076 A 
ATOM      2  C3  UNL d   1      -3.634   1.152   2.391  0.00  0.00     0.004 A 
ATOM      3  C4  UNL d   1      -4.821   1.362   1.690  0.00  0.00    -0.003 A 
ATOM      4  C5  UNL d   1      -5.999   1.617   2.383  0.00  0.00     0.000 A 
ATOM      5  C6  UNL d   1      -5.987   1.677   3.777  0.00  0.00     0.000 A 
ATOM      6  C7  UNL d   1      -4.796   1.483   4.497  0.00  0.00    -0.073 A 
ATOM      7  C8  UNL d   1      -4.841   1.554   5.999  0.00  0.00     0.078 C 
ENDROOT
BRANCH   1   8
ATOM      8  C1  UNL d   1      -2.296   0.928   4.502  0.00  0.00     0.053 C 
ATOM      9  C   UNL d   1      -1.433  -0.088   3.770  0.00  0.00     0.018 C 
ENDBRANCH   1   8
TORSDOF 1
ENDMDL
