MODEL 1
REMARK minimizedAffinity 2.4333117
REMARK minimizedRMSD -1
REMARK  1 active torsions:
REMARK  status: ('A' for Active; 'I' for Inactive)
REMARK    1  A    between atoms: C1_2  and  C2_3 
ROOT
ATOM      1  C2  UNL d   1      -4.057   0.054  -2.593  0.00  0.00    -0.076 A 
ATOM      2  C3  UNL d   1      -3.163  -1.007  -2.367  0.00  0.00     0.004 A 
ATOM      3  C4  UNL d   1      -3.222  -2.170  -3.133  0.00  0.00    -0.003 A 
ATOM      4  C5  UNL d   1      -4.176  -2.292  -4.137  0.00  0.00     0.000 A 
ATOM      5  C6  UNL d   1      -5.060  -1.242  -4.386  0.00  0.00     0.000 A 
ATOM      6  C7  UNL d   1      -5.004  -0.056  -3.634  0.00  0.00    -0.073 A 
ATOM      7  C8  UNL d   1      -5.985   1.041  -3.942  0.00  0.00     0.078 C 
ENDROOT
BRANCH   1   8
ATOM      8  C1  UNL d   1      -3.964   1.280  -1.713  0.00  0.00     0.053 C 
ATOM      9  C   UNL d   1      -3.092   2.368  -2.321  0.00  0.00     0.018 C 
ENDBRANCH   1   8
TORSDOF 1
ENDMDL
