MODEL 1
REMARK minimizedAffinity 10.1930285
REMARK minimizedRMSD -1
REMARK  1 active torsions:
REMARK  status: ('A' for Active; 'I' for Inactive)
REMARK    1  A    between atoms: C1_2  and  C2_3 
ROOT
ATOM      1  C2  UNL d   1       1.408  -3.368   0.710  0.00  0.00    -0.076 A 
ATOM      2  C3  UNL d   1       0.017  -3.360   0.913  0.00  0.00     0.004 A 
ATOM      3  C4  UNL d   1      -0.581  -2.419   1.749  0.00  0.00    -0.003 A 
ATOM      4  C5  UNL d   1       0.203  -1.469   2.395  0.00  0.00     0.000 A 
ATOM      5  C6  UNL d   1       1.582  -1.451   2.191  0.00  0.00     0.000 A 
ATOM      6  C7  UNL d   1       2.199  -2.383   1.339  0.00  0.00    -0.073 A 
ATOM      7  C8  UNL d   1       3.691  -2.322   1.161  0.00  0.00     0.078 C 
ENDROOT
BRANCH   1   8
ATOM      8  C1  UNL d   1       2.003  -4.430  -0.187  0.00  0.00     0.053 C 
ATOM      9  C   UNL d   1       1.815  -5.834   0.369  0.00  0.00     0.018 C 
ENDBRANCH   1   8
TORSDOF 1
ENDMDL
