MODEL 1
REMARK minimizedAffinity 9.1727047
REMARK minimizedRMSD -1
REMARK  1 active torsions:
REMARK  status: ('A' for Active; 'I' for Inactive)
REMARK    1  A    between atoms: C1_2  and  C2_3 
ROOT
ATOM      1  C2  UNL d   1       4.187  -3.683   4.515  0.00  0.00    -0.076 A 
ATOM      2  C3  UNL d   1       3.763  -5.023   4.503  0.00  0.00     0.004 A 
ATOM      3  C4  UNL d   1       4.452  -6.000   5.220  0.00  0.00    -0.003 A 
ATOM      4  C5  UNL d   1       5.576  -5.652   5.962  0.00  0.00     0.000 A 
ATOM      5  C6  UNL d   1       6.000  -4.324   5.999  0.00  0.00     0.000 A 
ATOM      6  C7  UNL d   1       5.307  -3.324   5.295  0.00  0.00    -0.073 A 
ATOM      7  C8  UNL d   1       5.812  -1.909   5.366  0.00  0.00     0.078 C 
ENDROOT
BRANCH   1   8
ATOM      8  C1  UNL d   1       3.416  -2.672   3.697  0.00  0.00     0.053 C 
ATOM      9  C   UNL d   1       3.305  -3.070   2.233  0.00  0.00     0.018 C 
ENDBRANCH   1   8
TORSDOF 1
ENDMDL
