MODEL 1
REMARK minimizedAffinity 4.7223959
REMARK minimizedRMSD -1
REMARK  0 active torsions:
REMARK  status: ('A' for Active; 'I' for Inactive)
ROOT
ATOM      1  C4' PXY d   1      -2.316   0.871   1.133  0.00  0.00     0.077 C 
ATOM      2  C1' PXY d   1       1.952  -2.228   3.498  0.00  0.00     0.077 C 
ATOM      3  C1  PXY d   1       0.836  -1.420   2.866  0.00  0.00    -0.082 A 
ATOM      4  C2  PXY d   1       0.372  -0.348   3.487  0.00  0.00     0.003 A 
ATOM      5  C3  PXY d   1      -0.659   0.376   2.945  0.00  0.00     0.003 A 
ATOM      6  C4  PXY d   1      -1.184   0.030   1.729  0.00  0.00    -0.082 A 
ATOM      7  C5  PXY d   1      -0.709  -1.056   1.084  0.00  0.00     0.003 A 
ATOM      8  C6  PXY d   1       0.310  -1.801   1.670  0.00  0.00     0.003 A 
ENDROOT
TORSDOF 0
ENDMDL
