MODEL 1
REMARK minimizedAffinity 3.42455077
REMARK minimizedRMSD -1
REMARK  0 active torsions:
REMARK  status: ('A' for Active; 'I' for Inactive)
ROOT
ATOM      1  C4' PXY d   1      -4.104   1.345   0.625  0.00  0.00     0.077 C 
ATOM      2  C1' PXY d   1       0.540  -1.179   2.965  0.00  0.00     0.077 C 
ATOM      3  C1  PXY d   1      -0.683  -0.515   2.363  0.00  0.00    -0.082 A 
ATOM      4  C2  PXY d   1      -1.041  -0.806   1.123  0.00  0.00     0.003 A 
ATOM      5  C3  PXY d   1      -2.125  -0.190   0.552  0.00  0.00     0.003 A 
ATOM      6  C4  PXY d   1      -2.882   0.692   1.276  0.00  0.00    -0.082 A 
ATOM      7  C5  PXY d   1      -2.529   0.985   2.546  0.00  0.00     0.003 A 
ATOM      8  C6  PXY d   1      -1.401   0.381   3.093  0.00  0.00     0.003 A 
ENDROOT
TORSDOF 0
ENDMDL
