MODEL 1
REMARK minimizedAffinity 4.9701972
REMARK minimizedRMSD -1
REMARK  0 active torsions:
REMARK  status: ('A' for Active; 'I' for Inactive)
ROOT
ATOM      1  C4' PXY d   1      -0.509   1.501  -6.000  0.00  0.00     0.077 C 
ATOM      2  C1' PXY d   1       0.033  -3.225  -2.715  0.00  0.00     0.077 C 
ATOM      3  C1  PXY d   1      -0.103  -1.992  -3.586  0.00  0.00    -0.082 A 
ATOM      4  C2  PXY d   1      -0.199  -0.799  -3.022  0.00  0.00     0.003 A 
ATOM      5  C3  PXY d   1      -0.355   0.323  -3.794  0.00  0.00     0.003 A 
ATOM      6  C4  PXY d   1      -0.360   0.229  -5.159  0.00  0.00    -0.082 A 
ATOM      7  C5  PXY d   1      -0.253  -0.983  -5.744  0.00  0.00     0.003 A 
ATOM      8  C6  PXY d   1      -0.136  -2.114  -4.941  0.00  0.00     0.003 A 
ENDROOT
TORSDOF 0
ENDMDL
