MODEL 1
REMARK minimizedAffinity -2.43420601
REMARK minimizedRMSD -1
REMARK  0 active torsions:
REMARK  status: ('A' for Active; 'I' for Inactive)
ROOT
ATOM      1  C4' PXY d   1       1.895  -0.024  -6.000  0.00  0.00     0.077 C 
ATOM      2  C1' PXY d   1      -0.982  -1.745  -1.291  0.00  0.00     0.077 C 
ATOM      3  C1  PXY d   1      -0.238  -1.288  -2.531  0.00  0.00    -0.082 A 
ATOM      4  C2  PXY d   1       0.844  -1.941  -2.922  0.00  0.00     0.003 A 
ATOM      5  C3  PXY d   1       1.547  -1.522  -4.022  0.00  0.00     0.003 A 
ATOM      6  C4  PXY d   1       1.107  -0.455  -4.760  0.00  0.00    -0.082 A 
ATOM      7  C5  PXY d   1      -0.002   0.210  -4.373  0.00  0.00     0.003 A 
ATOM      8  C6  PXY d   1      -0.678  -0.206  -3.230  0.00  0.00     0.003 A 
ENDROOT
TORSDOF 0
ENDMDL
