MODEL 1
REMARK minimizedAffinity 2.4606905
REMARK minimizedRMSD -1
REMARK  0 active torsions:
REMARK  status: ('A' for Active; 'I' for Inactive)
ROOT
ATOM      1  C4' PXY d   1       4.078   1.134   4.301  0.00  0.00     0.077 C 
ATOM      2  C1' PXY d   1       5.865   5.861   1.493  0.00  0.00     0.077 C 
ATOM      3  C1  PXY d   1       5.404   4.624   2.240  0.00  0.00    -0.082 A 
ATOM      4  C2  PXY d   1       4.919   3.595   1.564  0.00  0.00     0.003 A 
ATOM      5  C3  PXY d   1       4.468   2.482   2.225  0.00  0.00     0.003 A 
ATOM      6  C4  PXY d   1       4.564   2.399   3.589  0.00  0.00    -0.082 A 
ATOM      7  C5  PXY d   1       5.068   3.441   4.284  0.00  0.00     0.003 A 
ATOM      8  C6  PXY d   1       5.482   4.578   3.598  0.00  0.00     0.003 A 
ENDROOT
TORSDOF 0
ENDMDL
