MODEL 1
REMARK minimizedAffinity 0.0752532408
REMARK minimizedRMSD -1
REMARK  0 active torsions:
REMARK  status: ('A' for Active; 'I' for Inactive)
ROOT
ATOM      1  C4' PXY d   1       0.852  -2.407  -4.126  0.00  0.00     0.077 C 
ATOM      2  C1' PXY d   1      -3.977   0.234  -5.894  0.00  0.00     0.077 C 
ATOM      3  C1  PXY d   1      -2.706  -0.448  -5.426  0.00  0.00    -0.082 A 
ATOM      4  C2  PXY d   1      -2.320  -1.576  -5.998  0.00  0.00     0.003 A 
ATOM      5  C3  PXY d   1      -1.191  -2.223  -5.566  0.00  0.00     0.003 A 
ATOM      6  C4  PXY d   1      -0.419  -1.680  -4.573  0.00  0.00    -0.082 A 
ATOM      7  C5  PXY d   1      -0.801  -0.523  -3.991  0.00  0.00     0.003 A 
ATOM      8  C6  PXY d   1      -1.973   0.096  -4.417  0.00  0.00     0.003 A 
ENDROOT
TORSDOF 0
ENDMDL
