MODEL 1
REMARK minimizedAffinity 2.61367321
REMARK minimizedRMSD -1
REMARK  0 active torsions:
REMARK  status: ('A' for Active; 'I' for Inactive)
ROOT
ATOM      1  C4' PXY d   1      -5.039   0.744  -0.204  0.00  0.00     0.077 C 
ATOM      2  C1' PXY d   1      -0.092  -0.760   2.380  0.00  0.00     0.077 C 
ATOM      3  C1  PXY d   1      -1.386  -0.373   1.692  0.00  0.00    -0.082 A 
ATOM      4  C2  PXY d   1      -2.011   0.737   2.050  0.00  0.00     0.003 A 
ATOM      5  C3  PXY d   1      -3.198   1.086   1.461  0.00  0.00     0.003 A 
ATOM      6  C4  PXY d   1      -3.725   0.318   0.457  0.00  0.00    -0.082 A 
ATOM      7  C5  PXY d   1      -3.088  -0.810   0.078  0.00  0.00     0.003 A 
ATOM      8  C6  PXY d   1      -1.905  -1.168   0.718  0.00  0.00     0.003 A 
ENDROOT
TORSDOF 0
ENDMDL
