MODEL 1
REMARK minimizedAffinity -1.60208774
REMARK minimizedRMSD -1
REMARK  1 active torsions:
REMARK  status: ('A' for Active; 'I' for Inactive)
REMARK    1  A    between atoms: C1_2  and  C2_3 
ROOT
ATOM      1  C2  UNL d   1      -0.006   0.830  -0.521  0.00  0.00    -0.081 A 
ATOM      2  C3  UNL d   1       0.223   2.112  -0.007  0.00  0.00     0.006 A 
ATOM      3  C4  UNL d   1       0.008   3.242  -0.800  0.00  0.00     0.002 A 
ATOM      4  C5  UNL d   1      -0.447   3.109  -2.117  0.00  0.00    -0.080 A 
ATOM      5  C6  UNL d   1      -0.711   4.314  -2.969  0.00  0.00     0.076 C 
ATOM      6  C7  UNL d   1      -0.659   1.827  -2.636  0.00  0.00     0.002 A 
ATOM      7  C8  UNL d   1      -0.444   0.697  -1.843  0.00  0.00     0.006 A 
ENDROOT
BRANCH   1   8
ATOM      8  C1  UNL d   1       0.163  -0.387   0.352  0.00  0.00     0.054 C 
ATOM      9  C   UNL d   1       1.334  -1.241  -0.110  0.00  0.00     0.018 C 
ENDBRANCH   1   8
TORSDOF 1
ENDMDL
