MODEL 1
REMARK minimizedAffinity 1.55967593
REMARK minimizedRMSD -1
REMARK  1 active torsions:
REMARK  status: ('A' for Active; 'I' for Inactive)
REMARK    1  A    between atoms: C1_2  and  C2_3 
ROOT
ATOM      1  C2  UNL d   1      -0.027   2.626  -1.229  0.00  0.00    -0.081 A 
ATOM      2  C3  UNL d   1      -0.904   2.312  -2.274  0.00  0.00     0.006 A 
ATOM      3  C4  UNL d   1      -0.752   2.907  -3.529  0.00  0.00     0.002 A 
ATOM      4  C5  UNL d   1       0.283   3.818  -3.762  0.00  0.00    -0.080 A 
ATOM      5  C6  UNL d   1       0.476   4.441  -5.112  0.00  0.00     0.076 C 
ATOM      6  C7  UNL d   1       1.149   4.145  -2.712  0.00  0.00     0.002 A 
ATOM      7  C8  UNL d   1       0.997   3.552  -1.457  0.00  0.00     0.006 A 
ENDROOT
BRANCH   1   8
ATOM      8  C1  UNL d   1      -0.149   1.938   0.107  0.00  0.00     0.054 C 
ATOM      9  C   UNL d   1       0.543   0.582   0.096  0.00  0.00     0.018 C 
ENDBRANCH   1   8
TORSDOF 1
ENDMDL
