MODEL 1
REMARK minimizedAffinity 1.98244333
REMARK minimizedRMSD -1
REMARK  2 active torsions:
REMARK  status: ('A' for Active; 'I' for Inactive)
REMARK    1  A    between atoms: C1_2  and  C2_3 
REMARK    2  A    between atoms: C2_3  and  C3_4 
ROOT
ATOM      1  C3  UNL d   1       2.803  -0.975  -0.774  0.00  0.00    -0.075 A 
ATOM      2  C4  UNL d   1       2.343   0.349  -0.760  0.00  0.00     0.002 A 
ATOM      3  C5  UNL d   1       1.233   0.705   0.006  0.00  0.00     0.002 A 
ATOM      4  C6  UNL d   1       0.563  -0.258   0.758  0.00  0.00    -0.004 A 
ATOM      5  C7  UNL d   1       1.002  -1.580   0.738  0.00  0.00     0.002 A 
ATOM      6  C8  UNL d   1       2.115  -1.938  -0.024  0.00  0.00     0.002 A 
ENDROOT
BRANCH   1   7
ATOM      7  C2  UNL d   1       4.022  -1.361  -1.578  0.00  0.00     0.056 C 
BRANCH   7   8
ATOM      8  C1  UNL d   1       4.737  -0.175  -2.234  0.00  0.00     0.007 C 
ATOM      9  C   UNL d   1       6.000  -0.577  -2.985  0.00  0.00     0.009 C 
ENDBRANCH   7   8
ENDBRANCH   1   7
TORSDOF 2
ENDMDL
