MODEL 1
REMARK minimizedAffinity -3.44875884
REMARK minimizedRMSD -1
REMARK  2 active torsions:
REMARK  status: ('A' for Active; 'I' for Inactive)
REMARK    1  A    between atoms: C1_2  and  C2_3 
REMARK    2  A    between atoms: C2_3  and  C3_4 
ROOT
ATOM      1  C3  UNL d   1       2.007  -0.734   0.066  0.00  0.00    -0.075 A 
ATOM      2  C4  UNL d   1       1.933   0.634  -0.230  0.00  0.00     0.002 A 
ATOM      3  C5  UNL d   1       2.783   1.201  -1.179  0.00  0.00     0.002 A 
ATOM      4  C6  UNL d   1       3.724   0.411  -1.836  0.00  0.00    -0.004 A 
ATOM      5  C7  UNL d   1       3.818  -0.946  -1.538  0.00  0.00     0.002 A 
ATOM      6  C8  UNL d   1       2.965  -1.517  -0.592  0.00  0.00     0.002 A 
ENDROOT
BRANCH   1   7
ATOM      7  C2  UNL d   1       1.069  -1.360   1.071  0.00  0.00     0.056 C 
BRANCH   7   8
ATOM      8  C1  UNL d   1       0.328  -0.345   1.948  0.00  0.00     0.007 C 
ATOM      9  C   UNL d   1      -1.077  -0.793   2.327  0.00  0.00     0.009 C 
ENDBRANCH   7   8
ENDBRANCH   1   7
TORSDOF 2
ENDMDL
