MODEL 1
REMARK minimizedAffinity -5.26619434
REMARK minimizedRMSD -1
REMARK  2 active torsions:
REMARK  status: ('A' for Active; 'I' for Inactive)
REMARK    1  A    between atoms: C1_2  and  C2_3 
REMARK    2  A    between atoms: C2_3  and  C3_4 
ROOT
ATOM      1  C3  UNL d   1       2.505  -0.826  -0.797  0.00  0.00    -0.075 A 
ATOM      2  C4  UNL d   1       2.117   0.521  -0.805  0.00  0.00     0.002 A 
ATOM      3  C5  UNL d   1       1.005   0.943  -0.077  0.00  0.00     0.002 A 
ATOM      4  C6  UNL d   1       0.261   0.024   0.660  0.00  0.00    -0.004 A 
ATOM      5  C7  UNL d   1       0.627  -1.320   0.663  0.00  0.00     0.002 A 
ATOM      6  C8  UNL d   1       1.742  -1.744  -0.062  0.00  0.00     0.002 A 
ENDROOT
BRANCH   1   7
ATOM      7  C2  UNL d   1       3.725  -1.284  -1.560  0.00  0.00     0.056 C 
BRANCH   7   8
ATOM      8  C1  UNL d   1       4.438  -0.165  -2.325  0.00  0.00     0.007 C 
ATOM      9  C   UNL d   1       5.855  -0.533  -2.745  0.00  0.00     0.009 C 
ENDBRANCH   7   8
ENDBRANCH   1   7
TORSDOF 2
ENDMDL
