MODEL 1
REMARK minimizedAffinity 1.79195619
REMARK minimizedRMSD -1
REMARK  2 active torsions:
REMARK  status: ('A' for Active; 'I' for Inactive)
REMARK    1  A    between atoms: C1_2  and  C2_3 
REMARK    2  A    between atoms: C2_3  and  C3_4 
ROOT
ATOM      1  C3  UNL d   1       1.675  -2.077   0.562  0.00  0.00    -0.075 A 
ATOM      2  C4  UNL d   1       0.421  -1.452   0.514  0.00  0.00     0.002 A 
ATOM      3  C5  UNL d   1       0.310  -0.114   0.135  0.00  0.00     0.002 A 
ATOM      4  C6  UNL d   1       1.450   0.618  -0.189  0.00  0.00    -0.004 A 
ATOM      5  C7  UNL d   1       2.703   0.012  -0.129  0.00  0.00     0.002 A 
ATOM      6  C8  UNL d   1       2.817  -1.328   0.246  0.00  0.00     0.002 A 
ENDROOT
BRANCH   1   7
ATOM      7  C2  UNL d   1       1.799  -3.533   0.943  0.00  0.00     0.056 C 
BRANCH   7   8
ATOM      8  C1  UNL d   1       0.909  -3.949   2.119  0.00  0.00     0.007 C 
ATOM      9  C   UNL d   1       1.081  -5.409   2.515  0.00  0.00     0.009 C 
ENDBRANCH   7   8
ENDBRANCH   1   7
TORSDOF 2
ENDMDL
