MODEL 1
REMARK minimizedAffinity 0.0765238404
REMARK minimizedRMSD -1
REMARK  2 active torsions:
REMARK  status: ('A' for Active; 'I' for Inactive)
REMARK    1  A    between atoms: C1_2  and  C2_3 
REMARK    2  A    between atoms: C2_3  and  C3_4 
ROOT
ATOM      1  C3  UNL d   1       2.296  -0.725  -0.467  0.00  0.00    -0.075 A 
ATOM      2  C4  UNL d   1       2.589   0.562   0.006  0.00  0.00     0.002 A 
ATOM      3  C5  UNL d   1       1.751   1.185   0.931  0.00  0.00     0.002 A 
ATOM      4  C6  UNL d   1       0.606   0.535   1.386  0.00  0.00    -0.004 A 
ATOM      5  C7  UNL d   1       0.296  -0.737   0.910  0.00  0.00     0.002 A 
ATOM      6  C8  UNL d   1       1.135  -1.365  -0.012  0.00  0.00     0.002 A 
ENDROOT
BRANCH   1   7
ATOM      7  C2  UNL d   1       3.215  -1.416  -1.446  0.00  0.00     0.056 C 
BRANCH   7   8
ATOM      8  C1  UNL d   1       4.690  -1.029  -1.297  0.00  0.00     0.007 C 
ATOM      9  C   UNL d   1       5.296  -0.467  -2.576  0.00  0.00     0.009 C 
ENDBRANCH   7   8
ENDBRANCH   1   7
TORSDOF 2
ENDMDL
