MODEL 1
REMARK minimizedAffinity -1.53612769
REMARK minimizedRMSD -1
REMARK  2 active torsions:
REMARK  status: ('A' for Active; 'I' for Inactive)
REMARK    1  A    between atoms: C1_2  and  C2_3 
REMARK    2  A    between atoms: C2_3  and  C3_4 
ROOT
ATOM      1  C3  UNL d   1       2.952  -0.973  -0.411  0.00  0.00    -0.075 A 
ATOM      2  C4  UNL d   1       2.035  -1.846   0.193  0.00  0.00     0.002 A 
ATOM      3  C5  UNL d   1       0.845  -1.360   0.735  0.00  0.00     0.002 A 
ATOM      4  C6  UNL d   1       0.561   0.003   0.691  0.00  0.00    -0.004 A 
ATOM      5  C7  UNL d   1       1.472   0.882   0.108  0.00  0.00     0.002 A 
ATOM      6  C8  UNL d   1       2.662   0.398  -0.439  0.00  0.00     0.002 A 
ENDROOT
BRANCH   1   7
ATOM      7  C2  UNL d   1       4.227  -1.496  -1.026  0.00  0.00     0.056 C 
BRANCH   7   8
ATOM      8  C1  UNL d   1       5.170  -0.400  -1.534  0.00  0.00     0.007 C 
ATOM      9  C   UNL d   1       5.995  -0.829  -2.740  0.00  0.00     0.009 C 
ENDBRANCH   7   8
ENDBRANCH   1   7
TORSDOF 2
ENDMDL
