MODEL 1
REMARK minimizedAffinity 4.52584791
REMARK minimizedRMSD -1
REMARK  2 active torsions:
REMARK  status: ('A' for Active; 'I' for Inactive)
REMARK    1  A    between atoms: C1_2  and  C2_3 
REMARK    2  A    between atoms: C2_3  and  C3_4 
ROOT
ATOM      1  C3  UNL d   1       1.274   0.314   1.034  0.00  0.00    -0.075 A 
ATOM      2  C4  UNL d   1       1.266  -1.056   0.734  0.00  0.00     0.002 A 
ATOM      3  C5  UNL d   1       1.732  -1.514  -0.498  0.00  0.00     0.002 A 
ATOM      4  C6  UNL d   1       2.201  -0.610  -1.448  0.00  0.00    -0.004 A 
ATOM      5  C7  UNL d   1       2.199   0.755  -1.167  0.00  0.00     0.002 A 
ATOM      6  C8  UNL d   1       1.737   1.215   0.067  0.00  0.00     0.002 A 
ENDROOT
BRANCH   1   7
ATOM      7  C2  UNL d   1       0.798   0.813   2.378  0.00  0.00     0.056 C 
BRANCH   7   8
ATOM      8  C1  UNL d   1       1.929   1.113   3.368  0.00  0.00     0.007 C 
ATOM      9  C   UNL d   1       1.592   0.720   4.800  0.00  0.00     0.009 C 
ENDBRANCH   7   8
ENDBRANCH   1   7
TORSDOF 2
ENDMDL
