MODEL 1
REMARK minimizedAffinity 6.74326754
REMARK minimizedRMSD -1
REMARK  2 active torsions:
REMARK  status: ('A' for Active; 'I' for Inactive)
REMARK    1  A    between atoms: C1_2  and  C2_3 
REMARK    2  A    between atoms: C2_3  and  C3_4 
ROOT
ATOM      1  C3  UNL d   1       2.745  -1.027  -0.841  0.00  0.00    -0.075 A 
ATOM      2  C4  UNL d   1       1.941  -1.874  -0.065  0.00  0.00     0.002 A 
ATOM      3  C5  UNL d   1       0.906  -1.352   0.713  0.00  0.00     0.002 A 
ATOM      4  C6  UNL d   1       0.670   0.021   0.733  0.00  0.00    -0.004 A 
ATOM      5  C7  UNL d   1       1.474   0.873  -0.021  0.00  0.00     0.002 A 
ATOM      6  C8  UNL d   1       2.506   0.354  -0.803  0.00  0.00     0.002 A 
ENDROOT
BRANCH   1   7
ATOM      7  C2  UNL d   1       3.847  -1.588  -1.707  0.00  0.00     0.056 C 
BRANCH   7   8
ATOM      8  C1  UNL d   1       4.806  -0.528  -2.261  0.00  0.00     0.007 C 
ATOM      9  C   UNL d   1       5.999  -1.124  -2.996  0.00  0.00     0.009 C 
ENDBRANCH   7   8
ENDBRANCH   1   7
TORSDOF 2
ENDMDL
