MODEL 1
REMARK minimizedAffinity 0.0674185082
REMARK minimizedRMSD -1
REMARK  2 active torsions:
REMARK  status: ('A' for Active; 'I' for Inactive)
REMARK    1  A    between atoms: C1_2  and  C2_3 
REMARK    2  A    between atoms: C2_3  and  C3_4 
ROOT
ATOM      1  C3  UNL d   1       1.786  -0.428  -0.368  0.00  0.00    -0.075 A 
ATOM      2  C4  UNL d   1       2.656  -1.527  -0.397  0.00  0.00     0.002 A 
ATOM      3  C5  UNL d   1       3.848  -1.468  -1.120  0.00  0.00     0.002 A 
ATOM      4  C6  UNL d   1       4.179  -0.317  -1.831  0.00  0.00    -0.004 A 
ATOM      5  C7  UNL d   1       3.314   0.775  -1.823  0.00  0.00     0.002 A 
ATOM      6  C8  UNL d   1       2.123   0.721  -1.096  0.00  0.00     0.002 A 
ENDROOT
BRANCH   1   7
ATOM      7  C2  UNL d   1       0.509  -0.474   0.437  0.00  0.00     0.056 C 
BRANCH   7   8
ATOM      8  C1  UNL d   1       0.392   0.636   1.486  0.00  0.00     0.007 C 
ATOM      9  C   UNL d   1       1.742   1.123   1.998  0.00  0.00     0.009 C 
ENDBRANCH   7   8
ENDBRANCH   1   7
TORSDOF 2
ENDMDL
