MODEL 1
REMARK minimizedAffinity 0.560556233
REMARK minimizedRMSD -1
REMARK  2 active torsions:
REMARK  status: ('A' for Active; 'I' for Inactive)
REMARK    1  A    between atoms: C1_2  and  C2_3 
REMARK    2  A    between atoms: C2_3  and  C3_4 
ROOT
ATOM      1  C3  UNL d   1       2.803  -0.488  -0.667  0.00  0.00    -0.075 A 
ATOM      2  C4  UNL d   1       2.722   0.909  -0.579  0.00  0.00     0.002 A 
ATOM      3  C5  UNL d   1       1.701   1.515   0.154  0.00  0.00     0.002 A 
ATOM      4  C6  UNL d   1       0.744   0.734   0.799  0.00  0.00    -0.004 A 
ATOM      5  C7  UNL d   1       0.805  -0.655   0.704  0.00  0.00     0.002 A 
ATOM      6  C8  UNL d   1       1.828  -1.263  -0.025  0.00  0.00     0.002 A 
ENDROOT
BRANCH   1   7
ATOM      7  C2  UNL d   1       3.922  -1.150  -1.434  0.00  0.00     0.056 C 
BRANCH   7   8
ATOM      8  C1  UNL d   1       4.896  -0.166  -2.090  0.00  0.00     0.007 C 
ATOM      9  C   UNL d   1       5.988  -0.852  -2.900  0.00  0.00     0.009 C 
ENDBRANCH   7   8
ENDBRANCH   1   7
TORSDOF 2
ENDMDL
