MODEL 1
REMARK minimizedAffinity -6.37764168
REMARK minimizedRMSD -1
REMARK  2 active torsions:
REMARK  status: ('A' for Active; 'I' for Inactive)
REMARK    1  A    between atoms: C1_2  and  C2_3 
REMARK    2  A    between atoms: C2_3  and  C3_4 
ROOT
ATOM      1  C3  UNL d   1       1.045  -0.289   0.481  0.00  0.00    -0.075 A 
ATOM      2  C4  UNL d   1       1.489   0.930  -0.052  0.00  0.00     0.002 A 
ATOM      3  C5  UNL d   1       2.606   0.974  -0.886  0.00  0.00     0.002 A 
ATOM      4  C6  UNL d   1       3.299  -0.196  -1.189  0.00  0.00    -0.004 A 
ATOM      5  C7  UNL d   1       2.877  -1.411  -0.652  0.00  0.00     0.002 A 
ATOM      6  C8  UNL d   1       1.756  -1.458   0.179  0.00  0.00     0.002 A 
ENDROOT
BRANCH   1   7
ATOM      7  C2  UNL d   1      -0.181  -0.347   1.361  0.00  0.00     0.056 C 
BRANCH   7   8
ATOM      8  C1  UNL d   1      -1.079  -1.560   1.099  0.00  0.00     0.007 C 
ATOM      9  C   UNL d   1      -2.435  -1.464   1.787  0.00  0.00     0.009 C 
ENDBRANCH   7   8
ENDBRANCH   1   7
TORSDOF 2
ENDMDL
