MODEL 1
REMARK minimizedAffinity 3.59439921
REMARK minimizedRMSD -1
REMARK  2 active torsions:
REMARK  status: ('A' for Active; 'I' for Inactive)
REMARK    1  A    between atoms: C1_2  and  C2_3 
REMARK    2  A    between atoms: C2_3  and  C3_4 
ROOT
ATOM      1  C3  UNL d   1       0.343  -0.298   1.175  0.00  0.00    -0.075 A 
ATOM      2  C4  UNL d   1       0.793   0.995   1.481  0.00  0.00     0.002 A 
ATOM      3  C5  UNL d   1       1.816   1.583   0.738  0.00  0.00     0.002 A 
ATOM      4  C6  UNL d   1       2.409   0.885  -0.312  0.00  0.00    -0.004 A 
ATOM      5  C7  UNL d   1       1.982  -0.406  -0.615  0.00  0.00     0.002 A 
ATOM      6  C8  UNL d   1       0.955  -0.996   0.125  0.00  0.00     0.002 A 
ENDROOT
BRANCH   1   7
ATOM      7  C2  UNL d   1      -0.784  -0.929   1.956  0.00  0.00     0.056 C 
BRANCH   7   8
ATOM      8  C1  UNL d   1      -1.747  -1.760   1.102  0.00  0.00     0.007 C 
ATOM      9  C   UNL d   1      -3.211  -1.532   1.454  0.00  0.00     0.009 C 
ENDBRANCH   7   8
ENDBRANCH   1   7
TORSDOF 2
ENDMDL
