MODEL 1
REMARK minimizedAffinity -4.10799074
REMARK minimizedRMSD -1
REMARK  2 active torsions:
REMARK  status: ('A' for Active; 'I' for Inactive)
REMARK    1  A    between atoms: C1_2  and  C2_3 
REMARK    2  A    between atoms: C2_3  and  C3_4 
ROOT
ATOM      1  C3  UNL d   1       2.697  -0.733  -1.066  0.00  0.00    -0.075 A 
ATOM      2  C4  UNL d   1       2.129  -1.686  -0.208  0.00  0.00     0.002 A 
ATOM      3  C5  UNL d   1       1.123  -1.323   0.687  0.00  0.00     0.002 A 
ATOM      4  C6  UNL d   1       0.681  -0.003   0.744  0.00  0.00    -0.004 A 
ATOM      5  C7  UNL d   1       1.250   0.956  -0.091  0.00  0.00     0.002 A 
ATOM      6  C8  UNL d   1       2.254   0.594  -0.991  0.00  0.00     0.002 A 
ENDROOT
BRANCH   1   7
ATOM      7  C2  UNL d   1       3.766  -1.126  -2.058  0.00  0.00     0.056 C 
BRANCH   7   8
ATOM      8  C1  UNL d   1       4.575   0.055  -2.604  0.00  0.00     0.007 C 
ATOM      9  C   UNL d   1       5.999  -0.322  -2.992  0.00  0.00     0.009 C 
ENDBRANCH   7   8
ENDBRANCH   1   7
TORSDOF 2
ENDMDL
