MODEL 1
REMARK minimizedAffinity 6.67497396
REMARK minimizedRMSD -1
REMARK  2 active torsions:
REMARK  status: ('A' for Active; 'I' for Inactive)
REMARK    1  A    between atoms: C1_2  and  C2_3 
REMARK    2  A    between atoms: C2_3  and  C3_4 
ROOT
ATOM      1  C3  UNL d   1       1.895  -0.110   1.687  0.00  0.00    -0.075 A 
ATOM      2  C4  UNL d   1       0.737  -0.422   0.959  0.00  0.00     0.002 A 
ATOM      3  C5  UNL d   1       0.792  -1.318  -0.110  0.00  0.00     0.002 A 
ATOM      4  C6  UNL d   1       2.004  -1.903  -0.470  0.00  0.00    -0.004 A 
ATOM      5  C7  UNL d   1       3.163  -1.588   0.235  0.00  0.00     0.002 A 
ATOM      6  C8  UNL d   1       3.110  -0.695   1.308  0.00  0.00     0.002 A 
ENDROOT
BRANCH   1   7
ATOM      7  C2  UNL d   1       1.837   0.835   2.862  0.00  0.00     0.056 C 
BRANCH   7   8
ATOM      8  C1  UNL d   1       1.576   0.145   4.205  0.00  0.00     0.007 C 
ATOM      9  C   UNL d   1       0.120   0.222   4.647  0.00  0.00     0.009 C 
ENDBRANCH   7   8
ENDBRANCH   1   7
TORSDOF 2
ENDMDL
