MODEL 1
REMARK minimizedAffinity -1.92813969
REMARK minimizedRMSD -1
REMARK  2 active torsions:
REMARK  status: ('A' for Active; 'I' for Inactive)
REMARK    1  A    between atoms: C1_2  and  C2_3 
REMARK    2  A    between atoms: C2_3  and  C3_4 
ROOT
ATOM      1  C3  UNL d   1       2.823  -0.745  -0.723  0.00  0.00    -0.075 A 
ATOM      2  C4  UNL d   1       2.684   0.614  -0.407  0.00  0.00     0.002 A 
ATOM      3  C5  UNL d   1       1.580   1.063   0.318  0.00  0.00     0.002 A 
ATOM      4  C6  UNL d   1       0.598   0.163   0.727  0.00  0.00    -0.004 A 
ATOM      5  C7  UNL d   1       0.718  -1.187   0.405  0.00  0.00     0.002 A 
ATOM      6  C8  UNL d   1       1.823  -1.640  -0.317  0.00  0.00     0.002 A 
ENDROOT
BRANCH   1   7
ATOM      7  C2  UNL d   1       4.030  -1.242  -1.483  0.00  0.00     0.056 C 
BRANCH   7   8
ATOM      8  C1  UNL d   1       4.770  -0.150  -2.261  0.00  0.00     0.007 C 
ATOM      9  C   UNL d   1       5.996  -0.667  -3.003  0.00  0.00     0.009 C 
ENDBRANCH   7   8
ENDBRANCH   1   7
TORSDOF 2
ENDMDL
