MODEL 1
REMARK minimizedAffinity -0.0315269269
REMARK minimizedRMSD -1
REMARK  2 active torsions:
REMARK  status: ('A' for Active; 'I' for Inactive)
REMARK    1  A    between atoms: C1_2  and  C2_3 
REMARK    2  A    between atoms: C2_3  and  C3_4 
ROOT
ATOM      1  C3  UNL d   1       2.745  -0.614  -0.839  0.00  0.00    -0.075 A 
ATOM      2  C4  UNL d   1       2.574   0.749  -0.554  0.00  0.00     0.002 A 
ATOM      3  C5  UNL d   1       1.506   1.180   0.232  0.00  0.00     0.002 A 
ATOM      4  C6  UNL d   1       0.590   0.258   0.734  0.00  0.00    -0.004 A 
ATOM      5  C7  UNL d   1       0.740  -1.096   0.444  0.00  0.00     0.002 A 
ATOM      6  C8  UNL d   1       1.811  -1.531  -0.339  0.00  0.00     0.002 A 
ENDROOT
BRANCH   1   7
ATOM      7  C2  UNL d   1       3.916  -1.090  -1.664  0.00  0.00     0.056 C 
BRANCH   7   8
ATOM      8  C1  UNL d   1       4.768   0.041  -2.249  0.00  0.00     0.007 C 
ATOM      9  C   UNL d   1       5.998  -0.458  -2.995  0.00  0.00     0.009 C 
ENDBRANCH   7   8
ENDBRANCH   1   7
TORSDOF 2
ENDMDL
