MODEL 1
REMARK minimizedAffinity -0.170317441
REMARK minimizedRMSD -1
REMARK  2 active torsions:
REMARK  status: ('A' for Active; 'I' for Inactive)
REMARK    1  A    between atoms: C1_2  and  C2_3 
REMARK    2  A    between atoms: C2_3  and  C3_4 
ROOT
ATOM      1  C3  UNL d   1       3.079   2.989   0.856  0.00  0.00    -0.075 A 
ATOM      2  C4  UNL d   1       4.118   3.597   1.576  0.00  0.00     0.002 A 
ATOM      3  C5  UNL d   1       4.443   3.158   2.860  0.00  0.00     0.002 A 
ATOM      4  C6  UNL d   1       3.727   2.115   3.444  0.00  0.00    -0.004 A 
ATOM      5  C7  UNL d   1       2.682   1.515   2.745  0.00  0.00     0.002 A 
ATOM      6  C8  UNL d   1       2.358   1.949   1.459  0.00  0.00     0.002 A 
ENDROOT
BRANCH   1   7
ATOM      7  C2  UNL d   1       2.743   3.439  -0.545  0.00  0.00     0.056 C 
BRANCH   7   8
ATOM      8  C1  UNL d   1       3.795   3.059  -1.592  0.00  0.00     0.007 C 
ATOM      9  C   UNL d   1       4.449   1.710  -1.323  0.00  0.00     0.009 C 
ENDBRANCH   7   8
ENDBRANCH   1   7
TORSDOF 2
ENDMDL
