MODEL 1
REMARK minimizedAffinity 0.998600483
REMARK minimizedRMSD -1
REMARK  2 active torsions:
REMARK  status: ('A' for Active; 'I' for Inactive)
REMARK    1  A    between atoms: C1_2  and  C2_3 
REMARK    2  A    between atoms: C2_3  and  C3_4 
ROOT
ATOM      1  C3  UNL d   1       4.891   1.503  -3.330  0.00  0.00    -0.075 A 
ATOM      2  C4  UNL d   1       5.593   0.535  -4.062  0.00  0.00     0.002 A 
ATOM      3  C5  UNL d   1       5.956   0.775  -5.388  0.00  0.00     0.002 A 
ATOM      4  C6  UNL d   1       5.615   1.979  -6.000  0.00  0.00    -0.004 A 
ATOM      5  C7  UNL d   1       4.903   2.941  -5.287  0.00  0.00     0.002 A 
ATOM      6  C8  UNL d   1       4.542   2.705  -3.959  0.00  0.00     0.002 A 
ENDROOT
BRANCH   1   7
ATOM      7  C2  UNL d   1       4.521   1.261  -1.886  0.00  0.00     0.056 C 
BRANCH   7   8
ATOM      8  C1  UNL d   1       3.814   2.445  -1.216  0.00  0.00     0.007 C 
ATOM      9  C   UNL d   1       3.045   2.053   0.038  0.00  0.00     0.009 C 
ENDBRANCH   7   8
ENDBRANCH   1   7
TORSDOF 2
ENDMDL
