MODEL 1
REMARK minimizedAffinity 6.88631773
REMARK minimizedRMSD -1
REMARK  2 active torsions:
REMARK  status: ('A' for Active; 'I' for Inactive)
REMARK    1  A    between atoms: C1_2  and  C2_3 
REMARK    2  A    between atoms: C2_3  and  C3_4 
ROOT
ATOM      1  C3  UNL d   1       3.751   2.522   2.769  0.00  0.00    -0.075 A 
ATOM      2  C4  UNL d   1       2.778   2.030   1.887  0.00  0.00     0.002 A 
ATOM      3  C5  UNL d   1       2.594   2.619   0.635  0.00  0.00     0.002 A 
ATOM      4  C6  UNL d   1       3.371   3.711   0.255  0.00  0.00    -0.004 A 
ATOM      5  C7  UNL d   1       4.329   4.219   1.130  0.00  0.00     0.002 A 
ATOM      6  C8  UNL d   1       4.518   3.629   2.381  0.00  0.00     0.002 A 
ENDROOT
BRANCH   1   7
ATOM      7  C2  UNL d   1       3.975   1.871   4.113  0.00  0.00     0.056 C 
BRANCH   7   8
ATOM      8  C1  UNL d   1       4.664   2.778   5.138  0.00  0.00     0.007 C 
ATOM      9  C   UNL d   1       6.000   2.230   5.622  0.00  0.00     0.009 C 
ENDBRANCH   7   8
ENDBRANCH   1   7
TORSDOF 2
ENDMDL
