MODEL 1
REMARK minimizedAffinity 2.43696237
REMARK minimizedRMSD -1
REMARK  2 active torsions:
REMARK  status: ('A' for Active; 'I' for Inactive)
REMARK    1  A    between atoms: C1_2  and  C2_3 
REMARK    2  A    between atoms: C2_3  and  C3_4 
ROOT
ATOM      1  C3  UNL d   1       3.384   2.662   1.230  0.00  0.00    -0.075 A 
ATOM      2  C4  UNL d   1       2.507   3.200   0.277  0.00  0.00     0.002 A 
ATOM      3  C5  UNL d   1       1.279   2.589   0.020  0.00  0.00     0.002 A 
ATOM      4  C6  UNL d   1       0.918   1.429   0.702  0.00  0.00    -0.004 A 
ATOM      5  C7  UNL d   1       1.789   0.877   1.639  0.00  0.00     0.002 A 
ATOM      6  C8  UNL d   1       3.016   1.488   1.901  0.00  0.00     0.002 A 
ENDROOT
BRANCH   1   7
ATOM      7  C2  UNL d   1       4.701   3.334   1.534  0.00  0.00     0.056 C 
BRANCH   7   8
ATOM      8  C1  UNL d   1       4.716   4.107   2.857  0.00  0.00     0.007 C 
ATOM      9  C   UNL d   1       4.925   3.212   4.072  0.00  0.00     0.009 C 
ENDBRANCH   7   8
ENDBRANCH   1   7
TORSDOF 2
ENDMDL
