MODEL 1
REMARK minimizedAffinity 2.64883137
REMARK minimizedRMSD -1
REMARK  2 active torsions:
REMARK  status: ('A' for Active; 'I' for Inactive)
REMARK    1  A    between atoms: C1_2  and  C2_3 
REMARK    2  A    between atoms: C2_3  and  C3_4 
ROOT
ATOM      1  C3  UNL d   1       3.705   2.757   1.603  0.00  0.00    -0.075 A 
ATOM      2  C4  UNL d   1       3.354   3.620   0.555  0.00  0.00     0.002 A 
ATOM      3  C5  UNL d   1       2.173   3.423  -0.160  0.00  0.00     0.002 A 
ATOM      4  C6  UNL d   1       1.334   2.357   0.155  0.00  0.00    -0.004 A 
ATOM      5  C7  UNL d   1       1.680   1.483   1.183  0.00  0.00     0.002 A 
ATOM      6  C8  UNL d   1       2.859   1.680   1.904  0.00  0.00     0.002 A 
ENDROOT
BRANCH   1   7
ATOM      7  C2  UNL d   1       4.967   2.982   2.401  0.00  0.00     0.056 C 
BRANCH   7   8
ATOM      8  C1  UNL d   1       4.991   2.254   3.749  0.00  0.00     0.007 C 
ATOM      9  C   UNL d   1       4.035   2.853   4.772  0.00  0.00     0.009 C 
ENDBRANCH   7   8
ENDBRANCH   1   7
TORSDOF 2
ENDMDL
