MODEL 1
REMARK minimizedAffinity 1.79261267
REMARK minimizedRMSD -1
REMARK  2 active torsions:
REMARK  status: ('A' for Active; 'I' for Inactive)
REMARK    1  A    between atoms: C1_2  and  C2_3 
REMARK    2  A    between atoms: C2_3  and  C3_4 
ROOT
ATOM      1  C3  UNL d   1       3.573   2.988   1.412  0.00  0.00    -0.075 A 
ATOM      2  C4  UNL d   1       3.275   2.092   2.449  0.00  0.00     0.002 A 
ATOM      3  C5  UNL d   1       3.837   2.261   3.714  0.00  0.00     0.002 A 
ATOM      4  C6  UNL d   1       4.710   3.320   3.956  0.00  0.00    -0.004 A 
ATOM      5  C7  UNL d   1       5.026   4.207   2.929  0.00  0.00     0.002 A 
ATOM      6  C8  UNL d   1       4.461   4.042   1.663  0.00  0.00     0.002 A 
ENDROOT
BRANCH   1   7
ATOM      7  C2  UNL d   1       2.945   2.827   0.048  0.00  0.00     0.056 C 
BRANCH   7   8
ATOM      8  C1  UNL d   1       1.418   2.948   0.046  0.00  0.00     0.007 C 
ATOM      9  C   UNL d   1       0.734   1.936   0.955  0.00  0.00     0.009 C 
ENDBRANCH   7   8
ENDBRANCH   1   7
TORSDOF 2
ENDMDL
