MODEL 1
REMARK minimizedAffinity 4.1894846
REMARK minimizedRMSD -1
REMARK  2 active torsions:
REMARK  status: ('A' for Active; 'I' for Inactive)
REMARK    1  A    between atoms: C1_2  and  C2_3 
REMARK    2  A    between atoms: C2_3  and  C3_4 
ROOT
ATOM      1  C3  UNL d   1      -1.591  -3.256   1.169  0.00  0.00    -0.075 A 
ATOM      2  C4  UNL d   1      -0.781  -2.231   0.659  0.00  0.00     0.002 A 
ATOM      3  C5  UNL d   1      -0.409  -2.224  -0.686  0.00  0.00     0.002 A 
ATOM      4  C6  UNL d   1      -0.834  -3.245  -1.534  0.00  0.00    -0.004 A 
ATOM      5  C7  UNL d   1      -1.626  -4.276  -1.035  0.00  0.00     0.002 A 
ATOM      6  C8  UNL d   1      -2.002  -4.283   0.310  0.00  0.00     0.002 A 
ENDROOT
BRANCH   1   7
ATOM      7  C2  UNL d   1      -2.021  -3.253   2.617  0.00  0.00     0.056 C 
BRANCH   7   8
ATOM      8  C1  UNL d   1      -1.593  -4.501   3.396  0.00  0.00     0.007 C 
ATOM      9  C   UNL d   1      -2.769  -5.317   3.916  0.00  0.00     0.009 C 
ENDBRANCH   7   8
ENDBRANCH   1   7
TORSDOF 2
ENDMDL
