MODEL 1
REMARK minimizedAffinity 3.524719
REMARK minimizedRMSD -1
REMARK  2 active torsions:
REMARK  status: ('A' for Active; 'I' for Inactive)
REMARK    1  A    between atoms: C1_2  and  C2_3 
REMARK    2  A    between atoms: C2_3  and  C3_4 
ROOT
ATOM      1  C3  UNL d   1      -1.525  -2.654   1.046  0.00  0.00    -0.075 A 
ATOM      2  C4  UNL d   1      -0.508  -1.758   0.687  0.00  0.00     0.002 A 
ATOM      3  C5  UNL d   1       0.062  -1.807  -0.586  0.00  0.00     0.002 A 
ATOM      4  C6  UNL d   1      -0.369  -2.756  -1.509  0.00  0.00    -0.004 A 
ATOM      5  C7  UNL d   1      -1.367  -3.662  -1.157  0.00  0.00     0.002 A 
ATOM      6  C8  UNL d   1      -1.943  -3.613   0.114  0.00  0.00     0.002 A 
ENDROOT
BRANCH   1   7
ATOM      7  C2  UNL d   1      -2.167  -2.588   2.412  0.00  0.00     0.056 C 
BRANCH   7   8
ATOM      8  C1  UNL d   1      -1.759  -3.729   3.349  0.00  0.00     0.007 C 
ATOM      9  C   UNL d   1      -2.796  -4.841   3.428  0.00  0.00     0.009 C 
ENDBRANCH   7   8
ENDBRANCH   1   7
TORSDOF 2
ENDMDL
