MODEL 1
REMARK minimizedAffinity -0.816295564
REMARK minimizedRMSD -1
REMARK  2 active torsions:
REMARK  status: ('A' for Active; 'I' for Inactive)
REMARK    1  A    between atoms: C1_2  and  C2_3 
REMARK    2  A    between atoms: C2_3  and  C3_4 
ROOT
ATOM      1  C3  UNL d   1       3.402   3.000   1.432  0.00  0.00    -0.075 A 
ATOM      2  C4  UNL d   1       2.703   3.671   0.417  0.00  0.00     0.002 A 
ATOM      3  C5  UNL d   1       1.442   3.230   0.016  0.00  0.00     0.002 A 
ATOM      4  C6  UNL d   1       0.868   2.110   0.615  0.00  0.00    -0.004 A 
ATOM      5  C7  UNL d   1       1.561   1.427   1.613  0.00  0.00     0.002 A 
ATOM      6  C8  UNL d   1       2.821   1.869   2.019  0.00  0.00     0.002 A 
ENDROOT
BRANCH   1   7
ATOM      7  C2  UNL d   1       4.755   3.490   1.891  0.00  0.00     0.056 C 
BRANCH   7   8
ATOM      8  C1  UNL d   1       4.768   4.031   3.325  0.00  0.00     0.007 C 
ATOM      9  C   UNL d   1       4.607   2.944   4.379  0.00  0.00     0.009 C 
ENDBRANCH   7   8
ENDBRANCH   1   7
TORSDOF 2
ENDMDL
