MODEL 1
REMARK minimizedAffinity -0.326789916
REMARK minimizedRMSD -1
REMARK  2 active torsions:
REMARK  status: ('A' for Active; 'I' for Inactive)
REMARK    1  A    between atoms: C1_2  and  C2_3 
REMARK    2  A    between atoms: C2_3  and  C3_4 
ROOT
ATOM      1  C3  UNL d   1       2.596   2.557   1.432  0.00  0.00    -0.075 A 
ATOM      2  C4  UNL d   1       2.736   1.839   2.629  0.00  0.00     0.002 A 
ATOM      3  C5  UNL d   1       3.716   2.193   3.556  0.00  0.00     0.002 A 
ATOM      4  C6  UNL d   1       4.573   3.259   3.295  0.00  0.00    -0.004 A 
ATOM      5  C7  UNL d   1       4.454   3.969   2.103  0.00  0.00     0.002 A 
ATOM      6  C8  UNL d   1       3.471   3.620   1.175  0.00  0.00     0.002 A 
ENDROOT
BRANCH   1   7
ATOM      7  C2  UNL d   1       1.518   2.198   0.437  0.00  0.00     0.056 C 
BRANCH   7   8
ATOM      8  C1  UNL d   1       0.105   2.174   1.030  0.00  0.00     0.007 C 
ATOM      9  C   UNL d   1      -0.294   0.810   1.576  0.00  0.00     0.009 C 
ENDBRANCH   7   8
ENDBRANCH   1   7
TORSDOF 2
ENDMDL
