MODEL 1
REMARK minimizedAffinity 3.46081305
REMARK minimizedRMSD -1
REMARK  2 active torsions:
REMARK  status: ('A' for Active; 'I' for Inactive)
REMARK    1  A    between atoms: C1_2  and  C2_3 
REMARK    2  A    between atoms: C2_3  and  C3_4 
ROOT
ATOM      1  C3  UNL d   1       3.127   3.230   1.062  0.00  0.00    -0.075 A 
ATOM      2  C4  UNL d   1       3.205   2.277   2.088  0.00  0.00     0.002 A 
ATOM      3  C5  UNL d   1       4.183   2.380   3.077  0.00  0.00     0.002 A 
ATOM      4  C6  UNL d   1       5.101   3.428   3.048  0.00  0.00    -0.004 A 
ATOM      5  C7  UNL d   1       5.043   4.371   2.024  0.00  0.00     0.002 A 
ATOM      6  C8  UNL d   1       4.062   4.273   1.035  0.00  0.00     0.002 A 
ENDROOT
BRANCH   1   7
ATOM      7  C2  UNL d   1       2.052   3.141   0.005  0.00  0.00     0.056 C 
BRANCH   7   8
ATOM      8  C1  UNL d   1       0.707   2.625   0.526  0.00  0.00     0.007 C 
ATOM      9  C   UNL d   1      -0.479   3.092  -0.307  0.00  0.00     0.009 C 
ENDBRANCH   7   8
ENDBRANCH   1   7
TORSDOF 2
ENDMDL
