MODEL 1
REMARK minimizedAffinity -0.107594579
REMARK minimizedRMSD -1
REMARK  2 active torsions:
REMARK  status: ('A' for Active; 'I' for Inactive)
REMARK    1  A    between atoms: C1_2  and  C2_3 
REMARK    2  A    between atoms: C2_3  and  C3_4 
ROOT
ATOM      1  C3  UNL d   1       3.304   2.604   1.343  0.00  0.00    -0.075 A 
ATOM      2  C4  UNL d   1       2.802   3.481   0.371  0.00  0.00     0.002 A 
ATOM      3  C5  UNL d   1       1.430   3.563   0.132  0.00  0.00     0.002 A 
ATOM      4  C6  UNL d   1       0.545   2.765   0.853  0.00  0.00    -0.004 A 
ATOM      5  C7  UNL d   1       1.034   1.878   1.810  0.00  0.00     0.002 A 
ATOM      6  C8  UNL d   1       2.406   1.797   2.054  0.00  0.00     0.002 A 
ENDROOT
BRANCH   1   7
ATOM      7  C2  UNL d   1       4.786   2.532   1.627  0.00  0.00     0.056 C 
BRANCH   7   8
ATOM      8  C1  UNL d   1       5.185   3.082   3.001  0.00  0.00     0.007 C 
ATOM      9  C   UNL d   1       5.172   4.603   3.066  0.00  0.00     0.009 C 
ENDBRANCH   7   8
ENDBRANCH   1   7
TORSDOF 2
ENDMDL
