MODEL 1
REMARK minimizedAffinity -1.02841711
REMARK minimizedRMSD -1
REMARK  2 active torsions:
REMARK  status: ('A' for Active; 'I' for Inactive)
REMARK    1  A    between atoms: C1_2  and  C2_3 
REMARK    2  A    between atoms: C2_3  and  C3_4 
ROOT
ATOM      1  C3  UNL d   1      -0.304   3.180   2.669  0.00  0.00    -0.075 A 
ATOM      2  C4  UNL d   1       0.791   2.832   1.866  0.00  0.00     0.002 A 
ATOM      3  C5  UNL d   1       0.660   1.864   0.870  0.00  0.00     0.002 A 
ATOM      4  C6  UNL d   1      -0.562   1.225   0.672  0.00  0.00    -0.004 A 
ATOM      5  C7  UNL d   1      -1.653   1.551   1.475  0.00  0.00     0.002 A 
ATOM      6  C8  UNL d   1      -1.525   2.523   2.470  0.00  0.00     0.002 A 
ENDROOT
BRANCH   1   7
ATOM      7  C2  UNL d   1      -0.176   4.248   3.730  0.00  0.00     0.056 C 
BRANCH   7   8
ATOM      8  C1  UNL d   1      -0.907   3.920   5.036  0.00  0.00     0.007 C 
ATOM      9  C   UNL d   1      -2.415   4.112   4.945  0.00  0.00     0.009 C 
ENDBRANCH   7   8
ENDBRANCH   1   7
TORSDOF 2
ENDMDL
