MODEL 1
REMARK minimizedAffinity 12.7780409
REMARK minimizedRMSD -1
REMARK  0 active torsions:
REMARK  status: ('A' for Active; 'I' for Inactive)
ROOT
ATOM      1  C   UNL d   1       0.850   1.507   3.966  0.00  0.00     0.023 A 
ATOM      2  C1  UNL d   1      -0.422   1.864   3.517  0.00  0.00     0.003 A 
ATOM      3  C2  UNL d   1      -0.565   2.629   2.358  0.00  0.00     0.048 A 
ATOM      4  C3  UNL d   1       0.568   3.033   1.651  0.00  0.00     0.023 A 
ATOM      5  C4  UNL d   1       1.842   2.677   2.096  0.00  0.00     0.048 A 
ATOM      6  C5  UNL d   1       1.980   1.913   3.256  0.00  0.00     0.003 A 
ATOM      7  I   UNL d   1       0.357   4.171  -0.075  0.00  0.00    -0.146 I 
ENDROOT
TORSDOF 0
ENDMDL
