MODEL 1
REMARK minimizedAffinity 6.48371696
REMARK minimizedRMSD -1
REMARK  0 active torsions:
REMARK  status: ('A' for Active; 'I' for Inactive)
ROOT
ATOM      1  C   UNL d   1       0.017   5.998  -0.558  0.00  0.00     0.023 A 
ATOM      2  C1  UNL d   1       0.766   4.875  -0.908  0.00  0.00     0.003 A 
ATOM      3  C2  UNL d   1       0.770   3.751  -0.080  0.00  0.00     0.048 A 
ATOM      4  C3  UNL d   1       0.022   3.756   1.097  0.00  0.00     0.023 A 
ATOM      5  C4  UNL d   1      -0.730   4.878   1.451  0.00  0.00     0.048 A 
ATOM      6  C5  UNL d   1      -0.730   6.000   0.620  0.00  0.00     0.003 A 
ATOM      7  I   UNL d   1       0.025   2.084   2.331  0.00  0.00    -0.146 I 
ENDROOT
TORSDOF 0
ENDMDL
