MODEL 1
REMARK minimizedAffinity 9.30987263
REMARK minimizedRMSD -1
REMARK  0 active torsions:
REMARK  status: ('A' for Active; 'I' for Inactive)
ROOT
ATOM      1  C   UNL d   1      -0.827  -0.627  -3.713  0.00  0.00     0.023 A 
ATOM      2  C1  UNL d   1      -1.788   0.383  -3.767  0.00  0.00     0.003 A 
ATOM      3  C2  UNL d   1      -2.452   0.780  -2.605  0.00  0.00     0.048 A 
ATOM      4  C3  UNL d   1      -2.151   0.163  -1.391  0.00  0.00     0.023 A 
ATOM      5  C4  UNL d   1      -1.189  -0.848  -1.332  0.00  0.00     0.048 A 
ATOM      6  C5  UNL d   1      -0.528  -1.241  -2.497  0.00  0.00     0.003 A 
ATOM      7  I   UNL d   1      -3.138   0.751   0.340  0.00  0.00    -0.146 I 
ENDROOT
TORSDOF 0
ENDMDL
