MODEL 1
REMARK minimizedAffinity 7.97975779
REMARK minimizedRMSD -1
REMARK  0 active torsions:
REMARK  status: ('A' for Active; 'I' for Inactive)
ROOT
ATOM      1  C   UNL d   1       0.501  -5.999  -1.805  0.00  0.00     0.023 A 
ATOM      2  C1  UNL d   1       1.744  -5.999  -1.171  0.00  0.00     0.003 A 
ATOM      3  C2  UNL d   1       2.916  -5.999  -1.930  0.00  0.00     0.048 A 
ATOM      4  C3  UNL d   1       2.839  -5.997  -3.322  0.00  0.00     0.023 A 
ATOM      5  C4  UNL d   1       1.597  -5.996  -3.961  0.00  0.00     0.048 A 
ATOM      6  C5  UNL d   1       0.428  -5.998  -3.198  0.00  0.00     0.003 A 
ATOM      7  I   UNL d   1       4.582  -5.997  -4.454  0.00  0.00    -0.146 I 
ENDROOT
TORSDOF 0
ENDMDL
