MODEL 1
REMARK minimizedAffinity 12.1123095
REMARK minimizedRMSD -1
REMARK  0 active torsions:
REMARK  status: ('A' for Active; 'I' for Inactive)
ROOT
ATOM      1  C   UNL d   1       0.065   1.317   3.428  0.00  0.00     0.023 A 
ATOM      2  C1  UNL d   1       1.257   1.976   3.126  0.00  0.00     0.003 A 
ATOM      3  C2  UNL d   1       1.273   2.988   2.164  0.00  0.00     0.048 A 
ATOM      4  C3  UNL d   1       0.093   3.336   1.508  0.00  0.00     0.023 A 
ATOM      5  C4  UNL d   1      -1.102   2.680   1.807  0.00  0.00     0.048 A 
ATOM      6  C5  UNL d   1      -1.113   1.669   2.769  0.00  0.00     0.003 A 
ATOM      7  I   UNL d   1       0.114   4.842   0.075  0.00  0.00    -0.146 I 
ENDROOT
TORSDOF 0
ENDMDL
