MODEL 1
REMARK minimizedAffinity 13.6952562
REMARK minimizedRMSD -1
REMARK  0 active torsions:
REMARK  status: ('A' for Active; 'I' for Inactive)
ROOT
ATOM      1  C   UNL d   1      -1.105  -0.937  -1.739  0.00  0.00     0.023 A 
ATOM      2  C1  UNL d   1       0.189  -0.474  -1.505  0.00  0.00     0.003 A 
ATOM      3  C2  UNL d   1       0.394   0.670  -0.731  0.00  0.00     0.048 A 
ATOM      4  C3  UNL d   1      -0.700   1.345  -0.192  0.00  0.00     0.023 A 
ATOM      5  C4  UNL d   1      -1.998   0.885  -0.423  0.00  0.00     0.048 A 
ATOM      6  C5  UNL d   1      -2.198  -0.259  -1.198  0.00  0.00     0.003 A 
ATOM      7  I   UNL d   1      -0.398   3.048   0.961  0.00  0.00    -0.146 I 
ENDROOT
TORSDOF 0
ENDMDL
