MODEL 1
REMARK minimizedAffinity 6.18326473
REMARK minimizedRMSD -1
REMARK  0 active torsions:
REMARK  status: ('A' for Active; 'I' for Inactive)
ROOT
ATOM      1  C   UNL d   1       1.282   0.428   3.992  0.00  0.00     0.023 A 
ATOM      2  C1  UNL d   1       2.155   0.721   2.944  0.00  0.00     0.003 A 
ATOM      3  C2  UNL d   1       1.759   1.591   1.926  0.00  0.00     0.048 A 
ATOM      4  C3  UNL d   1       0.489   2.166   1.963  0.00  0.00     0.023 A 
ATOM      5  C4  UNL d   1      -0.387   1.877   3.010  0.00  0.00     0.048 A 
ATOM      6  C5  UNL d   1       0.012   1.005   4.025  0.00  0.00     0.003 A 
ATOM      7  I   UNL d   1      -0.102   3.462   0.449  0.00  0.00    -0.146 I 
ENDROOT
TORSDOF 0
ENDMDL
