MODEL 1
REMARK minimizedAffinity 6.72242928
REMARK minimizedRMSD -1
REMARK  0 active torsions:
REMARK  status: ('A' for Active; 'I' for Inactive)
ROOT
ATOM      1  C   UNL d   1      -0.956   6.000  -2.314  0.00  0.00     0.023 A 
ATOM      2  C1  UNL d   1       0.382   5.634  -2.167  0.00  0.00     0.003 A 
ATOM      3  C2  UNL d   1       0.760   4.758  -1.147  0.00  0.00     0.048 A 
ATOM      4  C3  UNL d   1      -0.206   4.251  -0.278  0.00  0.00     0.023 A 
ATOM      5  C4  UNL d   1      -1.546   4.614  -0.422  0.00  0.00     0.048 A 
ATOM      6  C5  UNL d   1      -1.918   5.491  -1.442  0.00  0.00     0.003 A 
ATOM      7  I   UNL d   1       0.354   2.948   1.241  0.00  0.00    -0.146 I 
ENDROOT
TORSDOF 0
ENDMDL
