MODEL 1
REMARK minimizedAffinity 13.0892334
REMARK minimizedRMSD -1
REMARK  0 active torsions:
REMARK  status: ('A' for Active; 'I' for Inactive)
ROOT
ATOM      1  C   UNL d   1       1.275   0.357  -1.300  0.00  0.00     0.124 A 
ATOM      2  C1  UNL d   1       1.232   1.696  -1.663  0.00  0.00     0.062 A 
ATOM      3  C2  UNL d   1       1.288   2.688  -0.688  0.00  0.00     0.162 A 
ATOM      4  C3  UNL d   1       1.388   2.345   0.660  0.00  0.00    -0.034 A 
ATOM      5  C4  UNL d   1       1.429   0.996   1.017  0.00  0.00     0.162 A 
ATOM      6  C5  UNL d   1       1.373   0.008   0.039  0.00  0.00     0.062 A 
ATOM      7  F   UNL d   1       1.414  -1.285   0.392  0.00  0.00    -0.097 F 
ATOM      8  F1  UNL d   1       1.525   0.630   2.304  0.00  0.00    -0.096 F 
ATOM      9  I   UNL d   1       1.472   3.824   2.121  0.00  0.00    -0.060 I 
ATOM     10  F2  UNL d   1       1.245   3.974  -1.068  0.00  0.00    -0.096 F 
ATOM     11  F3  UNL d   1       1.136   2.036  -2.957  0.00  0.00    -0.097 F 
ATOM     12  F4  UNL d   1       1.220  -0.595  -2.241  0.00  0.00    -0.092 F 
ENDROOT
TORSDOF 0
ENDMDL
