MODEL 1
REMARK minimizedAffinity 10.8364735
REMARK minimizedRMSD -1
REMARK  0 active torsions:
REMARK  status: ('A' for Active; 'I' for Inactive)
ROOT
ATOM      1  C   UNL d   1       0.825   3.204  -0.620  0.00  0.00     0.124 A 
ATOM      2  C1  UNL d   1       0.975   2.349  -1.702  0.00  0.00     0.062 A 
ATOM      3  C2  UNL d   1       1.529   1.084  -1.524  0.00  0.00     0.162 A 
ATOM      4  C3  UNL d   1       1.936   0.667  -0.257  0.00  0.00    -0.034 A 
ATOM      5  C4  UNL d   1       1.783   1.533   0.827  0.00  0.00     0.162 A 
ATOM      6  C5  UNL d   1       1.228   2.795   0.644  0.00  0.00     0.062 A 
ATOM      7  F   UNL d   1       1.084   3.620   1.691  0.00  0.00    -0.097 F 
ATOM      8  F1  UNL d   1       2.163   1.163   2.059  0.00  0.00    -0.096 F 
ATOM      9  I   UNL d   1       2.765  -1.223   0.014  0.00  0.00    -0.060 I 
ATOM     10  F2  UNL d   1       1.663   0.279  -2.588  0.00  0.00    -0.096 F 
ATOM     11  F3  UNL d   1       0.587   2.741  -2.924  0.00  0.00    -0.097 F 
ATOM     12  F4  UNL d   1       0.292   4.420  -0.794  0.00  0.00    -0.092 F 
ENDROOT
TORSDOF 0
ENDMDL
