MODEL 1
REMARK minimizedAffinity 2.46660304
REMARK minimizedRMSD -1
REMARK  0 active torsions:
REMARK  status: ('A' for Active; 'I' for Inactive)
ROOT
ATOM      1  C   UNL d   1       1.006   2.905  -0.926  0.00  0.00     0.124 A 
ATOM      2  C1  UNL d   1       1.360   2.121  -2.015  0.00  0.00     0.062 A 
ATOM      3  C2  UNL d   1       1.497   0.743  -1.870  0.00  0.00     0.162 A 
ATOM      4  C3  UNL d   1       1.279   0.140  -0.631  0.00  0.00    -0.034 A 
ATOM      5  C4  UNL d   1       0.924   0.936   0.460  0.00  0.00     0.162 A 
ATOM      6  C5  UNL d   1       0.788   2.312   0.310  0.00  0.00     0.062 A 
ATOM      7  F   UNL d   1       0.446   3.068   1.363  0.00  0.00    -0.097 F 
ATOM      8  F1  UNL d   1       0.707   0.389   1.665  0.00  0.00    -0.096 F 
ATOM      9  I   UNL d   1       1.483  -1.919  -0.411  0.00  0.00    -0.060 I 
ATOM     10  F2  UNL d   1       1.841   0.010  -2.940  0.00  0.00    -0.096 F 
ATOM     11  F3  UNL d   1       1.572   2.691  -3.209  0.00  0.00    -0.097 F 
ATOM     12  F4  UNL d   1       0.875   4.230  -1.067  0.00  0.00    -0.092 F 
ENDROOT
TORSDOF 0
ENDMDL
