MODEL 1
REMARK minimizedAffinity 5.36139011
REMARK minimizedRMSD -1
REMARK  0 active torsions:
REMARK  status: ('A' for Active; 'I' for Inactive)
ROOT
ATOM      1  C   UNL d   1       0.971   2.071  -0.047  0.00  0.00     0.124 A 
ATOM      2  C1  UNL d   1       0.970   2.475  -1.375  0.00  0.00     0.062 A 
ATOM      3  C2  UNL d   1       1.123   1.537  -2.392  0.00  0.00     0.162 A 
ATOM      4  C3  UNL d   1       1.276   0.185  -2.085  0.00  0.00    -0.034 A 
ATOM      5  C4  UNL d   1       1.276  -0.213  -0.747  0.00  0.00     0.162 A 
ATOM      6  C5  UNL d   1       1.123   0.728   0.266  0.00  0.00     0.062 A 
ATOM      7  F   UNL d   1       1.124   0.336   1.548  0.00  0.00    -0.097 F 
ATOM      8  F1  UNL d   1       1.421  -1.505  -0.417  0.00  0.00    -0.096 F 
ATOM      9  I   UNL d   1       1.504  -1.220  -3.603  0.00  0.00    -0.060 I 
ATOM     10  F2  UNL d   1       1.119   1.956  -3.666  0.00  0.00    -0.096 F 
ATOM     11  F3  UNL d   1       0.824   3.773  -1.679  0.00  0.00    -0.097 F 
ATOM     12  F4  UNL d   1       0.825   2.976   0.930  0.00  0.00    -0.092 F 
ENDROOT
TORSDOF 0
ENDMDL
