MODEL 1
REMARK minimizedAffinity 7.79099035
REMARK minimizedRMSD -1
REMARK  0 active torsions:
REMARK  status: ('A' for Active; 'I' for Inactive)
ROOT
ATOM      1  C   UNL d   1       1.305   1.805   0.407  0.00  0.00     0.124 A 
ATOM      2  C1  UNL d   1       1.042   1.876  -0.954  0.00  0.00     0.062 A 
ATOM      3  C2  UNL d   1       0.885   0.710  -1.699  0.00  0.00     0.162 A 
ATOM      4  C3  UNL d   1       0.988  -0.537  -1.083  0.00  0.00    -0.034 A 
ATOM      5  C4  UNL d   1       1.254  -0.600   0.286  0.00  0.00     0.162 A 
ATOM      6  C5  UNL d   1       1.411   0.567   1.025  0.00  0.00     0.062 A 
ATOM      7  F   UNL d   1       1.665   0.497   2.340  0.00  0.00    -0.097 F 
ATOM      8  F1  UNL d   1       1.360  -1.783   0.910  0.00  0.00    -0.096 F 
ATOM      9  I   UNL d   1       0.753  -2.282  -2.192  0.00  0.00    -0.060 I 
ATOM     10  F2  UNL d   1       0.631   0.809  -3.012  0.00  0.00    -0.096 F 
ATOM     11  F3  UNL d   1       0.941   3.070  -1.555  0.00  0.00    -0.097 F 
ATOM     12  F4  UNL d   1       1.458   2.928   1.120  0.00  0.00    -0.092 F 
ENDROOT
TORSDOF 0
ENDMDL
