MODEL 1
REMARK minimizedAffinity 13.0689754
REMARK minimizedRMSD -1
REMARK  0 active torsions:
REMARK  status: ('A' for Active; 'I' for Inactive)
ROOT
ATOM      1  C   UNL d   1       0.553   1.926  -2.426  0.00  0.00     0.124 A 
ATOM      2  C1  UNL d   1       1.098   0.672  -2.189  0.00  0.00     0.062 A 
ATOM      3  C2  UNL d   1       1.630   0.364  -0.940  0.00  0.00     0.162 A 
ATOM      4  C3  UNL d   1       1.619   1.312   0.083  0.00  0.00    -0.034 A 
ATOM      5  C4  UNL d   1       1.070   2.572  -0.163  0.00  0.00     0.162 A 
ATOM      6  C5  UNL d   1       0.540   2.875  -1.413  0.00  0.00     0.062 A 
ATOM      7  F   UNL d   1       0.014   4.087  -1.640  0.00  0.00    -0.097 F 
ATOM      8  F1  UNL d   1       1.043   3.507   0.798  0.00  0.00    -0.096 F 
ATOM      9  I   UNL d   1       2.413   0.856   1.951  0.00  0.00    -0.060 I 
ATOM     10  F2  UNL d   1       2.151  -0.856  -0.740  0.00  0.00    -0.096 F 
ATOM     11  F3  UNL d   1       1.114  -0.246  -3.166  0.00  0.00    -0.097 F 
ATOM     12  F4  UNL d   1       0.043   2.220  -3.629  0.00  0.00    -0.092 F 
ENDROOT
TORSDOF 0
ENDMDL
