MODEL 1
REMARK minimizedAffinity 4.46783829
REMARK minimizedRMSD -1
REMARK  0 active torsions:
REMARK  status: ('A' for Active; 'I' for Inactive)
ROOT
ATOM      1  C   UNL d   1       0.730   0.717  -0.184  0.00  0.00     0.124 A 
ATOM      2  C1  UNL d   1       0.695   1.139  -1.506  0.00  0.00     0.062 A 
ATOM      3  C2  UNL d   1       0.984   2.462  -1.826  0.00  0.00     0.162 A 
ATOM      4  C3  UNL d   1       1.311   3.374  -0.823  0.00  0.00    -0.034 A 
ATOM      5  C4  UNL d   1       1.344   2.943   0.505  0.00  0.00     0.162 A 
ATOM      6  C5  UNL d   1       1.054   1.619   0.820  0.00  0.00     0.062 A 
ATOM      7  F   UNL d   1       1.089   1.213   2.097  0.00  0.00    -0.097 F 
ATOM      8  F1  UNL d   1       1.654   3.793   1.494  0.00  0.00    -0.096 F 
ATOM      9  I   UNL d   1       1.743   5.354  -1.297  0.00  0.00    -0.060 I 
ATOM     10  F2  UNL d   1       0.942   2.842  -3.112  0.00  0.00    -0.096 F 
ATOM     11  F3  UNL d   1       0.382   0.270  -2.477  0.00  0.00    -0.097 F 
ATOM     12  F4  UNL d   1       0.451  -0.557   0.122  0.00  0.00    -0.092 F 
ENDROOT
TORSDOF 0
ENDMDL
