MODEL 1
REMARK minimizedAffinity -1.28061283
REMARK minimizedRMSD -1
REMARK  0 active torsions:
REMARK  status: ('A' for Active; 'I' for Inactive)
ROOT
ATOM      1  C   UNL d   1       0.988   3.194  -0.467  0.00  0.00     0.124 A 
ATOM      2  C1  UNL d   1       1.212   2.475  -1.633  0.00  0.00     0.062 A 
ATOM      3  C2  UNL d   1       1.354   1.091  -1.587  0.00  0.00     0.162 A 
ATOM      4  C3  UNL d   1       1.271   0.416  -0.369  0.00  0.00    -0.034 A 
ATOM      5  C4  UNL d   1       1.047   1.145   0.800  0.00  0.00     0.162 A 
ATOM      6  C5  UNL d   1       0.906   2.528   0.748  0.00  0.00     0.062 A 
ATOM      7  F   UNL d   1       0.690   3.220   1.876  0.00  0.00    -0.097 F 
ATOM      8  F1  UNL d   1       0.962   0.528   1.987  0.00  0.00    -0.096 F 
ATOM      9  I   UNL d   1       1.483  -1.653  -0.296  0.00  0.00    -0.060 I 
ATOM     10  F2  UNL d   1       1.569   0.423  -2.730  0.00  0.00    -0.096 F 
ATOM     11  F3  UNL d   1       1.293   3.116  -2.809  0.00  0.00    -0.097 F 
ATOM     12  F4  UNL d   1       0.853   4.525  -0.514  0.00  0.00    -0.092 F 
ENDROOT
TORSDOF 0
ENDMDL
