MODEL 1
REMARK minimizedAffinity 3.52269626
REMARK minimizedRMSD -1
REMARK  0 active torsions:
REMARK  status: ('A' for Active; 'I' for Inactive)
ROOT
ATOM      1  C   UNL d   1      -3.228   0.500   3.132  0.00  0.00     0.124 A 
ATOM      2  C1  UNL d   1      -2.365   0.527   4.219  0.00  0.00     0.062 A 
ATOM      3  C2  UNL d   1      -1.992   1.742   4.786  0.00  0.00     0.162 A 
ATOM      4  C3  UNL d   1      -2.482   2.941   4.268  0.00  0.00    -0.034 A 
ATOM      5  C4  UNL d   1      -3.348   2.906   3.173  0.00  0.00     0.162 A 
ATOM      6  C5  UNL d   1      -3.718   1.689   2.611  0.00  0.00     0.062 A 
ATOM      7  F   UNL d   1      -4.552   1.664   1.560  0.00  0.00    -0.097 F 
ATOM      8  F1  UNL d   1      -3.837   4.039   2.650  0.00  0.00    -0.096 F 
ATOM      9  I   UNL d   1      -1.925   4.760   5.112  0.00  0.00    -0.060 I 
ATOM     10  F2  UNL d   1      -1.157   1.739   5.836  0.00  0.00    -0.096 F 
ATOM     11  F3  UNL d   1      -1.890  -0.620   4.725  0.00  0.00    -0.097 F 
ATOM     12  F4  UNL d   1      -3.585  -0.671   2.588  0.00  0.00    -0.092 F 
ENDROOT
TORSDOF 0
ENDMDL
