MODEL 1
REMARK minimizedAffinity 0.202099249
REMARK minimizedRMSD -1
REMARK  0 active torsions:
REMARK  status: ('A' for Active; 'I' for Inactive)
ROOT
ATOM      1  C   UNL d   1       2.234  -2.717   0.140  0.00  0.00     0.124 A 
ATOM      2  C1  UNL d   1       0.961  -2.285  -0.205  0.00  0.00     0.062 A 
ATOM      3  C2  UNL d   1       0.744  -0.956  -0.557  0.00  0.00     0.162 A 
ATOM      4  C3  UNL d   1       1.803  -0.048  -0.565  0.00  0.00    -0.034 A 
ATOM      5  C4  UNL d   1       3.080  -0.489  -0.215  0.00  0.00     0.162 A 
ATOM      6  C5  UNL d   1       3.292  -1.819   0.135  0.00  0.00     0.062 A 
ATOM      7  F   UNL d   1       4.523  -2.234   0.469  0.00  0.00    -0.097 F 
ATOM      8  F1  UNL d   1       4.120   0.357  -0.212  0.00  0.00    -0.096 F 
ATOM      9  I   UNL d   1       1.482   1.940  -1.089  0.00  0.00    -0.060 I 
ATOM     10  F2  UNL d   1      -0.497  -0.567  -0.886  0.00  0.00    -0.096 F 
ATOM     11  F3  UNL d   1      -0.063  -3.151  -0.201  0.00  0.00    -0.097 F 
ATOM     12  F4  UNL d   1       2.440  -3.996   0.479  0.00  0.00    -0.092 F 
ENDROOT
TORSDOF 0
ENDMDL
