MODEL 1
REMARK minimizedAffinity 6.33035803
REMARK minimizedRMSD -1
REMARK  0 active torsions:
REMARK  status: ('A' for Active; 'I' for Inactive)
ROOT
ATOM      1  C   UNL d   1       1.004   1.710  -1.981  0.00  0.00     0.124 A 
ATOM      2  C1  UNL d   1       1.074   2.817  -1.146  0.00  0.00     0.062 A 
ATOM      3  C2  UNL d   1       1.218   2.648   0.228  0.00  0.00     0.162 A 
ATOM      4  C3  UNL d   1       1.295   1.367   0.776  0.00  0.00    -0.034 A 
ATOM      5  C4  UNL d   1       1.224   0.260  -0.071  0.00  0.00     0.162 A 
ATOM      6  C5  UNL d   1       1.080   0.433  -1.444  0.00  0.00     0.062 A 
ATOM      7  F   UNL d   1       1.013  -0.636  -2.249  0.00  0.00    -0.097 F 
ATOM      8  F1  UNL d   1       1.295  -0.986   0.422  0.00  0.00    -0.096 F 
ATOM      9  I   UNL d   1       1.512   1.111   2.830  0.00  0.00    -0.060 I 
ATOM     10  F2  UNL d   1       1.282   3.735   1.012  0.00  0.00    -0.096 F 
ATOM     11  F3  UNL d   1       1.000   4.051  -1.663  0.00  0.00    -0.097 F 
ATOM     12  F4  UNL d   1       0.864   1.876  -3.303  0.00  0.00    -0.092 F 
ENDROOT
TORSDOF 0
ENDMDL
