MODEL 1
REMARK minimizedAffinity 0.00154868374
REMARK minimizedRMSD -1
REMARK  0 active torsions:
REMARK  status: ('A' for Active; 'I' for Inactive)
ROOT
ATOM      1  C   UNL d   1       0.855   0.531  -0.019  0.00  0.00     0.124 A 
ATOM      2  C1  UNL d   1       0.968   1.408   1.052  0.00  0.00     0.062 A 
ATOM      3  C2  UNL d   1       1.188   2.764   0.826  0.00  0.00     0.162 A 
ATOM      4  C3  UNL d   1       1.297   3.252  -0.476  0.00  0.00    -0.034 A 
ATOM      5  C4  UNL d   1       1.183   2.364  -1.547  0.00  0.00     0.162 A 
ATOM      6  C5  UNL d   1       0.963   1.010  -1.317  0.00  0.00     0.062 A 
ATOM      7  F   UNL d   1       0.854   0.165  -2.352  0.00  0.00    -0.097 F 
ATOM      8  F1  UNL d   1       1.282   2.800  -2.812  0.00  0.00    -0.096 F 
ATOM      9  I   UNL d   1       1.627   5.278  -0.818  0.00  0.00    -0.060 I 
ATOM     10  F2  UNL d   1       1.293   3.588   1.879  0.00  0.00    -0.096 F 
ATOM     11  F3  UNL d   1       0.865   0.948   2.307  0.00  0.00    -0.097 F 
ATOM     12  F4  UNL d   1       0.644  -0.773   0.201  0.00  0.00    -0.092 F 
ENDROOT
TORSDOF 0
ENDMDL
