MODEL 1
REMARK minimizedAffinity 3.16640019
REMARK minimizedRMSD -1
REMARK  0 active torsions:
REMARK  status: ('A' for Active; 'I' for Inactive)
ROOT
ATOM      1  C   UNL d   1       1.077   2.852  -0.450  0.00  0.00     0.124 A 
ATOM      2  C1  UNL d   1       0.938   2.018  -1.551  0.00  0.00     0.062 A 
ATOM      3  C2  UNL d   1       1.057   0.639  -1.404  0.00  0.00     0.162 A 
ATOM      4  C3  UNL d   1       1.315   0.085  -0.150  0.00  0.00    -0.034 A 
ATOM      5  C4  UNL d   1       1.454   0.930   0.952  0.00  0.00     0.162 A 
ATOM      6  C5  UNL d   1       1.335   2.308   0.800  0.00  0.00     0.062 A 
ATOM      7  F   UNL d   1       1.469   3.112   1.865  0.00  0.00    -0.097 F 
ATOM      8  F1  UNL d   1       1.702   0.431   2.172  0.00  0.00    -0.096 F 
ATOM      9  I   UNL d   1       1.493  -1.976   0.075  0.00  0.00    -0.060 I 
ATOM     10  F2  UNL d   1       0.918  -0.143  -2.485  0.00  0.00    -0.096 F 
ATOM     11  F3  UNL d   1       0.690   2.542  -2.760  0.00  0.00    -0.097 F 
ATOM     12  F4  UNL d   1       0.963   4.179  -0.595  0.00  0.00    -0.092 F 
ENDROOT
TORSDOF 0
ENDMDL
