MODEL 1
REMARK minimizedAffinity 10.5969
REMARK minimizedRMSD -1
REMARK  0 active torsions:
REMARK  status: ('A' for Active; 'I' for Inactive)
ROOT
ATOM      1  C   UNL d   1       0.886   0.180  -0.439  0.00  0.00     0.124 A 
ATOM      2  C1  UNL d   1       1.260   0.656  -1.688  0.00  0.00     0.062 A 
ATOM      3  C2  UNL d   1       1.314   2.026  -1.927  0.00  0.00     0.162 A 
ATOM      4  C3  UNL d   1       0.995   2.931  -0.914  0.00  0.00    -0.034 A 
ATOM      5  C4  UNL d   1       0.619   2.444   0.339  0.00  0.00     0.162 A 
ATOM      6  C5  UNL d   1       0.566   1.074   0.573  0.00  0.00     0.062 A 
ATOM      7  F   UNL d   1       0.205   0.615   1.781  0.00  0.00    -0.097 F 
ATOM      8  F1  UNL d   1       0.306   3.285   1.336  0.00  0.00    -0.096 F 
ATOM      9  I   UNL d   1       1.075   4.980  -1.267  0.00  0.00    -0.060 I 
ATOM     10  F2  UNL d   1       1.679   2.458  -3.143  0.00  0.00    -0.096 F 
ATOM     11  F3  UNL d   1       1.569  -0.206  -2.668  0.00  0.00    -0.097 F 
ATOM     12  F4  UNL d   1       0.834  -1.139  -0.212  0.00  0.00    -0.092 F 
ENDROOT
TORSDOF 0
ENDMDL
