MODEL 1
REMARK minimizedAffinity 10.0937567
REMARK minimizedRMSD -1
REMARK  1 active torsions:
REMARK  status: ('A' for Active; 'I' for Inactive)
REMARK    1  A    between atoms: N_2  and  C1_3 
ROOT
ATOM      1  C1  UNL d   1      -2.568  -5.479  -3.866  0.00  0.00     0.143 A 
ATOM      2  C2  UNL d   1      -1.459  -5.999  -3.190  0.00  0.00    -0.057 A 
ATOM      3  C3  UNL d   1      -0.946  -5.374  -2.047  0.00  0.00     0.033 A 
ATOM      4  C4  UNL d   1      -1.519  -4.198  -1.574  0.00  0.00    -0.042 A 
ATOM      5  C5  UNL d   1      -2.607  -3.649  -2.244  0.00  0.00     0.033 A 
ATOM      6  C6  UNL d   1      -3.118  -4.282  -3.381  0.00  0.00    -0.057 A 
ENDROOT
BRANCH   1   7
ATOM      7  N   UNL d   1      -3.063  -5.999  -5.064  0.00  0.00    -0.732 N 
ATOM      8  C   UNL d   1      -4.485  -6.000  -5.336  0.00  0.00     0.284 C 
ATOM      9  H3  UNL d   1      -2.487  -5.748  -5.864  0.00  0.00     0.395 HD
ENDBRANCH   1   7
TORSDOF 1
ENDMDL
