MODEL 1
REMARK minimizedAffinity 0.82779634
REMARK minimizedRMSD -1
REMARK  1 active torsions:
REMARK  status: ('A' for Active; 'I' for Inactive)
REMARK    1  A    between atoms: N_2  and  C1_3 
ROOT
ATOM      1  C1  UNL d   1       3.173   0.291  -0.570  0.00  0.00     0.143 A 
ATOM      2  C2  UNL d   1       3.884  -0.898  -0.380  0.00  0.00    -0.057 A 
ATOM      3  C3  UNL d   1       5.283  -0.906  -0.322  0.00  0.00     0.033 A 
ATOM      4  C4  UNL d   1       5.998   0.276  -0.482  0.00  0.00    -0.042 A 
ATOM      5  C5  UNL d   1       5.313   1.466  -0.697  0.00  0.00     0.033 A 
ATOM      6  C6  UNL d   1       3.916   1.469  -0.747  0.00  0.00    -0.057 A 
ENDROOT
BRANCH   1   7
ATOM      7  N   UNL d   1       1.787   0.350  -0.735  0.00  0.00    -0.732 N 
ATOM      8  C   UNL d   1       0.966   1.104   0.188  0.00  0.00     0.284 C 
ATOM      9  H3  UNL d   1       1.516   0.452  -1.711  0.00  0.00     0.395 HD
ENDBRANCH   1   7
TORSDOF 1
ENDMDL
