MODEL 1
REMARK minimizedAffinity 2.30937672
REMARK minimizedRMSD -1
REMARK  1 active torsions:
REMARK  status: ('A' for Active; 'I' for Inactive)
REMARK    1  A    between atoms: N_2  and  C1_3 
ROOT
ATOM      1  C1  UNL d   1       2.404  -0.848  -0.682  0.00  0.00     0.143 A 
ATOM      2  C2  UNL d   1       1.060  -1.026  -1.027  0.00  0.00    -0.057 A 
ATOM      3  C3  UNL d   1       0.562  -2.285  -1.384  0.00  0.00     0.033 A 
ATOM      4  C4  UNL d   1       1.410  -3.387  -1.431  0.00  0.00    -0.042 A 
ATOM      5  C5  UNL d   1       2.755  -3.229  -1.117  0.00  0.00     0.033 A 
ATOM      6  C6  UNL d   1       3.245  -1.970  -0.754  0.00  0.00    -0.057 A 
ENDROOT
BRANCH   1   7
ATOM      7  N   UNL d   1       2.980   0.396  -0.413  0.00  0.00    -0.732 N 
ATOM      8  C   UNL d   1       4.327   0.695  -0.852  0.00  0.00     0.284 C 
ATOM      9  H3  UNL d   1       2.323   1.163  -0.535  0.00  0.00     0.395 HD
ENDBRANCH   1   7
TORSDOF 1
ENDMDL
