MODEL 1
REMARK minimizedAffinity 5.56475496
REMARK minimizedRMSD -1
REMARK  1 active torsions:
REMARK  status: ('A' for Active; 'I' for Inactive)
REMARK    1  A    between atoms: N_2  and  C1_3 
ROOT
ATOM      1  C1  UNL d   1       4.508   1.230  -0.930  0.00  0.00     0.143 A 
ATOM      2  C2  UNL d   1       5.791   0.808  -0.563  0.00  0.00    -0.057 A 
ATOM      3  C3  UNL d   1       5.999  -0.437   0.044  0.00  0.00     0.033 A 
ATOM      4  C4  UNL d   1       4.922  -1.271   0.322  0.00  0.00    -0.042 A 
ATOM      5  C5  UNL d   1       3.636  -0.862  -0.011  0.00  0.00     0.033 A 
ATOM      6  C6  UNL d   1       3.434   0.379  -0.623  0.00  0.00    -0.057 A 
ENDROOT
BRANCH   1   7
ATOM      7  N   UNL d   1       4.224   2.497  -1.446  0.00  0.00    -0.732 N 
ATOM      8  C   UNL d   1       5.015   3.645  -1.058  0.00  0.00     0.284 C 
ATOM      9  H3  UNL d   1       3.990   2.469  -2.436  0.00  0.00     0.395 HD
ENDBRANCH   1   7
TORSDOF 1
ENDMDL
