MODEL 1
REMARK minimizedAffinity 12.9747219
REMARK minimizedRMSD -1
REMARK  1 active torsions:
REMARK  status: ('A' for Active; 'I' for Inactive)
REMARK    1  A    between atoms: N_2  and  C1_3 
ROOT
ATOM      1  C1  UNL d   1      -2.254  -5.291  -4.092  0.00  0.00     0.143 A 
ATOM      2  C2  UNL d   1      -2.947  -4.166  -3.632  0.00  0.00    -0.057 A 
ATOM      3  C3  UNL d   1      -2.618  -3.558  -2.414  0.00  0.00     0.033 A 
ATOM      4  C4  UNL d   1      -1.606  -4.084  -1.619  0.00  0.00    -0.042 A 
ATOM      5  C5  UNL d   1      -0.920  -5.217  -2.044  0.00  0.00     0.033 A 
ATOM      6  C6  UNL d   1      -1.249  -5.815  -3.264  0.00  0.00    -0.057 A 
ENDROOT
BRANCH   1   7
ATOM      7  N   UNL d   1      -2.598  -5.999  -5.246  0.00  0.00    -0.732 N 
ATOM      8  C   UNL d   1      -3.788  -5.654  -5.995  0.00  0.00     0.284 C 
ATOM      9  H3  UNL d   1      -1.790  -6.214  -5.826  0.00  0.00     0.395 HD
ENDBRANCH   1   7
TORSDOF 1
ENDMDL
