MODEL 1
REMARK minimizedAffinity 0.749421358
REMARK minimizedRMSD -1
REMARK  1 active torsions:
REMARK  status: ('A' for Active; 'I' for Inactive)
REMARK    1  A    between atoms: N_2  and  C1_3 
ROOT
ATOM      1  C1  UNL d   1       3.998  -1.187  -0.027  0.00  0.00     0.143 A 
ATOM      2  C2  UNL d   1       5.286  -1.023   0.493  0.00  0.00    -0.057 A 
ATOM      3  C3  UNL d   1       5.999   0.167   0.302  0.00  0.00     0.033 A 
ATOM      4  C4  UNL d   1       5.446   1.205  -0.440  0.00  0.00    -0.042 A 
ATOM      5  C5  UNL d   1       4.178   1.054  -0.988  0.00  0.00     0.033 A 
ATOM      6  C6  UNL d   1       3.467  -0.134  -0.788  0.00  0.00    -0.057 A 
ENDROOT
BRANCH   1   7
ATOM      7  N   UNL d   1       3.277  -2.382   0.044  0.00  0.00    -0.732 N 
ATOM      8  C   UNL d   1       2.639  -2.930  -1.134  0.00  0.00     0.284 C 
ATOM      9  H3  UNL d   1       3.734  -3.077   0.631  0.00  0.00     0.395 HD
ENDBRANCH   1   7
TORSDOF 1
ENDMDL
