MODEL 1
REMARK minimizedAffinity 7.29463577
REMARK minimizedRMSD -1
REMARK  1 active torsions:
REMARK  status: ('A' for Active; 'I' for Inactive)
REMARK    1  A    between atoms: N_2  and  C1_3 
ROOT
ATOM      1  C1  UNL d   1       3.733  -0.423  -1.468  0.00  0.00     0.143 A 
ATOM      2  C2  UNL d   1       3.228  -1.275  -0.480  0.00  0.00    -0.057 A 
ATOM      3  C3  UNL d   1       2.871  -2.597  -0.774  0.00  0.00     0.033 A 
ATOM      4  C4  UNL d   1       2.986  -3.083  -2.072  0.00  0.00    -0.042 A 
ATOM      5  C5  UNL d   1       3.462  -2.246  -3.076  0.00  0.00     0.033 A 
ATOM      6  C6  UNL d   1       3.823  -0.929  -2.775  0.00  0.00    -0.057 A 
ENDROOT
BRANCH   1   7
ATOM      7  N   UNL d   1       4.013   0.929  -1.260  0.00  0.00    -0.732 N 
ATOM      8  C   UNL d   1       5.326   1.352  -0.822  0.00  0.00     0.284 C 
ATOM      9  H3  UNL d   1       3.601   1.526  -1.974  0.00  0.00     0.395 HD
ENDBRANCH   1   7
TORSDOF 1
ENDMDL
