MODEL 1
REMARK minimizedAffinity 9.21262074
REMARK minimizedRMSD -1
REMARK  1 active torsions:
REMARK  status: ('A' for Active; 'I' for Inactive)
REMARK    1  A    between atoms: N_2  and  C1_3 
ROOT
ATOM      1  C1  UNL d   1      -2.310   0.414  -3.837  0.00  0.00     0.143 A 
ATOM      2  C2  UNL d   1      -3.605   0.030  -3.472  0.00  0.00    -0.057 A 
ATOM      3  C3  UNL d   1      -4.721   0.455  -4.203  0.00  0.00     0.033 A 
ATOM      4  C4  UNL d   1      -4.563   1.298  -5.298  0.00  0.00    -0.042 A 
ATOM      5  C5  UNL d   1      -3.287   1.712  -5.664  0.00  0.00     0.033 A 
ATOM      6  C6  UNL d   1      -2.176   1.279  -4.934  0.00  0.00    -0.057 A 
ENDROOT
BRANCH   1   7
ATOM      7  N   UNL d   1      -1.169   0.105  -3.092  0.00  0.00    -0.732 N 
ATOM      8  C   UNL d   1      -0.947   0.711  -1.797  0.00  0.00     0.284 C 
ATOM      9  H3  UNL d   1      -0.934  -0.884  -3.134  0.00  0.00     0.395 HD
ENDBRANCH   1   7
TORSDOF 1
ENDMDL
