MODEL 1
REMARK minimizedAffinity 9.67234898
REMARK minimizedRMSD -1
REMARK  2 active torsions:
REMARK  status: ('A' for Active; 'I' for Inactive)
REMARK    1  A    between atoms: C2'_3  and  C1'_4 
REMARK    2  A    between atoms: C1'_4  and  C1_5 
ROOT
ATOM      1  C1  I4B d   1      -4.011   2.936  -3.306  0.00  0.00    -0.075 A 
ATOM      2  C2  I4B d   1      -3.442   4.104  -3.749  0.00  0.00     0.003 A 
ATOM      3  C3  I4B d   1      -4.158   4.960  -4.620  0.00  0.00     0.002 A 
ATOM      4  C4  I4B d   1      -5.412   4.588  -5.060  0.00  0.00    -0.004 A 
ATOM      5  C5  I4B d   1      -5.997   3.415  -4.592  0.00  0.00     0.002 A 
ATOM      6  C6  I4B d   1      -5.297   2.590  -3.699  0.00  0.00     0.003 A 
ENDROOT
BRANCH   1   7
ATOM      7  C1' I4B d   1      -3.214   2.039  -2.413  0.00  0.00     0.060 C 
BRANCH   7   8
ATOM      8  C2' I4B d   1      -4.024   0.781  -2.171  0.00  0.00    -0.013 C 
ATOM      9  C4' I4B d   1      -3.218  -0.453  -2.479  0.00  0.00     0.013 C 
ATOM     10  C3' I4B d   1      -4.477   0.790  -0.742  0.00  0.00     0.013 C 
ENDBRANCH   7   8
ENDBRANCH   1   7
TORSDOF 2
ENDMDL
