MODEL 1
REMARK minimizedAffinity 8.09361649
REMARK minimizedRMSD -1
REMARK  2 active torsions:
REMARK  status: ('A' for Active; 'I' for Inactive)
REMARK    1  A    between atoms: C2'_3  and  C1'_4 
REMARK    2  A    between atoms: C1'_4  and  C1_5 
ROOT
ATOM      1  C1  I4B d   1      -4.996   3.168  -4.210  0.00  0.00    -0.075 A 
ATOM      2  C2  I4B d   1      -6.000   3.401  -5.117  0.00  0.00     0.003 A 
ATOM      3  C3  I4B d   1      -5.960   4.548  -5.946  0.00  0.00     0.002 A 
ATOM      4  C4  I4B d   1      -4.932   5.457  -5.799  0.00  0.00    -0.004 A 
ATOM      5  C5  I4B d   1      -3.903   5.208  -4.895  0.00  0.00     0.002 A 
ATOM      6  C6  I4B d   1      -3.929   4.051  -4.104  0.00  0.00     0.003 A 
ENDROOT
BRANCH   1   7
ATOM      7  C1' I4B d   1      -5.087   1.964  -3.328  0.00  0.00     0.060 C 
BRANCH   7   8
ATOM      8  C2' I4B d   1      -3.750   1.252  -3.371  0.00  0.00    -0.013 C 
ATOM      9  C4' I4B d   1      -2.661   2.101  -2.769  0.00  0.00     0.013 C 
ATOM     10  C3' I4B d   1      -3.893  -0.046  -2.635  0.00  0.00     0.013 C 
ENDBRANCH   7   8
ENDBRANCH   1   7
TORSDOF 2
ENDMDL
