MODEL 1
REMARK minimizedAffinity 11.3680182
REMARK minimizedRMSD -1
REMARK  2 active torsions:
REMARK  status: ('A' for Active; 'I' for Inactive)
REMARK    1  A    between atoms: C2'_3  and  C1'_4 
REMARK    2  A    between atoms: C1'_4  and  C1_5 
ROOT
ATOM      1  C1  I4B d   1       1.310   4.936  -0.829  0.00  0.00    -0.075 A 
ATOM      2  C2  I4B d   1      -0.039   5.085  -0.626  0.00  0.00     0.003 A 
ATOM      3  C3  I4B d   1      -0.770   4.088   0.065  0.00  0.00     0.002 A 
ATOM      4  C4  I4B d   1      -0.127   2.943   0.487  0.00  0.00    -0.004 A 
ATOM      5  C5  I4B d   1       1.245   2.804   0.300  0.00  0.00     0.002 A 
ATOM      6  C6  I4B d   1       1.971   3.812  -0.351  0.00  0.00     0.003 A 
ENDROOT
BRANCH   1   7
ATOM      7  C1' I4B d   1       2.046   5.992  -1.591  0.00  0.00     0.060 C 
BRANCH   7   8
ATOM      8  C2' I4B d   1       2.228   5.501  -3.013  0.00  0.00    -0.013 C 
ATOM      9  C4' I4B d   1       1.121   5.996  -3.906  0.00  0.00     0.013 C 
ATOM     10  C3' I4B d   1       3.567   5.972  -3.497  0.00  0.00     0.013 C 
ENDBRANCH   7   8
ENDBRANCH   1   7
TORSDOF 2
ENDMDL
