MODEL 1
REMARK minimizedAffinity 9.39516258
REMARK minimizedRMSD -1
REMARK  2 active torsions:
REMARK  status: ('A' for Active; 'I' for Inactive)
REMARK    1  A    between atoms: C2'_3  and  C1'_4 
REMARK    2  A    between atoms: C1'_4  and  C1_5 
ROOT
ATOM      1  C1  I4B d   1       0.183   2.265  -1.184  0.00  0.00    -0.075 A 
ATOM      2  C2  I4B d   1      -1.075   2.335  -1.728  0.00  0.00     0.003 A 
ATOM      3  C3  I4B d   1      -1.451   1.457  -2.772  0.00  0.00     0.002 A 
ATOM      4  C4  I4B d   1      -0.527   0.563  -3.274  0.00  0.00    -0.004 A 
ATOM      5  C5  I4B d   1       0.741   0.477  -2.706  0.00  0.00     0.002 A 
ATOM      6  C6  I4B d   1       1.095   1.325  -1.647  0.00  0.00     0.003 A 
ENDROOT
BRANCH   1   7
ATOM      7  C1' I4B d   1       0.558   3.230  -0.105  0.00  0.00     0.060 C 
BRANCH   7   8
ATOM      8  C2' I4B d   1       1.358   4.350  -0.738  0.00  0.00    -0.013 C 
ATOM      9  C4' I4B d   1       0.474   5.513  -1.105  0.00  0.00     0.013 C 
ATOM     10  C3' I4B d   1       2.422   4.765   0.235  0.00  0.00     0.013 C 
ENDBRANCH   7   8
ENDBRANCH   1   7
TORSDOF 2
ENDMDL
