MODEL 1
REMARK minimizedAffinity 16.9956646
REMARK minimizedRMSD -1
REMARK  0 active torsions:
REMARK  status: ('A' for Active; 'I' for Inactive)
ROOT
ATOM      1  C   UNL d   1      -1.956   2.946  -5.996  0.00  0.00    -0.002 A 
ATOM      2  C1  UNL d   1      -2.984   3.877  -5.979  0.00  0.00     0.010 A 
ATOM      3  C2  UNL d   1      -4.127   3.660  -5.208  0.00  0.00     0.041 A 
ATOM      4  C3  UNL d   1      -4.220   2.480  -4.444  0.00  0.00    -0.075 A 
ATOM      5  S   UNL d   1      -5.525   2.001  -3.424  0.00  0.00     0.015 SA
ATOM      6  C4  UNL d   1      -4.748   0.549  -2.985  0.00  0.00     0.022 A 
ATOM      7  C5  UNL d   1      -3.522   0.416  -3.593  0.00  0.00     0.026 A 
ATOM      8  C6  UNL d   1      -3.197   1.527  -4.444  0.00  0.00    -0.082 A 
ATOM      9  C7  UNL d   1      -2.051   1.776  -5.237  0.00  0.00     0.045 A 
ENDROOT
TORSDOF 0
ENDMDL
