MODEL 1
REMARK minimizedAffinity 12.0821571
REMARK minimizedRMSD -1
REMARK  0 active torsions:
REMARK  status: ('A' for Active; 'I' for Inactive)
ROOT
ATOM      1  C   UNL d   1      -5.027   4.101  -6.000  0.00  0.00    -0.002 A 
ATOM      2  C1  UNL d   1      -3.712   4.312  -5.609  0.00  0.00     0.010 A 
ATOM      3  C2  UNL d   1      -3.107   3.475  -4.670  0.00  0.00     0.041 A 
ATOM      4  C3  UNL d   1      -3.852   2.410  -4.126  0.00  0.00    -0.075 A 
ATOM      5  S   UNL d   1      -3.318   1.256  -2.961  0.00  0.00     0.015 SA
ATOM      6  C4  UNL d   1      -4.823   0.456  -2.955  0.00  0.00     0.022 A 
ATOM      7  C5  UNL d   1      -5.722   1.041  -3.814  0.00  0.00     0.026 A 
ATOM      8  C6  UNL d   1      -5.177   2.177  -4.503  0.00  0.00    -0.082 A 
ATOM      9  C7  UNL d   1      -5.763   3.044  -5.457  0.00  0.00     0.045 A 
ENDROOT
TORSDOF 0
ENDMDL
