MODEL 1
REMARK minimizedAffinity 17.8892899
REMARK minimizedRMSD -1
REMARK  0 active torsions:
REMARK  status: ('A' for Active; 'I' for Inactive)
ROOT
ATOM      1  C   UNL d   1      -1.535   3.150   1.073  0.00  0.00    -0.002 A 
ATOM      2  C1  UNL d   1      -2.184   2.261   0.229  0.00  0.00     0.010 A 
ATOM      3  C2  UNL d   1      -3.568   2.324   0.058  0.00  0.00     0.041 A 
ATOM      4  C3  UNL d   1      -4.296   3.308   0.756  0.00  0.00    -0.075 A 
ATOM      5  S   UNL d   1      -5.999   3.575   0.702  0.00  0.00     0.015 SA
ATOM      6  C4  UNL d   1      -5.904   4.877   1.798  0.00  0.00     0.022 A 
ATOM      7  C5  UNL d   1      -4.613   5.116   2.206  0.00  0.00     0.026 A 
ATOM      8  C6  UNL d   1      -3.665   4.216   1.611  0.00  0.00    -0.082 A 
ATOM      9  C7  UNL d   1      -2.261   4.125   1.764  0.00  0.00     0.045 A 
ENDROOT
TORSDOF 0
ENDMDL
