MODEL 1
REMARK minimizedAffinity -3.99608135
REMARK minimizedRMSD -1
REMARK  0 active torsions:
REMARK  status: ('A' for Active; 'I' for Inactive)
ROOT
ATOM      1  O1  BZF d   1       0.529   0.159  -0.970  0.00  0.00    -0.204 OA
ATOM      2  C2  BZF d   1      -0.821   0.016  -1.229  0.00  0.00     0.174 A 
ATOM      3  C3  BZF d   1      -1.482  -0.376  -0.122  0.00  0.00    -0.012 A 
ATOM      4  C3A BZF d   1      -0.498  -0.397   0.917  0.00  0.00    -0.107 A 
ATOM      5  C4  BZF d   1      -0.545  -0.692   2.249  0.00  0.00     0.055 A 
ATOM      6  C5  BZF d   1       0.608  -0.687   2.968  0.00  0.00    -0.016 A 
ATOM      7  C6  BZF d   1       1.825  -0.398   2.386  0.00  0.00     0.022 A 
ATOM      8  C7  BZF d   1       1.921  -0.095   1.069  0.00  0.00     0.029 A 
ATOM      9  C7A BZF d   1       0.753  -0.066   0.347  0.00  0.00     0.058 A 
ENDROOT
TORSDOF 0
ENDMDL
