MODEL 1
REMARK minimizedAffinity -4.47643089
REMARK minimizedRMSD -1
REMARK  0 active torsions:
REMARK  status: ('A' for Active; 'I' for Inactive)
ROOT
ATOM      1  O1  BZF d   1      -1.280   0.370   0.242  0.00  0.00    -0.204 OA
ATOM      2  C2  BZF d   1      -1.046   0.495  -1.114  0.00  0.00     0.174 A 
ATOM      3  C3  BZF d   1       0.093  -0.136  -1.463  0.00  0.00    -0.012 A 
ATOM      4  C3A BZF d   1       0.555  -0.769  -0.266  0.00  0.00    -0.107 A 
ATOM      5  C4  BZF d   1       1.631  -1.558   0.024  0.00  0.00     0.055 A 
ATOM      6  C5  BZF d   1       1.834  -1.953   1.308  0.00  0.00    -0.016 A 
ATOM      7  C6  BZF d   1       0.985  -1.573   2.327  0.00  0.00     0.022 A 
ATOM      8  C7  BZF d   1      -0.099  -0.795   2.088  0.00  0.00     0.029 A 
ATOM      9  C7A BZF d   1      -0.325  -0.422   0.785  0.00  0.00     0.058 A 
ENDROOT
TORSDOF 0
ENDMDL
