MODEL 1
REMARK minimizedAffinity -2.55373359
REMARK minimizedRMSD -1
REMARK  0 active torsions:
REMARK  status: ('A' for Active; 'I' for Inactive)
ROOT
ATOM      1  O1  BZF d   1      -4.363   4.006  -2.594  0.00  0.00    -0.204 OA
ATOM      2  C2  BZF d   1      -5.126   2.912  -2.233  0.00  0.00     0.174 A 
ATOM      3  C3  BZF d   1      -4.390   1.783  -2.264  0.00  0.00    -0.012 A 
ATOM      4  C3A BZF d   1      -3.061   2.209  -2.581  0.00  0.00    -0.107 A 
ATOM      5  C4  BZF d   1      -1.876   1.550  -2.738  0.00  0.00     0.055 A 
ATOM      6  C5  BZF d   1      -0.775   2.250  -3.119  0.00  0.00    -0.016 A 
ATOM      7  C6  BZF d   1      -0.825   3.608  -3.356  0.00  0.00     0.022 A 
ATOM      8  C7  BZF d   1      -1.977   4.307  -3.208  0.00  0.00     0.029 A 
ATOM      9  C7A BZF d   1      -3.083   3.607  -2.791  0.00  0.00     0.058 A 
ENDROOT
TORSDOF 0
ENDMDL
