MODEL 1
REMARK minimizedAffinity -0.692563057
REMARK minimizedRMSD -1
REMARK  0 active torsions:
REMARK  status: ('A' for Active; 'I' for Inactive)
ROOT
ATOM      1  O1  BZF d   1      -3.179   4.620  -2.972  0.00  0.00    -0.204 OA
ATOM      2  C2  BZF d   1      -4.220   3.770  -2.652  0.00  0.00     0.174 A 
ATOM      3  C3  BZF d   1      -3.755   2.547  -2.326  0.00  0.00    -0.012 A 
ATOM      4  C3A BZF d   1      -2.330   2.664  -2.360  0.00  0.00    -0.107 A 
ATOM      5  C4  BZF d   1      -1.310   1.790  -2.113  0.00  0.00     0.055 A 
ATOM      6  C5  BZF d   1      -0.028   2.199  -2.306  0.00  0.00    -0.016 A 
ATOM      7  C6  BZF d   1       0.269   3.471  -2.751  0.00  0.00     0.022 A 
ATOM      8  C7  BZF d   1      -0.709   4.375  -3.004  0.00  0.00     0.029 A 
ATOM      9  C7A BZF d   1      -2.004   3.975  -2.778  0.00  0.00     0.058 A 
ENDROOT
TORSDOF 0
ENDMDL
