MODEL 1
REMARK minimizedAffinity 6.5588026
REMARK minimizedRMSD -1
REMARK  0 active torsions:
REMARK  status: ('A' for Active; 'I' for Inactive)
ROOT
ATOM      1  O1  BZF d   1      -2.844   4.739  -1.879  0.00  0.00    -0.204 OA
ATOM      2  C2  BZF d   1      -3.760   3.742  -1.603  0.00  0.00     0.174 A 
ATOM      3  C3  BZF d   1      -3.407   2.589  -2.207  0.00  0.00    -0.012 A 
ATOM      4  C3A BZF d   1      -2.147   2.858  -2.828  0.00  0.00    -0.107 A 
ATOM      5  C4  BZF d   1      -1.282   2.101  -3.565  0.00  0.00     0.055 A 
ATOM      6  C5  BZF d   1      -0.172   2.686  -4.086  0.00  0.00    -0.016 A 
ATOM      7  C6  BZF d   1       0.102   4.024  -3.895  0.00  0.00     0.022 A 
ATOM      8  C7  BZF d   1      -0.723   4.815  -3.166  0.00  0.00     0.029 A 
ATOM      9  C7A BZF d   1      -1.829   4.219  -2.610  0.00  0.00     0.058 A 
ENDROOT
TORSDOF 0
ENDMDL
