MODEL 1
REMARK minimizedAffinity 6.22341299
REMARK minimizedRMSD -1
REMARK  2 active torsions:
REMARK  status: ('A' for Active; 'I' for Inactive)
REMARK    1  A    between atoms: C2'_3  and  C1'_4 
REMARK    2  A    between atoms: C1'_4  and  C1_5 
ROOT
ATOM      1  C1  I4B d   1      -3.655  -4.977  -4.480  0.00  0.00    -0.075 A 
ATOM      2  C2  I4B d   1      -4.580  -5.991  -4.485  0.00  0.00     0.003 A 
ATOM      3  C3  I4B d   1      -5.755  -5.880  -5.267  0.00  0.00     0.002 A 
ATOM      4  C4  I4B d   1      -5.988  -4.724  -5.983  0.00  0.00    -0.004 A 
ATOM      5  C5  I4B d   1      -5.039  -3.706  -5.994  0.00  0.00     0.002 A 
ATOM      6  C6  I4B d   1      -3.859  -3.838  -5.248  0.00  0.00     0.003 A 
ENDROOT
BRANCH   1   7
ATOM      7  C1' I4B d   1      -2.440  -5.113  -3.618  0.00  0.00     0.060 C 
BRANCH   7   8
ATOM      8  C2' I4B d   1      -1.278  -5.507  -4.507  0.00  0.00    -0.013 C 
ATOM      9  C4' I4B d   1      -1.760  -6.000  -5.846  0.00  0.00     0.013 C 
ATOM     10  C3' I4B d   1      -0.386  -4.312  -4.659  0.00  0.00     0.013 C 
ENDBRANCH   7   8
ENDBRANCH   1   7
TORSDOF 2
ENDMDL
