MODEL 1
REMARK minimizedAffinity 18.3694706
REMARK minimizedRMSD -1
REMARK  2 active torsions:
REMARK  status: ('A' for Active; 'I' for Inactive)
REMARK    1  A    between atoms: C2'_3  and  C1'_4 
REMARK    2  A    between atoms: C1'_4  and  C1_5 
ROOT
ATOM      1  C1  I4B d   1       0.886  -0.262   3.789  0.00  0.00    -0.075 A 
ATOM      2  C2  I4B d   1       1.896  -0.935   3.149  0.00  0.00     0.003 A 
ATOM      3  C3  I4B d   1       2.274  -2.230   3.580  0.00  0.00     0.002 A 
ATOM      4  C4  I4B d   1       1.654  -2.789   4.679  0.00  0.00    -0.004 A 
ATOM      5  C5  I4B d   1       0.614  -2.114   5.312  0.00  0.00     0.002 A 
ATOM      6  C6  I4B d   1       0.219  -0.847   4.857  0.00  0.00     0.003 A 
ENDROOT
BRANCH   1   7
ATOM      7  C1' I4B d   1       0.535   1.118   3.329  0.00  0.00     0.060 C 
BRANCH   7   8
ATOM      8  C2' I4B d   1       1.721   1.671   2.566  0.00  0.00    -0.013 C 
ATOM      9  C4' I4B d   1       1.389   1.869   1.110  0.00  0.00     0.013 C 
ATOM     10  C3' I4B d   1       2.124   2.964   3.210  0.00  0.00     0.013 C 
ENDBRANCH   7   8
ENDBRANCH   1   7
TORSDOF 2
ENDMDL
