MODEL 1
REMARK minimizedAffinity 16.3533287
REMARK minimizedRMSD -1
REMARK  2 active torsions:
REMARK  status: ('A' for Active; 'I' for Inactive)
REMARK    1  A    between atoms: C2'_3  and  C1'_4 
REMARK    2  A    between atoms: C1'_4  and  C1_5 
ROOT
ATOM      1  C1  I4B d   1       0.220   2.720  -0.494  0.00  0.00    -0.075 A 
ATOM      2  C2  I4B d   1      -1.056   3.155  -0.232  0.00  0.00     0.003 A 
ATOM      3  C3  I4B d   1      -1.670   2.856   1.008  0.00  0.00     0.002 A 
ATOM      4  C4  I4B d   1      -0.996   2.082   1.931  0.00  0.00    -0.004 A 
ATOM      5  C5  I4B d   1       0.305   1.661   1.673  0.00  0.00     0.002 A 
ATOM      6  C6  I4B d   1       0.922   1.992   0.458  0.00  0.00     0.003 A 
ENDROOT
BRANCH   1   7
ATOM      7  C1' I4B d   1       0.826   3.025  -1.827  0.00  0.00     0.060 C 
BRANCH   7   8
ATOM      8  C2' I4B d   1       1.261   4.476  -1.821  0.00  0.00    -0.013 C 
ATOM      9  C4' I4B d   1       2.546   4.656  -1.055  0.00  0.00     0.013 C 
ATOM     10  C3' I4B d   1       1.413   4.920  -3.245  0.00  0.00     0.013 C 
ENDBRANCH   7   8
ENDBRANCH   1   7
TORSDOF 2
ENDMDL
