MODEL 1
REMARK minimizedAffinity 13.1284447
REMARK minimizedRMSD -1
REMARK  2 active torsions:
REMARK  status: ('A' for Active; 'I' for Inactive)
REMARK    1  A    between atoms: C2'_3  and  C1'_4 
REMARK    2  A    between atoms: C1'_4  and  C1_5 
ROOT
ATOM      1  C1  I4B d   1       3.189  -2.066  -0.547  0.00  0.00    -0.075 A 
ATOM      2  C2  I4B d   1       4.530  -2.332  -0.660  0.00  0.00     0.003 A 
ATOM      3  C3  I4B d   1       5.436  -1.857   0.320  0.00  0.00     0.002 A 
ATOM      4  C4  I4B d   1       4.967  -1.083   1.361  0.00  0.00    -0.004 A 
ATOM      5  C5  I4B d   1       3.603  -0.834   1.486  0.00  0.00     0.002 A 
ATOM      6  C6  I4B d   1       2.706  -1.338   0.534  0.00  0.00     0.003 A 
ENDROOT
BRANCH   1   7
ATOM      7  C1' I4B d   1       2.264  -2.555  -1.616  0.00  0.00     0.060 C 
BRANCH   7   8
ATOM      8  C2' I4B d   1       1.258  -3.487  -0.973  0.00  0.00    -0.013 C 
ATOM      9  C4' I4B d   1      -0.045  -3.488  -1.729  0.00  0.00     0.013 C 
ATOM     10  C3' I4B d   1       1.860  -4.860  -0.930  0.00  0.00     0.013 C 
ENDBRANCH   7   8
ENDBRANCH   1   7
TORSDOF 2
ENDMDL
