MODEL 1
REMARK minimizedAffinity 12.8830748
REMARK minimizedRMSD -1
REMARK  2 active torsions:
REMARK  status: ('A' for Active; 'I' for Inactive)
REMARK    1  A    between atoms: C2'_3  and  C1'_4 
REMARK    2  A    between atoms: C1'_4  and  C1_5 
ROOT
ATOM      1  C1  I4B d   1      -0.324   2.622   0.996  0.00  0.00    -0.075 A 
ATOM      2  C2  I4B d   1      -1.421   2.017   1.558  0.00  0.00     0.003 A 
ATOM      3  C3  I4B d   1      -1.281   1.239   2.733  0.00  0.00     0.002 A 
ATOM      4  C4  I4B d   1      -0.028   1.051   3.279  0.00  0.00    -0.004 A 
ATOM      5  C5  I4B d   1       1.079   1.683   2.721  0.00  0.00     0.002 A 
ATOM      6  C6  I4B d   1       0.929   2.484   1.579  0.00  0.00     0.003 A 
ENDROOT
BRANCH   1   7
ATOM      7  C1' I4B d   1      -0.502   3.410  -0.263  0.00  0.00     0.060 C 
BRANCH   7   8
ATOM      8  C2' I4B d   1       0.809   3.379  -1.022  0.00  0.00    -0.013 C 
ATOM      9  C4' I4B d   1       0.585   3.541  -2.503  0.00  0.00     0.013 C 
ATOM     10  C3' I4B d   1       1.683   4.472  -0.483  0.00  0.00     0.013 C 
ENDBRANCH   7   8
ENDBRANCH   1   7
TORSDOF 2
ENDMDL
