MODEL 1
REMARK minimizedAffinity 13.1530781
REMARK minimizedRMSD -1
REMARK  2 active torsions:
REMARK  status: ('A' for Active; 'I' for Inactive)
REMARK    1  A    between atoms: C2'_3  and  C1'_4 
REMARK    2  A    between atoms: C1'_4  and  C1_5 
ROOT
ATOM      1  C1  I4B d   1       2.759  -5.103  -1.657  0.00  0.00    -0.075 A 
ATOM      2  C2  I4B d   1       2.089  -5.078  -2.855  0.00  0.00     0.003 A 
ATOM      3  C3  I4B d   1       0.942  -4.264  -3.013  0.00  0.00     0.002 A 
ATOM      4  C4  I4B d   1       0.473  -3.534  -1.939  0.00  0.00    -0.004 A 
ATOM      5  C5  I4B d   1       1.167  -3.543  -0.732  0.00  0.00     0.002 A 
ATOM      6  C6  I4B d   1       2.324  -4.323  -0.594  0.00  0.00     0.003 A 
ENDROOT
BRANCH   1   7
ATOM      7  C1' I4B d   1       3.948  -6.000  -1.515  0.00  0.00     0.060 C 
BRANCH   7   8
ATOM      8  C2' I4B d   1       5.194  -5.145  -1.629  0.00  0.00    -0.013 C 
ATOM      9  C4' I4B d   1       6.000  -5.183  -0.357  0.00  0.00     0.013 C 
ATOM     10  C3' I4B d   1       5.995  -5.647  -2.793  0.00  0.00     0.013 C 
ENDBRANCH   7   8
ENDBRANCH   1   7
TORSDOF 2
ENDMDL
