MODEL 1
REMARK minimizedAffinity -3.10802174
REMARK minimizedRMSD -1
REMARK  3 active torsions:
REMARK  status: ('A' for Active; 'I' for Inactive)
REMARK    1  A    between atoms: C3'_2  and  C2'_3 
REMARK    2  A    between atoms: C2'_3  and  C1'_4 
REMARK    3  A    between atoms: C1'_4  and  C1_5 
ROOT
ATOM      1  C1  N4B d   1      -0.156  -0.400  -1.084  0.00  0.00    -0.075 A 
ATOM      2  C2  N4B d   1      -0.092   0.510  -0.006  0.00  0.00     0.002 A 
ATOM      3  C3  N4B d   1      -0.583   0.150   1.226  0.00  0.00     0.002 A 
ATOM      4  C4  N4B d   1      -1.157  -1.101   1.396  0.00  0.00    -0.004 A 
ATOM      5  C5  N4B d   1      -1.192  -1.983   0.356  0.00  0.00     0.002 A 
ATOM      6  C6  N4B d   1      -0.699  -1.636  -0.886  0.00  0.00     0.002 A 
ENDROOT
BRANCH   1   7
ATOM      7  C1' N4B d   1       0.289  -0.020  -2.470  0.00  0.00     0.057 C 
BRANCH   7   8
ATOM      8  C2' N4B d   1       0.347  -1.274  -3.338  0.00  0.00     0.009 C 
BRANCH   8   9
ATOM      9  C3' N4B d   1       1.359  -1.140  -4.463  0.00  0.00     0.004 C 
ATOM     10  C4' N4B d   1       2.448  -2.168  -4.390  0.00  0.00     0.003 C 
ENDBRANCH   8   9
ENDBRANCH   7   8
ENDBRANCH   1   7
TORSDOF 3
ENDMDL
