MODEL 1
REMARK minimizedAffinity -4.58269215
REMARK minimizedRMSD -1
REMARK  3 active torsions:
REMARK  status: ('A' for Active; 'I' for Inactive)
REMARK    1  A    between atoms: C3'_2  and  C2'_3 
REMARK    2  A    between atoms: C2'_3  and  C1'_4 
REMARK    3  A    between atoms: C1'_4  and  C1_5 
ROOT
ATOM      1  C1  N4B d   1       0.014  -0.317  -0.240  0.00  0.00    -0.075 A 
ATOM      2  C2  N4B d   1      -0.675  -0.592   0.962  0.00  0.00     0.002 A 
ATOM      3  C3  N4B d   1      -0.807  -1.888   1.397  0.00  0.00     0.002 A 
ATOM      4  C4  N4B d   1      -0.277  -2.922   0.640  0.00  0.00    -0.004 A 
ATOM      5  C5  N4B d   1       0.409  -2.647  -0.506  0.00  0.00     0.002 A 
ATOM      6  C6  N4B d   1       0.553  -1.349  -0.953  0.00  0.00     0.002 A 
ENDROOT
BRANCH   1   7
ATOM      7  C1' N4B d   1       0.109   1.076  -0.800  0.00  0.00     0.057 C 
BRANCH   7   8
ATOM      8  C2' N4B d   1       0.418   2.051   0.332  0.00  0.00     0.009 C 
BRANCH   8   9
ATOM      9  C3' N4B d   1       1.864   2.513   0.306  0.00  0.00     0.004 C 
ATOM     10  C4' N4B d   1       2.237   3.324   1.511  0.00  0.00     0.003 C 
ENDBRANCH   8   9
ENDBRANCH   7   8
ENDBRANCH   1   7
TORSDOF 3
ENDMDL
