MODEL 1
REMARK minimizedAffinity -5.21794939
REMARK minimizedRMSD -1
REMARK  3 active torsions:
REMARK  status: ('A' for Active; 'I' for Inactive)
REMARK    1  A    between atoms: C3'_2  and  C2'_3 
REMARK    2  A    between atoms: C2'_3  and  C1'_4 
REMARK    3  A    between atoms: C1'_4  and  C1_5 
ROOT
ATOM      1  C1  N4B d   1      -0.566  -1.865   0.716  0.00  0.00    -0.075 A 
ATOM      2  C2  N4B d   1      -0.346  -0.473   0.793  0.00  0.00     0.002 A 
ATOM      3  C3  N4B d   1      -1.193   0.316   1.532  0.00  0.00     0.002 A 
ATOM      4  C4  N4B d   1      -2.273  -0.260   2.183  0.00  0.00    -0.004 A 
ATOM      5  C5  N4B d   1      -2.464  -1.609   2.125  0.00  0.00     0.002 A 
ATOM      6  C6  N4B d   1      -1.618  -2.415   1.389  0.00  0.00     0.002 A 
ENDROOT
BRANCH   1   7
ATOM      7  C1' N4B d   1       0.284  -2.757  -0.148  0.00  0.00     0.057 C 
BRANCH   7   8
ATOM      8  C2' N4B d   1       1.298  -1.903  -0.904  0.00  0.00     0.009 C 
BRANCH   8   9
ATOM      9  C3' N4B d   1       0.753  -1.421  -2.238  0.00  0.00     0.004 C 
ATOM     10  C4' N4B d   1       0.619   0.071  -2.306  0.00  0.00     0.003 C 
ENDBRANCH   8   9
ENDBRANCH   7   8
ENDBRANCH   1   7
TORSDOF 3
ENDMDL
