MODEL 1
REMARK minimizedAffinity -5.97978735
REMARK minimizedRMSD -1
REMARK  3 active torsions:
REMARK  status: ('A' for Active; 'I' for Inactive)
REMARK    1  A    between atoms: C3'_2  and  C2'_3 
REMARK    2  A    between atoms: C2'_3  and  C1'_4 
REMARK    3  A    between atoms: C1'_4  and  C1_5 
ROOT
ATOM      1  C1  N4B d   1       0.503   1.762   0.367  0.00  0.00    -0.075 A 
ATOM      2  C2  N4B d   1       0.054   2.488   1.492  0.00  0.00     0.002 A 
ATOM      3  C3  N4B d   1       0.871   3.425   2.076  0.00  0.00     0.002 A 
ATOM      4  C4  N4B d   1       2.142   3.640   1.565  0.00  0.00    -0.004 A 
ATOM      5  C5  N4B d   1       2.559   2.953   0.462  0.00  0.00     0.002 A 
ATOM      6  C6  N4B d   1       1.747   2.011  -0.137  0.00  0.00     0.002 A 
ENDROOT
BRANCH   1   7
ATOM      7  C1' N4B d   1      -0.322   0.667  -0.252  0.00  0.00     0.057 C 
BRANCH   7   8
ATOM      8  C2' N4B d   1       0.353  -0.676   0.010  0.00  0.00     0.009 C 
BRANCH   8   9
ATOM      9  C3' N4B d   1      -0.520  -1.597   0.845  0.00  0.00     0.004 C 
ATOM     10  C4' N4B d   1       0.021  -2.993   0.927  0.00  0.00     0.003 C 
ENDBRANCH   8   9
ENDBRANCH   7   8
ENDBRANCH   1   7
TORSDOF 3
ENDMDL
