MODEL 1
REMARK minimizedAffinity -4.39333105
REMARK minimizedRMSD -1
REMARK  1 active torsions:
REMARK  status: ('A' for Active; 'I' for Inactive)
REMARK    1  A    between atoms: C1_2  and  C2_3 
ROOT
ATOM      1  C2  UNL d   1       0.074  -0.121  -1.046  0.00  0.00    -0.081 A 
ATOM      2  C3  UNL d   1      -1.297   0.081  -0.851  0.00  0.00     0.006 A 
ATOM      3  C4  UNL d   1      -1.803   0.313   0.431  0.00  0.00     0.002 A 
ATOM      4  C5  UNL d   1      -0.946   0.356   1.535  0.00  0.00    -0.080 A 
ATOM      5  C6  UNL d   1      -1.472   0.635   2.912  0.00  0.00     0.076 C 
ATOM      6  C7  UNL d   1       0.422   0.137   1.342  0.00  0.00     0.002 A 
ATOM      7  C8  UNL d   1       0.928  -0.096   0.062  0.00  0.00     0.006 A 
ENDROOT
BRANCH   1   8
ATOM      8  C1  UNL d   1       0.631  -0.307  -2.435  0.00  0.00     0.054 C 
ATOM      9  C   UNL d   1      -0.272   0.327  -3.483  0.00  0.00     0.018 C 
ENDBRANCH   1   8
TORSDOF 1
ENDMDL
