MODEL 1
REMARK minimizedAffinity -2.46843672
REMARK minimizedRMSD -1
REMARK  1 active torsions:
REMARK  status: ('A' for Active; 'I' for Inactive)
REMARK    1  A    between atoms: C1_2  and  C2_3 
ROOT
ATOM      1  C2  UNL d   1      -0.126  -0.156  -3.470  0.00  0.00    -0.081 A 
ATOM      2  C3  UNL d   1      -0.753  -0.847  -2.425  0.00  0.00     0.006 A 
ATOM      3  C4  UNL d   1      -0.174  -0.886  -1.154  0.00  0.00     0.002 A 
ATOM      4  C5  UNL d   1       1.035  -0.228  -0.905  0.00  0.00    -0.080 A 
ATOM      5  C6  UNL d   1       1.651  -0.236   0.463  0.00  0.00     0.076 C 
ATOM      6  C7  UNL d   1       1.669   0.448  -1.952  0.00  0.00     0.002 A 
ATOM      7  C8  UNL d   1       1.092   0.486  -3.223  0.00  0.00     0.006 A 
ENDROOT
BRANCH   1   8
ATOM      8  C1  UNL d   1      -0.780  -0.058  -4.824  0.00  0.00     0.054 C 
ATOM      9  C   UNL d   1      -2.096  -0.822  -4.860  0.00  0.00     0.018 C 
ENDBRANCH   1   8
TORSDOF 1
ENDMDL
