MODEL 1
REMARK minimizedAffinity -4.56345272
REMARK minimizedRMSD -1
REMARK  1 active torsions:
REMARK  status: ('A' for Active; 'I' for Inactive)
REMARK    1  A    between atoms: C1_2  and  C2_3 
ROOT
ATOM      1  C2  UNL d   1       0.424  -0.201  -0.237  0.00  0.00    -0.081 A 
ATOM      2  C3  UNL d   1      -0.955  -0.213   0.007  0.00  0.00     0.006 A 
ATOM      3  C4  UNL d   1      -1.477   0.394   1.151  0.00  0.00     0.002 A 
ATOM      4  C5  UNL d   1      -0.632   1.031   2.066  0.00  0.00    -0.080 A 
ATOM      5  C6  UNL d   1      -1.183   1.713   3.283  0.00  0.00     0.076 C 
ATOM      6  C7  UNL d   1       0.748   1.028   1.832  0.00  0.00     0.002 A 
ATOM      7  C8  UNL d   1       1.271   0.420   0.688  0.00  0.00     0.006 A 
ENDROOT
BRANCH   1   8
ATOM      8  C1  UNL d   1       0.984  -0.799  -1.502  0.00  0.00     0.054 C 
ATOM      9  C   UNL d   1       1.089   0.243  -2.607  0.00  0.00     0.018 C 
ENDBRANCH   1   8
TORSDOF 1
ENDMDL
