MODEL 1
REMARK minimizedAffinity -4.69054127
REMARK minimizedRMSD -1
REMARK  1 active torsions:
REMARK  status: ('A' for Active; 'I' for Inactive)
REMARK    1  A    between atoms: C1_2  and  C2_3 
ROOT
ATOM      1  C2  UNL d   1      -0.017  -0.405   0.108  0.00  0.00    -0.081 A 
ATOM      2  C3  UNL d   1       1.052   0.102   0.857  0.00  0.00     0.006 A 
ATOM      3  C4  UNL d   1       0.817   0.788   2.051  0.00  0.00     0.002 A 
ATOM      4  C5  UNL d   1      -0.488   0.971   2.520  0.00  0.00    -0.080 A 
ATOM      5  C6  UNL d   1      -0.752   1.679   3.816  0.00  0.00     0.076 C 
ATOM      6  C7  UNL d   1      -1.557   0.479   1.763  0.00  0.00     0.002 A 
ATOM      7  C8  UNL d   1      -1.323  -0.206   0.569  0.00  0.00     0.006 A 
ENDROOT
BRANCH   1   8
ATOM      8  C1  UNL d   1       0.236  -1.201  -1.147  0.00  0.00     0.054 C 
ATOM      9  C   UNL d   1       0.478  -0.290  -2.341  0.00  0.00     0.018 C 
ENDBRANCH   1   8
TORSDOF 1
ENDMDL
