MODEL 1
REMARK minimizedAffinity -4.15493679
REMARK minimizedRMSD -1
REMARK  1 active torsions:
REMARK  status: ('A' for Active; 'I' for Inactive)
REMARK    1  A    between atoms: C1_2  and  C2_3 
ROOT
ATOM      1  C2  UNL d   1       0.215  -0.214  -0.697  0.00  0.00    -0.081 A 
ATOM      2  C3  UNL d   1      -1.143   0.042  -0.475  0.00  0.00     0.006 A 
ATOM      3  C4  UNL d   1      -1.588   0.474   0.777  0.00  0.00     0.002 A 
ATOM      4  C5  UNL d   1      -0.681   0.665   1.825  0.00  0.00    -0.080 A 
ATOM      5  C6  UNL d   1      -1.140   1.157   3.165  0.00  0.00     0.076 C 
ATOM      6  C7  UNL d   1       0.674   0.392   1.609  0.00  0.00     0.002 A 
ATOM      7  C8  UNL d   1       1.119  -0.041   0.357  0.00  0.00     0.006 A 
ENDROOT
BRANCH   1   8
ATOM      8  C1  UNL d   1       0.706  -0.618  -2.064  0.00  0.00     0.054 C 
ATOM      9  C   UNL d   1       1.684   0.405  -2.624  0.00  0.00     0.018 C 
ENDBRANCH   1   8
TORSDOF 1
ENDMDL
