MODEL 1
REMARK minimizedAffinity -2.73479652
REMARK minimizedRMSD -1
REMARK  1 active torsions:
REMARK  status: ('A' for Active; 'I' for Inactive)
REMARK    1  A    between atoms: C1_2  and  C2_3 
ROOT
ATOM      1  C2  UNL d   1       0.339  -0.283  -0.017  0.00  0.00    -0.081 A 
ATOM      2  C3  UNL d   1       1.442  -0.237   0.844  0.00  0.00     0.006 A 
ATOM      3  C4  UNL d   1       1.284   0.148   2.177  0.00  0.00     0.002 A 
ATOM      4  C5  UNL d   1       0.021   0.487   2.674  0.00  0.00    -0.080 A 
ATOM      5  C6  UNL d   1      -0.167   0.873   4.111  0.00  0.00     0.076 C 
ATOM      6  C7  UNL d   1      -1.079   0.458   1.809  0.00  0.00     0.002 A 
ATOM      7  C8  UNL d   1      -0.922   0.073   0.476  0.00  0.00     0.006 A 
ENDROOT
BRANCH   1   8
ATOM      8  C1  UNL d   1       0.495  -0.761  -1.438  0.00  0.00     0.054 C 
ATOM      9  C   UNL d   1       1.516   0.078  -2.194  0.00  0.00     0.018 C 
ENDBRANCH   1   8
TORSDOF 1
ENDMDL
