MODEL 1
REMARK minimizedAffinity -5.08722019
REMARK minimizedRMSD -1
REMARK  1 active torsions:
REMARK  status: ('A' for Active; 'I' for Inactive)
REMARK    1  A    between atoms: C1_2  and  C2_3 
ROOT
ATOM      1  C2  UNL d   1      -0.138  -0.001  -0.704  0.00  0.00    -0.081 A 
ATOM      2  C3  UNL d   1      -1.416  -0.030  -0.134  0.00  0.00     0.006 A 
ATOM      3  C4  UNL d   1      -1.632   0.484   1.147  0.00  0.00     0.002 A 
ATOM      4  C5  UNL d   1      -0.576   1.042   1.875  0.00  0.00    -0.080 A 
ATOM      5  C6  UNL d   1      -0.800   1.624   3.239  0.00  0.00     0.076 C 
ATOM      6  C7  UNL d   1       0.705   1.054   1.313  0.00  0.00     0.002 A 
ATOM      7  C8  UNL d   1       0.922   0.540   0.033  0.00  0.00     0.006 A 
ENDROOT
BRANCH   1   8
ATOM      8  C1  UNL d   1       0.086  -0.495  -2.111  0.00  0.00     0.054 C 
ATOM      9  C   UNL d   1      -0.258   0.576  -3.135  0.00  0.00     0.018 C 
ENDBRANCH   1   8
TORSDOF 1
ENDMDL
