MODEL 1
REMARK minimizedAffinity -1.79193461
REMARK minimizedRMSD -1
REMARK  1 active torsions:
REMARK  status: ('A' for Active; 'I' for Inactive)
REMARK    1  A    between atoms: C1_2  and  C2_3 
ROOT
ATOM      1  C2  UNL d   1      -0.060   0.052   0.264  0.00  0.00    -0.081 A 
ATOM      2  C3  UNL d   1      -1.383   0.190   0.702  0.00  0.00     0.006 A 
ATOM      3  C4  UNL d   1      -1.679   0.966   1.825  0.00  0.00     0.002 A 
ATOM      4  C5  UNL d   1      -0.661   1.623   2.523  0.00  0.00    -0.080 A 
ATOM      5  C6  UNL d   1      -0.969   2.483   3.712  0.00  0.00     0.076 C 
ATOM      6  C7  UNL d   1       0.663   1.471   2.096  0.00  0.00     0.002 A 
ATOM      7  C8  UNL d   1       0.960   0.695   0.974  0.00  0.00     0.006 A 
ENDROOT
BRANCH   1   8
ATOM      8  C1  UNL d   1       0.256  -0.731  -0.985  0.00  0.00     0.054 C 
ATOM      9  C   UNL d   1       0.335   0.177  -2.203  0.00  0.00     0.018 C 
ENDBRANCH   1   8
TORSDOF 1
ENDMDL
