MODEL 1
REMARK minimizedAffinity -4.76006269
REMARK minimizedRMSD -1
REMARK  1 active torsions:
REMARK  status: ('A' for Active; 'I' for Inactive)
REMARK    1  A    between atoms: C1_2  and  C2_3 
ROOT
ATOM      1  C2  UNL d   1      -0.022  -0.186  -0.101  0.00  0.00    -0.077 A 
ATOM      2  C3  UNL d   1      -0.701   0.964  -0.529  0.00  0.00     0.002 A 
ATOM      3  C4  UNL d   1      -1.474   1.702   0.369  0.00  0.00     0.002 A 
ATOM      4  C5  UNL d   1      -1.572   1.303   1.700  0.00  0.00    -0.004 A 
ATOM      5  C6  UNL d   1      -0.902   0.160   2.134  0.00  0.00     0.002 A 
ATOM      6  C7  UNL d   1      -0.130  -0.581   1.238  0.00  0.00     0.002 A 
ENDROOT
BRANCH   1   7
ATOM      7  C1  UNL d   1       0.852  -0.956  -1.056  0.00  0.00     0.055 C 
ATOM      8  C   UNL d   1       0.032  -1.918  -1.903  0.00  0.00     0.019 C 
ENDBRANCH   1   7
TORSDOF 1
ENDMDL
