MODEL 1
REMARK minimizedAffinity -5.95325899
REMARK minimizedRMSD -1
REMARK  1 active torsions:
REMARK  status: ('A' for Active; 'I' for Inactive)
REMARK    1  A    between atoms: C1_2  and  C2_3 
ROOT
ATOM      1  C2  UNL d   1      -0.151  -1.169  -0.113  0.00  0.00    -0.077 A 
ATOM      2  C3  UNL d   1      -1.012  -1.295   0.986  0.00  0.00     0.002 A 
ATOM      3  C4  UNL d   1      -1.516  -0.159   1.622  0.00  0.00     0.002 A 
ATOM      4  C5  UNL d   1      -1.169   1.110   1.164  0.00  0.00    -0.004 A 
ATOM      5  C6  UNL d   1      -0.311   1.246   0.073  0.00  0.00     0.002 A 
ATOM      6  C7  UNL d   1       0.195   0.112  -0.564  0.00  0.00     0.002 A 
ENDROOT
BRANCH   1   7
ATOM      7  C1  UNL d   1       0.355  -2.393  -0.831  0.00  0.00     0.055 C 
ATOM      8  C   UNL d   1       0.224  -2.243  -2.340  0.00  0.00     0.019 C 
ENDBRANCH   1   7
TORSDOF 1
ENDMDL
