MODEL 1
REMARK minimizedAffinity -5.18609095
REMARK minimizedRMSD -1
REMARK  1 active torsions:
REMARK  status: ('A' for Active; 'I' for Inactive)
REMARK    1  A    between atoms: C1_2  and  C2_3 
ROOT
ATOM      1  C2  UNL d   1      -0.164   0.147  -0.049  0.00  0.00    -0.077 A 
ATOM      2  C3  UNL d   1      -0.409  -0.234   1.278  0.00  0.00     0.002 A 
ATOM      3  C4  UNL d   1      -1.413   0.392   2.019  0.00  0.00     0.002 A 
ATOM      4  C5  UNL d   1      -2.183   1.399   1.441  0.00  0.00    -0.004 A 
ATOM      5  C6  UNL d   1      -1.946   1.786   0.122  0.00  0.00     0.002 A 
ATOM      6  C7  UNL d   1      -0.942   1.163  -0.619  0.00  0.00     0.002 A 
ENDROOT
BRANCH   1   7
ATOM      7  C1  UNL d   1       0.886  -0.560  -0.865  0.00  0.00     0.055 C 
ATOM      8  C   UNL d   1       0.486  -2.000  -1.152  0.00  0.00     0.019 C 
ENDBRANCH   1   7
TORSDOF 1
ENDMDL
