MODEL 1
REMARK minimizedAffinity -4.74003649
REMARK minimizedRMSD -1
REMARK  1 active torsions:
REMARK  status: ('A' for Active; 'I' for Inactive)
REMARK    1  A    between atoms: C1_2  and  C2_3 
ROOT
ATOM      1  C2  UNL d   1      -0.271   0.711   0.060  0.00  0.00    -0.077 A 
ATOM      2  C3  UNL d   1      -1.482   1.070  -0.546  0.00  0.00     0.002 A 
ATOM      3  C4  UNL d   1      -2.539   1.560   0.223  0.00  0.00     0.002 A 
ATOM      4  C5  UNL d   1      -2.394   1.699   1.602  0.00  0.00    -0.004 A 
ATOM      5  C6  UNL d   1      -1.193   1.341   2.215  0.00  0.00     0.002 A 
ATOM      6  C7  UNL d   1      -0.136   0.850   1.447  0.00  0.00     0.002 A 
ENDROOT
BRANCH   1   7
ATOM      7  C1  UNL d   1       0.887   0.228  -0.774  0.00  0.00     0.055 C 
ATOM      8  C   UNL d   1       1.459   1.350  -1.629  0.00  0.00     0.019 C 
ENDBRANCH   1   7
TORSDOF 1
ENDMDL
