MODEL 1
REMARK minimizedAffinity -5.59914207
REMARK minimizedRMSD -1
REMARK  1 active torsions:
REMARK  status: ('A' for Active; 'I' for Inactive)
REMARK    1  A    between atoms: C1_2  and  C2_3 
ROOT
ATOM      1  C2  UNL d   1      -0.093  -0.313   0.101  0.00  0.00    -0.077 A 
ATOM      2  C3  UNL d   1      -0.665   0.792  -0.545  0.00  0.00     0.002 A 
ATOM      3  C4  UNL d   1      -1.512   1.657   0.152  0.00  0.00     0.002 A 
ATOM      4  C5  UNL d   1      -1.791   1.427   1.497  0.00  0.00    -0.004 A 
ATOM      5  C6  UNL d   1      -1.229   0.330   2.148  0.00  0.00     0.002 A 
ATOM      6  C7  UNL d   1      -0.383  -0.536   1.453  0.00  0.00     0.002 A 
ENDROOT
BRANCH   1   7
ATOM      7  C1  UNL d   1       0.860  -1.218  -0.635  0.00  0.00     0.055 C 
ATOM      8  C   UNL d   1       0.130  -2.077  -1.657  0.00  0.00     0.019 C 
ENDBRANCH   1   7
TORSDOF 1
ENDMDL
