MODEL 1
REMARK minimizedAffinity -5.64896965
REMARK minimizedRMSD -1
REMARK  1 active torsions:
REMARK  status: ('A' for Active; 'I' for Inactive)
REMARK    1  A    between atoms: C1_2  and  C2_3 
ROOT
ATOM      1  C2  UNL d   1      -0.044   0.029   0.101  0.00  0.00    -0.077 A 
ATOM      2  C3  UNL d   1       0.036   1.199  -0.668  0.00  0.00     0.002 A 
ATOM      3  C4  UNL d   1      -0.711   2.326  -0.319  0.00  0.00     0.002 A 
ATOM      4  C5  UNL d   1      -1.539   2.295   0.801  0.00  0.00    -0.004 A 
ATOM      5  C6  UNL d   1      -1.627   1.136   1.570  0.00  0.00     0.002 A 
ATOM      6  C7  UNL d   1      -0.882   0.008   1.223  0.00  0.00     0.002 A 
ENDROOT
BRANCH   1   7
ATOM      7  C1  UNL d   1       0.798  -1.171  -0.246  0.00  0.00     0.055 C 
ATOM      8  C   UNL d   1       0.157  -1.996  -1.352  0.00  0.00     0.019 C 
ENDBRANCH   1   7
TORSDOF 1
ENDMDL
