MODEL 1
REMARK minimizedAffinity -4.68769932
REMARK minimizedRMSD -1
REMARK  1 active torsions:
REMARK  status: ('A' for Active; 'I' for Inactive)
REMARK    1  A    between atoms: C1_2  and  C2_3 
ROOT
ATOM      1  C2  UNL d   1       0.245  -0.292   0.047  0.00  0.00    -0.077 A 
ATOM      2  C3  UNL d   1      -0.505  -0.419   1.224  0.00  0.00     0.002 A 
ATOM      3  C4  UNL d   1      -1.323   0.627   1.657  0.00  0.00     0.002 A 
ATOM      4  C5  UNL d   1      -1.400   1.805   0.917  0.00  0.00    -0.004 A 
ATOM      5  C6  UNL d   1      -0.656   1.942  -0.254  0.00  0.00     0.002 A 
ATOM      6  C7  UNL d   1       0.162   0.898  -0.688  0.00  0.00     0.002 A 
ENDROOT
BRANCH   1   7
ATOM      7  C1  UNL d   1       1.089  -1.437  -0.448  0.00  0.00     0.055 C 
ATOM      8  C   UNL d   1       0.487  -2.071  -1.693  0.00  0.00     0.019 C 
ENDBRANCH   1   7
TORSDOF 1
ENDMDL
