MODEL 1
REMARK minimizedAffinity -4.96180582
REMARK minimizedRMSD -1
REMARK  1 active torsions:
REMARK  status: ('A' for Active; 'I' for Inactive)
REMARK    1  A    between atoms: C1_2  and  C2_3 
ROOT
ATOM      1  C2  UNL d   1      -0.238   0.445   0.401  0.00  0.00    -0.077 A 
ATOM      2  C3  UNL d   1      -1.190   1.207  -0.292  0.00  0.00     0.002 A 
ATOM      3  C4  UNL d   1      -2.147   1.946   0.406  0.00  0.00     0.002 A 
ATOM      4  C5  UNL d   1      -2.158   1.935   1.800  0.00  0.00    -0.004 A 
ATOM      5  C6  UNL d   1      -1.217   1.179   2.497  0.00  0.00     0.002 A 
ATOM      6  C7  UNL d   1      -0.261   0.438   1.801  0.00  0.00     0.002 A 
ENDROOT
BRANCH   1   7
ATOM      7  C1  UNL d   1       0.825  -0.314  -0.349  0.00  0.00     0.055 C 
ATOM      8  C   UNL d   1       0.212  -1.279  -1.353  0.00  0.00     0.019 C 
ENDBRANCH   1   7
TORSDOF 1
ENDMDL
