MODEL 1
REMARK minimizedAffinity -4.04135275
REMARK minimizedRMSD -1
REMARK  1 active torsions:
REMARK  status: ('A' for Active; 'I' for Inactive)
REMARK    1  A    between atoms: C1_2  and  C2_3 
ROOT
ATOM      1  C2  UNL d   1       0.085  -0.339  -0.162  0.00  0.00    -0.077 A 
ATOM      2  C3  UNL d   1      -0.634  -0.462   1.035  0.00  0.00     0.002 A 
ATOM      3  C4  UNL d   1      -0.934   0.668   1.799  0.00  0.00     0.002 A 
ATOM      4  C5  UNL d   1      -0.523   1.928   1.372  0.00  0.00    -0.004 A 
ATOM      5  C6  UNL d   1       0.195   2.061   0.184  0.00  0.00     0.002 A 
ATOM      6  C7  UNL d   1       0.496   0.933  -0.580  0.00  0.00     0.002 A 
ENDROOT
BRANCH   1   7
ATOM      7  C1  UNL d   1       0.366  -1.550  -1.012  0.00  0.00     0.055 C 
ATOM      8  C   UNL d   1       1.548  -1.313  -1.940  0.00  0.00     0.019 C 
ENDBRANCH   1   7
TORSDOF 1
ENDMDL
