MODEL 1
REMARK minimizedAffinity -6.01146269
REMARK minimizedRMSD -1
REMARK  1 active torsions:
REMARK  status: ('A' for Active; 'I' for Inactive)
REMARK    1  A    between atoms: C1_2  and  C2_3 
ROOT
ATOM      1  C2  UNL d   1       0.105   0.027  -0.039  0.00  0.00    -0.077 A 
ATOM      2  C3  UNL d   1      -0.418   1.278  -0.395  0.00  0.00     0.002 A 
ATOM      3  C4  UNL d   1      -1.345   1.918   0.431  0.00  0.00     0.002 A 
ATOM      4  C5  UNL d   1      -1.753   1.316   1.619  0.00  0.00    -0.004 A 
ATOM      5  C6  UNL d   1      -1.241   0.070   1.981  0.00  0.00     0.002 A 
ATOM      6  C7  UNL d   1      -0.315  -0.571   1.157  0.00  0.00     0.002 A 
ENDROOT
BRANCH   1   7
ATOM      7  C1  UNL d   1       1.141  -0.641  -0.903  0.00  0.00     0.055 C 
ATOM      8  C   UNL d   1       0.829  -2.118  -1.101  0.00  0.00     0.019 C 
ENDBRANCH   1   7
TORSDOF 1
ENDMDL
