MODEL 1
REMARK minimizedAffinity -2.06588888
REMARK minimizedRMSD -1
REMARK  0 active torsions:
REMARK  status: ('A' for Active; 'I' for Inactive)
ROOT
ATOM      1  C   UNL d   1       0.004  -0.072   0.753  0.00  0.00     0.172 C 
ATOM      2  N   UNL d   1       1.227  -0.825   0.608  0.00  0.00    -0.070 N 
ATOM      3  C1  UNL d   1       2.098  -1.135   1.618  0.00  0.00    -0.004 A 
ATOM      4  C2  UNL d   1       3.136  -1.860   1.072  0.00  0.00    -0.047 A 
ATOM      5  C3  UNL d   1       2.880  -1.988  -0.314  0.00  0.00    -0.047 A 
ATOM      6  C4  UNL d   1       1.693  -1.338  -0.574  0.00  0.00    -0.004 A 
ENDROOT
TORSDOF 0
ENDMDL
