MODEL 1
REMARK minimizedAffinity -3.33697343
REMARK minimizedRMSD -1
REMARK  0 active torsions:
REMARK  status: ('A' for Active; 'I' for Inactive)
ROOT
ATOM      1  C   UNL d   1      -0.821   0.761  -0.157  0.00  0.00     0.172 C 
ATOM      2  N   UNL d   1       0.262  -0.167   0.066  0.00  0.00    -0.070 N 
ATOM      3  C1  UNL d   1       0.418  -1.377  -0.557  0.00  0.00    -0.004 A 
ATOM      4  C2  UNL d   1       1.570  -1.957  -0.072  0.00  0.00    -0.047 A 
ATOM      5  C3  UNL d   1       2.126  -1.065   0.876  0.00  0.00    -0.047 A 
ATOM      6  C4  UNL d   1       1.297   0.035   0.941  0.00  0.00    -0.004 A 
ENDROOT
TORSDOF 0
ENDMDL
