MODEL 1
REMARK minimizedAffinity -4.31065845
REMARK minimizedRMSD -1
REMARK  0 active torsions:
REMARK  status: ('A' for Active; 'I' for Inactive)
ROOT
ATOM      1  C   UNL d   1      -0.730   0.701  -0.411  0.00  0.00     0.172 C 
ATOM      2  N   UNL d   1       0.463   0.061   0.092  0.00  0.00    -0.070 N 
ATOM      3  C1  UNL d   1       1.551   0.702   0.622  0.00  0.00    -0.004 A 
ATOM      4  C2  UNL d   1       2.471  -0.258   0.984  0.00  0.00    -0.047 A 
ATOM      5  C3  UNL d   1       1.918  -1.519   0.659  0.00  0.00    -0.047 A 
ATOM      6  C4  UNL d   1       0.674  -1.293   0.109  0.00  0.00    -0.004 A 
ENDROOT
TORSDOF 0
ENDMDL
