MODEL 1
REMARK minimizedAffinity -2.38639641
REMARK minimizedRMSD -1
REMARK  0 active torsions:
REMARK  status: ('A' for Active; 'I' for Inactive)
ROOT
ATOM      1  C   UNL d   1      -0.602   0.431  -0.147  0.00  0.00     0.172 C 
ATOM      2  N   UNL d   1       0.570  -0.412  -0.097  0.00  0.00    -0.070 N 
ATOM      3  C1  UNL d   1       0.571  -1.767   0.099  0.00  0.00    -0.004 A 
ATOM      4  C2  UNL d   1       1.881  -2.195   0.079  0.00  0.00    -0.047 A 
ATOM      5  C3  UNL d   1       2.695  -1.057  -0.135  0.00  0.00    -0.047 A 
ATOM      6  C4  UNL d   1       1.858   0.033  -0.240  0.00  0.00    -0.004 A 
ENDROOT
TORSDOF 0
ENDMDL
