MODEL 1
REMARK minimizedAffinity -3.51946902
REMARK minimizedRMSD -1
REMARK  0 active torsions:
REMARK  status: ('A' for Active; 'I' for Inactive)
ROOT
ATOM      1  C   UNL d   1       2.073  -1.259   1.050  0.00  0.00     0.172 C 
ATOM      2  N   UNL d   1       1.062  -0.719   0.172  0.00  0.00    -0.070 N 
ATOM      3  C1  UNL d   1       0.956   0.590  -0.214  0.00  0.00    -0.004 A 
ATOM      4  C2  UNL d   1      -0.133   0.697  -1.051  0.00  0.00    -0.047 A 
ATOM      5  C3  UNL d   1      -0.702  -0.594  -1.172  0.00  0.00    -0.047 A 
ATOM      6  C4  UNL d   1       0.058  -1.451  -0.405  0.00  0.00    -0.004 A 
ENDROOT
TORSDOF 0
ENDMDL
