MODEL 1
REMARK minimizedAffinity -0.288117111
REMARK minimizedRMSD -1
REMARK  0 active torsions:
REMARK  status: ('A' for Active; 'I' for Inactive)
ROOT
ATOM      1  C   UNL d   1      -0.642   1.060  -0.361  0.00  0.00     0.172 C 
ATOM      2  N   UNL d   1      -1.901   1.167   0.337  0.00  0.00    -0.070 N 
ATOM      3  C1  UNL d   1      -3.134   0.895  -0.193  0.00  0.00    -0.004 A 
ATOM      4  C2  UNL d   1      -4.075   1.118   0.790  0.00  0.00    -0.047 A 
ATOM      5  C3  UNL d   1      -3.383   1.540   1.950  0.00  0.00    -0.047 A 
ATOM      6  C4  UNL d   1      -2.039   1.561   1.642  0.00  0.00    -0.004 A 
ENDROOT
TORSDOF 0
ENDMDL
