MODEL 1
REMARK minimizedAffinity -3.88388777
REMARK minimizedRMSD -1
REMARK  0 active torsions:
REMARK  status: ('A' for Active; 'I' for Inactive)
ROOT
ATOM      1  C   UNL d   1      -0.431  -1.138  -1.354  0.00  0.00     0.172 C 
ATOM      2  N   UNL d   1       0.675  -0.840  -0.475  0.00  0.00    -0.070 N 
ATOM      3  C1  UNL d   1       0.811   0.293   0.281  0.00  0.00    -0.004 A 
ATOM      4  C2  UNL d   1       1.997   0.196   0.977  0.00  0.00    -0.047 A 
ATOM      5  C3  UNL d   1       2.594  -1.038   0.626  0.00  0.00    -0.047 A 
ATOM      6  C4  UNL d   1       1.755  -1.659  -0.274  0.00  0.00    -0.004 A 
ENDROOT
TORSDOF 0
ENDMDL
