MODEL 1
REMARK minimizedAffinity 3.1868453
REMARK minimizedRMSD -1
REMARK  0 active torsions:
REMARK  status: ('A' for Active; 'I' for Inactive)
ROOT
ATOM      1  N1  IND d   1       0.456  -1.844   1.832  0.00  0.00    -0.196 N 
ATOM      2  C2  IND d   1      -0.719  -1.968   1.145  0.00  0.00     0.054 A 
ATOM      3  C3  IND d   1      -0.928  -0.880   0.370  0.00  0.00    -0.031 A 
ATOM      4  C4  IND d   1       0.578   1.175  -0.003  0.00  0.00     0.051 A 
ATOM      5  C5  IND d   1       1.736   1.755   0.433  0.00  0.00    -0.031 A 
ATOM      6  C6  IND d   1       2.544   1.152   1.375  0.00  0.00     0.015 A 
ATOM      7  C7  IND d   1       2.229  -0.065   1.910  0.00  0.00    -0.016 A 
ATOM      8  C8  IND d   1       1.050  -0.654   1.475  0.00  0.00    -0.047 A 
ATOM      9  C9  IND d   1       0.204  -0.027   0.551  0.00  0.00    -0.096 A 
ATOM     10  HN1 IND d   1       0.771  -2.414   2.394  0.00  0.00     0.298 HD
ENDROOT
TORSDOF 0
ENDMDL
