MODEL 1
REMARK minimizedAffinity 0.42449078
REMARK minimizedRMSD -1
REMARK  0 active torsions:
REMARK  status: ('A' for Active; 'I' for Inactive)
ROOT
ATOM      1  N1  IND d   1       2.732   2.022   0.247  0.00  0.00    -0.196 N 
ATOM      2  C2  IND d   1       2.440   0.825   0.838  0.00  0.00     0.054 A 
ATOM      3  C3  IND d   1       1.113   0.732   1.081  0.00  0.00    -0.031 A 
ATOM      4  C4  IND d   1      -0.776   2.382   0.498  0.00  0.00     0.051 A 
ATOM      5  C5  IND d   1      -0.996   3.629  -0.014  0.00  0.00    -0.031 A 
ATOM      6  C6  IND d   1       0.036   4.420  -0.478  0.00  0.00     0.015 A 
ATOM      7  C7  IND d   1       1.331   3.985  -0.456  0.00  0.00    -0.016 A 
ATOM      8  C8  IND d   1       1.559   2.722   0.070  0.00  0.00    -0.047 A 
ATOM      9  C9  IND d   1       0.521   1.932   0.581  0.00  0.00    -0.096 A 
ATOM     10  HN1 IND d   1       3.517   2.292   0.023  0.00  0.00     0.298 HD
ENDROOT
TORSDOF 0
ENDMDL
