MODEL 1
REMARK minimizedAffinity 13.6562033
REMARK minimizedRMSD -1
REMARK  0 active torsions:
REMARK  status: ('A' for Active; 'I' for Inactive)
ROOT
ATOM      1  N1  IND d   1       2.684   2.903  -1.084  0.00  0.00    -0.196 N 
ATOM      2  C2  IND d   1       2.073   3.901  -0.378  0.00  0.00     0.054 A 
ATOM      3  C3  IND d   1       1.806   3.491   0.882  0.00  0.00    -0.031 A 
ATOM      4  C4  IND d   1       2.375   1.258   2.031  0.00  0.00     0.051 A 
ATOM      5  C5  IND d   1       2.898   0.021   1.781  0.00  0.00    -0.031 A 
ATOM      6  C6  IND d   1       3.390  -0.325   0.538  0.00  0.00     0.015 A 
ATOM      7  C7  IND d   1       3.386   0.561  -0.501  0.00  0.00    -0.016 A 
ATOM      8  C8  IND d   1       2.849   1.816  -0.253  0.00  0.00    -0.047 A 
ATOM      9  C9  IND d   1       2.310   2.159   0.994  0.00  0.00    -0.096 A 
ATOM     10  HN1 IND d   1       2.925   2.946  -1.908  0.00  0.00     0.298 HD
ENDROOT
TORSDOF 0
ENDMDL
