MODEL 1
REMARK minimizedAffinity 1.24127829
REMARK minimizedRMSD -1
REMARK  0 active torsions:
REMARK  status: ('A' for Active; 'I' for Inactive)
ROOT
ATOM      1  N1  IND d   1      -0.648   0.866   0.882  0.00  0.00    -0.196 N 
ATOM      2  C2  IND d   1      -0.299   2.149   0.566  0.00  0.00     0.054 A 
ATOM      3  C3  IND d   1       1.028   2.334   0.748  0.00  0.00    -0.031 A 
ATOM      4  C4  IND d   1       2.832   0.640   1.460  0.00  0.00     0.051 A 
ATOM      5  C5  IND d   1       2.991  -0.647   1.890  0.00  0.00    -0.031 A 
ATOM      6  C6  IND d   1       1.924  -1.514   2.007  0.00  0.00     0.015 A 
ATOM      7  C7  IND d   1       0.654  -1.128   1.684  0.00  0.00    -0.016 A 
ATOM      8  C8  IND d   1       0.488   0.181   1.253  0.00  0.00    -0.047 A 
ATOM      9  C9  IND d   1       1.561   1.078   1.174  0.00  0.00    -0.096 A 
ATOM     10  HN1 IND d   1      -1.444   0.541   0.853  0.00  0.00     0.298 HD
ENDROOT
TORSDOF 0
ENDMDL
