MODEL 1
REMARK minimizedAffinity 4.86610794
REMARK minimizedRMSD -1
REMARK  0 active torsions:
REMARK  status: ('A' for Active; 'I' for Inactive)
ROOT
ATOM      1  N1  IND d   1       0.700  -1.038   3.374  0.00  0.00    -0.196 N 
ATOM      2  C2  IND d   1       0.731  -2.371   3.072  0.00  0.00     0.054 A 
ATOM      3  C3  IND d   1       1.046  -2.551   1.769  0.00  0.00    -0.031 A 
ATOM      4  C4  IND d   1       1.650  -0.805  -0.024  0.00  0.00     0.051 A 
ATOM      5  C5  IND d   1       1.722   0.544  -0.233  0.00  0.00    -0.031 A 
ATOM      6  C6  IND d   1       1.455   1.453   0.771  0.00  0.00     0.015 A 
ATOM      7  C7  IND d   1       1.115   1.044   2.029  0.00  0.00    -0.016 A 
ATOM      8  C8  IND d   1       1.033  -0.324   2.243  0.00  0.00    -0.047 A 
ATOM      9  C9  IND d   1       1.262  -1.251   1.218  0.00  0.00    -0.096 A 
ATOM     10  HN1 IND d   1       0.505  -0.702   4.140  0.00  0.00     0.298 HD
ENDROOT
TORSDOF 0
ENDMDL
