MODEL 1
REMARK minimizedAffinity -5.54778433
REMARK minimizedRMSD -1
REMARK  0 active torsions:
REMARK  status: ('A' for Active; 'I' for Inactive)
ROOT
ATOM      1  C   UNL d   1      -2.244  -3.134   1.763  0.00  0.00     0.077 C 
ATOM      2  C1  UNL d   1      -2.026  -1.996   0.811  0.00  0.00    -0.074 A 
ATOM      3  C2  UNL d   1      -3.068  -1.520   0.009  0.00  0.00    -0.005 A 
ATOM      4  C3  UNL d   1      -2.852  -0.454  -0.865  0.00  0.00     0.006 A 
ATOM      5  C4  UNL d   1      -1.594   0.145  -0.946  0.00  0.00    -0.005 A 
ATOM      6  C5  UNL d   1      -0.540  -0.317  -0.151  0.00  0.00    -0.074 A 
ATOM      7  C6  UNL d   1       0.815   0.321  -0.218  0.00  0.00     0.077 C 
ATOM      8  C7  UNL d   1      -0.767  -1.384   0.730  0.00  0.00    -0.001 A 
ENDROOT
TORSDOF 0
ENDMDL
