MODEL 1
REMARK minimizedAffinity -3.58842969
REMARK minimizedRMSD -1
REMARK  0 active torsions:
REMARK  status: ('A' for Active; 'I' for Inactive)
ROOT
ATOM      1  C   UNL d   1       1.199  -0.233   0.826  0.00  0.00     0.077 C 
ATOM      2  C1  UNL d   1      -0.107  -0.269   0.091  0.00  0.00    -0.074 A 
ATOM      3  C2  UNL d   1      -0.305   0.500  -1.061  0.00  0.00    -0.005 A 
ATOM      4  C3  UNL d   1      -1.523   0.449  -1.740  0.00  0.00     0.006 A 
ATOM      5  C4  UNL d   1      -2.553  -0.370  -1.275  0.00  0.00    -0.005 A 
ATOM      6  C5  UNL d   1      -2.373  -1.146  -0.126  0.00  0.00    -0.074 A 
ATOM      7  C6  UNL d   1      -3.466  -2.039   0.382  0.00  0.00     0.077 C 
ATOM      8  C7  UNL d   1      -1.144  -1.095   0.547  0.00  0.00    -0.001 A 
ENDROOT
TORSDOF 0
ENDMDL
