MODEL 1
REMARK minimizedAffinity -5.77187777
REMARK minimizedRMSD -1
REMARK  0 active torsions:
REMARK  status: ('A' for Active; 'I' for Inactive)
ROOT
ATOM      1  C   UNL d   1       1.387   0.358   0.010  0.00  0.00     0.077 C 
ATOM      2  C1  UNL d   1       0.005  -0.185  -0.203  0.00  0.00    -0.074 A 
ATOM      3  C2  UNL d   1      -0.761   0.211  -1.304  0.00  0.00    -0.005 A 
ATOM      4  C3  UNL d   1      -2.041  -0.309  -1.495  0.00  0.00     0.006 A 
ATOM      5  C4  UNL d   1      -2.567  -1.229  -0.587  0.00  0.00    -0.005 A 
ATOM      6  C5  UNL d   1      -1.815  -1.638   0.520  0.00  0.00    -0.074 A 
ATOM      7  C6  UNL d   1      -2.362  -2.633   1.499  0.00  0.00     0.077 C 
ATOM      8  C7  UNL d   1      -0.527  -1.115   0.700  0.00  0.00    -0.001 A 
ENDROOT
TORSDOF 0
ENDMDL
