MODEL 1
REMARK minimizedAffinity -5.82731247
REMARK minimizedRMSD -1
REMARK  0 active torsions:
REMARK  status: ('A' for Active; 'I' for Inactive)
ROOT
ATOM      1  C   UNL d   1       0.617   0.539  -0.026  0.00  0.00     0.077 C 
ATOM      2  C1  UNL d   1      -0.651  -0.255   0.069  0.00  0.00    -0.074 A 
ATOM      3  C2  UNL d   1      -1.790   0.120  -0.651  0.00  0.00    -0.005 A 
ATOM      4  C3  UNL d   1      -2.960  -0.633  -0.559  0.00  0.00     0.006 A 
ATOM      5  C4  UNL d   1      -3.004  -1.768   0.252  0.00  0.00    -0.005 A 
ATOM      6  C5  UNL d   1      -1.875  -2.159   0.978  0.00  0.00    -0.074 A 
ATOM      7  C6  UNL d   1      -1.901  -3.382   1.847  0.00  0.00     0.077 C 
ATOM      8  C7  UNL d   1      -0.700  -1.401   0.876  0.00  0.00    -0.001 A 
ENDROOT
TORSDOF 0
ENDMDL
