MODEL 1
REMARK minimizedAffinity -5.47653913
REMARK minimizedRMSD -1
REMARK  0 active torsions:
REMARK  status: ('A' for Active; 'I' for Inactive)
ROOT
ATOM      1  C   UNL d   1       1.444   0.739  -0.242  0.00  0.00     0.077 C 
ATOM      2  C1  UNL d   1       0.117   0.043  -0.177  0.00  0.00    -0.074 A 
ATOM      3  C2  UNL d   1      -0.893   0.333  -1.100  0.00  0.00    -0.005 A 
ATOM      4  C3  UNL d   1      -2.119  -0.330  -1.032  0.00  0.00     0.006 A 
ATOM      5  C4  UNL d   1      -2.347  -1.287  -0.042  0.00  0.00    -0.005 A 
ATOM      6  C5  UNL d   1      -1.348  -1.590   0.889  0.00  0.00    -0.074 A 
ATOM      7  C6  UNL d   1      -1.573  -2.623   1.952  0.00  0.00     0.077 C 
ATOM      8  C7  UNL d   1      -0.117  -0.926   0.810  0.00  0.00    -0.001 A 
ENDROOT
TORSDOF 0
ENDMDL
