MODEL 1
REMARK minimizedAffinity -2.78241992
REMARK minimizedRMSD -1
REMARK  0 active torsions:
REMARK  status: ('A' for Active; 'I' for Inactive)
ROOT
ATOM      1  C   UNL d   1      -3.726  -0.883   0.049  0.00  0.00     0.077 C 
ATOM      2  C1  UNL d   1      -2.311  -0.498  -0.268  0.00  0.00    -0.074 A 
ATOM      3  C2  UNL d   1      -1.980   0.066  -1.504  0.00  0.00    -0.005 A 
ATOM      4  C3  UNL d   1      -0.661   0.428  -1.780  0.00  0.00     0.006 A 
ATOM      5  C4  UNL d   1       0.337   0.230  -0.826  0.00  0.00    -0.005 A 
ATOM      6  C5  UNL d   1       0.024  -0.332   0.416  0.00  0.00    -0.074 A 
ATOM      7  C6  UNL d   1       1.083  -0.542   1.457  0.00  0.00     0.077 C 
ATOM      8  C7  UNL d   1      -1.304  -0.687   0.689  0.00  0.00    -0.001 A 
ENDROOT
TORSDOF 0
ENDMDL
