MODEL 1
REMARK minimizedAffinity -3.24045753
REMARK minimizedRMSD -1
REMARK  0 active torsions:
REMARK  status: ('A' for Active; 'I' for Inactive)
ROOT
ATOM      1  C   UNL d   1      -1.370   0.400  -0.783  0.00  0.00     0.077 C 
ATOM      2  C1  UNL d   1      -0.038   0.802  -0.221  0.00  0.00    -0.074 A 
ATOM      3  C2  UNL d   1       1.047  -0.079  -0.244  0.00  0.00    -0.005 A 
ATOM      4  C3  UNL d   1       2.282   0.312   0.273  0.00  0.00     0.006 A 
ATOM      5  C4  UNL d   1       2.444   1.587   0.817  0.00  0.00    -0.005 A 
ATOM      6  C5  UNL d   1       1.370   2.482   0.847  0.00  0.00    -0.074 A 
ATOM      7  C6  UNL d   1       1.529   3.860   1.419  0.00  0.00     0.077 C 
ATOM      8  C7  UNL d   1       0.134   2.084   0.320  0.00  0.00    -0.001 A 
ENDROOT
TORSDOF 0
ENDMDL
