MODEL 1
REMARK minimizedAffinity -4.38198996
REMARK minimizedRMSD -1
REMARK  0 active torsions:
REMARK  status: ('A' for Active; 'I' for Inactive)
ROOT
ATOM      1  C   UNL d   1      -0.966  -2.898   2.230  0.00  0.00     0.077 C 
ATOM      2  C1  UNL d   1      -1.379  -2.082   1.041  0.00  0.00    -0.074 A 
ATOM      3  C2  UNL d   1      -2.670  -2.183   0.514  0.00  0.00    -0.005 A 
ATOM      4  C3  UNL d   1      -3.043  -1.411  -0.586  0.00  0.00     0.006 A 
ATOM      5  C4  UNL d   1      -2.129  -0.532  -1.169  0.00  0.00    -0.005 A 
ATOM      6  C5  UNL d   1      -0.834  -0.417  -0.655  0.00  0.00    -0.074 A 
ATOM      7  C6  UNL d   1       0.157   0.531  -1.263  0.00  0.00     0.077 C 
ATOM      8  C7  UNL d   1      -0.469  -1.191   0.455  0.00  0.00    -0.001 A 
ENDROOT
TORSDOF 0
ENDMDL
