MODEL 1
REMARK minimizedAffinity -5.44573879
REMARK minimizedRMSD -1
REMARK  0 active torsions:
REMARK  status: ('A' for Active; 'I' for Inactive)
ROOT
ATOM      1  C   UNL d   1      -1.843  -2.800   2.300  0.00  0.00     0.077 C 
ATOM      2  C1  UNL d   1      -1.639  -1.830   1.173  0.00  0.00    -0.074 A 
ATOM      3  C2  UNL d   1      -2.681  -1.524   0.291  0.00  0.00    -0.005 A 
ATOM      4  C3  UNL d   1      -2.480  -0.614  -0.746  0.00  0.00     0.006 A 
ATOM      5  C4  UNL d   1      -1.237  -0.001  -0.911  0.00  0.00    -0.005 A 
ATOM      6  C5  UNL d   1      -0.184  -0.294  -0.039  0.00  0.00    -0.074 A 
ATOM      7  C6  UNL d   1       1.155   0.364  -0.197  0.00  0.00     0.077 C 
ATOM      8  C7  UNL d   1      -0.396  -1.205   1.005  0.00  0.00    -0.001 A 
ENDROOT
TORSDOF 0
ENDMDL
