MODEL 1
REMARK minimizedAffinity -4.97292328
REMARK minimizedRMSD -1
REMARK  0 active torsions:
REMARK  status: ('A' for Active; 'I' for Inactive)
ROOT
ATOM      1  C   UNL d   1      -0.195   0.537  -1.168  0.00  0.00     0.077 C 
ATOM      2  C1  UNL d   1      -1.090  -0.463  -0.498  0.00  0.00    -0.074 A 
ATOM      3  C2  UNL d   1      -2.353  -0.761  -1.021  0.00  0.00    -0.005 A 
ATOM      4  C3  UNL d   1      -3.170  -1.701  -0.393  0.00  0.00     0.006 A 
ATOM      5  C4  UNL d   1      -2.734  -2.351   0.763  0.00  0.00    -0.005 A 
ATOM      6  C5  UNL d   1      -1.474  -2.066   1.299  0.00  0.00    -0.074 A 
ATOM      7  C6  UNL d   1      -0.986  -2.763   2.534  0.00  0.00     0.077 C 
ATOM      8  C7  UNL d   1      -0.656  -1.126   0.658  0.00  0.00    -0.001 A 
ENDROOT
TORSDOF 0
ENDMDL
