MODEL 1
REMARK minimizedAffinity -5.10631847
REMARK minimizedRMSD -1
REMARK  0 active torsions:
REMARK  status: ('A' for Active; 'I' for Inactive)
ROOT
ATOM      1  C   UNL d   1      -1.478  -2.650   2.800  0.00  0.00     0.077 C 
ATOM      2  C1  UNL d   1      -1.787  -1.904   1.536  0.00  0.00    -0.074 A 
ATOM      3  C2  UNL d   1      -3.083  -1.884   1.011  0.00  0.00    -0.005 A 
ATOM      4  C3  UNL d   1      -3.357  -1.178  -0.160  0.00  0.00     0.006 A 
ATOM      5  C4  UNL d   1      -2.339  -0.485  -0.817  0.00  0.00    -0.005 A 
ATOM      6  C5  UNL d   1      -1.037  -0.493  -0.307  0.00  0.00    -0.074 A 
ATOM      7  C6  UNL d   1       0.067   0.254  -0.995  0.00  0.00     0.077 C 
ATOM      8  C7  UNL d   1      -0.771  -1.199   0.875  0.00  0.00    -0.001 A 
ENDROOT
TORSDOF 0
ENDMDL
