MODEL 1
REMARK minimizedAffinity -4.27982759
REMARK minimizedRMSD -1
REMARK  0 active torsions:
REMARK  status: ('A' for Active; 'I' for Inactive)
ROOT
ATOM      1  C   UNL d   1      -2.170  -3.000   2.197  0.00  0.00     0.077 C 
ATOM      2  C1  UNL d   1      -2.000  -1.976   1.114  0.00  0.00    -0.074 A 
ATOM      3  C2  UNL d   1      -3.039  -1.695   0.221  0.00  0.00    -0.005 A 
ATOM      4  C3  UNL d   1      -2.869  -0.733  -0.775  0.00  0.00     0.006 A 
ATOM      5  C4  UNL d   1      -1.661  -0.043  -0.887  0.00  0.00    -0.005 A 
ATOM      6  C5  UNL d   1      -0.612  -0.310  -0.002  0.00  0.00    -0.074 A 
ATOM      7  C6  UNL d   1       0.690   0.429  -0.103  0.00  0.00     0.077 C 
ATOM      8  C7  UNL d   1      -0.792  -1.274   1.000  0.00  0.00    -0.001 A 
ENDROOT
TORSDOF 0
ENDMDL
