MODEL 1
REMARK minimizedAffinity -3.24815583
REMARK minimizedRMSD -1
REMARK  0 active torsions:
REMARK  status: ('A' for Active; 'I' for Inactive)
ROOT
ATOM      1  C   UNL d   1       0.992   0.404   0.364  0.00  0.00     0.077 C 
ATOM      2  C1  UNL d   1      -0.095  -0.601   0.602  0.00  0.00    -0.074 A 
ATOM      3  C2  UNL d   1       0.140  -1.745   1.371  0.00  0.00    -0.005 A 
ATOM      4  C3  UNL d   1      -0.884  -2.666   1.592  0.00  0.00     0.006 A 
ATOM      5  C4  UNL d   1      -2.151  -2.453   1.047  0.00  0.00    -0.005 A 
ATOM      6  C5  UNL d   1      -2.405  -1.314   0.277  0.00  0.00    -0.074 A 
ATOM      7  C6  UNL d   1      -3.763  -1.065  -0.308  0.00  0.00     0.077 C 
ATOM      8  C7  UNL d   1      -1.373  -0.390   0.065  0.00  0.00    -0.001 A 
ENDROOT
TORSDOF 0
ENDMDL
