MODEL 1
REMARK minimizedAffinity -4.02304745
REMARK minimizedRMSD -1
REMARK  0 active torsions:
REMARK  status: ('A' for Active; 'I' for Inactive)
ROOT
ATOM      1  C   UNL d   1       1.256   0.400   0.460  0.00  0.00     0.077 C 
ATOM      2  C1  UNL d   1      -0.075  -0.009  -0.096  0.00  0.00    -0.074 A 
ATOM      3  C2  UNL d   1      -0.510   0.458  -1.340  0.00  0.00    -0.005 A 
ATOM      4  C3  UNL d   1      -1.747   0.060  -1.848  0.00  0.00     0.006 A 
ATOM      5  C4  UNL d   1      -2.560  -0.807  -1.117  0.00  0.00    -0.005 A 
ATOM      6  C5  UNL d   1      -2.142  -1.285   0.128  0.00  0.00    -0.074 A 
ATOM      7  C6  UNL d   1      -3.000  -2.226   0.922  0.00  0.00     0.077 C 
ATOM      8  C7  UNL d   1      -0.895  -0.887   0.629  0.00  0.00    -0.001 A 
ENDROOT
TORSDOF 0
ENDMDL
