MODEL 1
REMARK minimizedAffinity -3.61503124
REMARK minimizedRMSD -1
REMARK  0 active torsions:
REMARK  status: ('A' for Active; 'I' for Inactive)
ROOT
ATOM      1  C   UNL d   1      -1.323  -2.967   2.117  0.00  0.00     0.077 C 
ATOM      2  C1  UNL d   1      -1.279  -1.945   1.021  0.00  0.00    -0.074 A 
ATOM      3  C2  UNL d   1      -2.340  -1.812   0.119  0.00  0.00    -0.005 A 
ATOM      4  C3  UNL d   1      -2.289  -0.850  -0.890  0.00  0.00     0.006 A 
ATOM      5  C4  UNL d   1      -1.179  -0.012  -1.007  0.00  0.00    -0.005 A 
ATOM      6  C5  UNL d   1      -0.109  -0.130  -0.113  0.00  0.00    -0.074 A 
ATOM      7  C6  UNL d   1       1.087   0.769  -0.219  0.00  0.00     0.077 C 
ATOM      8  C7  UNL d   1      -0.171  -1.094   0.902  0.00  0.00    -0.001 A 
ENDROOT
TORSDOF 0
ENDMDL
