MODEL 1
REMARK minimizedAffinity -3.19257021
REMARK minimizedRMSD -1
REMARK  0 active torsions:
REMARK  status: ('A' for Active; 'I' for Inactive)
ROOT
ATOM      1  C   UNL d   1      -3.382  -0.496   0.158  0.00  0.00     0.077 C 
ATOM      2  C1  UNL d   1      -1.962  -0.277  -0.273  0.00  0.00    -0.074 A 
ATOM      3  C2  UNL d   1      -1.663   0.165  -1.566  0.00  0.00    -0.005 A 
ATOM      4  C3  UNL d   1      -0.338   0.373  -1.949  0.00  0.00     0.006 A 
ATOM      5  C4  UNL d   1       0.700   0.143  -1.045  0.00  0.00    -0.005 A 
ATOM      6  C5  UNL d   1       0.420  -0.298   0.252  0.00  0.00    -0.074 A 
ATOM      7  C6  UNL d   1       1.523  -0.542   1.239  0.00  0.00     0.077 C 
ATOM      8  C7  UNL d   1      -0.914  -0.499   0.632  0.00  0.00    -0.001 A 
ENDROOT
TORSDOF 0
ENDMDL
