MODEL 1
REMARK minimizedAffinity -4.71017075
REMARK minimizedRMSD -1
REMARK  0 active torsions:
REMARK  status: ('A' for Active; 'I' for Inactive)
ROOT
ATOM      1  C   UNL d   1       1.184   0.040   0.143  0.00  0.00     0.077 C 
ATOM      2  C1  UNL d   1      -0.003  -0.796   0.518  0.00  0.00    -0.074 A 
ATOM      3  C2  UNL d   1       0.070  -1.720   1.565  0.00  0.00    -0.005 A 
ATOM      4  C3  UNL d   1      -1.045  -2.484   1.908  0.00  0.00     0.006 A 
ATOM      5  C4  UNL d   1      -2.243  -2.332   1.209  0.00  0.00    -0.005 A 
ATOM      6  C5  UNL d   1      -2.335  -1.413   0.159  0.00  0.00    -0.074 A 
ATOM      7  C6  UNL d   1      -3.618  -1.231  -0.597  0.00  0.00     0.077 C 
ATOM      8  C7  UNL d   1      -1.212  -0.644  -0.176  0.00  0.00    -0.001 A 
ENDROOT
TORSDOF 0
ENDMDL
