MODEL 1
REMARK minimizedAffinity 2.96621895
REMARK minimizedRMSD -1
REMARK  1 active torsions:
REMARK  status: ('A' for Active; 'I' for Inactive)
REMARK    1  A    between atoms: N_2  and  C1_3 
ROOT
ATOM      1  C1  UNL d   1      -0.490  -0.562   1.093  0.00  0.00     0.143 A 
ATOM      2  C2  UNL d   1       0.003   0.641   1.612  0.00  0.00    -0.057 A 
ATOM      3  C3  UNL d   1       0.338   1.710   0.773  0.00  0.00     0.033 A 
ATOM      4  C4  UNL d   1       0.213   1.586  -0.606  0.00  0.00    -0.042 A 
ATOM      5  C5  UNL d   1      -0.252   0.391  -1.146  0.00  0.00     0.033 A 
ATOM      6  C6  UNL d   1      -0.591  -0.671  -0.302  0.00  0.00    -0.057 A 
ENDROOT
BRANCH   1   7
ATOM      7  N   UNL d   1      -0.747  -1.695   1.868  0.00  0.00    -0.732 N 
ATOM      8  C   UNL d   1      -0.914  -2.991   1.245  0.00  0.00     0.284 C 
ATOM      9  H3  UNL d   1      -0.198  -1.714   2.724  0.00  0.00     0.395 HD
ENDBRANCH   1   7
TORSDOF 1
ENDMDL
