MODEL 1
REMARK minimizedAffinity -2.22428036
REMARK minimizedRMSD -1
REMARK  1 active torsions:
REMARK  status: ('A' for Active; 'I' for Inactive)
REMARK    1  A    between atoms: N_2  and  C1_3 
ROOT
ATOM      1  C1  UNL d   1       0.469   0.384   1.377  0.00  0.00     0.143 A 
ATOM      2  C2  UNL d   1      -0.651   1.099   0.941  0.00  0.00    -0.057 A 
ATOM      3  C3  UNL d   1      -0.516   2.300   0.235  0.00  0.00     0.033 A 
ATOM      4  C4  UNL d   1       0.746   2.824  -0.024  0.00  0.00    -0.042 A 
ATOM      5  C5  UNL d   1       1.874   2.142   0.421  0.00  0.00     0.033 A 
ATOM      6  C6  UNL d   1       1.732   0.940   1.120  0.00  0.00    -0.057 A 
ENDROOT
BRANCH   1   7
ATOM      7  N   UNL d   1       0.399  -0.765   2.169  0.00  0.00    -0.732 N 
ATOM      8  C   UNL d   1       1.445  -1.069   3.121  0.00  0.00     0.284 C 
ATOM      9  H3  UNL d   1      -0.542  -0.942   2.515  0.00  0.00     0.395 HD
ENDBRANCH   1   7
TORSDOF 1
ENDMDL
