MODEL 1
REMARK minimizedAffinity 10.9919424
REMARK minimizedRMSD -1
REMARK  1 active torsions:
REMARK  status: ('A' for Active; 'I' for Inactive)
REMARK    1  A    between atoms: N_2  and  C1_3 
ROOT
ATOM      1  C1  UNL d   1      -0.347   3.676   0.789  0.00  0.00     0.143 A 
ATOM      2  C2  UNL d   1       0.892   3.703   0.139  0.00  0.00    -0.057 A 
ATOM      3  C3  UNL d   1       1.349   2.603  -0.598  0.00  0.00     0.033 A 
ATOM      4  C4  UNL d   1       0.586   1.442  -0.672  0.00  0.00    -0.042 A 
ATOM      5  C5  UNL d   1      -0.637   1.384  -0.013  0.00  0.00     0.033 A 
ATOM      6  C6  UNL d   1      -1.091   2.488   0.715  0.00  0.00    -0.057 A 
ENDROOT
BRANCH   1   7
ATOM      7  N   UNL d   1      -0.813   4.700   1.617  0.00  0.00    -0.732 N 
ATOM      8  C   UNL d   1      -1.140   5.999   1.070  0.00  0.00     0.284 C 
ATOM      9  H3  UNL d   1      -1.472   4.365   2.316  0.00  0.00     0.395 HD
ENDBRANCH   1   7
TORSDOF 1
ENDMDL
