MODEL 1
REMARK minimizedAffinity 1.53116798
REMARK minimizedRMSD -1
REMARK  1 active torsions:
REMARK  status: ('A' for Active; 'I' for Inactive)
REMARK    1  A    between atoms: N_2  and  C1_3 
ROOT
ATOM      1  C1  UNL d   1       0.394  -1.629  -0.440  0.00  0.00     0.143 A 
ATOM      2  C2  UNL d   1      -0.704  -1.792  -1.292  0.00  0.00    -0.057 A 
ATOM      3  C3  UNL d   1      -0.844  -2.937  -2.085  0.00  0.00     0.033 A 
ATOM      4  C4  UNL d   1       0.128  -3.931  -2.060  0.00  0.00    -0.042 A 
ATOM      5  C5  UNL d   1       1.240  -3.780  -1.239  0.00  0.00     0.033 A 
ATOM      6  C6  UNL d   1       1.372  -2.636  -0.445  0.00  0.00    -0.057 A 
ENDROOT
BRANCH   1   7
ATOM      7  N   UNL d   1       0.640  -0.469   0.298  0.00  0.00    -0.732 N 
ATOM      8  C   UNL d   1       1.074   0.745  -0.359  0.00  0.00     0.284 C 
ATOM      9  H3  UNL d   1      -0.050  -0.321   1.031  0.00  0.00     0.395 HD
ENDBRANCH   1   7
TORSDOF 1
ENDMDL
