MODEL 1
REMARK minimizedAffinity 7.1268177
REMARK minimizedRMSD -1
REMARK  1 active torsions:
REMARK  status: ('A' for Active; 'I' for Inactive)
REMARK    1  A    between atoms: N_2  and  C1_3 
ROOT
ATOM      1  C1  UNL d   1       1.430   0.111   1.812  0.00  0.00     0.143 A 
ATOM      2  C2  UNL d   1       2.501   1.009   1.769  0.00  0.00    -0.057 A 
ATOM      3  C3  UNL d   1       2.521   2.072   0.858  0.00  0.00     0.033 A 
ATOM      4  C4  UNL d   1       1.479   2.239  -0.048  0.00  0.00    -0.042 A 
ATOM      5  C5  UNL d   1       0.416   1.344  -0.040  0.00  0.00     0.033 A 
ATOM      6  C6  UNL d   1       0.399   0.288   0.876  0.00  0.00    -0.057 A 
ENDROOT
BRANCH   1   7
ATOM      7  N   UNL d   1       1.398  -1.023   2.627  0.00  0.00    -0.732 N 
ATOM      8  C   UNL d   1       2.176  -1.077   3.846  0.00  0.00     0.284 C 
ATOM      9  H3  UNL d   1       0.462  -1.413   2.714  0.00  0.00     0.395 HD
ENDBRANCH   1   7
TORSDOF 1
ENDMDL
