MODEL 1
REMARK minimizedAffinity 7.72319078
REMARK minimizedRMSD -1
REMARK  1 active torsions:
REMARK  status: ('A' for Active; 'I' for Inactive)
REMARK    1  A    between atoms: N_2  and  C1_3 
ROOT
ATOM      1  C1  UNL d   1      -0.391   1.331  -0.254  0.00  0.00     0.143 A 
ATOM      2  C2  UNL d   1       0.238   0.253   0.378  0.00  0.00    -0.057 A 
ATOM      3  C3  UNL d   1       1.571   0.334   0.797  0.00  0.00     0.033 A 
ATOM      4  C4  UNL d   1       2.311   1.489   0.564  0.00  0.00    -0.042 A 
ATOM      5  C5  UNL d   1       1.714   2.564  -0.085  0.00  0.00     0.033 A 
ATOM      6  C6  UNL d   1       0.380   2.479  -0.495  0.00  0.00    -0.057 A 
ENDROOT
BRANCH   1   7
ATOM      7  N   UNL d   1      -1.683   1.277  -0.782  0.00  0.00    -0.732 N 
ATOM      8  C   UNL d   1      -1.894   1.234  -2.213  0.00  0.00     0.284 C 
ATOM      9  H3  UNL d   1      -2.293   0.658  -0.253  0.00  0.00     0.395 HD
ENDBRANCH   1   7
TORSDOF 1
ENDMDL
