MODEL 1
REMARK minimizedAffinity 0.366040498
REMARK minimizedRMSD -1
REMARK  1 active torsions:
REMARK  status: ('A' for Active; 'I' for Inactive)
REMARK    1  A    between atoms: N_2  and  C1_3 
ROOT
ATOM      1  C1  UNL d   1      -0.778   0.132  -0.081  0.00  0.00     0.143 A 
ATOM      2  C2  UNL d   1      -1.197  -0.185  -1.377  0.00  0.00    -0.057 A 
ATOM      3  C3  UNL d   1      -1.382  -1.515  -1.776  0.00  0.00     0.033 A 
ATOM      4  C4  UNL d   1      -1.121  -2.555  -0.891  0.00  0.00    -0.042 A 
ATOM      5  C5  UNL d   1      -0.679  -2.265   0.395  0.00  0.00     0.033 A 
ATOM      6  C6  UNL d   1      -0.503  -0.935   0.789  0.00  0.00    -0.057 A 
ENDROOT
BRANCH   1   7
ATOM      7  N   UNL d   1      -0.482   1.429   0.346  0.00  0.00    -0.732 N 
ATOM      8  C   UNL d   1       0.799   2.030   0.042  0.00  0.00     0.284 C 
ATOM      9  H3  UNL d   1      -1.273   2.061   0.245  0.00  0.00     0.395 HD
ENDBRANCH   1   7
TORSDOF 1
ENDMDL
