MODEL 1
REMARK minimizedAffinity 3.06620908
REMARK minimizedRMSD -1
REMARK  1 active torsions:
REMARK  status: ('A' for Active; 'I' for Inactive)
REMARK    1  A    between atoms: N_2  and  C1_3 
ROOT
ATOM      1  C1  UNL d   1      -2.935   1.876  -3.072  0.00  0.00     0.143 A 
ATOM      2  C2  UNL d   1      -2.718   0.858  -4.008  0.00  0.00    -0.057 A 
ATOM      3  C3  UNL d   1      -2.015  -0.304  -3.666  0.00  0.00     0.033 A 
ATOM      4  C4  UNL d   1      -1.491  -0.457  -2.387  0.00  0.00    -0.042 A 
ATOM      5  C5  UNL d   1      -1.674   0.553  -1.448  0.00  0.00     0.033 A 
ATOM      6  C6  UNL d   1      -2.382   1.708  -1.793  0.00  0.00    -0.057 A 
ENDROOT
BRANCH   1   7
ATOM      7  N   UNL d   1      -3.540   3.097  -3.378  0.00  0.00    -0.732 N 
ATOM      8  C   UNL d   1      -4.211   3.865  -2.352  0.00  0.00     0.284 C 
ATOM      9  H3  UNL d   1      -2.981   3.658  -4.018  0.00  0.00     0.395 HD
ENDBRANCH   1   7
TORSDOF 1
ENDMDL
