MODEL 1
REMARK minimizedAffinity 0.143052429
REMARK minimizedRMSD -1
REMARK  1 active torsions:
REMARK  status: ('A' for Active; 'I' for Inactive)
REMARK    1  A    between atoms: N_2  and  C1_3 
ROOT
ATOM      1  C1  UNL d   1       0.426  -0.785   0.792  0.00  0.00     0.143 A 
ATOM      2  C2  UNL d   1       1.243   0.279   0.397  0.00  0.00    -0.057 A 
ATOM      3  C3  UNL d   1       2.576   0.367   0.819  0.00  0.00     0.033 A 
ATOM      4  C4  UNL d   1       3.107  -0.596   1.669  0.00  0.00    -0.042 A 
ATOM      5  C5  UNL d   1       2.306  -1.650   2.095  0.00  0.00     0.033 A 
ATOM      6  C6  UNL d   1       0.978  -1.736   1.665  0.00  0.00    -0.057 A 
ENDROOT
BRANCH   1   7
ATOM      7  N   UNL d   1      -0.934  -0.877   0.486  0.00  0.00    -0.732 N 
ATOM      8  C   UNL d   1      -1.746   0.316   0.375  0.00  0.00     0.284 C 
ATOM      9  H3  UNL d   1      -1.126  -1.578  -0.225  0.00  0.00     0.395 HD
ENDBRANCH   1   7
TORSDOF 1
ENDMDL
