MODEL 1
REMARK minimizedAffinity -1.65025246
REMARK minimizedRMSD -1
REMARK  0 active torsions:
REMARK  status: ('A' for Active; 'I' for Inactive)
ROOT
ATOM      1  C   UNL d   1      -2.154   0.345   0.481  0.00  0.00    -0.002 A 
ATOM      2  C1  UNL d   1      -2.124   0.462   1.864  0.00  0.00     0.010 A 
ATOM      3  C2  UNL d   1      -0.986   0.094   2.583  0.00  0.00     0.041 A 
ATOM      4  C3  UNL d   1       0.134  -0.397   1.884  0.00  0.00    -0.075 A 
ATOM      5  S   UNL d   1       1.637  -0.908   2.555  0.00  0.00     0.015 SA
ATOM      6  C4  UNL d   1       2.276  -1.293   1.022  0.00  0.00     0.022 A 
ATOM      7  C5  UNL d   1       1.378  -1.045   0.012  0.00  0.00     0.026 A 
ATOM      8  C6  UNL d   1       0.128  -0.523   0.491  0.00  0.00    -0.082 A 
ATOM      9  C7  UNL d   1      -1.041  -0.142  -0.210  0.00  0.00     0.045 A 
ENDROOT
TORSDOF 0
ENDMDL
