MODEL 1
REMARK minimizedAffinity -1.20314133
REMARK minimizedRMSD -1
REMARK  0 active torsions:
REMARK  status: ('A' for Active; 'I' for Inactive)
ROOT
ATOM      1  C   UNL d   1      -2.076   0.835   0.942  0.00  0.00    -0.002 A 
ATOM      2  C1  UNL d   1      -1.236   0.140   1.800  0.00  0.00     0.010 A 
ATOM      3  C2  UNL d   1      -0.100  -0.508   1.311  0.00  0.00     0.041 A 
ATOM      4  C3  UNL d   1       0.180  -0.445  -0.068  0.00  0.00    -0.075 A 
ATOM      5  S   UNL d   1       1.515  -1.161  -0.892  0.00  0.00     0.015 SA
ATOM      6  C4  UNL d   1       1.001  -0.561  -2.402  0.00  0.00     0.022 A 
ATOM      7  C5  UNL d   1      -0.159   0.170  -2.299  0.00  0.00     0.026 A 
ATOM      8  C6  UNL d   1      -0.651   0.250  -0.952  0.00  0.00    -0.082 A 
ATOM      9  C7  UNL d   1      -1.795   0.896  -0.426  0.00  0.00     0.045 A 
ENDROOT
TORSDOF 0
ENDMDL
