MODEL 1
REMARK minimizedAffinity -1.76077759
REMARK minimizedRMSD -1
REMARK  0 active torsions:
REMARK  status: ('A' for Active; 'I' for Inactive)
ROOT
ATOM      1  C   UNL d   1      -2.352   0.641   1.609  0.00  0.00    -0.002 A 
ATOM      2  C1  UNL d   1      -1.528   0.133   2.604  0.00  0.00     0.010 A 
ATOM      3  C2  UNL d   1      -0.298  -0.444   2.282  0.00  0.00     0.041 A 
ATOM      4  C3  UNL d   1       0.095  -0.500   0.930  0.00  0.00    -0.075 A 
ATOM      5  S   UNL d   1       1.558  -1.160   0.300  0.00  0.00     0.015 SA
ATOM      6  C4  UNL d   1       1.125  -0.782  -1.304  0.00  0.00     0.022 A 
ATOM      7  C5  UNL d   1      -0.103  -0.168  -1.376  0.00  0.00     0.026 A 
ATOM      8  C6  UNL d   1      -0.717   0.005  -0.089  0.00  0.00    -0.082 A 
ATOM      9  C7  UNL d   1      -1.959   0.583   0.270  0.00  0.00     0.045 A 
ENDROOT
TORSDOF 0
ENDMDL
