MODEL 1
REMARK minimizedAffinity -0.50175333
REMARK minimizedRMSD -1
REMARK  0 active torsions:
REMARK  status: ('A' for Active; 'I' for Inactive)
ROOT
ATOM      1  C   UNL d   1      -2.248   0.521   0.950  0.00  0.00    -0.002 A 
ATOM      2  C1  UNL d   1      -1.795   0.179  -0.316  0.00  0.00     0.010 A 
ATOM      3  C2  UNL d   1      -0.542  -0.413  -0.486  0.00  0.00     0.041 A 
ATOM      4  C3  UNL d   1       0.254  -0.660   0.649  0.00  0.00    -0.075 A 
ATOM      5  S   UNL d   1       1.822  -1.377   0.683  0.00  0.00     0.015 SA
ATOM      6  C4  UNL d   1       1.927  -1.246   2.379  0.00  0.00     0.022 A 
ATOM      7  C5  UNL d   1       0.802  -0.672   2.922  0.00  0.00     0.026 A 
ATOM      8  C6  UNL d   1      -0.181  -0.325   1.934  0.00  0.00    -0.082 A 
ATOM      9  C7  UNL d   1      -1.455   0.275   2.073  0.00  0.00     0.045 A 
ENDROOT
TORSDOF 0
ENDMDL
