MODEL 1
REMARK minimizedAffinity -1.45803654
REMARK minimizedRMSD -1
REMARK  0 active torsions:
REMARK  status: ('A' for Active; 'I' for Inactive)
ROOT
ATOM      1  C   UNL d   1      -0.816  -0.654   0.117  0.00  0.00    -0.002 A 
ATOM      2  C1  UNL d   1      -1.071   0.709   0.179  0.00  0.00     0.010 A 
ATOM      3  C2  UNL d   1      -0.602   1.566  -0.819  0.00  0.00     0.041 A 
ATOM      4  C3  UNL d   1       0.131   1.024  -1.893  0.00  0.00    -0.075 A 
ATOM      5  S   UNL d   1       0.803   1.881  -3.229  0.00  0.00     0.015 SA
ATOM      6  C4  UNL d   1       1.443   0.458  -3.916  0.00  0.00     0.022 A 
ATOM      7  C5  UNL d   1       1.161  -0.653  -3.156  0.00  0.00     0.026 A 
ATOM      8  C6  UNL d   1       0.400  -0.345  -1.978  0.00  0.00    -0.082 A 
ATOM      9  C7  UNL d   1      -0.088  -1.187  -0.950  0.00  0.00     0.045 A 
ENDROOT
TORSDOF 0
ENDMDL
