MODEL 1
REMARK minimizedAffinity -2.34601545
REMARK minimizedRMSD -1
REMARK  0 active torsions:
REMARK  status: ('A' for Active; 'I' for Inactive)
ROOT
ATOM      1  C   UNL d   1      -1.251   0.454   3.074  0.00  0.00    -0.002 A 
ATOM      2  C1  UNL d   1      -0.060   0.023   3.640  0.00  0.00     0.010 A 
ATOM      3  C2  UNL d   1       0.957  -0.502   2.841  0.00  0.00     0.041 A 
ATOM      4  C3  UNL d   1       0.756  -0.586   1.449  0.00  0.00    -0.075 A 
ATOM      5  S   UNL d   1       1.862  -1.193   0.274  0.00  0.00     0.015 SA
ATOM      6  C4  UNL d   1       0.780  -0.893  -1.008  0.00  0.00     0.022 A 
ATOM      7  C5  UNL d   1      -0.401  -0.344  -0.568  0.00  0.00     0.026 A 
ATOM      8  C6  UNL d   1      -0.434  -0.157   0.855  0.00  0.00    -0.082 A 
ATOM      9  C7  UNL d   1      -1.447   0.369   1.693  0.00  0.00     0.045 A 
ENDROOT
TORSDOF 0
ENDMDL
