MODEL 1
REMARK minimizedAffinity -4.53367805
REMARK minimizedRMSD -1
REMARK  1 active torsions:
REMARK  status: ('A' for Active; 'I' for Inactive)
REMARK    1  A    between atoms: C3_4  and  O_7 
ROOT
ATOM      1  C   UNL d   1      -0.645   1.017   2.801  0.00  0.00    -0.033 A 
ATOM      2  C1  UNL d   1      -1.695   0.734   1.925  0.00  0.00     0.039 A 
ATOM      3  C2  UNL d   1      -1.424   0.326   0.618  0.00  0.00    -0.080 A 
ATOM      4  C3  UNL d   1      -0.102   0.203   0.200  0.00  0.00     0.150 A 
ATOM      5  C4  UNL d   1       0.949   0.480   1.068  0.00  0.00    -0.007 A 
ATOM      6  C5  UNL d   1       0.677   0.889   2.373  0.00  0.00     0.039 A 
ENDROOT
BRANCH   4   7
ATOM      7  O   UNL d   1       0.211  -0.188  -1.068  0.00  0.00    -0.526 OA
ATOM      8  H5  UNL d   1      -0.615  -0.316  -1.564  0.00  0.00     0.418 HD
ENDBRANCH   4   7
TORSDOF 1
ENDMDL
