MODEL 1
REMARK minimizedAffinity -3.24872518
REMARK minimizedRMSD -1
REMARK  1 active torsions:
REMARK  status: ('A' for Active; 'I' for Inactive)
REMARK    1  A    between atoms: C3_4  and  O_7 
ROOT
ATOM      1  C   UNL d   1       0.219  -0.923  -0.364  0.00  0.00    -0.033 A 
ATOM      2  C1  UNL d   1       1.204  -0.590   0.568  0.00  0.00     0.039 A 
ATOM      3  C2  UNL d   1       0.870   0.141   1.709  0.00  0.00    -0.080 A 
ATOM      4  C3  UNL d   1      -0.452   0.532   1.908  0.00  0.00     0.150 A 
ATOM      5  C4  UNL d   1      -1.439   0.200   0.986  0.00  0.00    -0.007 A 
ATOM      6  C5  UNL d   1      -1.103  -0.529  -0.154  0.00  0.00     0.039 A 
ENDROOT
BRANCH   4   7
ATOM      7  O   UNL d   1      -0.825   1.251   3.004  0.00  0.00    -0.526 OA
ATOM      8  H5  UNL d   1      -0.034   1.431   3.538  0.00  0.00     0.418 HD
ENDBRANCH   4   7
TORSDOF 1
ENDMDL
