MODEL 1
REMARK minimizedAffinity -4.55374622
REMARK minimizedRMSD -1
REMARK  1 active torsions:
REMARK  status: ('A' for Active; 'I' for Inactive)
REMARK    1  A    between atoms: C3_4  and  O_7 
ROOT
ATOM      1  C   UNL d   1      -0.201  -0.716  -0.111  0.00  0.00    -0.033 A 
ATOM      2  C1  UNL d   1      -1.518  -0.322   0.135  0.00  0.00     0.039 A 
ATOM      3  C2  UNL d   1      -1.792   0.619   1.129  0.00  0.00    -0.080 A 
ATOM      4  C3  UNL d   1      -0.742   1.159   1.868  0.00  0.00     0.150 A 
ATOM      5  C4  UNL d   1       0.572   0.774   1.625  0.00  0.00    -0.007 A 
ATOM      6  C5  UNL d   1       0.844  -0.167   0.632  0.00  0.00     0.039 A 
ENDROOT
BRANCH   4   7
ATOM      7  O   UNL d   1      -0.961   2.078   2.851  0.00  0.00    -0.526 OA
ATOM      8  H5  UNL d   1      -1.919   2.226   2.926  0.00  0.00     0.418 HD
ENDBRANCH   4   7
TORSDOF 1
ENDMDL
