MODEL 1
REMARK minimizedAffinity -4.88632345
REMARK minimizedRMSD -1
REMARK  1 active torsions:
REMARK  status: ('A' for Active; 'I' for Inactive)
REMARK    1  A    between atoms: C3_4  and  O_7 
ROOT
ATOM      1  C   UNL d   1      -0.056  -0.243  -0.312  0.00  0.00    -0.033 A 
ATOM      2  C1  UNL d   1       1.065  -0.294   0.518  0.00  0.00     0.039 A 
ATOM      3  C2  UNL d   1       0.956   0.063   1.864  0.00  0.00    -0.080 A 
ATOM      4  C3  UNL d   1      -0.278   0.468   2.366  0.00  0.00     0.150 A 
ATOM      5  C4  UNL d   1      -1.400   0.518   1.545  0.00  0.00    -0.007 A 
ATOM      6  C5  UNL d   1      -1.289   0.161   0.201  0.00  0.00     0.039 A 
ENDROOT
BRANCH   4   7
ATOM      7  O   UNL d   1      -0.432   0.831   3.671  0.00  0.00    -0.526 OA
ATOM      8  H5  UNL d   1       0.433   0.775   4.110  0.00  0.00     0.418 HD
ENDBRANCH   4   7
TORSDOF 1
ENDMDL
