MODEL 1
REMARK minimizedAffinity -4.78576326
REMARK minimizedRMSD -1
REMARK  1 active torsions:
REMARK  status: ('A' for Active; 'I' for Inactive)
REMARK    1  A    between atoms: C3_4  and  O_7 
ROOT
ATOM      1  C   UNL d   1       0.242   0.143  -0.405  0.00  0.00    -0.033 A 
ATOM      2  C1  UNL d   1       0.942   0.272   0.796  0.00  0.00     0.039 A 
ATOM      3  C2  UNL d   1       0.324   0.849   1.908  0.00  0.00    -0.080 A 
ATOM      4  C3  UNL d   1      -0.992   1.290   1.805  0.00  0.00     0.150 A 
ATOM      5  C4  UNL d   1      -1.696   1.161   0.613  0.00  0.00    -0.007 A 
ATOM      6  C5  UNL d   1      -1.077   0.586  -0.496  0.00  0.00     0.039 A 
ENDROOT
BRANCH   4   7
ATOM      7  O   UNL d   1      -1.635   1.863   2.862  0.00  0.00    -0.526 OA
ATOM      8  H5  UNL d   1      -1.016   1.912   3.609  0.00  0.00     0.418 HD
ENDBRANCH   4   7
TORSDOF 1
ENDMDL
