MODEL 1
REMARK minimizedAffinity -3.771384
REMARK minimizedRMSD -1
REMARK  1 active torsions:
REMARK  status: ('A' for Active; 'I' for Inactive)
REMARK    1  A    between atoms: C3_4  and  O_7 
ROOT
ATOM      1  C   UNL d   1      -0.265  -0.332  -0.366  0.00  0.00    -0.033 A 
ATOM      2  C1  UNL d   1      -1.591   0.065  -0.188  0.00  0.00     0.039 A 
ATOM      3  C2  UNL d   1      -1.948   0.838   0.918  0.00  0.00    -0.080 A 
ATOM      4  C3  UNL d   1      -0.970   1.209   1.837  0.00  0.00     0.150 A 
ATOM      5  C4  UNL d   1       0.354   0.821   1.664  0.00  0.00    -0.007 A 
ATOM      6  C5  UNL d   1       0.708   0.047   0.559  0.00  0.00     0.039 A 
ENDROOT
BRANCH   4   7
ATOM      7  O   UNL d   1      -1.272   1.959   2.934  0.00  0.00    -0.526 OA
ATOM      8  H5  UNL d   1      -2.229   2.129   2.938  0.00  0.00     0.418 HD
ENDBRANCH   4   7
TORSDOF 1
ENDMDL
