MODEL 1
REMARK minimizedAffinity -2.28004098
REMARK minimizedRMSD -1
REMARK  1 active torsions:
REMARK  status: ('A' for Active; 'I' for Inactive)
REMARK    1  A    between atoms: C3_4  and  O_7 
ROOT
ATOM      1  C   UNL d   1       1.392   0.023  -3.653  0.00  0.00    -0.033 A 
ATOM      2  C1  UNL d   1       0.635  -1.034  -3.143  0.00  0.00     0.039 A 
ATOM      3  C2  UNL d   1       0.255  -1.039  -1.800  0.00  0.00    -0.080 A 
ATOM      4  C3  UNL d   1       0.637   0.018  -0.978  0.00  0.00     0.150 A 
ATOM      5  C4  UNL d   1       1.387   1.076  -1.480  0.00  0.00    -0.007 A 
ATOM      6  C5  UNL d   1       1.767   1.079  -2.821  0.00  0.00     0.039 A 
ENDROOT
BRANCH   4   7
ATOM      7  O   UNL d   1       0.293   0.055   0.341  0.00  0.00    -0.526 OA
ATOM      8  H5  UNL d   1      -0.199  -0.756   0.553  0.00  0.00     0.418 HD
ENDBRANCH   4   7
TORSDOF 1
ENDMDL
