MODEL 1
REMARK minimizedAffinity -4.62928534
REMARK minimizedRMSD -1
REMARK  1 active torsions:
REMARK  status: ('A' for Active; 'I' for Inactive)
REMARK    1  A    between atoms: C3_4  and  O_7 
ROOT
ATOM      1  C   UNL d   1       0.019  -0.385  -0.377  0.00  0.00    -0.033 A 
ATOM      2  C1  UNL d   1       1.037  -0.003   0.499  0.00  0.00     0.039 A 
ATOM      3  C2  UNL d   1       0.729   0.703   1.664  0.00  0.00    -0.080 A 
ATOM      4  C3  UNL d   1      -0.598   1.019   1.941  0.00  0.00     0.150 A 
ATOM      5  C4  UNL d   1      -1.617   0.639   1.074  0.00  0.00    -0.007 A 
ATOM      6  C5  UNL d   1      -1.308  -0.065  -0.089  0.00  0.00     0.039 A 
ENDROOT
BRANCH   4   7
ATOM      7  O   UNL d   1      -0.946   1.711   3.063  0.00  0.00    -0.526 OA
ATOM      8  H5  UNL d   1      -0.136   1.932   3.552  0.00  0.00     0.418 HD
ENDBRANCH   4   7
TORSDOF 1
ENDMDL
