MODEL 1
REMARK minimizedAffinity -3.49089837
REMARK minimizedRMSD -1
REMARK  1 active torsions:
REMARK  status: ('A' for Active; 'I' for Inactive)
REMARK    1  A    between atoms: C1_2  and  C2_3 
ROOT
ATOM      1  C2  UNL d   1      -0.150  -1.169   1.527  0.00  0.00    -0.073 A 
ATOM      2  C3  UNL d   1      -1.491  -0.768   1.494  0.00  0.00    -0.002 A 
ATOM      3  C4  UNL d   1      -2.048  -0.268   0.316  0.00  0.00     0.004 A 
ATOM      4  C5  UNL d   1      -1.275  -0.172  -0.841  0.00  0.00    -0.004 A 
ATOM      5  C6  UNL d   1       0.063  -0.579  -0.831  0.00  0.00    -0.075 A 
ATOM      6  C7  UNL d   1       0.909  -0.479  -2.066  0.00  0.00     0.076 C 
ATOM      7  C8  UNL d   1       0.616  -1.076   0.357  0.00  0.00     0.001 A 
ENDROOT
BRANCH   1   8
ATOM      8  C1  UNL d   1       0.454  -1.714   2.795  0.00  0.00     0.053 C 
ATOM      9  C   UNL d   1       0.829  -3.182   2.662  0.00  0.00     0.018 C 
ENDBRANCH   1   8
TORSDOF 1
ENDMDL
