MODEL 1
REMARK minimizedAffinity 1.0497694
REMARK minimizedRMSD -1
REMARK  1 active torsions:
REMARK  status: ('A' for Active; 'I' for Inactive)
REMARK    1  A    between atoms: C1_2  and  C2_3 
ROOT
ATOM      1  C2  UNL d   1      -0.156  -1.459   1.547  0.00  0.00    -0.073 A 
ATOM      2  C3  UNL d   1       0.086  -0.643   0.437  0.00  0.00    -0.002 A 
ATOM      3  C4  UNL d   1       1.079  -0.982  -0.484  0.00  0.00     0.004 A 
ATOM      4  C5  UNL d   1       1.833  -2.142  -0.308  0.00  0.00    -0.004 A 
ATOM      5  C6  UNL d   1       1.597  -2.977   0.789  0.00  0.00    -0.075 A 
ATOM      6  C7  UNL d   1       2.402  -4.227   0.994  0.00  0.00     0.076 C 
ATOM      7  C8  UNL d   1       0.601  -2.628   1.710  0.00  0.00     0.001 A 
ENDROOT
BRANCH   1   8
ATOM      8  C1  UNL d   1      -1.231  -1.101   2.541  0.00  0.00     0.053 C 
ATOM      9  C   UNL d   1      -2.359  -0.308   1.899  0.00  0.00     0.018 C 
ENDBRANCH   1   8
TORSDOF 1
ENDMDL
