MODEL 1
REMARK minimizedAffinity 4.05864429
REMARK minimizedRMSD -1
REMARK  1 active torsions:
REMARK  status: ('A' for Active; 'I' for Inactive)
REMARK    1  A    between atoms: C1_2  and  C2_3 
ROOT
ATOM      1  C2  UNL d   1       1.404  -1.905   0.473  0.00  0.00    -0.073 A 
ATOM      2  C3  UNL d   1       0.867  -0.904  -0.346  0.00  0.00    -0.002 A 
ATOM      3  C4  UNL d   1      -0.265  -0.195   0.058  0.00  0.00     0.004 A 
ATOM      4  C5  UNL d   1      -0.866  -0.473   1.286  0.00  0.00    -0.004 A 
ATOM      5  C6  UNL d   1      -0.337  -1.461   2.123  0.00  0.00    -0.075 A 
ATOM      6  C7  UNL d   1      -0.974  -1.774   3.445  0.00  0.00     0.076 C 
ATOM      7  C8  UNL d   1       0.798  -2.171   1.709  0.00  0.00     0.001 A 
ENDROOT
BRANCH   1   8
ATOM      8  C1  UNL d   1       2.630  -2.669   0.044  0.00  0.00     0.053 C 
ATOM      9  C   UNL d   1       2.631  -4.092   0.579  0.00  0.00     0.018 C 
ENDBRANCH   1   8
TORSDOF 1
ENDMDL
