MODEL 1
REMARK minimizedAffinity 0.450377911
REMARK minimizedRMSD -1
REMARK  1 active torsions:
REMARK  status: ('A' for Active; 'I' for Inactive)
REMARK    1  A    between atoms: C1_2  and  C2_3 
ROOT
ATOM      1  C2  UNL d   1       1.754  -2.643   0.907  0.00  0.00    -0.073 A 
ATOM      2  C3  UNL d   1       1.884  -1.850  -0.238  0.00  0.00    -0.002 A 
ATOM      3  C4  UNL d   1       1.106  -0.701  -0.392  0.00  0.00     0.004 A 
ATOM      4  C5  UNL d   1       0.197  -0.331   0.599  0.00  0.00    -0.004 A 
ATOM      5  C6  UNL d   1       0.061  -1.105   1.756  0.00  0.00    -0.075 A 
ATOM      6  C7  UNL d   1      -0.915  -0.722   2.830  0.00  0.00     0.076 C 
ATOM      7  C8  UNL d   1       0.843  -2.258   1.902  0.00  0.00     0.001 A 
ENDROOT
BRANCH   1   8
ATOM      8  C1  UNL d   1       2.596  -3.880   1.081  0.00  0.00     0.053 C 
ATOM      9  C   UNL d   1       3.808  -3.878   0.163  0.00  0.00     0.018 C 
ENDBRANCH   1   8
TORSDOF 1
ENDMDL
