MODEL 1
REMARK minimizedAffinity -5.37783194
REMARK minimizedRMSD -1
REMARK  1 active torsions:
REMARK  status: ('A' for Active; 'I' for Inactive)
REMARK    1  A    between atoms: C1_2  and  C2_3 
ROOT
ATOM      1  C2  UNL d   1       1.371  -1.806   1.105  0.00  0.00    -0.073 A 
ATOM      2  C3  UNL d   1       2.192  -0.982   0.327  0.00  0.00    -0.002 A 
ATOM      3  C4  UNL d   1       3.474  -1.401  -0.031  0.00  0.00     0.004 A 
ATOM      4  C5  UNL d   1       3.945  -2.648   0.378  0.00  0.00    -0.004 A 
ATOM      5  C6  UNL d   1       3.135  -3.491   1.146  0.00  0.00    -0.075 A 
ATOM      6  C7  UNL d   1       3.628  -4.835   1.596  0.00  0.00     0.076 C 
ATOM      7  C8  UNL d   1       1.850  -3.062   1.504  0.00  0.00     0.001 A 
ENDROOT
BRANCH   1   8
ATOM      8  C1  UNL d   1      -0.017  -1.361   1.489  0.00  0.00     0.053 C 
ATOM      9  C   UNL d   1      -0.118  -1.021   2.967  0.00  0.00     0.018 C 
ENDBRANCH   1   8
TORSDOF 1
ENDMDL
