MODEL 1
REMARK minimizedAffinity 0.0262138825
REMARK minimizedRMSD -1
REMARK  1 active torsions:
REMARK  status: ('A' for Active; 'I' for Inactive)
REMARK    1  A    between atoms: C1_2  and  C2_3 
ROOT
ATOM      1  C2  UNL d   1       1.263   0.395   0.102  0.00  0.00    -0.077 A 
ATOM      2  C3  UNL d   1       0.034   0.380   0.777  0.00  0.00     0.002 A 
ATOM      3  C4  UNL d   1      -0.042  -0.074   2.095  0.00  0.00     0.002 A 
ATOM      4  C5  UNL d   1       1.107  -0.512   2.750  0.00  0.00    -0.004 A 
ATOM      5  C6  UNL d   1       2.333  -0.503   2.087  0.00  0.00     0.002 A 
ATOM      6  C7  UNL d   1       2.411  -0.050   0.769  0.00  0.00     0.002 A 
ENDROOT
BRANCH   1   7
ATOM      7  C1  UNL d   1       1.356   0.931  -1.303  0.00  0.00     0.055 C 
ATOM      8  C   UNL d   1       1.926   2.342  -1.321  0.00  0.00     0.019 C 
ENDBRANCH   1   7
TORSDOF 1
ENDMDL
