MODEL 1
REMARK minimizedAffinity 3.06329465
REMARK minimizedRMSD -1
REMARK  1 active torsions:
REMARK  status: ('A' for Active; 'I' for Inactive)
REMARK    1  A    between atoms: C1_2  and  C2_3 
ROOT
ATOM      1  C2  UNL d   1       0.750   0.597   2.544  0.00  0.00    -0.077 A 
ATOM      2  C3  UNL d   1       1.781   0.469   3.485  0.00  0.00     0.002 A 
ATOM      3  C4  UNL d   1       2.970  -0.179   3.147  0.00  0.00     0.002 A 
ATOM      4  C5  UNL d   1       3.141  -0.701   1.866  0.00  0.00    -0.004 A 
ATOM      5  C6  UNL d   1       2.121  -0.580   0.923  0.00  0.00     0.002 A 
ATOM      6  C7  UNL d   1       0.931   0.067   1.260  0.00  0.00     0.002 A 
ENDROOT
BRANCH   1   7
ATOM      7  C1  UNL d   1      -0.514   1.339   2.892  0.00  0.00     0.055 C 
ATOM      8  C   UNL d   1      -1.739   0.653   2.305  0.00  0.00     0.019 C 
ENDBRANCH   1   7
TORSDOF 1
ENDMDL
