MODEL 1
REMARK minimizedAffinity 11.3114071
REMARK minimizedRMSD -1
REMARK  1 active torsions:
REMARK  status: ('A' for Active; 'I' for Inactive)
REMARK    1  A    between atoms: C1_2  and  C2_3 
ROOT
ATOM      1  C2  UNL d   1      -0.086   1.091   2.518  0.00  0.00    -0.077 A 
ATOM      2  C3  UNL d   1      -0.483  -0.182   2.085  0.00  0.00     0.002 A 
ATOM      3  C4  UNL d   1       0.254  -1.312   2.444  0.00  0.00     0.002 A 
ATOM      4  C5  UNL d   1       1.390  -1.181   3.240  0.00  0.00    -0.004 A 
ATOM      5  C6  UNL d   1       1.794   0.080   3.674  0.00  0.00     0.002 A 
ATOM      6  C7  UNL d   1       1.059   1.211   3.316  0.00  0.00     0.002 A 
ENDROOT
BRANCH   1   7
ATOM      7  C1  UNL d   1      -0.907   2.305   2.173  0.00  0.00     0.055 C 
ATOM      8  C   UNL d   1      -0.249   3.125   1.072  0.00  0.00     0.019 C 
ENDBRANCH   1   7
TORSDOF 1
ENDMDL
