MODEL 1
REMARK minimizedAffinity 9.25764656
REMARK minimizedRMSD -1
REMARK  1 active torsions:
REMARK  status: ('A' for Active; 'I' for Inactive)
REMARK    1  A    between atoms: C1_2  and  C2_3 
ROOT
ATOM      1  C2  UNL d   1       0.762  -1.409   3.681  0.00  0.00    -0.077 A 
ATOM      2  C3  UNL d   1       0.913  -1.565   2.296  0.00  0.00     0.002 A 
ATOM      3  C4  UNL d   1       0.780  -0.467   1.443  0.00  0.00     0.002 A 
ATOM      4  C5  UNL d   1       0.499   0.793   1.965  0.00  0.00    -0.004 A 
ATOM      5  C6  UNL d   1       0.345   0.958   3.341  0.00  0.00     0.002 A 
ATOM      6  C7  UNL d   1       0.477  -0.137   4.195  0.00  0.00     0.002 A 
ENDROOT
BRANCH   1   7
ATOM      7  C1  UNL d   1       0.955  -2.581   4.607  0.00  0.00     0.055 C 
ATOM      8  C   UNL d   1       2.383  -2.645   5.129  0.00  0.00     0.019 C 
ENDBRANCH   1   7
TORSDOF 1
ENDMDL
