MODEL 1
REMARK minimizedAffinity 3.71963644
REMARK minimizedRMSD -1
REMARK  1 active torsions:
REMARK  status: ('A' for Active; 'I' for Inactive)
REMARK    1  A    between atoms: C1_2  and  C2_3 
ROOT
ATOM      1  C2  UNL d   1       1.198   0.383   2.148  0.00  0.00    -0.077 A 
ATOM      2  C3  UNL d   1      -0.108  -0.123   2.090  0.00  0.00     0.002 A 
ATOM      3  C4  UNL d   1      -1.155   0.550   2.722  0.00  0.00     0.002 A 
ATOM      4  C5  UNL d   1      -0.907   1.734   3.413  0.00  0.00    -0.004 A 
ATOM      5  C6  UNL d   1       0.389   2.244   3.478  0.00  0.00     0.002 A 
ATOM      6  C7  UNL d   1       1.437   1.572   2.848  0.00  0.00     0.002 A 
ENDROOT
BRANCH   1   7
ATOM      7  C1  UNL d   1       2.320  -0.315   1.425  0.00  0.00     0.055 C 
ATOM      8  C   UNL d   1       1.931  -0.653  -0.007  0.00  0.00     0.019 C 
ENDBRANCH   1   7
TORSDOF 1
ENDMDL
