MODEL 1
REMARK minimizedAffinity 11.6713161
REMARK minimizedRMSD -1
REMARK  1 active torsions:
REMARK  status: ('A' for Active; 'I' for Inactive)
REMARK    1  A    between atoms: C1_2  and  C2_3 
ROOT
ATOM      1  C2  UNL d   1      -1.302  -4.990  -2.866  0.00  0.00    -0.077 A 
ATOM      2  C3  UNL d   1      -2.163  -4.884  -3.967  0.00  0.00     0.002 A 
ATOM      3  C4  UNL d   1      -1.713  -5.207  -5.249  0.00  0.00     0.002 A 
ATOM      4  C5  UNL d   1      -0.403  -5.640  -5.440  0.00  0.00    -0.004 A 
ATOM      5  C6  UNL d   1       0.462  -5.747  -4.351  0.00  0.00     0.002 A 
ATOM      6  C7  UNL d   1       0.014  -5.424  -3.070  0.00  0.00     0.002 A 
ENDROOT
BRANCH   1   7
ATOM      7  C1  UNL d   1      -1.800  -4.690  -1.476  0.00  0.00     0.055 C 
ATOM      8  C   UNL d   1      -1.516  -3.247  -1.086  0.00  0.00     0.019 C 
ENDBRANCH   1   7
TORSDOF 1
ENDMDL
