MODEL 1
REMARK minimizedAffinity 4.44189072
REMARK minimizedRMSD -1
REMARK  1 active torsions:
REMARK  status: ('A' for Active; 'I' for Inactive)
REMARK    1  A    between atoms: C1_2  and  C2_3 
ROOT
ATOM      1  C2  UNL d   1      -1.179  -3.562  -2.410  0.00  0.00    -0.077 A 
ATOM      2  C3  UNL d   1      -0.882  -4.912  -2.641  0.00  0.00     0.002 A 
ATOM      3  C4  UNL d   1      -1.204  -5.506  -3.863  0.00  0.00     0.002 A 
ATOM      4  C5  UNL d   1      -1.821  -4.758  -4.863  0.00  0.00    -0.004 A 
ATOM      5  C6  UNL d   1      -2.122  -3.415  -4.641  0.00  0.00     0.002 A 
ATOM      6  C7  UNL d   1      -1.802  -2.819  -3.421  0.00  0.00     0.002 A 
ENDROOT
BRANCH   1   7
ATOM      7  C1  UNL d   1      -0.788  -2.906  -1.111  0.00  0.00     0.055 C 
ATOM      8  C   UNL d   1      -2.013  -2.492  -0.309  0.00  0.00     0.019 C 
ENDBRANCH   1   7
TORSDOF 1
ENDMDL
