MODEL 1
REMARK minimizedAffinity 11.5416403
REMARK minimizedRMSD -1
REMARK  1 active torsions:
REMARK  status: ('A' for Active; 'I' for Inactive)
REMARK    1  A    between atoms: C1_2  and  C2_3 
ROOT
ATOM      1  C2  UNL d   1       3.384   3.654   5.375  0.00  0.00    -0.077 A 
ATOM      2  C3  UNL d   1       4.323   2.821   5.999  0.00  0.00     0.002 A 
ATOM      3  C4  UNL d   1       5.592   2.646   5.443  0.00  0.00     0.002 A 
ATOM      4  C5  UNL d   1       5.934   3.304   4.264  0.00  0.00    -0.004 A 
ATOM      5  C6  UNL d   1       5.007   4.134   3.635  0.00  0.00     0.002 A 
ATOM      6  C7  UNL d   1       3.738   4.309   4.188  0.00  0.00     0.002 A 
ENDROOT
BRANCH   1   7
ATOM      7  C1  UNL d   1       2.032   3.883   5.999  0.00  0.00     0.055 C 
ATOM      8  C   UNL d   1       1.177   2.626   5.944  0.00  0.00     0.019 C 
ENDBRANCH   1   7
TORSDOF 1
ENDMDL
