MODEL 1
REMARK minimizedAffinity 8.96960449
REMARK minimizedRMSD -1
REMARK  1 active torsions:
REMARK  status: ('A' for Active; 'I' for Inactive)
REMARK    1  A    between atoms: C1_2  and  C2_3 
ROOT
ATOM      1  C2  UNL d   1      -5.632   3.841  -0.458  0.00  0.00    -0.077 A 
ATOM      2  C3  UNL d   1      -5.133   3.015  -1.475  0.00  0.00     0.002 A 
ATOM      3  C4  UNL d   1      -5.004   1.640  -1.268  0.00  0.00     0.002 A 
ATOM      4  C5  UNL d   1      -5.375   1.080  -0.048  0.00  0.00    -0.004 A 
ATOM      5  C6  UNL d   1      -5.871   1.894   0.970  0.00  0.00     0.002 A 
ATOM      6  C7  UNL d   1      -5.999   3.268   0.766  0.00  0.00     0.002 A 
ENDROOT
BRANCH   1   7
ATOM      7  C1  UNL d   1      -5.818   5.317  -0.697  0.00  0.00     0.055 C 
ATOM      8  C   UNL d   1      -4.494   6.000  -1.004  0.00  0.00     0.019 C 
ENDBRANCH   1   7
TORSDOF 1
ENDMDL
