MODEL 1
REMARK minimizedAffinity -5.6503911
REMARK minimizedRMSD -1
REMARK  0 active torsions:
REMARK  status: ('A' for Active; 'I' for Inactive)
ROOT
ATOM      1  C   UNL d   1      -0.184  -2.474  -2.266  0.00  0.00     0.020 A 
ATOM      2  C1  UNL d   1      -0.752  -3.301  -1.298  0.00  0.00     0.020 A 
ATOM      3  C2  UNL d   1      -1.026  -2.800  -0.024  0.00  0.00     0.034 A 
ATOM      4  C3  UNL d   1      -0.731  -1.467   0.286  0.00  0.00     0.017 A 
ATOM      5  C4  UNL d   1      -0.161  -0.637  -0.686  0.00  0.00     0.017 A 
ATOM      6  C5  UNL d   1       0.111  -1.145  -1.961  0.00  0.00     0.034 A 
ATOM      7 Cl   UNL d   1       0.230   1.018  -0.379  0.00  0.00    -0.070 Cl
ATOM      8 Cl1  UNL d   1      -1.096  -0.913   1.881  0.00  0.00    -0.070 Cl
ENDROOT
TORSDOF 0
ENDMDL
