MODEL 1
REMARK minimizedAffinity -1.7990731
REMARK minimizedRMSD -1
REMARK  0 active torsions:
REMARK  status: ('A' for Active; 'I' for Inactive)
ROOT
ATOM      1  C   UNL d   1      -0.607  -0.032   2.376  0.00  0.00     0.020 A 
ATOM      2  C1  UNL d   1      -0.928  -0.989   1.414  0.00  0.00     0.020 A 
ATOM      3  C2  UNL d   1      -0.648  -0.746   0.067  0.00  0.00     0.034 A 
ATOM      4  C3  UNL d   1      -0.046   0.457  -0.321  0.00  0.00     0.017 A 
ATOM      5  C4  UNL d   1       0.275   1.416   0.646  0.00  0.00     0.017 A 
ATOM      6  C5  UNL d   1      -0.007   1.168   1.993  0.00  0.00     0.034 A 
ATOM      7 Cl   UNL d   1       1.020   2.924   0.244  0.00  0.00    -0.070 Cl
ATOM      8 Cl1  UNL d   1       0.271   0.690  -2.003  0.00  0.00    -0.070 Cl
ENDROOT
TORSDOF 0
ENDMDL
