MODEL 1
REMARK minimizedAffinity -2.93362689
REMARK minimizedRMSD -1
REMARK  0 active torsions:
REMARK  status: ('A' for Active; 'I' for Inactive)
ROOT
ATOM      1  C   UNL d   1       0.040  -1.264   0.367  0.00  0.00     0.020 A 
ATOM      2  C1  UNL d   1       0.095  -0.487   1.523  0.00  0.00     0.020 A 
ATOM      3  C2  UNL d   1       0.236   0.899   1.428  0.00  0.00     0.034 A 
ATOM      4  C3  UNL d   1       0.321   1.513   0.173  0.00  0.00     0.017 A 
ATOM      5  C4  UNL d   1       0.264   0.732  -0.988  0.00  0.00     0.017 A 
ATOM      6  C5  UNL d   1       0.124  -0.655  -0.886  0.00  0.00     0.034 A 
ATOM      7 Cl   UNL d   1       0.363   1.418  -2.571  0.00  0.00    -0.070 Cl
ATOM      8 Cl1  UNL d   1       0.493   3.231   0.129  0.00  0.00    -0.070 Cl
ENDROOT
TORSDOF 0
ENDMDL
