MODEL 1
REMARK minimizedAffinity -2.42381501
REMARK minimizedRMSD -1
REMARK  0 active torsions:
REMARK  status: ('A' for Active; 'I' for Inactive)
ROOT
ATOM      1  C   UNL d   1      -1.421  -1.131  -0.243  0.00  0.00     0.020 A 
ATOM      2  C1  UNL d   1      -1.433  -1.968   0.872  0.00  0.00     0.020 A 
ATOM      3  C2  UNL d   1      -0.814  -1.563   2.056  0.00  0.00     0.034 A 
ATOM      4  C3  UNL d   1      -0.179  -0.318   2.127  0.00  0.00     0.017 A 
ATOM      5  C4  UNL d   1      -0.167   0.521   1.008  0.00  0.00     0.017 A 
ATOM      6  C5  UNL d   1      -0.789   0.111  -0.175  0.00  0.00     0.034 A 
ATOM      7 Cl   UNL d   1       0.597   2.072   1.020  0.00  0.00    -0.070 Cl
ATOM      8 Cl1  UNL d   1       0.567   0.118   3.624  0.00  0.00    -0.070 Cl
ENDROOT
TORSDOF 0
ENDMDL
