MODEL 1
REMARK minimizedAffinity -3.22833276
REMARK minimizedRMSD -1
REMARK  0 active torsions:
REMARK  status: ('A' for Active; 'I' for Inactive)
ROOT
ATOM      1  C   UNL d   1      -0.947  -1.566   1.154  0.00  0.00     0.020 A 
ATOM      2  C1  UNL d   1      -0.686  -0.204   1.008  0.00  0.00     0.020 A 
ATOM      3  C2  UNL d   1      -0.336   0.310  -0.242  0.00  0.00     0.034 A 
ATOM      4  C3  UNL d   1      -0.246  -0.538  -1.352  0.00  0.00     0.017 A 
ATOM      5  C4  UNL d   1      -0.509  -1.905  -1.205  0.00  0.00     0.017 A 
ATOM      6  C5  UNL d   1      -0.859  -2.414   0.049  0.00  0.00     0.034 A 
ATOM      7 Cl   UNL d   1      -0.418  -3.013  -2.528  0.00  0.00    -0.070 Cl
ATOM      8 Cl1  UNL d   1       0.192   0.167  -2.868  0.00  0.00    -0.070 Cl
ENDROOT
TORSDOF 0
ENDMDL
