MODEL 1
REMARK minimizedAffinity -3.9279635
REMARK minimizedRMSD -1
REMARK  0 active torsions:
REMARK  status: ('A' for Active; 'I' for Inactive)
ROOT
ATOM      1  C   UNL d   1      -0.162  -2.510  -1.730  0.00  0.00     0.020 A 
ATOM      2  C1  UNL d   1      -0.682  -3.178  -0.622  0.00  0.00     0.020 A 
ATOM      3  C2  UNL d   1      -0.955  -2.474   0.553  0.00  0.00     0.034 A 
ATOM      4  C3  UNL d   1      -0.708  -1.098   0.622  0.00  0.00     0.017 A 
ATOM      5  C4  UNL d   1      -0.186  -0.428  -0.491  0.00  0.00     0.017 A 
ATOM      6  C5  UNL d   1       0.086  -1.138  -1.664  0.00  0.00     0.034 A 
ATOM      7 Cl   UNL d   1       0.145   1.268  -0.481  0.00  0.00    -0.070 Cl
ATOM      8 Cl1  UNL d   1      -1.070  -0.290   2.106  0.00  0.00    -0.070 Cl
ENDROOT
TORSDOF 0
ENDMDL
