MODEL 1
REMARK minimizedAffinity -2.28883338
REMARK minimizedRMSD -1
REMARK  0 active torsions:
REMARK  status: ('A' for Active; 'I' for Inactive)
ROOT
ATOM      1  C   UNL d   1      -0.835  -0.595   1.457  0.00  0.00     0.020 A 
ATOM      2  C1  UNL d   1      -0.981  -1.956   1.193  0.00  0.00     0.020 A 
ATOM      3  C2  UNL d   1      -0.721  -2.451  -0.087  0.00  0.00     0.034 A 
ATOM      4  C3  UNL d   1      -0.312  -1.584  -1.107  0.00  0.00     0.017 A 
ATOM      5  C4  UNL d   1      -0.166  -0.218  -0.841  0.00  0.00     0.017 A 
ATOM      6  C5  UNL d   1      -0.428   0.272   0.442  0.00  0.00     0.034 A 
ATOM      7 Cl   UNL d   1       0.334   0.913  -2.049  0.00  0.00    -0.070 Cl
ATOM      8 Cl1  UNL d   1      -0.007  -2.265  -2.666  0.00  0.00    -0.070 Cl
ENDROOT
TORSDOF 0
ENDMDL
