MODEL 1
REMARK minimizedAffinity -2.20256329
REMARK minimizedRMSD -1
REMARK  0 active torsions:
REMARK  status: ('A' for Active; 'I' for Inactive)
ROOT
ATOM      1  C   UNL d   1      -0.222  -2.292  -1.623  0.00  0.00     0.020 A 
ATOM      2  C1  UNL d   1      -0.732  -2.989  -0.529  0.00  0.00     0.020 A 
ATOM      3  C2  UNL d   1      -0.982  -2.319   0.671  0.00  0.00     0.034 A 
ATOM      4  C3  UNL d   1      -0.721  -0.949   0.779  0.00  0.00     0.017 A 
ATOM      5  C4  UNL d   1      -0.208  -0.250  -0.320  0.00  0.00     0.017 A 
ATOM      6  C5  UNL d   1       0.040  -0.926  -1.519  0.00  0.00     0.034 A 
ATOM      7 Cl   UNL d   1       0.140   1.442  -0.263  0.00  0.00    -0.070 Cl
ATOM      8 Cl1  UNL d   1      -1.053  -0.184   2.293  0.00  0.00    -0.070 Cl
ENDROOT
TORSDOF 0
ENDMDL
