MODEL 1
REMARK minimizedAffinity -3.37210369
REMARK minimizedRMSD -1
REMARK  0 active torsions:
REMARK  status: ('A' for Active; 'I' for Inactive)
ROOT
ATOM      1  C   UNL d   1      -1.019  -1.242   1.283  0.00  0.00     0.020 A 
ATOM      2  C1  UNL d   1      -0.660   0.021   0.814  0.00  0.00     0.020 A 
ATOM      3  C2  UNL d   1      -0.260   0.185  -0.514  0.00  0.00     0.034 A 
ATOM      4  C3  UNL d   1      -0.217  -0.916  -1.377  0.00  0.00     0.017 A 
ATOM      5  C4  UNL d   1      -0.577  -2.183  -0.905  0.00  0.00     0.017 A 
ATOM      6  C5  UNL d   1      -0.978  -2.342   0.425  0.00  0.00     0.034 A 
ATOM      7 Cl   UNL d   1      -0.550  -3.589  -1.911  0.00  0.00    -0.070 Cl
ATOM      8 Cl1  UNL d   1       0.287  -0.640  -3.006  0.00  0.00    -0.070 Cl
ENDROOT
TORSDOF 0
ENDMDL
