MODEL 1
REMARK minimizedAffinity -3.02720308
REMARK minimizedRMSD -1
REMARK  0 active torsions:
REMARK  status: ('A' for Active; 'I' for Inactive)
ROOT
ATOM      1  C   UNL d   1      -0.772  -2.922  -0.491  0.00  0.00     0.020 A 
ATOM      2  C1  UNL d   1      -0.044  -2.307  -1.508  0.00  0.00     0.020 A 
ATOM      3  C2  UNL d   1       0.267  -0.948  -1.421  0.00  0.00     0.034 A 
ATOM      4  C3  UNL d   1      -0.151  -0.200  -0.314  0.00  0.00     0.017 A 
ATOM      5  C4  UNL d   1      -0.882  -0.819   0.707  0.00  0.00     0.017 A 
ATOM      6  C5  UNL d   1      -1.190  -2.180   0.614  0.00  0.00     0.034 A 
ATOM      7 Cl   UNL d   1      -1.432   0.038   2.103  0.00  0.00    -0.070 Cl
ATOM      8 Cl1  UNL d   1       0.268   1.475  -0.272  0.00  0.00    -0.070 Cl
ENDROOT
TORSDOF 0
ENDMDL
