MODEL 1
REMARK minimizedAffinity -2.38607383
REMARK minimizedRMSD -1
REMARK  0 active torsions:
REMARK  status: ('A' for Active; 'I' for Inactive)
ROOT
ATOM      1  C   UNL d   1      -1.045  -3.060  -0.639  0.00  0.00     0.020 A 
ATOM      2  C1  UNL d   1      -0.455  -2.532  -1.787  0.00  0.00     0.020 A 
ATOM      3  C2  UNL d   1       0.055  -1.232  -1.775  0.00  0.00     0.034 A 
ATOM      4  C3  UNL d   1      -0.024  -0.455  -0.613  0.00  0.00     0.017 A 
ATOM      5  C4  UNL d   1      -0.617  -0.986   0.538  0.00  0.00     0.017 A 
ATOM      6  C5  UNL d   1      -1.126  -2.288   0.521  0.00  0.00     0.034 A 
ATOM      7 Cl   UNL d   1      -0.751  -0.089   2.010  0.00  0.00    -0.070 Cl
ATOM      8 Cl1  UNL d   1       0.627   1.144  -0.670  0.00  0.00    -0.070 Cl
ENDROOT
TORSDOF 0
ENDMDL
