MODEL 1
REMARK minimizedAffinity -2.1198225
REMARK minimizedRMSD -1
REMARK  0 active torsions:
REMARK  status: ('A' for Active; 'I' for Inactive)
ROOT
ATOM      1  C   UNL d   1       0.238   1.283  -0.658  0.00  0.00     0.020 A 
ATOM      2  C1  UNL d   1      -0.245   0.857   0.578  0.00  0.00     0.020 A 
ATOM      3  C2  UNL d   1      -0.531  -0.494   0.787  0.00  0.00     0.034 A 
ATOM      4  C3  UNL d   1      -0.335  -1.423  -0.241  0.00  0.00     0.017 A 
ATOM      5  C4  UNL d   1       0.150  -0.994  -1.482  0.00  0.00     0.017 A 
ATOM      6  C5  UNL d   1       0.435   0.360  -1.686  0.00  0.00     0.034 A 
ATOM      7 Cl   UNL d   1       0.418  -2.081  -2.798  0.00  0.00    -0.070 Cl
ATOM      8 Cl1  UNL d   1      -0.709  -3.077   0.088  0.00  0.00    -0.070 Cl
ENDROOT
TORSDOF 0
ENDMDL
