MODEL 1
REMARK minimizedAffinity -2.92738414
REMARK minimizedRMSD -1
REMARK  0 active torsions:
REMARK  status: ('A' for Active; 'I' for Inactive)
ROOT
ATOM      1  C   UNL d   1      -0.541  -0.887   1.341  0.00  0.00     0.020 A 
ATOM      2  C1  UNL d   1      -0.536  -2.268   1.153  0.00  0.00     0.020 A 
ATOM      3  C2  UNL d   1      -0.423  -2.797  -0.134  0.00  0.00     0.034 A 
ATOM      4  C3  UNL d   1      -0.313  -1.945  -1.239  0.00  0.00     0.017 A 
ATOM      5  C4  UNL d   1      -0.318  -0.558  -1.049  0.00  0.00     0.017 A 
ATOM      6  C5  UNL d   1      -0.432  -0.033   0.242  0.00  0.00     0.034 A 
ATOM      7 Cl   UNL d   1      -0.188   0.558  -2.363  0.00  0.00    -0.070 Cl
ATOM      8 Cl1  UNL d   1      -0.176  -2.668  -2.802  0.00  0.00    -0.070 Cl
ENDROOT
TORSDOF 0
ENDMDL
