MODEL 1
REMARK minimizedAffinity -1.03110981
REMARK minimizedRMSD -1
REMARK  0 active torsions:
REMARK  status: ('A' for Active; 'I' for Inactive)
ROOT
ATOM      1  C   UNL d   1      -1.059  -0.610   1.662  0.00  0.00     0.020 A 
ATOM      2  C1  UNL d   1      -1.230  -1.978   1.454  0.00  0.00     0.020 A 
ATOM      3  C2  UNL d   1      -1.025  -2.522   0.185  0.00  0.00     0.034 A 
ATOM      4  C3  UNL d   1      -0.648  -1.698  -0.882  0.00  0.00     0.017 A 
ATOM      5  C4  UNL d   1      -0.476  -0.325  -0.672  0.00  0.00     0.017 A 
ATOM      6  C5  UNL d   1      -0.682   0.215   0.601  0.00  0.00     0.034 A 
ATOM      7 Cl   UNL d   1      -0.011   0.756  -1.939  0.00  0.00    -0.070 Cl
ATOM      8 Cl1  UNL d   1      -0.411  -2.438  -2.425  0.00  0.00    -0.070 Cl
ENDROOT
TORSDOF 0
ENDMDL
