MODEL 1
REMARK minimizedAffinity -4.17446661
REMARK minimizedRMSD -1
REMARK  0 active torsions:
REMARK  status: ('A' for Active; 'I' for Inactive)
ROOT
ATOM      1  C   UNL d   1      -0.671  -0.150   1.506  0.00  0.00     0.020 A 
ATOM      2  C1  UNL d   1      -1.006  -1.498   1.626  0.00  0.00     0.020 A 
ATOM      3  C2  UNL d   1      -1.071  -2.305   0.488  0.00  0.00     0.034 A 
ATOM      4  C3  UNL d   1      -0.800  -1.765  -0.774  0.00  0.00     0.017 A 
ATOM      5  C4  UNL d   1      -0.464  -0.412  -0.894  0.00  0.00     0.017 A 
ATOM      6  C5  UNL d   1      -0.400   0.392   0.249  0.00  0.00     0.034 A 
ATOM      7 Cl   UNL d   1      -0.117   0.326  -2.417  0.00  0.00    -0.070 Cl
ATOM      8 Cl1  UNL d   1      -0.899  -2.821  -2.138  0.00  0.00    -0.070 Cl
ENDROOT
TORSDOF 0
ENDMDL
