MODEL 1
REMARK minimizedAffinity -1.66532671
REMARK minimizedRMSD -1
REMARK  3 active torsions:
REMARK  status: ('A' for Active; 'I' for Inactive)
REMARK    1  A    between atoms: C3'_2  and  C2'_3 
REMARK    2  A    between atoms: C2'_3  and  C1'_4 
REMARK    3  A    between atoms: C1'_4  and  C1_5 
ROOT
ATOM      1  C1  N4B d   1       0.802   0.215   0.590  0.00  0.00    -0.075 A 
ATOM      2  C2  N4B d   1       2.094   0.626   0.193  0.00  0.00     0.002 A 
ATOM      3  C3  N4B d   1       2.696   0.043  -0.895  0.00  0.00     0.002 A 
ATOM      4  C4  N4B d   1       2.037  -0.963  -1.586  0.00  0.00    -0.004 A 
ATOM      5  C5  N4B d   1       0.779  -1.336  -1.212  0.00  0.00     0.002 A 
ATOM      6  C6  N4B d   1       0.160  -0.756  -0.123  0.00  0.00     0.002 A 
ENDROOT
BRANCH   1   7
ATOM      7  C1' N4B d   1       0.139   0.763   1.824  0.00  0.00     0.057 C 
BRANCH   7   8
ATOM      8  C2' N4B d   1      -0.986  -0.177   2.247  0.00  0.00     0.009 C 
BRANCH   8   9
ATOM      9  C3' N4B d   1      -2.045   0.538   3.069  0.00  0.00     0.004 C 
ATOM     10  C4' N4B d   1      -1.780   2.008   3.205  0.00  0.00     0.003 C 
ENDBRANCH   8   9
ENDBRANCH   7   8
ENDBRANCH   1   7
TORSDOF 3
ENDMDL
