MODEL 1
REMARK minimizedAffinity -3.58584261
REMARK minimizedRMSD -1
REMARK  3 active torsions:
REMARK  status: ('A' for Active; 'I' for Inactive)
REMARK    1  A    between atoms: C3'_2  and  C2'_3 
REMARK    2  A    between atoms: C2'_3  and  C1'_4 
REMARK    3  A    between atoms: C1'_4  and  C1_5 
ROOT
ATOM      1  C1  N4B d   1      -3.011   4.033   4.412  0.00  0.00    -0.075 A 
ATOM      2  C2  N4B d   1      -3.461   4.185   5.742  0.00  0.00     0.002 A 
ATOM      3  C3  N4B d   1      -4.628   4.861   5.999  0.00  0.00     0.002 A 
ATOM      4  C4  N4B d   1      -5.350   5.407   4.949  0.00  0.00    -0.004 A 
ATOM      5  C5  N4B d   1      -4.923   5.234   3.665  0.00  0.00     0.002 A 
ATOM      6  C6  N4B d   1      -3.753   4.554   3.391  0.00  0.00     0.002 A 
ENDROOT
BRANCH   1   7
ATOM      7  C1' N4B d   1      -1.697   3.377   4.088  0.00  0.00     0.057 C 
BRANCH   7   8
ATOM      8  C2' N4B d   1      -1.909   2.356   2.974  0.00  0.00     0.009 C 
BRANCH   8   9
ATOM      9  C3' N4B d   1      -1.451   0.966   3.383  0.00  0.00     0.004 C 
ATOM     10  C4' N4B d   1      -2.563  -0.040   3.366  0.00  0.00     0.003 C 
ENDBRANCH   8   9
ENDBRANCH   7   8
ENDBRANCH   1   7
TORSDOF 3
ENDMDL
