MODEL 1
REMARK minimizedAffinity -2.65145397
REMARK minimizedRMSD -1
REMARK  3 active torsions:
REMARK  status: ('A' for Active; 'I' for Inactive)
REMARK    1  A    between atoms: C3'_2  and  C2'_3 
REMARK    2  A    between atoms: C2'_3  and  C1'_4 
REMARK    3  A    between atoms: C1'_4  and  C1_5 
ROOT
ATOM      1  C1  N4B d   1       0.524  -0.968  -0.034  0.00  0.00    -0.075 A 
ATOM      2  C2  N4B d   1       0.764  -1.607  -1.271  0.00  0.00     0.002 A 
ATOM      3  C3  N4B d   1       1.965  -1.430  -1.913  0.00  0.00     0.002 A 
ATOM      4  C4  N4B d   1       2.930  -0.609  -1.349  0.00  0.00    -0.004 A 
ATOM      5  C5  N4B d   1       2.700  -0.017  -0.142  0.00  0.00     0.002 A 
ATOM      6  C6  N4B d   1       1.499  -0.188   0.516  0.00  0.00     0.002 A 
ENDROOT
BRANCH   1   7
ATOM      7  C1' N4B d   1      -0.805  -1.062   0.663  0.00  0.00     0.057 C 
BRANCH   7   8
ATOM      8  C2' N4B d   1      -1.506   0.291   0.589  0.00  0.00     0.009 C 
BRANCH   8   9
ATOM      9  C3' N4B d   1      -1.627   0.790  -0.841  0.00  0.00     0.004 C 
ATOM     10  C4' N4B d   1      -0.634   1.866  -1.166  0.00  0.00     0.003 C 
ENDBRANCH   8   9
ENDBRANCH   7   8
ENDBRANCH   1   7
TORSDOF 3
ENDMDL
