MODEL 1
REMARK minimizedAffinity -4.47207069
REMARK minimizedRMSD -1
REMARK  3 active torsions:
REMARK  status: ('A' for Active; 'I' for Inactive)
REMARK    1  A    between atoms: C3'_2  and  C2'_3 
REMARK    2  A    between atoms: C2'_3  and  C1'_4 
REMARK    3  A    between atoms: C1'_4  and  C1_5 
ROOT
ATOM      1  C1  N4B d   1       0.074   0.212   0.300  0.00  0.00    -0.075 A 
ATOM      2  C2  N4B d   1      -0.078  -1.168   0.040  0.00  0.00     0.002 A 
ATOM      3  C3  N4B d   1       0.860  -1.832  -0.712  0.00  0.00     0.002 A 
ATOM      4  C4  N4B d   1       1.944  -1.136  -1.227  0.00  0.00    -0.004 A 
ATOM      5  C5  N4B d   1       2.097   0.190  -0.950  0.00  0.00     0.002 A 
ATOM      6  C6  N4B d   1       1.164   0.870  -0.192  0.00  0.00     0.002 A 
ENDROOT
BRANCH   1   7
ATOM      7  C1' N4B d   1      -0.970   0.999   1.044  0.00  0.00     0.057 C 
BRANCH   7   8
ATOM      8  C2' N4B d   1      -1.831   0.041   1.862  0.00  0.00     0.009 C 
BRANCH   8   9
ATOM      9  C3' N4B d   1      -2.046   0.540   3.281  0.00  0.00     0.004 C 
ATOM     10  C4' N4B d   1      -1.370   1.852   3.543  0.00  0.00     0.003 C 
ENDBRANCH   8   9
ENDBRANCH   7   8
ENDBRANCH   1   7
TORSDOF 3
ENDMDL
