MODEL 1
REMARK minimizedAffinity -3.87005901
REMARK minimizedRMSD -1
REMARK  3 active torsions:
REMARK  status: ('A' for Active; 'I' for Inactive)
REMARK    1  A    between atoms: C3'_2  and  C2'_3 
REMARK    2  A    between atoms: C2'_3  and  C1'_4 
REMARK    3  A    between atoms: C1'_4  and  C1_5 
ROOT
ATOM      1  C1  N4B d   1       0.119  -0.232  -0.057  0.00  0.00    -0.075 A 
ATOM      2  C2  N4B d   1       0.278  -1.449  -0.755  0.00  0.00     0.002 A 
ATOM      3  C3  N4B d   1       1.514  -1.809  -1.234  0.00  0.00     0.002 A 
ATOM      4  C4  N4B d   1       2.596  -0.963  -1.044  0.00  0.00    -0.004 A 
ATOM      5  C5  N4B d   1       2.439   0.199  -0.347  0.00  0.00     0.002 A 
ATOM      6  C6  N4B d   1       1.204   0.571   0.144  0.00  0.00     0.002 A 
ENDROOT
BRANCH   1   7
ATOM      7  C1' N4B d   1      -1.229   0.244   0.411  0.00  0.00     0.057 C 
BRANCH   7   8
ATOM      8  C2' N4B d   1      -1.088   0.863   1.798  0.00  0.00     0.009 C 
BRANCH   8   9
ATOM      9  C3' N4B d   1      -2.213   0.438   2.727  0.00  0.00     0.004 C 
ATOM     10  C4' N4B d   1      -2.211   1.192   4.024  0.00  0.00     0.003 C 
ENDBRANCH   8   9
ENDBRANCH   7   8
ENDBRANCH   1   7
TORSDOF 3
ENDMDL
