MODEL 1
REMARK minimizedAffinity -5.87210417
REMARK minimizedRMSD -1
REMARK  3 active torsions:
REMARK  status: ('A' for Active; 'I' for Inactive)
REMARK    1  A    between atoms: C3'_2  and  C2'_3 
REMARK    2  A    between atoms: C2'_3  and  C1'_4 
REMARK    3  A    between atoms: C1'_4  and  C1_5 
ROOT
ATOM      1  C1  N4B d   1       0.408   0.339   0.098  0.00  0.00    -0.075 A 
ATOM      2  C2  N4B d   1       0.338  -1.017  -0.289  0.00  0.00     0.002 A 
ATOM      3  C3  N4B d   1       1.293  -1.543  -1.124  0.00  0.00     0.002 A 
ATOM      4  C4  N4B d   1       2.313  -0.731  -1.597  0.00  0.00    -0.004 A 
ATOM      5  C5  N4B d   1       2.388   0.571  -1.198  0.00  0.00     0.002 A 
ATOM      6  C6  N4B d   1       1.437   1.112  -0.357  0.00  0.00     0.002 A 
ENDROOT
BRANCH   1   7
ATOM      7  C1' N4B d   1      -0.661   0.981   0.939  0.00  0.00     0.057 C 
BRANCH   7   8
ATOM      8  C2' N4B d   1      -1.653  -0.087   1.389  0.00  0.00     0.009 C 
BRANCH   8   9
ATOM      9  C3' N4B d   1      -2.276   0.247   2.734  0.00  0.00     0.004 C 
ATOM     10  C4' N4B d   1      -1.932   1.628   3.207  0.00  0.00     0.003 C 
ENDBRANCH   8   9
ENDBRANCH   7   8
ENDBRANCH   1   7
TORSDOF 3
ENDMDL
