MODEL 1
REMARK minimizedAffinity -5.48771763
REMARK minimizedRMSD -1
REMARK  3 active torsions:
REMARK  status: ('A' for Active; 'I' for Inactive)
REMARK    1  A    between atoms: C3'_2  and  C2'_3 
REMARK    2  A    between atoms: C2'_3  and  C1'_4 
REMARK    3  A    between atoms: C1'_4  and  C1_5 
ROOT
ATOM      1  C1  N4B d   1      -1.253   0.606   1.104  0.00  0.00    -0.075 A 
ATOM      2  C2  N4B d   1      -0.806   1.872   1.543  0.00  0.00     0.002 A 
ATOM      3  C3  N4B d   1      -1.340   2.434   2.676  0.00  0.00     0.002 A 
ATOM      4  C4  N4B d   1      -2.332   1.760   3.374  0.00  0.00    -0.004 A 
ATOM      5  C5  N4B d   1      -2.740   0.527   2.958  0.00  0.00     0.002 A 
ATOM      6  C6  N4B d   1      -2.209  -0.052   1.822  0.00  0.00     0.002 A 
ENDROOT
BRANCH   1   7
ATOM      7  C1' N4B d   1      -0.760  -0.011  -0.177  0.00  0.00     0.057 C 
BRANCH   7   8
ATOM      8  C2' N4B d   1       0.675  -0.490   0.018  0.00  0.00     0.009 C 
BRANCH   8   9
ATOM      9  C3' N4B d   1       1.606   0.053  -1.052  0.00  0.00     0.004 C 
ATOM     10  C4' N4B d   1       2.631  -0.949  -1.494  0.00  0.00     0.003 C 
ENDBRANCH   8   9
ENDBRANCH   7   8
ENDBRANCH   1   7
TORSDOF 3
ENDMDL
