MODEL 1
REMARK minimizedAffinity -3.36968613
REMARK minimizedRMSD -1
REMARK  3 active torsions:
REMARK  status: ('A' for Active; 'I' for Inactive)
REMARK    1  A    between atoms: C3'_2  and  C2'_3 
REMARK    2  A    between atoms: C2'_3  and  C1'_4 
REMARK    3  A    between atoms: C1'_4  and  C1_5 
ROOT
ATOM      1  C1  N4B d   1      -1.640   0.433   0.675  0.00  0.00    -0.075 A 
ATOM      2  C2  N4B d   1      -1.326   1.524  -0.165  0.00  0.00     0.002 A 
ATOM      3  C3  N4B d   1      -0.186   1.494  -0.932  0.00  0.00     0.002 A 
ATOM      4  C4  N4B d   1       0.660   0.397  -0.860  0.00  0.00    -0.004 A 
ATOM      5  C5  N4B d   1       0.336  -0.663  -0.065  0.00  0.00     0.002 A 
ATOM      6  C6  N4B d   1      -0.808  -0.648   0.707  0.00  0.00     0.002 A 
ENDROOT
BRANCH   1   7
ATOM      7  C1' N4B d   1      -2.830   0.457   1.596  0.00  0.00     0.057 C 
BRANCH   7   8
ATOM      8  C2' N4B d   1      -2.344   0.435   3.042  0.00  0.00     0.009 C 
BRANCH   8   9
ATOM      9  C3' N4B d   1      -2.598   1.756   3.747  0.00  0.00     0.004 C 
ATOM     10  C4' N4B d   1      -1.517   2.765   3.497  0.00  0.00     0.003 C 
ENDBRANCH   8   9
ENDBRANCH   7   8
ENDBRANCH   1   7
TORSDOF 3
ENDMDL
