MODEL 1
REMARK minimizedAffinity 2.89849472
REMARK minimizedRMSD -1
REMARK  2 active torsions:
REMARK  status: ('A' for Active; 'I' for Inactive)
REMARK    1  A    between atoms: C1_2  and  C2_3 
REMARK    2  A    between atoms: C2_3  and  C3_4 
ROOT
ATOM      1  C3  UNL d   1       1.522  -1.205  -0.323  0.00  0.00    -0.075 A 
ATOM      2  C4  UNL d   1       0.277  -1.501  -0.896  0.00  0.00     0.002 A 
ATOM      3  C5  UNL d   1      -0.293  -2.765  -0.740  0.00  0.00     0.002 A 
ATOM      4  C6  UNL d   1       0.378  -3.750  -0.018  0.00  0.00    -0.004 A 
ATOM      5  C7  UNL d   1       1.623  -3.472   0.542  0.00  0.00     0.002 A 
ATOM      6  C8  UNL d   1       2.193  -2.207   0.391  0.00  0.00     0.002 A 
ENDROOT
BRANCH   1   7
ATOM      7  C2  UNL d   1       2.130   0.170  -0.463  0.00  0.00     0.056 C 
BRANCH   7   8
ATOM      8  C1  UNL d   1       1.713   1.152   0.636  0.00  0.00     0.007 C 
ATOM      9  C   UNL d   1       0.781   2.250   0.138  0.00  0.00     0.009 C 
ENDBRANCH   7   8
ENDBRANCH   1   7
TORSDOF 2
ENDMDL
