MODEL 1
REMARK minimizedAffinity -2.97316003
REMARK minimizedRMSD -1
REMARK  2 active torsions:
REMARK  status: ('A' for Active; 'I' for Inactive)
REMARK    1  A    between atoms: C1_2  and  C2_3 
REMARK    2  A    between atoms: C2_3  and  C3_4 
ROOT
ATOM      1  C3  UNL d   1      -2.293   1.417   0.404  0.00  0.00    -0.075 A 
ATOM      2  C4  UNL d   1      -1.275   1.526  -0.554  0.00  0.00     0.002 A 
ATOM      3  C5  UNL d   1      -0.021   2.025  -0.201  0.00  0.00     0.002 A 
ATOM      4  C6  UNL d   1       0.228   2.430   1.109  0.00  0.00    -0.004 A 
ATOM      5  C7  UNL d   1      -0.782   2.342   2.065  0.00  0.00     0.002 A 
ATOM      6  C8  UNL d   1      -2.036   1.839   1.715  0.00  0.00     0.002 A 
ENDROOT
BRANCH   1   7
ATOM      7  C2  UNL d   1      -3.644   0.850   0.035  0.00  0.00     0.056 C 
BRANCH   7   8
ATOM      8  C1  UNL d   1      -4.790   1.863   0.122  0.00  0.00     0.007 C 
ATOM      9  C   UNL d   1      -5.174   2.214   1.553  0.00  0.00     0.009 C 
ENDBRANCH   7   8
ENDBRANCH   1   7
TORSDOF 2
ENDMDL
