MODEL 1
REMARK minimizedAffinity -3.70686769
REMARK minimizedRMSD -1
REMARK  2 active torsions:
REMARK  status: ('A' for Active; 'I' for Inactive)
REMARK    1  A    between atoms: C1_2  and  C2_3 
REMARK    2  A    between atoms: C2_3  and  C3_4 
ROOT
ATOM      1  C3  UNL d   1       0.582   1.951   1.076  0.00  0.00    -0.075 A 
ATOM      2  C4  UNL d   1       0.204   1.414   2.315  0.00  0.00     0.002 A 
ATOM      3  C5  UNL d   1      -1.129   1.449   2.726  0.00  0.00     0.002 A 
ATOM      4  C6  UNL d   1      -2.097   2.029   1.909  0.00  0.00    -0.004 A 
ATOM      5  C7  UNL d   1      -1.730   2.580   0.683  0.00  0.00     0.002 A 
ATOM      6  C8  UNL d   1      -0.398   2.543   0.268  0.00  0.00     0.002 A 
ENDROOT
BRANCH   1   7
ATOM      7  C2  UNL d   1       2.018   1.890   0.613  0.00  0.00     0.056 C 
BRANCH   7   8
ATOM      8  C1  UNL d   1       2.906   0.966   1.454  0.00  0.00     0.007 C 
ATOM      9  C   UNL d   1       3.056  -0.427   0.859  0.00  0.00     0.009 C 
ENDBRANCH   7   8
ENDBRANCH   1   7
TORSDOF 2
ENDMDL
