MODEL 1
REMARK minimizedAffinity 0.0994731635
REMARK minimizedRMSD -1
REMARK  2 active torsions:
REMARK  status: ('A' for Active; 'I' for Inactive)
REMARK    1  A    between atoms: C1_2  and  C2_3 
REMARK    2  A    between atoms: C2_3  and  C3_4 
ROOT
ATOM      1  C3  UNL d   1      -4.857   0.685  -2.203  0.00  0.00    -0.075 A 
ATOM      2  C4  UNL d   1      -4.044   0.293  -3.277  0.00  0.00     0.002 A 
ATOM      3  C5  UNL d   1      -4.073   0.998  -4.480  0.00  0.00     0.002 A 
ATOM      4  C6  UNL d   1      -4.919   2.094  -4.629  0.00  0.00    -0.004 A 
ATOM      5  C7  UNL d   1      -5.743   2.482  -3.574  0.00  0.00     0.002 A 
ATOM      6  C8  UNL d   1      -5.713   1.782  -2.367  0.00  0.00     0.002 A 
ENDROOT
BRANCH   1   7
ATOM      7  C2  UNL d   1      -4.809  -0.056  -0.887  0.00  0.00     0.056 C 
BRANCH   7   8
ATOM      8  C1  UNL d   1      -5.532   0.660   0.258  0.00  0.00     0.007 C 
ATOM      9  C   UNL d   1      -4.591   1.432   1.174  0.00  0.00     0.009 C 
ENDBRANCH   7   8
ENDBRANCH   1   7
TORSDOF 2
ENDMDL
