MODEL 1
REMARK minimizedAffinity 3.99675369
REMARK minimizedRMSD -1
REMARK  2 active torsions:
REMARK  status: ('A' for Active; 'I' for Inactive)
REMARK    1  A    between atoms: C1_2  and  C2_3 
REMARK    2  A    between atoms: C2_3  and  C3_4 
ROOT
ATOM      1  C3  UNL d   1      -1.952   2.720   1.843  0.00  0.00    -0.075 A 
ATOM      2  C4  UNL d   1      -1.222   3.442   0.888  0.00  0.00     0.002 A 
ATOM      3  C5  UNL d   1       0.155   3.256   0.759  0.00  0.00     0.002 A 
ATOM      4  C6  UNL d   1       0.820   2.356   1.588  0.00  0.00    -0.004 A 
ATOM      5  C7  UNL d   1       0.108   1.645   2.552  0.00  0.00     0.002 A 
ATOM      6  C8  UNL d   1      -1.271   1.825   2.680  0.00  0.00     0.002 A 
ENDROOT
BRANCH   1   7
ATOM      7  C2  UNL d   1      -3.446   2.894   1.968  0.00  0.00     0.056 C 
BRANCH   7   8
ATOM      8  C1  UNL d   1      -4.238   1.586   1.865  0.00  0.00     0.007 C 
ATOM      9  C   UNL d   1      -4.395   1.090   0.434  0.00  0.00     0.009 C 
ENDBRANCH   7   8
ENDBRANCH   1   7
TORSDOF 2
ENDMDL
