MODEL 1
REMARK minimizedAffinity 4.44351149
REMARK minimizedRMSD -1
REMARK  2 active torsions:
REMARK  status: ('A' for Active; 'I' for Inactive)
REMARK    1  A    between atoms: C1_2  and  C2_3 
REMARK    2  A    between atoms: C2_3  and  C3_4 
ROOT
ATOM      1  C3  UNL d   1       1.886   0.422  -0.044  0.00  0.00    -0.075 A 
ATOM      2  C4  UNL d   1       2.582   1.562   0.381  0.00  0.00     0.002 A 
ATOM      3  C5  UNL d   1       1.943   2.801   0.443  0.00  0.00     0.002 A 
ATOM      4  C6  UNL d   1       0.605   2.917   0.070  0.00  0.00    -0.004 A 
ATOM      5  C7  UNL d   1      -0.091   1.793  -0.370  0.00  0.00     0.002 A 
ATOM      6  C8  UNL d   1       0.545   0.552  -0.428  0.00  0.00     0.002 A 
ENDROOT
BRANCH   1   7
ATOM      7  C2  UNL d   1       2.564  -0.927  -0.085  0.00  0.00     0.056 C 
BRANCH   7   8
ATOM      8  C1  UNL d   1       1.730  -2.025  -0.753  0.00  0.00     0.007 C 
ATOM      9  C   UNL d   1       0.910  -2.842   0.237  0.00  0.00     0.009 C 
ENDBRANCH   7   8
ENDBRANCH   1   7
TORSDOF 2
ENDMDL
