MODEL 1
REMARK minimizedAffinity 4.47552586
REMARK minimizedRMSD -1
REMARK  2 active torsions:
REMARK  status: ('A' for Active; 'I' for Inactive)
REMARK    1  A    between atoms: C1_2  and  C2_3 
REMARK    2  A    between atoms: C2_3  and  C3_4 
ROOT
ATOM      1  C3  UNL d   1       1.593   0.511   0.507  0.00  0.00    -0.075 A 
ATOM      2  C4  UNL d   1       0.708   1.293  -0.250  0.00  0.00     0.002 A 
ATOM      3  C5  UNL d   1      -0.431   1.844   0.338  0.00  0.00     0.002 A 
ATOM      4  C6  UNL d   1      -0.704   1.614   1.684  0.00  0.00    -0.004 A 
ATOM      5  C7  UNL d   1       0.159   0.825   2.442  0.00  0.00     0.002 A 
ATOM      6  C8  UNL d   1       1.301   0.276   1.857  0.00  0.00     0.002 A 
ENDROOT
BRANCH   1   7
ATOM      7  C2  UNL d   1       2.842  -0.064  -0.116  0.00  0.00     0.056 C 
BRANCH   7   8
ATOM      8  C1  UNL d   1       2.573  -1.114  -1.199  0.00  0.00     0.007 C 
ATOM      9  C   UNL d   1       2.287  -2.500  -0.634  0.00  0.00     0.009 C 
ENDBRANCH   7   8
ENDBRANCH   1   7
TORSDOF 2
ENDMDL
