MODEL 1
REMARK minimizedAffinity 2.43880773
REMARK minimizedRMSD -1
REMARK  2 active torsions:
REMARK  status: ('A' for Active; 'I' for Inactive)
REMARK    1  A    between atoms: C1_2  and  C2_3 
REMARK    2  A    between atoms: C2_3  and  C3_4 
ROOT
ATOM      1  C3  UNL d   1      -1.979   2.457   1.201  0.00  0.00    -0.075 A 
ATOM      2  C4  UNL d   1      -1.072   2.515   0.133  0.00  0.00     0.002 A 
ATOM      3  C5  UNL d   1       0.260   2.143   0.314  0.00  0.00     0.002 A 
ATOM      4  C6  UNL d   1       0.705   1.719   1.564  0.00  0.00    -0.004 A 
ATOM      5  C7  UNL d   1      -0.183   1.674   2.637  0.00  0.00     0.002 A 
ATOM      6  C8  UNL d   1      -1.518   2.041   2.458  0.00  0.00     0.002 A 
ENDROOT
BRANCH   1   7
ATOM      7  C2  UNL d   1      -3.429   2.830   1.005  0.00  0.00     0.056 C 
BRANCH   7   8
ATOM      8  C1  UNL d   1      -4.379   1.630   0.947  0.00  0.00     0.007 C 
ATOM      9  C   UNL d   1      -5.164   1.548  -0.356  0.00  0.00     0.009 C 
ENDBRANCH   7   8
ENDBRANCH   1   7
TORSDOF 2
ENDMDL
