MODEL 1
REMARK minimizedAffinity -1.2234385
REMARK minimizedRMSD -1
REMARK  2 active torsions:
REMARK  status: ('A' for Active; 'I' for Inactive)
REMARK    1  A    between atoms: C1_2  and  C2_3 
REMARK    2  A    between atoms: C2_3  and  C3_4 
ROOT
ATOM      1  C3  UNL d   1       0.411   3.035   0.438  0.00  0.00    -0.075 A 
ATOM      2  C4  UNL d   1       0.450   2.750   1.810  0.00  0.00     0.002 A 
ATOM      3  C5  UNL d   1       0.454   1.430   2.260  0.00  0.00     0.002 A 
ATOM      4  C6  UNL d   1       0.408   0.379   1.347  0.00  0.00    -0.004 A 
ATOM      5  C7  UNL d   1       0.352   0.650  -0.019  0.00  0.00     0.002 A 
ATOM      6  C8  UNL d   1       0.353   1.971  -0.472  0.00  0.00     0.002 A 
ENDROOT
BRANCH   1   7
ATOM      7  C2  UNL d   1       0.436   4.461  -0.057  0.00  0.00     0.056 C 
BRANCH   7   8
ATOM      8  C1  UNL d   1       0.758   4.599  -1.549  0.00  0.00     0.007 C 
ATOM      9  C   UNL d   1       0.020   5.750  -2.218  0.00  0.00     0.009 C 
ENDBRANCH   7   8
ENDBRANCH   1   7
TORSDOF 2
ENDMDL
