MODEL 1
REMARK minimizedAffinity 3.98984337
REMARK minimizedRMSD -1
REMARK  2 active torsions:
REMARK  status: ('A' for Active; 'I' for Inactive)
REMARK    1  A    between atoms: C1_2  and  C2_3 
REMARK    2  A    between atoms: C2_3  and  C3_4 
ROOT
ATOM      1  C3  UNL d   1       0.509   1.586   0.174  0.00  0.00    -0.075 A 
ATOM      2  C4  UNL d   1       0.344   1.828   1.546  0.00  0.00     0.002 A 
ATOM      3  C5  UNL d   1       0.734   0.873   2.485  0.00  0.00     0.002 A 
ATOM      4  C6  UNL d   1       1.284  -0.337   2.067  0.00  0.00    -0.004 A 
ATOM      5  C7  UNL d   1       1.437  -0.594   0.706  0.00  0.00     0.002 A 
ATOM      6  C8  UNL d   1       1.051   0.361  -0.236  0.00  0.00     0.002 A 
ENDROOT
BRANCH   1   7
ATOM      7  C2  UNL d   1       0.116   2.627  -0.847  0.00  0.00     0.056 C 
BRANCH   7   8
ATOM      8  C1  UNL d   1       0.510   4.057  -0.463  0.00  0.00     0.007 C 
ATOM      9  C   UNL d   1       0.308   5.059  -1.592  0.00  0.00     0.009 C 
ENDBRANCH   7   8
ENDBRANCH   1   7
TORSDOF 2
ENDMDL
