MODEL 1
REMARK minimizedAffinity -2.74079752
REMARK minimizedRMSD -1
REMARK  2 active torsions:
REMARK  status: ('A' for Active; 'I' for Inactive)
REMARK    1  A    between atoms: C1_2  and  C2_3 
REMARK    2  A    between atoms: C2_3  and  C3_4 
ROOT
ATOM      1  C3  UNL d   1       0.242   0.356  -0.417  0.00  0.00    -0.075 A 
ATOM      2  C4  UNL d   1       1.106  -0.726  -0.194  0.00  0.00     0.002 A 
ATOM      3  C5  UNL d   1       1.751  -0.874   1.035  0.00  0.00     0.002 A 
ATOM      4  C6  UNL d   1       1.548   0.059   2.049  0.00  0.00    -0.004 A 
ATOM      5  C7  UNL d   1       0.704   1.146   1.832  0.00  0.00     0.002 A 
ATOM      6  C8  UNL d   1       0.054   1.295   0.606  0.00  0.00     0.002 A 
ENDROOT
BRANCH   1   7
ATOM      7  C2  UNL d   1      -0.482   0.506  -1.734  0.00  0.00     0.056 C 
BRANCH   7   8
ATOM      8  C1  UNL d   1      -1.623  -0.497  -1.937  0.00  0.00     0.007 C 
ATOM      9  C   UNL d   1      -2.880   0.134  -2.521  0.00  0.00     0.009 C 
ENDBRANCH   7   8
ENDBRANCH   1   7
TORSDOF 2
ENDMDL
