MODEL 1
REMARK minimizedAffinity -1.01604378
REMARK minimizedRMSD -1
REMARK  2 active torsions:
REMARK  status: ('A' for Active; 'I' for Inactive)
REMARK    1  A    between atoms: C1_2  and  C2_3 
REMARK    2  A    between atoms: C2_3  and  C3_4 
ROOT
ATOM      1  C3  UNL d   1       0.545   2.377  -0.290  0.00  0.00    -0.075 A 
ATOM      2  C4  UNL d   1       0.485   2.655   1.083  0.00  0.00     0.002 A 
ATOM      3  C5  UNL d   1       0.714   1.648   2.021  0.00  0.00     0.002 A 
ATOM      4  C6  UNL d   1       0.995   0.350   1.600  0.00  0.00    -0.004 A 
ATOM      5  C7  UNL d   1       1.041   0.058   0.238  0.00  0.00     0.002 A 
ATOM      6  C8  UNL d   1       0.817   1.065  -0.703  0.00  0.00     0.002 A 
ENDROOT
BRANCH   1   7
ATOM      7  C2  UNL d   1       0.328   3.468  -1.310  0.00  0.00     0.056 C 
BRANCH   7   8
ATOM      8  C1  UNL d   1       0.652   4.875  -0.797  0.00  0.00     0.007 C 
ATOM      9  C   UNL d   1      -0.102   5.973  -1.536  0.00  0.00     0.009 C 
ENDBRANCH   7   8
ENDBRANCH   1   7
TORSDOF 2
ENDMDL
