MODEL 1
REMARK minimizedAffinity 0.288578898
REMARK minimizedRMSD -1
REMARK  2 active torsions:
REMARK  status: ('A' for Active; 'I' for Inactive)
REMARK    1  A    between atoms: C1_2  and  C2_3 
REMARK    2  A    between atoms: C2_3  and  C3_4 
ROOT
ATOM      1  C3  UNL d   1       0.439   2.835   0.851  0.00  0.00    -0.075 A 
ATOM      2  C4  UNL d   1       0.353   1.988  -0.264  0.00  0.00     0.002 A 
ATOM      3  C5  UNL d   1       0.389   0.602  -0.105  0.00  0.00     0.002 A 
ATOM      4  C6  UNL d   1       0.521   0.047   1.166  0.00  0.00    -0.004 A 
ATOM      5  C7  UNL d   1       0.624   0.879   2.279  0.00  0.00     0.002 A 
ATOM      6  C8  UNL d   1       0.584   2.266   2.123  0.00  0.00     0.002 A 
ENDROOT
BRANCH   1   7
ATOM      7  C2  UNL d   1       0.370   4.335   0.689  0.00  0.00     0.056 C 
BRANCH   7   8
ATOM      8  C1  UNL d   1       1.328   4.891  -0.370  0.00  0.00     0.007 C 
ATOM      9  C   UNL d   1       0.629   5.284  -1.665  0.00  0.00     0.009 C 
ENDBRANCH   7   8
ENDBRANCH   1   7
TORSDOF 2
ENDMDL
