MODEL 1
REMARK minimizedAffinity 8.44065857
REMARK minimizedRMSD -1
REMARK  2 active torsions:
REMARK  status: ('A' for Active; 'I' for Inactive)
REMARK    1  A    between atoms: C1_2  and  C2_3 
REMARK    2  A    between atoms: C2_3  and  C3_4 
ROOT
ATOM      1  C3  UNL d   1       2.964  -4.455  -1.577  0.00  0.00    -0.075 A 
ATOM      2  C4  UNL d   1       3.739  -5.263  -0.733  0.00  0.00     0.002 A 
ATOM      3  C5  UNL d   1       3.153  -5.933   0.341  0.00  0.00     0.002 A 
ATOM      4  C6  UNL d   1       1.789  -5.797   0.590  0.00  0.00    -0.004 A 
ATOM      5  C7  UNL d   1       1.012  -4.983  -0.233  0.00  0.00     0.002 A 
ATOM      6  C8  UNL d   1       1.596  -4.315  -1.310  0.00  0.00     0.002 A 
ENDROOT
BRANCH   1   7
ATOM      7  C2  UNL d   1       3.587  -3.751  -2.759  0.00  0.00     0.056 C 
BRANCH   7   8
ATOM      8  C1  UNL d   1       4.062  -4.694  -3.869  0.00  0.00     0.007 C 
ATOM      9  C   UNL d   1       5.577  -4.829  -3.935  0.00  0.00     0.009 C 
ENDBRANCH   7   8
ENDBRANCH   1   7
TORSDOF 2
ENDMDL
