MODEL 1
REMARK minimizedAffinity 0.846284986
REMARK minimizedRMSD -1
REMARK  0 active torsions:
REMARK  status: ('A' for Active; 'I' for Inactive)
ROOT
ATOM      1  N1  IND d   1      -1.300   1.422   0.071  0.00  0.00    -0.196 N 
ATOM      2  C2  IND d   1      -2.097   1.029   1.110  0.00  0.00     0.054 A 
ATOM      3  C3  IND d   1      -1.648  -0.134   1.633  0.00  0.00    -0.031 A 
ATOM      4  C4  IND d   1       0.434  -1.513   1.007  0.00  0.00     0.051 A 
ATOM      5  C5  IND d   1       1.451  -1.575   0.097  0.00  0.00    -0.031 A 
ATOM      6  C6  IND d   1       1.609  -0.620  -0.886  0.00  0.00     0.015 A 
ATOM      7  C7  IND d   1       0.757   0.444  -0.990  0.00  0.00    -0.016 A 
ATOM      8  C8  IND d   1      -0.282   0.505  -0.072  0.00  0.00    -0.047 A 
ATOM      9  C9  IND d   1      -0.472  -0.484   0.902  0.00  0.00    -0.096 A 
ATOM     10  HN1 IND d   1      -1.415   2.124  -0.412  0.00  0.00     0.298 HD
ENDROOT
TORSDOF 0
ENDMDL
