MODEL 1
REMARK minimizedAffinity -3.67994738
REMARK minimizedRMSD -1
REMARK  0 active torsions:
REMARK  status: ('A' for Active; 'I' for Inactive)
ROOT
ATOM      1  N1  IND d   1       0.292   0.733   1.328  0.00  0.00    -0.196 N 
ATOM      2  C2  IND d   1      -0.987   0.636   0.855  0.00  0.00     0.054 A 
ATOM      3  C3  IND d   1      -1.015  -0.099  -0.278  0.00  0.00    -0.031 A 
ATOM      4  C4  IND d   1       0.903  -1.325  -1.481  0.00  0.00     0.051 A 
ATOM      5  C5  IND d   1       2.258  -1.501  -1.447  0.00  0.00    -0.031 A 
ATOM      6  C6  IND d   1       3.042  -0.931  -0.465  0.00  0.00     0.015 A 
ATOM      7  C7  IND d   1       2.497  -0.171   0.531  0.00  0.00    -0.016 A 
ATOM      8  C8  IND d   1       1.122   0.015   0.495  0.00  0.00    -0.047 A 
ATOM      9  C9  IND d   1       0.326  -0.525  -0.523  0.00  0.00    -0.096 A 
ATOM     10  HN1 IND d   1       0.537   1.170   2.027  0.00  0.00     0.298 HD
ENDROOT
TORSDOF 0
ENDMDL
