MODEL 1
REMARK minimizedAffinity -1.97650182
REMARK minimizedRMSD -1
REMARK  0 active torsions:
REMARK  status: ('A' for Active; 'I' for Inactive)
ROOT
ATOM      1  N1  IND d   1       1.375  -1.321  -1.494  0.00  0.00    -0.196 N 
ATOM      2  C2  IND d   1       0.896  -2.545  -1.872  0.00  0.00     0.054 A 
ATOM      3  C3  IND d   1      -0.216  -2.853  -1.167  0.00  0.00    -0.031 A 
ATOM      4  C4  IND d   1      -1.483  -1.454   0.583  0.00  0.00     0.051 A 
ATOM      5  C5  IND d   1      -1.409  -0.284   1.286  0.00  0.00    -0.031 A 
ATOM      6  C6  IND d   1      -0.384   0.619   1.092  0.00  0.00     0.015 A 
ATOM      7  C7  IND d   1       0.603   0.391   0.176  0.00  0.00    -0.016 A 
ATOM      8  C8  IND d   1       0.535  -0.799  -0.535  0.00  0.00    -0.047 A 
ATOM      9  C9  IND d   1      -0.479  -1.740  -0.312  0.00  0.00    -0.096 A 
ATOM     10  HN1 IND d   1       2.081  -0.941  -1.804  0.00  0.00     0.298 HD
ENDROOT
TORSDOF 0
ENDMDL
