MODEL 1
REMARK minimizedAffinity -3.88298273
REMARK minimizedRMSD -1
REMARK  0 active torsions:
REMARK  status: ('A' for Active; 'I' for Inactive)
ROOT
ATOM      1  N1  IND d   1      -0.579   0.913   0.130  0.00  0.00    -0.196 N 
ATOM      2  C2  IND d   1      -0.787  -0.236   0.842  0.00  0.00     0.054 A 
ATOM      3  C3  IND d   1       0.127  -1.172   0.502  0.00  0.00    -0.031 A 
ATOM      4  C4  IND d   1       2.115  -1.001  -1.125  0.00  0.00     0.051 A 
ATOM      5  C5  IND d   1       2.692  -0.162  -2.037  0.00  0.00    -0.031 A 
ATOM      6  C6  IND d   1       2.199   1.105  -2.276  0.00  0.00     0.015 A 
ATOM      7  C7  IND d   1       1.113   1.586  -1.600  0.00  0.00    -0.016 A 
ATOM      8  C8  IND d   1       0.521   0.734  -0.679  0.00  0.00    -0.047 A 
ATOM      9  C9  IND d   1       0.991  -0.568  -0.463  0.00  0.00    -0.096 A 
ATOM     10  HN1 IND d   1      -1.056   1.627   0.180  0.00  0.00     0.298 HD
ENDROOT
TORSDOF 0
ENDMDL
