MODEL 1
REMARK minimizedAffinity -1.04250848
REMARK minimizedRMSD -1
REMARK  0 active torsions:
REMARK  status: ('A' for Active; 'I' for Inactive)
ROOT
ATOM      1  N1  IND d   1      -0.547   1.307  -0.057  0.00  0.00    -0.196 N 
ATOM      2  C2  IND d   1      -0.655   0.250   0.804  0.00  0.00     0.054 A 
ATOM      3  C3  IND d   1       0.212  -0.728   0.460  0.00  0.00    -0.031 A 
ATOM      4  C4  IND d   1       1.974  -0.766  -1.417  0.00  0.00     0.051 A 
ATOM      5  C5  IND d   1       2.424  -0.043  -2.486  0.00  0.00    -0.031 A 
ATOM      6  C6  IND d   1       1.899   1.192  -2.805  0.00  0.00     0.015 A 
ATOM      7  C7  IND d   1       0.906   1.759  -2.056  0.00  0.00    -0.016 A 
ATOM      8  C8  IND d   1       0.442   1.025  -0.974  0.00  0.00    -0.047 A 
ATOM      9  C9  IND d   1       0.942  -0.248  -0.671  0.00  0.00    -0.096 A 
ATOM     10  HN1 IND d   1      -1.017   2.026  -0.029  0.00  0.00     0.298 HD
ENDROOT
TORSDOF 0
ENDMDL
