MODEL 1
REMARK minimizedAffinity -4.46191216
REMARK minimizedRMSD -1
REMARK  0 active torsions:
REMARK  status: ('A' for Active; 'I' for Inactive)
ROOT
ATOM      1  N1  IND d   1      -0.523   0.484   0.129  0.00  0.00    -0.196 N 
ATOM      2  C2  IND d   1      -0.921  -0.719   0.641  0.00  0.00     0.054 A 
ATOM      3  C3  IND d   1      -0.054  -1.693   0.282  0.00  0.00    -0.031 A 
ATOM      4  C4  IND d   1       2.138  -1.519  -1.057  0.00  0.00     0.051 A 
ATOM      5  C5  IND d   1       2.900  -0.633  -1.766  0.00  0.00    -0.031 A 
ATOM      6  C6  IND d   1       2.554   0.698  -1.880  0.00  0.00     0.015 A 
ATOM      7  C7  IND d   1       1.435   1.197  -1.276  0.00  0.00    -0.016 A 
ATOM      8  C8  IND d   1       0.655   0.299  -0.561  0.00  0.00    -0.047 A 
ATOM      9  C9  IND d   1       0.978  -1.061  -0.478  0.00  0.00    -0.096 A 
ATOM     10  HN1 IND d   1      -0.938   1.231   0.222  0.00  0.00     0.298 HD
ENDROOT
TORSDOF 0
ENDMDL
