MODEL 1
REMARK minimizedAffinity -5.64606524
REMARK minimizedRMSD -1
REMARK  0 active torsions:
REMARK  status: ('A' for Active; 'I' for Inactive)
ROOT
ATOM      1  N1  IND d   1      -0.547   1.087   4.010  0.00  0.00    -0.196 N 
ATOM      2  C2  IND d   1      -1.809   1.607   3.937  0.00  0.00     0.054 A 
ATOM      3  C3  IND d   1      -2.305   1.465   2.687  0.00  0.00    -0.031 A 
ATOM      4  C4  IND d   1      -1.257   0.320   0.633  0.00  0.00     0.051 A 
ATOM      5  C5  IND d   1      -0.104  -0.271   0.200  0.00  0.00    -0.031 A 
ATOM      6  C6  IND d   1       0.983  -0.446   1.033  0.00  0.00     0.015 A 
ATOM      7  C7  IND d   1       0.951  -0.044   2.339  0.00  0.00    -0.016 A 
ATOM      8  C8  IND d   1      -0.217   0.563   2.779  0.00  0.00    -0.047 A 
ATOM      9  C9  IND d   1      -1.307   0.781   1.927  0.00  0.00    -0.096 A 
ATOM     10  HN1 IND d   1      -0.043   1.088   4.707  0.00  0.00     0.298 HD
ENDROOT
TORSDOF 0
ENDMDL
