MODEL 1
REMARK minimizedAffinity -3.99267793
REMARK minimizedRMSD -1
REMARK  0 active torsions:
REMARK  status: ('A' for Active; 'I' for Inactive)
ROOT
ATOM      1  N1  IND d   1      -0.085   0.667   0.551  0.00  0.00    -0.196 N 
ATOM      2  C2  IND d   1      -0.880  -0.420   0.784  0.00  0.00     0.054 A 
ATOM      3  C3  IND d   1      -0.471  -1.471   0.038  0.00  0.00    -0.031 A 
ATOM      4  C4  IND d   1       1.541  -1.660  -1.557  0.00  0.00     0.051 A 
ATOM      5  C5  IND d   1       2.540  -0.919  -2.123  0.00  0.00    -0.031 A 
ATOM      6  C6  IND d   1       2.721   0.415  -1.818  0.00  0.00     0.015 A 
ATOM      7  C7  IND d   1       1.913   1.057  -0.924  0.00  0.00    -0.016 A 
ATOM      8  C8  IND d   1       0.892   0.310  -0.352  0.00  0.00    -0.047 A 
ATOM      9  C9  IND d   1       0.678  -1.033  -0.690  0.00  0.00    -0.096 A 
ATOM     10  HN1 IND d   1      -0.179   1.443   0.908  0.00  0.00     0.298 HD
ENDROOT
TORSDOF 0
ENDMDL
