MODEL 1
REMARK minimizedAffinity -1.84869576
REMARK minimizedRMSD -1
REMARK  0 active torsions:
REMARK  status: ('A' for Active; 'I' for Inactive)
ROOT
ATOM      1  N1  IND d   1      -0.430   0.713   1.551  0.00  0.00    -0.196 N 
ATOM      2  C2  IND d   1      -1.671   0.872   1.000  0.00  0.00     0.054 A 
ATOM      3  C3  IND d   1      -1.787   0.122  -0.120  0.00  0.00    -0.031 A 
ATOM      4  C4  IND d   1      -0.104  -1.517  -1.173  0.00  0.00     0.051 A 
ATOM      5  C5  IND d   1       1.179  -1.971  -1.048  0.00  0.00    -0.031 A 
ATOM      6  C6  IND d   1       2.007  -1.548  -0.029  0.00  0.00     0.015 A 
ATOM      7  C7  IND d   1       1.577  -0.658   0.915  0.00  0.00    -0.016 A 
ATOM      8  C8  IND d   1       0.277  -0.189   0.788  0.00  0.00    -0.047 A 
ATOM      9  C9  IND d   1      -0.554  -0.583  -0.269  0.00  0.00    -0.096 A 
ATOM     10  HN1 IND d   1      -0.140   1.111   2.257  0.00  0.00     0.298 HD
ENDROOT
TORSDOF 0
ENDMDL
