MODEL 1
REMARK minimizedAffinity -3.71932149
REMARK minimizedRMSD -1
REMARK  0 active torsions:
REMARK  status: ('A' for Active; 'I' for Inactive)
ROOT
ATOM      1  N1  IND d   1      -0.159   0.401   1.923  0.00  0.00    -0.196 N 
ATOM      2  C2  IND d   1      -1.372   0.659   1.348  0.00  0.00     0.054 A 
ATOM      3  C3  IND d   1      -1.376   0.256   0.057  0.00  0.00    -0.031 A 
ATOM      4  C4  IND d   1       0.462  -0.945  -1.287  0.00  0.00     0.051 A 
ATOM      5  C5  IND d   1       1.760  -1.363  -1.201  0.00  0.00    -0.031 A 
ATOM      6  C6  IND d   1       2.499  -1.213  -0.045  0.00  0.00     0.015 A 
ATOM      7  C7  IND d   1       1.961  -0.648   1.076  0.00  0.00    -0.016 A 
ATOM      8  C8  IND d   1       0.645  -0.216   0.991  0.00  0.00    -0.047 A 
ATOM      9  C9  IND d   1      -0.096  -0.327  -0.193  0.00  0.00    -0.096 A 
ATOM     10  HN1 IND d   1       0.064   0.593   2.731  0.00  0.00     0.298 HD
ENDROOT
TORSDOF 0
ENDMDL
