MODEL 1
REMARK minimizedAffinity -0.93119967
REMARK minimizedRMSD -1
REMARK  0 active torsions:
REMARK  status: ('A' for Active; 'I' for Inactive)
ROOT
ATOM      1  N1  IND d   1      -1.026   1.463  -1.309  0.00  0.00    -0.196 N 
ATOM      2  C2  IND d   1      -1.838   0.959  -0.331  0.00  0.00     0.054 A 
ATOM      3  C3  IND d   1      -1.318  -0.184   0.170  0.00  0.00    -0.031 A 
ATOM      4  C4  IND d   1       0.904  -1.355  -0.395  0.00  0.00     0.051 A 
ATOM      5  C5  IND d   1       1.968  -1.291  -1.250  0.00  0.00    -0.031 A 
ATOM      6  C6  IND d   1       2.093  -0.284  -2.185  0.00  0.00     0.015 A 
ATOM      7  C7  IND d   1       1.159   0.707  -2.293  0.00  0.00    -0.016 A 
ATOM      8  C8  IND d   1       0.074   0.642  -1.431  0.00  0.00    -0.047 A 
ATOM      9  C9  IND d   1      -0.080  -0.402  -0.509  0.00  0.00    -0.096 A 
ATOM     10  HN1 IND d   1      -1.176   2.173  -1.769  0.00  0.00     0.298 HD
ENDROOT
TORSDOF 0
ENDMDL
