MODEL 1
REMARK minimizedAffinity -2.31525517
REMARK minimizedRMSD -1
REMARK  0 active torsions:
REMARK  status: ('A' for Active; 'I' for Inactive)
ROOT
ATOM      1  N1  IND d   1      -0.416   1.060  -1.151  0.00  0.00    -0.196 N 
ATOM      2  C2  IND d   1      -0.844   0.140  -0.235  0.00  0.00     0.054 A 
ATOM      3  C3  IND d   1      -0.077  -0.972  -0.292  0.00  0.00    -0.031 A 
ATOM      4  C4  IND d   1       1.993  -1.459  -1.743  0.00  0.00     0.051 A 
ATOM      5  C5  IND d   1       2.744  -0.936  -2.758  0.00  0.00    -0.031 A 
ATOM      6  C6  IND d   1       2.476   0.306  -3.299  0.00  0.00     0.015 A 
ATOM      7  C7  IND d   1       1.450   1.078  -2.834  0.00  0.00    -0.016 A 
ATOM      8  C8  IND d   1       0.680   0.548  -1.808  0.00  0.00    -0.047 A 
ATOM      9  C9  IND d   1       0.921  -0.729  -1.285  0.00  0.00    -0.096 A 
ATOM     10  HN1 IND d   1      -0.773   1.830  -1.293  0.00  0.00     0.298 HD
ENDROOT
TORSDOF 0
ENDMDL
