MODEL 1
REMARK minimizedAffinity -3.64020538
REMARK minimizedRMSD -1
REMARK  0 active torsions:
REMARK  status: ('A' for Active; 'I' for Inactive)
ROOT
ATOM      1  N1  IND d   1      -0.620  -1.316  -0.453  0.00  0.00    -0.196 N 
ATOM      2  C2  IND d   1      -1.233  -0.427   0.385  0.00  0.00     0.054 A 
ATOM      3  C3  IND d   1      -0.322   0.412   0.928  0.00  0.00    -0.031 A 
ATOM      4  C4  IND d   1       2.212   0.571   0.505  0.00  0.00     0.051 A 
ATOM      5  C5  IND d   1       3.236  -0.052  -0.152  0.00  0.00    -0.031 A 
ATOM      6  C6  IND d   1       3.022  -1.149  -0.961  0.00  0.00     0.015 A 
ATOM      7  C7  IND d   1       1.769  -1.659  -1.154  0.00  0.00    -0.016 A 
ATOM      8  C8  IND d   1       0.728  -1.033  -0.483  0.00  0.00    -0.047 A 
ATOM      9  C9  IND d   1       0.945   0.054   0.373  0.00  0.00    -0.096 A 
ATOM     10  HN1 IND d   1      -1.011  -1.947  -0.888  0.00  0.00     0.298 HD
ENDROOT
TORSDOF 0
ENDMDL
