MODEL 1
REMARK minimizedAffinity -3.06418633
REMARK minimizedRMSD -1
REMARK  0 active torsions:
REMARK  status: ('A' for Active; 'I' for Inactive)
ROOT
ATOM      1  N1  IND d   1      -0.279  -0.268   1.752  0.00  0.00    -0.196 N 
ATOM      2  C2  IND d   1      -1.361   0.305   1.143  0.00  0.00     0.054 A 
ATOM      3  C3  IND d   1      -1.095   0.544  -0.161  0.00  0.00    -0.031 A 
ATOM      4  C4  IND d   1       1.012  -0.017  -1.530  0.00  0.00     0.051 A 
ATOM      5  C5  IND d   1       2.279  -0.512  -1.402  0.00  0.00    -0.031 A 
ATOM      6  C6  IND d   1       2.768  -0.962  -0.193  0.00  0.00     0.015 A 
ATOM      7  C7  IND d   1       1.999  -0.945   0.937  0.00  0.00    -0.016 A 
ATOM      8  C8  IND d   1       0.714  -0.437   0.812  0.00  0.00    -0.047 A 
ATOM      9  C9  IND d   1       0.227   0.061  -0.403  0.00  0.00    -0.096 A 
ATOM     10  HN1 IND d   1      -0.228  -0.487   2.582  0.00  0.00     0.298 HD
ENDROOT
TORSDOF 0
ENDMDL
