MODEL 1
REMARK minimizedAffinity -4.44262838
REMARK minimizedRMSD -1
REMARK  0 active torsions:
REMARK  status: ('A' for Active; 'I' for Inactive)
ROOT
ATOM      1  N1  IND d   1       0.409  -0.865   0.001  0.00  0.00    -0.196 N 
ATOM      2  C2  IND d   1       1.182  -1.991   0.054  0.00  0.00     0.054 A 
ATOM      3  C3  IND d   1       2.233  -1.880  -0.790  0.00  0.00    -0.031 A 
ATOM      4  C4  IND d   1       2.933   0.100  -2.279  0.00  0.00     0.051 A 
ATOM      5  C5  IND d   1       2.520   1.336  -2.692  0.00  0.00    -0.031 A 
ATOM      6  C6  IND d   1       1.360   1.913  -2.218  0.00  0.00     0.015 A 
ATOM      7  C7  IND d   1       0.572   1.279  -1.299  0.00  0.00    -0.016 A 
ATOM      8  C8  IND d   1       0.985   0.021  -0.882  0.00  0.00    -0.047 A 
ATOM      9  C9  IND d   1       2.139  -0.588  -1.392  0.00  0.00    -0.096 A 
ATOM     10  HN1 IND d   1      -0.316  -0.734   0.444  0.00  0.00     0.298 HD
ENDROOT
TORSDOF 0
ENDMDL
