MODEL 1
REMARK minimizedAffinity 1.7827003
REMARK minimizedRMSD -1
REMARK  0 active torsions:
REMARK  status: ('A' for Active; 'I' for Inactive)
ROOT
ATOM      1  N1  IND d   1      -0.400   1.842   3.310  0.00  0.00    -0.196 N 
ATOM      2  C2  IND d   1      -1.169   1.035   4.102  0.00  0.00     0.054 A 
ATOM      3  C3  IND d   1      -1.575  -0.054   3.411  0.00  0.00    -0.031 A 
ATOM      4  C4  IND d   1      -1.011  -0.765   1.002  0.00  0.00     0.051 A 
ATOM      5  C5  IND d   1      -0.373  -0.334  -0.127  0.00  0.00    -0.031 A 
ATOM      6  C6  IND d   1       0.304   0.867  -0.168  0.00  0.00     0.015 A 
ATOM      7  C7  IND d   1       0.379   1.681   0.927  0.00  0.00    -0.016 A 
ATOM      8  C8  IND d   1      -0.273   1.249   2.073  0.00  0.00    -0.047 A 
ATOM      9  C9  IND d   1      -0.998   0.051   2.108  0.00  0.00    -0.096 A 
ATOM     10  HN1 IND d   1      -0.054   2.593   3.546  0.00  0.00     0.298 HD
ENDROOT
TORSDOF 0
ENDMDL
