MODEL 1
REMARK minimizedAffinity -3.69787955
REMARK minimizedRMSD -1
REMARK  0 active torsions:
REMARK  status: ('A' for Active; 'I' for Inactive)
ROOT
ATOM      1  N1  IND d   1       2.067  -1.706  -0.853  0.00  0.00    -0.196 N 
ATOM      2  C2  IND d   1       2.897  -0.631  -1.016  0.00  0.00     0.054 A 
ATOM      3  C3  IND d   1       2.257   0.512  -0.682  0.00  0.00    -0.031 A 
ATOM      4  C4  IND d   1      -0.119   0.843   0.253  0.00  0.00     0.051 A 
ATOM      5  C5  IND d   1      -1.268   0.162   0.541  0.00  0.00    -0.031 A 
ATOM      6  C6  IND d   1      -1.365  -1.205   0.378  0.00  0.00     0.015 A 
ATOM      7  C7  IND d   1      -0.309  -1.946  -0.070  0.00  0.00    -0.016 A 
ATOM      8  C8  IND d   1       0.858  -1.256  -0.370  0.00  0.00    -0.047 A 
ATOM      9  C9  IND d   1       0.949   0.136  -0.247  0.00  0.00    -0.096 A 
ATOM     10  HN1 IND d   1       2.267  -2.524  -1.023  0.00  0.00     0.298 HD
ENDROOT
TORSDOF 0
ENDMDL
