MODEL 1
REMARK minimizedAffinity -2.94806337
REMARK minimizedRMSD -1
REMARK  0 active torsions:
REMARK  status: ('A' for Active; 'I' for Inactive)
ROOT
ATOM      1  C   UNL d   1       5.197   0.237  -4.153  0.00  0.00    -0.002 A 
ATOM      2  C1  UNL d   1       4.493   1.338  -3.686  0.00  0.00     0.010 A 
ATOM      3  C2  UNL d   1       3.159   1.213  -3.292  0.00  0.00     0.041 A 
ATOM      4  C3  UNL d   1       2.540  -0.050  -3.373  0.00  0.00    -0.075 A 
ATOM      5  S   UNL d   1       0.916  -0.441  -2.944  0.00  0.00     0.015 SA
ATOM      6  C4  UNL d   1       1.120  -2.079  -3.369  0.00  0.00     0.022 A 
ATOM      7  C5  UNL d   1       2.389  -2.338  -3.829  0.00  0.00     0.026 A 
ATOM      8  C6  UNL d   1       3.229  -1.173  -3.839  0.00  0.00    -0.082 A 
ATOM      9  C7  UNL d   1       4.579  -1.014  -4.232  0.00  0.00     0.045 A 
ENDROOT
TORSDOF 0
ENDMDL
