MODEL 1
REMARK minimizedAffinity -4.32437515
REMARK minimizedRMSD -1
REMARK  0 active torsions:
REMARK  status: ('A' for Active; 'I' for Inactive)
ROOT
ATOM      1  C   UNL d   1      -0.980  -0.781   3.080  0.00  0.00    -0.002 A 
ATOM      2  C1  UNL d   1       0.379  -0.536   2.948  0.00  0.00     0.010 A 
ATOM      3  C2  UNL d   1       0.900  -0.051   1.746  0.00  0.00     0.041 A 
ATOM      4  C3  UNL d   1       0.022   0.187   0.670  0.00  0.00    -0.075 A 
ATOM      5  S   UNL d   1       0.434   0.781  -0.895  0.00  0.00     0.015 SA
ATOM      6  C4  UNL d   1      -1.185   0.724  -1.425  0.00  0.00     0.022 A 
ATOM      7  C5  UNL d   1      -2.032   0.265  -0.444  0.00  0.00     0.026 A 
ATOM      8  C6  UNL d   1      -1.350  -0.051   0.780  0.00  0.00    -0.082 A 
ATOM      9  C7  UNL d   1      -1.847  -0.544   2.010  0.00  0.00     0.045 A 
ENDROOT
TORSDOF 0
ENDMDL
