MODEL 1
REMARK minimizedAffinity -3.2071085
REMARK minimizedRMSD -1
REMARK  0 active torsions:
REMARK  status: ('A' for Active; 'I' for Inactive)
ROOT
ATOM      1  C   UNL d   1      -2.296   0.145  -0.933  0.00  0.00    -0.002 A 
ATOM      2  C1  UNL d   1      -1.054   0.568  -1.384  0.00  0.00     0.010 A 
ATOM      3  C2  UNL d   1       0.057   0.535  -0.539  0.00  0.00     0.041 A 
ATOM      4  C3  UNL d   1      -0.103   0.063   0.779  0.00  0.00    -0.075 A 
ATOM      5  S   UNL d   1       1.116  -0.068   1.991  0.00  0.00     0.015 SA
ATOM      6  C4  UNL d   1       0.017  -0.690   3.135  0.00  0.00     0.022 A 
ATOM      7  C5  UNL d   1      -1.253  -0.801   2.622  0.00  0.00     0.026 A 
ATOM      8  C6  UNL d   1      -1.343  -0.369   1.255  0.00  0.00    -0.082 A 
ATOM      9  C7  UNL d   1      -2.451  -0.323   0.374  0.00  0.00     0.045 A 
ENDROOT
TORSDOF 0
ENDMDL
