MODEL 1
REMARK minimizedAffinity 3.13179445
REMARK minimizedRMSD -1
REMARK  0 active torsions:
REMARK  status: ('A' for Active; 'I' for Inactive)
ROOT
ATOM      1  C   UNL d   1      -1.955  -0.006   1.068  0.00  0.00    -0.002 A 
ATOM      2  C1  UNL d   1      -0.769  -0.385   1.681  0.00  0.00     0.010 A 
ATOM      3  C2  UNL d   1       0.331  -0.779   0.917  0.00  0.00     0.041 A 
ATOM      4  C3  UNL d   1       0.219  -0.783  -0.488  0.00  0.00    -0.075 A 
ATOM      5  S   UNL d   1       1.436  -1.226  -1.626  0.00  0.00     0.015 SA
ATOM      6  C4  UNL d   1       0.410  -0.921  -2.953  0.00  0.00     0.022 A 
ATOM      7  C5  UNL d   1      -0.834  -0.491  -2.555  0.00  0.00     0.026 A 
ATOM      8  C6  UNL d   1      -0.964  -0.404  -1.128  0.00  0.00    -0.082 A 
ATOM      9  C7  UNL d   1      -2.062  -0.011  -0.325  0.00  0.00     0.045 A 
ENDROOT
TORSDOF 0
ENDMDL
