MODEL 1
REMARK minimizedAffinity -0.125058085
REMARK minimizedRMSD -1
REMARK  0 active torsions:
REMARK  status: ('A' for Active; 'I' for Inactive)
ROOT
ATOM      1  C   UNL d   1       0.610  -0.585   2.794  0.00  0.00    -0.002 A 
ATOM      2  C1  UNL d   1      -0.748  -0.862   2.861  0.00  0.00     0.010 A 
ATOM      3  C2  UNL d   1      -1.577  -0.623   1.763  0.00  0.00     0.041 A 
ATOM      4  C3  UNL d   1      -1.012  -0.097   0.585  0.00  0.00    -0.075 A 
ATOM      5  S   UNL d   1      -1.833   0.276  -0.885  0.00  0.00     0.015 SA
ATOM      6  C4  UNL d   1      -0.400   0.811  -1.637  0.00  0.00     0.022 A 
ATOM      7  C5  UNL d   1       0.688   0.715  -0.801  0.00  0.00     0.026 A 
ATOM      8  C6  UNL d   1       0.353   0.190   0.493  0.00  0.00    -0.082 A 
ATOM      9  C7  UNL d   1       1.167  -0.063   1.623  0.00  0.00     0.045 A 
ENDROOT
TORSDOF 0
ENDMDL
