MODEL 1
REMARK minimizedAffinity 8.44530201
REMARK minimizedRMSD -1
REMARK  0 active torsions:
REMARK  status: ('A' for Active; 'I' for Inactive)
ROOT
ATOM      1  C   UNL d   1       0.003  -0.414   2.802  0.00  0.00    -0.002 A 
ATOM      2  C1  UNL d   1      -1.137  -0.583   2.029  0.00  0.00     0.010 A 
ATOM      3  C2  UNL d   1      -1.230  -0.002   0.763  0.00  0.00     0.041 A 
ATOM      4  C3  UNL d   1      -0.146   0.758   0.281  0.00  0.00    -0.075 A 
ATOM      5  S   UNL d   1      -0.036   1.562  -1.240  0.00  0.00     0.015 SA
ATOM      6  C4  UNL d   1       1.528   2.149  -0.900  0.00  0.00     0.022 A 
ATOM      7  C5  UNL d   1       1.970   1.751   0.340  0.00  0.00     0.026 A 
ATOM      8  C6  UNL d   1       1.013   0.942   1.041  0.00  0.00    -0.082 A 
ATOM      9  C7  UNL d   1       1.076   0.341   2.321  0.00  0.00     0.045 A 
ENDROOT
TORSDOF 0
ENDMDL
