MODEL 1
REMARK minimizedAffinity 3.89933252
REMARK minimizedRMSD -1
REMARK  0 active torsions:
REMARK  status: ('A' for Active; 'I' for Inactive)
ROOT
ATOM      1  C   UNL d   1       3.883   0.157   1.456  0.00  0.00    -0.002 A 
ATOM      2  C1  UNL d   1       3.270   1.191   0.761  0.00  0.00     0.010 A 
ATOM      3  C2  UNL d   1       1.894   1.399   0.866  0.00  0.00     0.041 A 
ATOM      4  C3  UNL d   1       1.136   0.543   1.690  0.00  0.00    -0.075 A 
ATOM      5  S   UNL d   1      -0.564   0.609   1.973  0.00  0.00     0.015 SA
ATOM      6  C4  UNL d   1      -0.516  -0.733   3.022  0.00  0.00     0.022 A 
ATOM      7  C5  UNL d   1       0.757  -1.232   3.165  0.00  0.00     0.026 A 
ATOM      8  C6  UNL d   1       1.730  -0.504   2.400  0.00  0.00    -0.082 A 
ATOM      9  C7  UNL d   1       3.128  -0.689   2.272  0.00  0.00     0.045 A 
ENDROOT
TORSDOF 0
ENDMDL
