MODEL 1
REMARK minimizedAffinity 3.7321403
REMARK minimizedRMSD -1
REMARK  0 active torsions:
REMARK  status: ('A' for Active; 'I' for Inactive)
ROOT
ATOM      1  C   UNL d   1       1.573  -0.703   2.699  0.00  0.00    -0.002 A 
ATOM      2  C1  UNL d   1       1.683   0.432   1.909  0.00  0.00     0.010 A 
ATOM      3  C2  UNL d   1       0.541   1.087   1.444  0.00  0.00     0.041 A 
ATOM      4  C3  UNL d   1      -0.726   0.578   1.792  0.00  0.00    -0.075 A 
ATOM      5  S   UNL d   1      -2.263   1.215   1.339  0.00  0.00     0.015 SA
ATOM      6  C4  UNL d   1      -3.101  -0.004   2.185  0.00  0.00     0.022 A 
ATOM      7  C5  UNL d   1      -2.245  -0.884   2.804  0.00  0.00     0.026 A 
ATOM      8  C6  UNL d   1      -0.862  -0.563   2.588  0.00  0.00    -0.082 A 
ATOM      9  C7  UNL d   1       0.315  -1.205   3.043  0.00  0.00     0.045 A 
ENDROOT
TORSDOF 0
ENDMDL
