MODEL 1
REMARK minimizedAffinity 4.38198566
REMARK minimizedRMSD -1
REMARK  0 active torsions:
REMARK  status: ('A' for Active; 'I' for Inactive)
ROOT
ATOM      1  C   UNL d   1      -1.304  -0.280   1.482  0.00  0.00    -0.002 A 
ATOM      2  C1  UNL d   1      -0.634   0.045   0.311  0.00  0.00     0.010 A 
ATOM      3  C2  UNL d   1       0.494   0.866   0.343  0.00  0.00     0.041 A 
ATOM      4  C3  UNL d   1       0.945   1.358   1.584  0.00  0.00    -0.075 A 
ATOM      5  S   UNL d   1       2.305   2.379   1.866  0.00  0.00     0.015 SA
ATOM      6  C4  UNL d   1       2.030   2.406   3.548  0.00  0.00     0.022 A 
ATOM      7  C5  UNL d   1       0.931   1.660   3.903  0.00  0.00     0.026 A 
ATOM      8  C6  UNL d   1       0.288   1.043   2.777  0.00  0.00    -0.082 A 
ATOM      9  C7  UNL d   1      -0.854   0.209   2.712  0.00  0.00     0.045 A 
ENDROOT
TORSDOF 0
ENDMDL
