MODEL 1
REMARK minimizedAffinity 6.9459219
REMARK minimizedRMSD -1
REMARK  0 active torsions:
REMARK  status: ('A' for Active; 'I' for Inactive)
ROOT
ATOM      1  C   UNL d   1       0.718  -0.343   2.742  0.00  0.00    -0.002 A 
ATOM      2  C1  UNL d   1       0.821  -0.434   1.361  0.00  0.00     0.010 A 
ATOM      3  C2  UNL d   1      -0.273  -0.137   0.546  0.00  0.00     0.041 A 
ATOM      4  C3  UNL d   1      -1.484   0.259   1.148  0.00  0.00    -0.075 A 
ATOM      5  S   UNL d   1      -2.955   0.672   0.350  0.00  0.00     0.015 SA
ATOM      6  C4  UNL d   1      -3.755   0.979   1.823  0.00  0.00     0.022 A 
ATOM      7  C5  UNL d   1      -2.935   0.776   2.907  0.00  0.00     0.026 A 
ATOM      8  C6  UNL d   1      -1.612   0.358   2.536  0.00  0.00    -0.082 A 
ATOM      9  C7  UNL d   1      -0.485   0.049   3.336  0.00  0.00     0.045 A 
ENDROOT
TORSDOF 0
ENDMDL
