MODEL 1
REMARK minimizedAffinity 4.45539093
REMARK minimizedRMSD -1
REMARK  0 active torsions:
REMARK  status: ('A' for Active; 'I' for Inactive)
ROOT
ATOM      1  C   UNL d   1      -0.259  -1.357   1.498  0.00  0.00    -0.002 A 
ATOM      2  C1  UNL d   1       0.339  -0.397   2.303  0.00  0.00     0.010 A 
ATOM      3  C2  UNL d   1      -0.377   0.727   2.718  0.00  0.00     0.041 A 
ATOM      4  C3  UNL d   1      -1.718   0.871   2.309  0.00  0.00    -0.075 A 
ATOM      5  S   UNL d   1      -2.789   2.165   2.696  0.00  0.00     0.015 SA
ATOM      6  C4  UNL d   1      -4.066   1.474   1.803  0.00  0.00     0.022 A 
ATOM      7  C5  UNL d   1      -3.701   0.285   1.217  0.00  0.00     0.026 A 
ATOM      8  C6  UNL d   1      -2.341  -0.082   1.499  0.00  0.00    -0.082 A 
ATOM      9  C7  UNL d   1      -1.588  -1.211   1.094  0.00  0.00     0.045 A 
ENDROOT
TORSDOF 0
ENDMDL
