MODEL 1
REMARK minimizedAffinity -1.84722149
REMARK minimizedRMSD -1
REMARK  1 active torsions:
REMARK  status: ('A' for Active; 'I' for Inactive)
REMARK    1  A    between atoms: C3_4  and  O_7 
ROOT
ATOM      1  C   UNL d   1      -1.875  -0.100  -1.552  0.00  0.00    -0.033 A 
ATOM      2  C1  UNL d   1      -1.131  -1.000  -0.787  0.00  0.00     0.039 A 
ATOM      3  C2  UNL d   1       0.014  -0.567  -0.114  0.00  0.00    -0.080 A 
ATOM      4  C3  UNL d   1       0.402   0.767  -0.215  0.00  0.00     0.150 A 
ATOM      5  C4  UNL d   1      -0.338   1.669  -0.973  0.00  0.00    -0.007 A 
ATOM      6  C5  UNL d   1      -1.480   1.234  -1.644  0.00  0.00     0.039 A 
ENDROOT
BRANCH   4   7
ATOM      7  O   UNL d   1       1.514   1.235   0.419  0.00  0.00    -0.526 OA
ATOM      8  H5  UNL d   1       1.940   0.493   0.881  0.00  0.00     0.418 HD
ENDBRANCH   4   7
TORSDOF 1
ENDMDL
