MODEL 1
REMARK minimizedAffinity -4.9023428
REMARK minimizedRMSD -1
REMARK  1 active torsions:
REMARK  status: ('A' for Active; 'I' for Inactive)
REMARK    1  A    between atoms: C3_4  and  O_7 
ROOT
ATOM      1  C   UNL d   1       1.907   0.807   0.446  0.00  0.00    -0.033 A 
ATOM      2  C1  UNL d   1       3.000   1.676   0.468  0.00  0.00     0.039 A 
ATOM      3  C2  UNL d   1       2.883   2.934   1.062  0.00  0.00    -0.080 A 
ATOM      4  C3  UNL d   1       1.669   3.310   1.630  0.00  0.00     0.150 A 
ATOM      5  C4  UNL d   1       0.577   2.449   1.615  0.00  0.00    -0.007 A 
ATOM      6  C5  UNL d   1       0.696   1.193   1.021  0.00  0.00     0.039 A 
ENDROOT
BRANCH   4   7
ATOM      7  O   UNL d   1       1.504   4.530   2.217  0.00  0.00    -0.526 OA
ATOM      8  H5  UNL d   1       2.333   5.029   2.127  0.00  0.00     0.418 HD
ENDBRANCH   4   7
TORSDOF 1
ENDMDL
