MODEL 1
REMARK minimizedAffinity -3.08020973
REMARK minimizedRMSD -1
REMARK  1 active torsions:
REMARK  status: ('A' for Active; 'I' for Inactive)
REMARK    1  A    between atoms: C3_4  and  O_7 
ROOT
ATOM      1  C   UNL d   1      -1.077   0.314  -1.468  0.00  0.00    -0.033 A 
ATOM      2  C1  UNL d   1      -2.089  -0.646  -1.411  0.00  0.00     0.039 A 
ATOM      3  C2  UNL d   1      -1.978  -1.727  -0.535  0.00  0.00    -0.080 A 
ATOM      4  C3  UNL d   1      -0.853  -1.836   0.278  0.00  0.00     0.150 A 
ATOM      5  C4  UNL d   1       0.157  -0.881   0.229  0.00  0.00    -0.007 A 
ATOM      6  C5  UNL d   1       0.045   0.197  -0.647  0.00  0.00     0.039 A 
ENDROOT
BRANCH   4   7
ATOM      7  O   UNL d   1      -0.699  -2.877   1.145  0.00  0.00    -0.526 OA
ATOM      8  H5  UNL d   1      -1.461  -3.473   1.050  0.00  0.00     0.418 HD
ENDBRANCH   4   7
TORSDOF 1
ENDMDL
