MODEL 1
REMARK minimizedAffinity -3.48473668
REMARK minimizedRMSD -1
REMARK  1 active torsions:
REMARK  status: ('A' for Active; 'I' for Inactive)
REMARK    1  A    between atoms: C3_4  and  O_7 
ROOT
ATOM      1  C   UNL d   1      -2.627  -2.390   0.497  0.00  0.00    -0.033 A 
ATOM      2  C1  UNL d   1      -2.687  -1.457  -0.541  0.00  0.00     0.039 A 
ATOM      3  C2  UNL d   1      -1.640  -0.552  -0.729  0.00  0.00    -0.080 A 
ATOM      4  C3  UNL d   1      -0.541  -0.591   0.125  0.00  0.00     0.150 A 
ATOM      5  C4  UNL d   1      -0.474  -1.520   1.158  0.00  0.00    -0.007 A 
ATOM      6  C5  UNL d   1      -1.520  -2.422   1.345  0.00  0.00     0.039 A 
ENDROOT
BRANCH   4   7
ATOM      7  O   UNL d   1       0.502   0.276  -0.016  0.00  0.00    -0.526 OA
ATOM      8  H5  UNL d   1       0.304   0.878  -0.752  0.00  0.00     0.418 HD
ENDBRANCH   4   7
TORSDOF 1
ENDMDL
