MODEL 1
REMARK minimizedAffinity -2.57920766
REMARK minimizedRMSD -1
REMARK  1 active torsions:
REMARK  status: ('A' for Active; 'I' for Inactive)
REMARK    1  A    between atoms: C3_4  and  O_7 
ROOT
ATOM      1  C   UNL d   1      -0.903   0.477  -1.272  0.00  0.00    -0.033 A 
ATOM      2  C1  UNL d   1      -0.102   0.062  -0.206  0.00  0.00     0.039 A 
ATOM      3  C2  UNL d   1      -0.393  -1.126   0.467  0.00  0.00    -0.080 A 
ATOM      4  C3  UNL d   1      -1.485  -1.890   0.064  0.00  0.00     0.150 A 
ATOM      5  C4  UNL d   1      -2.285  -1.484  -1.000  0.00  0.00    -0.007 A 
ATOM      6  C5  UNL d   1      -1.994  -0.297  -1.670  0.00  0.00     0.039 A 
ENDROOT
BRANCH   4   7
ATOM      7  O   UNL d   1      -1.812  -3.054   0.693  0.00  0.00    -0.526 OA
ATOM      8  H5  UNL d   1      -1.189  -3.193   1.426  0.00  0.00     0.418 HD
ENDBRANCH   4   7
TORSDOF 1
ENDMDL
