MODEL 1
REMARK minimizedAffinity -3.32396364
REMARK minimizedRMSD -1
REMARK  1 active torsions:
REMARK  status: ('A' for Active; 'I' for Inactive)
REMARK    1  A    between atoms: C3_4  and  O_7 
ROOT
ATOM      1  C   UNL d   1      -2.500  -2.406  -0.256  0.00  0.00    -0.033 A 
ATOM      2  C1  UNL d   1      -2.356  -1.348  -1.157  0.00  0.00     0.039 A 
ATOM      3  C2  UNL d   1      -1.227  -0.529  -1.099  0.00  0.00    -0.080 A 
ATOM      4  C3  UNL d   1      -0.250  -0.777  -0.138  0.00  0.00     0.150 A 
ATOM      5  C4  UNL d   1      -0.386  -1.831   0.760  0.00  0.00    -0.007 A 
ATOM      6  C5  UNL d   1      -1.514  -2.648   0.701  0.00  0.00     0.039 A 
ENDROOT
BRANCH   4   7
ATOM      7  O   UNL d   1       0.866  -0.001  -0.039  0.00  0.00    -0.526 OA
ATOM      8  H5  UNL d   1       0.810   0.705  -0.705  0.00  0.00     0.418 HD
ENDBRANCH   4   7
TORSDOF 1
ENDMDL
