MODEL 1
REMARK minimizedAffinity -1.05971801
REMARK minimizedRMSD -1
REMARK  1 active torsions:
REMARK  status: ('A' for Active; 'I' for Inactive)
REMARK    1  A    between atoms: C3_4  and  O_7 
ROOT
ATOM      1  C   UNL d   1       1.110   0.945   0.371  0.00  0.00    -0.033 A 
ATOM      2  C1  UNL d   1       1.195  -0.018  -0.637  0.00  0.00     0.039 A 
ATOM      3  C2  UNL d   1       0.096  -0.267  -1.461  0.00  0.00    -0.080 A 
ATOM      4  C3  UNL d   1      -1.080   0.453  -1.269  0.00  0.00     0.150 A 
ATOM      5  C4  UNL d   1      -1.171   1.416  -0.270  0.00  0.00    -0.007 A 
ATOM      6  C5  UNL d   1      -0.073   1.663   0.553  0.00  0.00     0.039 A 
ENDROOT
BRANCH   4   7
ATOM      7  O   UNL d   1      -2.180   0.241  -2.046  0.00  0.00    -0.526 OA
ATOM      8  H5  UNL d   1      -1.980  -0.473  -2.674  0.00  0.00     0.418 HD
ENDBRANCH   4   7
TORSDOF 1
ENDMDL
