MODEL 1
REMARK minimizedAffinity -3.13509488
REMARK minimizedRMSD -1
REMARK  1 active torsions:
REMARK  status: ('A' for Active; 'I' for Inactive)
REMARK    1  A    between atoms: C3_4  and  O_7 
ROOT
ATOM      1  C   UNL d   1       2.198   2.262   0.760  0.00  0.00    -0.033 A 
ATOM      2  C1  UNL d   1       2.613   1.003   0.323  0.00  0.00     0.039 A 
ATOM      3  C2  UNL d   1       1.667   0.044  -0.048  0.00  0.00    -0.080 A 
ATOM      4  C3  UNL d   1       0.313   0.358   0.021  0.00  0.00     0.150 A 
ATOM      5  C4  UNL d   1      -0.107   1.613   0.451  0.00  0.00    -0.007 A 
ATOM      6  C5  UNL d   1       0.838   2.568   0.822  0.00  0.00     0.039 A 
ENDROOT
BRANCH   4   7
ATOM      7  O   UNL d   1      -0.647  -0.546  -0.326  0.00  0.00    -0.526 OA
ATOM      8  H5  UNL d   1      -0.210  -1.378  -0.575  0.00  0.00     0.418 HD
ENDBRANCH   4   7
TORSDOF 1
ENDMDL
