MODEL 1
REMARK minimizedAffinity -2.65799928
REMARK minimizedRMSD -1
REMARK  1 active torsions:
REMARK  status: ('A' for Active; 'I' for Inactive)
REMARK    1  A    between atoms: C3_4  and  O_7 
ROOT
ATOM      1  C   UNL d   1       1.308  -0.273  -0.901  0.00  0.00    -0.033 A 
ATOM      2  C1  UNL d   1       0.663  -0.525   0.311  0.00  0.00     0.039 A 
ATOM      3  C2  UNL d   1      -0.729  -0.628   0.354  0.00  0.00    -0.080 A 
ATOM      4  C3  UNL d   1      -1.463  -0.479  -0.819  0.00  0.00     0.150 A 
ATOM      5  C4  UNL d   1      -0.826  -0.232  -2.031  0.00  0.00    -0.007 A 
ATOM      6  C5  UNL d   1       0.564  -0.128  -2.073  0.00  0.00     0.039 A 
ENDROOT
BRANCH   4   7
ATOM      7  O   UNL d   1      -2.823  -0.567  -0.826  0.00  0.00    -0.526 OA
ATOM      8  H5  UNL d   1      -3.126  -0.712   0.086  0.00  0.00     0.418 HD
ENDBRANCH   4   7
TORSDOF 1
ENDMDL
