MODEL 1
REMARK minimizedAffinity -4.32045603
REMARK minimizedRMSD -1
REMARK  1 active torsions:
REMARK  status: ('A' for Active; 'I' for Inactive)
REMARK    1  A    between atoms: C3_4  and  O_7 
ROOT
ATOM      1  C   UNL d   1      -1.399   0.689  -1.270  0.00  0.00    -0.033 A 
ATOM      2  C1  UNL d   1      -0.284   0.442  -0.467  0.00  0.00     0.039 A 
ATOM      3  C2  UNL d   1      -0.262  -0.671   0.376  0.00  0.00    -0.080 A 
ATOM      4  C3  UNL d   1      -1.358  -1.529   0.404  0.00  0.00     0.150 A 
ATOM      5  C4  UNL d   1      -2.470  -1.291  -0.396  0.00  0.00    -0.007 A 
ATOM      6  C5  UNL d   1      -2.492  -0.178  -1.236  0.00  0.00     0.039 A 
ENDROOT
BRANCH   4   7
ATOM      7  O   UNL d   1      -1.384  -2.626   1.214  0.00  0.00    -0.526 OA
ATOM      8  H5  UNL d   1      -0.561  -2.647   1.730  0.00  0.00     0.418 HD
ENDBRANCH   4   7
TORSDOF 1
ENDMDL
