MODEL 1
REMARK minimizedAffinity -3.9114387
REMARK minimizedRMSD -1
REMARK  1 active torsions:
REMARK  status: ('A' for Active; 'I' for Inactive)
REMARK    1  A    between atoms: C3_4  and  O_7 
ROOT
ATOM      1  C   UNL d   1       0.626  -0.155  -0.467  0.00  0.00    -0.033 A 
ATOM      2  C1  UNL d   1       0.205  -1.014   0.550  0.00  0.00     0.039 A 
ATOM      3  C2  UNL d   1      -1.115  -1.469   0.580  0.00  0.00    -0.080 A 
ATOM      4  C3  UNL d   1      -2.001  -1.059  -0.412  0.00  0.00     0.150 A 
ATOM      5  C4  UNL d   1      -1.588  -0.206  -1.430  0.00  0.00    -0.007 A 
ATOM      6  C5  UNL d   1      -0.270   0.248  -1.458  0.00  0.00     0.039 A 
ENDROOT
BRANCH   4   7
ATOM      7  O   UNL d   1      -3.300  -1.473  -0.422  0.00  0.00    -0.526 OA
ATOM      8  H5  UNL d   1      -3.450  -2.034   0.357  0.00  0.00     0.418 HD
ENDBRANCH   4   7
TORSDOF 1
ENDMDL
