MODEL 1
REMARK minimizedAffinity -4.93264151
REMARK minimizedRMSD -1
REMARK  1 active torsions:
REMARK  status: ('A' for Active; 'I' for Inactive)
REMARK    1  A    between atoms: C3_4  and  O_7 
ROOT
ATOM      1  C   UNL d   1       0.654  -0.594   0.168  0.00  0.00    -0.033 A 
ATOM      2  C1  UNL d   1       0.118   0.030  -0.960  0.00  0.00     0.039 A 
ATOM      3  C2  UNL d   1      -1.265   0.090  -1.137  0.00  0.00    -0.080 A 
ATOM      4  C3  UNL d   1      -2.101  -0.477  -0.179  0.00  0.00     0.150 A 
ATOM      5  C4  UNL d   1      -1.575  -1.097   0.949  0.00  0.00    -0.007 A 
ATOM      6  C5  UNL d   1      -0.193  -1.156   1.124  0.00  0.00     0.039 A 
ENDROOT
BRANCH   4   7
ATOM      7  O   UNL d   1      -3.458  -0.448  -0.310  0.00  0.00    -0.526 OA
ATOM      8  H5  UNL d   1      -3.677  -0.014  -1.152  0.00  0.00     0.418 HD
ENDBRANCH   4   7
TORSDOF 1
ENDMDL
