MODEL 1
REMARK minimizedAffinity 2.27776313
REMARK minimizedRMSD -1
REMARK  2 active torsions:
REMARK  status: ('A' for Active; 'I' for Inactive)
REMARK    1  A    between atoms: C1_2  and  C2_3 
REMARK    2  A    between atoms: C2_3  and  C3_4 
ROOT
ATOM      1  C3  UNL d   1       4.963   0.714   4.062  0.00  0.00    -0.075 A 
ATOM      2  C4  UNL d   1       4.793   1.625   3.010  0.00  0.00     0.002 A 
ATOM      3  C5  UNL d   1       5.217   2.948   3.142  0.00  0.00     0.002 A 
ATOM      4  C6  UNL d   1       5.805   3.378   4.329  0.00  0.00    -0.004 A 
ATOM      5  C7  UNL d   1       5.963   2.486   5.388  0.00  0.00     0.002 A 
ATOM      6  C8  UNL d   1       5.544   1.161   5.256  0.00  0.00     0.002 A 
ENDROOT
BRANCH   1   7
ATOM      7  C2  UNL d   1       4.533  -0.726   3.915  0.00  0.00     0.056 C 
BRANCH   7   8
ATOM      8  C1  UNL d   1       5.380  -1.715   4.722  0.00  0.00     0.007 C 
ATOM      9  C   UNL d   1       5.985  -1.102   5.978  0.00  0.00     0.009 C 
ENDBRANCH   7   8
ENDBRANCH   1   7
TORSDOF 2
ENDMDL
