MODEL 1
REMARK minimizedAffinity -3.26697135
REMARK minimizedRMSD -1
REMARK  2 active torsions:
REMARK  status: ('A' for Active; 'I' for Inactive)
REMARK    1  A    between atoms: C1_2  and  C2_3 
REMARK    2  A    between atoms: C2_3  and  C3_4 
ROOT
ATOM      1  C3  UNL d   1       5.188   2.060   4.453  0.00  0.00    -0.075 A 
ATOM      2  C4  UNL d   1       5.620   1.685   5.734  0.00  0.00     0.002 A 
ATOM      3  C5  UNL d   1       5.997   0.368   5.997  0.00  0.00     0.002 A 
ATOM      4  C6  UNL d   1       5.937  -0.592   4.989  0.00  0.00    -0.004 A 
ATOM      5  C7  UNL d   1       5.494  -0.235   3.718  0.00  0.00     0.002 A 
ATOM      6  C8  UNL d   1       5.121   1.083   3.450  0.00  0.00     0.002 A 
ENDROOT
BRANCH   1   7
ATOM      7  C2  UNL d   1       4.808   3.490   4.154  0.00  0.00     0.056 C 
BRANCH   7   8
ATOM      8  C1  UNL d   1       5.997   4.454   4.102  0.00  0.00     0.007 C 
ATOM      9  C   UNL d   1       5.947   5.527   5.181  0.00  0.00     0.009 C 
ENDBRANCH   7   8
ENDBRANCH   1   7
TORSDOF 2
ENDMDL
