MODEL 1
REMARK minimizedAffinity 3.38446116
REMARK minimizedRMSD -1
REMARK  2 active torsions:
REMARK  status: ('A' for Active; 'I' for Inactive)
REMARK    1  A    between atoms: C1_2  and  C2_3 
REMARK    2  A    between atoms: C2_3  and  C3_4 
ROOT
ATOM      1  C3  UNL d   1       5.884   0.835   4.529  0.00  0.00    -0.075 A 
ATOM      2  C4  UNL d   1       5.998   0.284   5.814  0.00  0.00     0.002 A 
ATOM      3  C5  UNL d   1       6.000  -1.099   5.994  0.00  0.00     0.002 A 
ATOM      4  C6  UNL d   1       5.877  -1.948   4.896  0.00  0.00    -0.004 A 
ATOM      5  C7  UNL d   1       5.745  -1.412   3.617  0.00  0.00     0.002 A 
ATOM      6  C8  UNL d   1       5.748  -0.028   3.434  0.00  0.00     0.002 A 
ENDROOT
BRANCH   1   7
ATOM      7  C2  UNL d   1       5.911   2.331   4.325  0.00  0.00     0.056 C 
BRANCH   7   8
ATOM      8  C1  UNL d   1       4.862   2.844   3.332  0.00  0.00     0.007 C 
ATOM      9  C   UNL d   1       5.244   4.169   2.687  0.00  0.00     0.009 C 
ENDBRANCH   7   8
ENDBRANCH   1   7
TORSDOF 2
ENDMDL
