MODEL 1
REMARK minimizedAffinity -3.56300688
REMARK minimizedRMSD -1
REMARK  2 active torsions:
REMARK  status: ('A' for Active; 'I' for Inactive)
REMARK    1  A    between atoms: C1_2  and  C2_3 
REMARK    2  A    between atoms: C2_3  and  C3_4 
ROOT
ATOM      1  C3  UNL d   1       5.229   1.528   4.327  0.00  0.00    -0.075 A 
ATOM      2  C4  UNL d   1       5.683   0.622   3.357  0.00  0.00     0.002 A 
ATOM      3  C5  UNL d   1       5.982  -0.696   3.704  0.00  0.00     0.002 A 
ATOM      4  C6  UNL d   1       5.841  -1.121   5.023  0.00  0.00    -0.004 A 
ATOM      5  C7  UNL d   1       5.407  -0.225   5.997  0.00  0.00     0.002 A 
ATOM      6  C8  UNL d   1       5.103   1.093   5.652  0.00  0.00     0.002 A 
ENDROOT
BRANCH   1   7
ATOM      7  C2  UNL d   1       4.875   2.948   3.952  0.00  0.00     0.056 C 
BRANCH   7   8
ATOM      8  C1  UNL d   1       5.940   3.653   3.105  0.00  0.00     0.007 C 
ATOM      9  C   UNL d   1       6.000   5.155   3.346  0.00  0.00     0.009 C 
ENDBRANCH   7   8
ENDBRANCH   1   7
TORSDOF 2
ENDMDL
