MODEL 1
REMARK minimizedAffinity -2.20653391
REMARK minimizedRMSD -1
REMARK  2 active torsions:
REMARK  status: ('A' for Active; 'I' for Inactive)
REMARK    1  A    between atoms: C1_2  and  C2_3 
REMARK    2  A    between atoms: C2_3  and  C3_4 
ROOT
ATOM      1  C3  UNL d   1       5.923   1.897   4.672  0.00  0.00    -0.075 A 
ATOM      2  C4  UNL d   1       5.970   1.255   5.918  0.00  0.00     0.002 A 
ATOM      3  C5  UNL d   1       5.933  -0.137   5.999  0.00  0.00     0.002 A 
ATOM      4  C6  UNL d   1       5.838  -0.904   4.840  0.00  0.00    -0.004 A 
ATOM      5  C7  UNL d   1       5.774  -0.276   3.598  0.00  0.00     0.002 A 
ATOM      6  C8  UNL d   1       5.815   1.117   3.513  0.00  0.00     0.002 A 
ENDROOT
BRANCH   1   7
ATOM      7  C2  UNL d   1       5.992   3.402   4.575  0.00  0.00     0.056 C 
BRANCH   7   8
ATOM      8  C1  UNL d   1       5.331   3.978   3.319  0.00  0.00     0.007 C 
ATOM      9  C   UNL d   1       5.948   5.294   2.865  0.00  0.00     0.009 C 
ENDBRANCH   7   8
ENDBRANCH   1   7
TORSDOF 2
ENDMDL
