MODEL 1
REMARK minimizedAffinity 0.0492697544
REMARK minimizedRMSD -1
REMARK  2 active torsions:
REMARK  status: ('A' for Active; 'I' for Inactive)
REMARK    1  A    between atoms: C1_2  and  C2_3 
REMARK    2  A    between atoms: C2_3  and  C3_4 
ROOT
ATOM      1  C3  UNL d   1       5.175   2.341   3.802  0.00  0.00    -0.075 A 
ATOM      2  C4  UNL d   1       5.695   2.231   5.099  0.00  0.00     0.002 A 
ATOM      3  C5  UNL d   1       6.000   0.980   5.636  0.00  0.00     0.002 A 
ATOM      4  C6  UNL d   1       5.779  -0.175   4.889  0.00  0.00    -0.004 A 
ATOM      5  C7  UNL d   1       5.247  -0.078   3.605  0.00  0.00     0.002 A 
ATOM      6  C8  UNL d   1       4.945   1.172   3.063  0.00  0.00     0.002 A 
ENDROOT
BRANCH   1   7
ATOM      7  C2  UNL d   1       4.870   3.694   3.204  0.00  0.00     0.056 C 
BRANCH   7   8
ATOM      8  C1  UNL d   1       6.000   4.716   3.366  0.00  0.00     0.007 C 
ATOM      9  C   UNL d   1       5.960   5.826   2.324  0.00  0.00     0.009 C 
ENDBRANCH   7   8
ENDBRANCH   1   7
TORSDOF 2
ENDMDL
