MODEL 1
REMARK minimizedAffinity 1.14095938
REMARK minimizedRMSD -1
REMARK  2 active torsions:
REMARK  status: ('A' for Active; 'I' for Inactive)
REMARK    1  A    between atoms: C1_2  and  C2_3 
REMARK    2  A    between atoms: C2_3  and  C3_4 
ROOT
ATOM      1  C3  UNL d   1       5.982   1.629   3.915  0.00  0.00    -0.075 A 
ATOM      2  C4  UNL d   1       5.970   2.486   2.805  0.00  0.00     0.002 A 
ATOM      3  C5  UNL d   1       5.982   3.870   2.978  0.00  0.00     0.002 A 
ATOM      4  C6  UNL d   1       5.996   4.414   4.260  0.00  0.00    -0.004 A 
ATOM      5  C7  UNL d   1       5.992   3.573   5.371  0.00  0.00     0.002 A 
ATOM      6  C8  UNL d   1       5.984   2.187   5.200  0.00  0.00     0.002 A 
ENDROOT
BRANCH   1   7
ATOM      7  C2  UNL d   1       5.999   0.130   3.734  0.00  0.00     0.056 C 
BRANCH   7   8
ATOM      8  C1  UNL d   1       5.740  -0.657   5.023  0.00  0.00     0.007 C 
ATOM      9  C   UNL d   1       5.987  -2.152   4.874  0.00  0.00     0.009 C 
ENDBRANCH   7   8
ENDBRANCH   1   7
TORSDOF 2
ENDMDL
