MODEL 1
REMARK minimizedAffinity -0.112482414
REMARK minimizedRMSD -1
REMARK  2 active torsions:
REMARK  status: ('A' for Active; 'I' for Inactive)
REMARK    1  A    between atoms: C1_2  and  C2_3 
REMARK    2  A    between atoms: C2_3  and  C3_4 
ROOT
ATOM      1  C3  UNL d   1       5.949   3.201   3.166  0.00  0.00    -0.075 A 
ATOM      2  C4  UNL d   1       5.949   4.048   2.047  0.00  0.00     0.002 A 
ATOM      3  C5  UNL d   1       5.960   5.433   2.208  0.00  0.00     0.002 A 
ATOM      4  C6  UNL d   1       5.960   5.990   3.485  0.00  0.00    -0.004 A 
ATOM      5  C7  UNL d   1       5.942   5.158   4.603  0.00  0.00     0.002 A 
ATOM      6  C8  UNL d   1       5.936   3.771   4.446  0.00  0.00     0.002 A 
ENDROOT
BRANCH   1   7
ATOM      7  C2  UNL d   1       5.967   1.700   2.999  0.00  0.00     0.056 C 
BRANCH   7   8
ATOM      8  C1  UNL d   1       5.825   0.925   4.313  0.00  0.00     0.007 C 
ATOM      9  C   UNL d   1       5.997  -0.579   4.144  0.00  0.00     0.009 C 
ENDBRANCH   7   8
ENDBRANCH   1   7
TORSDOF 2
ENDMDL
