MODEL 1
REMARK minimizedAffinity -3.17307854
REMARK minimizedRMSD -1
REMARK  2 active torsions:
REMARK  status: ('A' for Active; 'I' for Inactive)
REMARK    1  A    between atoms: C1_2  and  C2_3 
REMARK    2  A    between atoms: C2_3  and  C3_4 
ROOT
ATOM      1  C3  UNL d   1       5.877  -1.545   4.230  0.00  0.00    -0.075 A 
ATOM      2  C4  UNL d   1       5.946  -1.192   5.585  0.00  0.00     0.002 A 
ATOM      3  C5  UNL d   1       5.999   0.149   5.966  0.00  0.00     0.002 A 
ATOM      4  C6  UNL d   1       5.993   1.152   4.999  0.00  0.00    -0.004 A 
ATOM      5  C7  UNL d   1       5.942   0.812   3.649  0.00  0.00     0.002 A 
ATOM      6  C8  UNL d   1       5.885  -0.529   3.265  0.00  0.00     0.002 A 
ENDROOT
BRANCH   1   7
ATOM      7  C2  UNL d   1       5.790  -2.994   3.812  0.00  0.00     0.056 C 
BRANCH   7   8
ATOM      8  C1  UNL d   1       5.060  -3.890   4.818  0.00  0.00     0.007 C 
ATOM      9  C   UNL d   1       5.995  -4.810   5.592  0.00  0.00     0.009 C 
ENDBRANCH   7   8
ENDBRANCH   1   7
TORSDOF 2
ENDMDL
