MODEL 1
REMARK minimizedAffinity -1.77096975
REMARK minimizedRMSD -1
REMARK  2 active torsions:
REMARK  status: ('A' for Active; 'I' for Inactive)
REMARK    1  A    between atoms: C1_2  and  C2_3 
REMARK    2  A    between atoms: C2_3  and  C3_4 
ROOT
ATOM      1  C3  UNL d   1       5.960   2.287   3.718  0.00  0.00    -0.075 A 
ATOM      2  C4  UNL d   1       5.951   1.517   4.891  0.00  0.00     0.002 A 
ATOM      3  C5  UNL d   1       5.943   0.124   4.823  0.00  0.00     0.002 A 
ATOM      4  C6  UNL d   1       5.934  -0.516   3.586  0.00  0.00    -0.004 A 
ATOM      5  C7  UNL d   1       5.926   0.238   2.415  0.00  0.00     0.002 A 
ATOM      6  C8  UNL d   1       5.939   1.633   2.479  0.00  0.00     0.002 A 
ENDROOT
BRANCH   1   7
ATOM      7  C2  UNL d   1       5.999   3.795   3.785  0.00  0.00     0.056 C 
BRANCH   7   8
ATOM      8  C1  UNL d   1       5.904   4.482   2.419  0.00  0.00     0.007 C 
ATOM      9  C   UNL d   1       6.000   6.000   2.502  0.00  0.00     0.009 C 
ENDBRANCH   7   8
ENDBRANCH   1   7
TORSDOF 2
ENDMDL
