MODEL 1
REMARK minimizedAffinity 2.3681221
REMARK minimizedRMSD -1
REMARK  2 active torsions:
REMARK  status: ('A' for Active; 'I' for Inactive)
REMARK    1  A    between atoms: C1_2  and  C2_3 
REMARK    2  A    between atoms: C2_3  and  C3_4 
ROOT
ATOM      1  C3  UNL d   1       5.950   3.328   2.986  0.00  0.00    -0.075 A 
ATOM      2  C4  UNL d   1       5.998   4.396   3.894  0.00  0.00     0.002 A 
ATOM      3  C5  UNL d   1       5.947   5.714   3.440  0.00  0.00     0.002 A 
ATOM      4  C6  UNL d   1       5.857   5.981   2.076  0.00  0.00    -0.004 A 
ATOM      5  C7  UNL d   1       5.826   4.929   1.164  0.00  0.00     0.002 A 
ATOM      6  C8  UNL d   1       5.872   3.609   1.615  0.00  0.00     0.002 A 
ENDROOT
BRANCH   1   7
ATOM      7  C2  UNL d   1       5.975   1.898   3.472  0.00  0.00     0.056 C 
BRANCH   7   8
ATOM      8  C1  UNL d   1       5.986   0.857   2.348  0.00  0.00     0.007 C 
ATOM      9  C   UNL d   1       5.799  -0.569   2.849  0.00  0.00     0.009 C 
ENDBRANCH   7   8
ENDBRANCH   1   7
TORSDOF 2
ENDMDL
