MODEL 1
REMARK minimizedAffinity 5.5671649
REMARK minimizedRMSD -1
REMARK  2 active torsions:
REMARK  status: ('A' for Active; 'I' for Inactive)
REMARK    1  A    between atoms: C1_2  and  C2_3 
REMARK    2  A    between atoms: C2_3  and  C3_4 
ROOT
ATOM      1  C3  UNL d   1       5.939   2.957   2.882  0.00  0.00    -0.075 A 
ATOM      2  C4  UNL d   1       5.968   1.907   1.952  0.00  0.00     0.002 A 
ATOM      3  C5  UNL d   1       5.988   0.580   2.383  0.00  0.00     0.002 A 
ATOM      4  C6  UNL d   1       5.990   0.286   3.745  0.00  0.00    -0.004 A 
ATOM      5  C7  UNL d   1       5.979   1.321   4.677  0.00  0.00     0.002 A 
ATOM      6  C8  UNL d   1       5.954   2.650   4.249  0.00  0.00     0.002 A 
ENDROOT
BRANCH   1   7
ATOM      7  C2  UNL d   1       5.887   4.394   2.423  0.00  0.00     0.056 C 
BRANCH   7   8
ATOM      8  C1  UNL d   1       5.105   5.320   3.360  0.00  0.00     0.007 C 
ATOM      9  C   UNL d   1       5.971   5.949   4.443  0.00  0.00     0.009 C 
ENDBRANCH   7   8
ENDBRANCH   1   7
TORSDOF 2
ENDMDL
