MODEL 1
REMARK minimizedAffinity 9.30736065
REMARK minimizedRMSD -1
REMARK  0 active torsions:
REMARK  status: ('A' for Active; 'I' for Inactive)
ROOT
ATOM      1  C   UNL d   1      -1.426   1.301   2.197  0.00  0.00     0.020 A 
ATOM      2  C1  UNL d   1      -1.675  -0.004   1.773  0.00  0.00     0.020 A 
ATOM      3  C2  UNL d   1      -2.989  -0.461   1.656  0.00  0.00     0.034 A 
ATOM      4  C3  UNL d   1      -4.060   0.387   1.964  0.00  0.00     0.017 A 
ATOM      5  C4  UNL d   1      -3.809   1.696   2.389  0.00  0.00     0.017 A 
ATOM      6  C5  UNL d   1      -2.491   2.149   2.505  0.00  0.00     0.034 A 
ATOM      7 Cl   UNL d   1      -5.077   2.801   2.786  0.00  0.00    -0.070 Cl
ATOM      8 Cl1  UNL d   1      -5.659  -0.245   1.796  0.00  0.00    -0.070 Cl
ENDROOT
TORSDOF 0
ENDMDL
