MODEL 1
REMARK minimizedAffinity 16.7952271
REMARK minimizedRMSD -1
REMARK  0 active torsions:
REMARK  status: ('A' for Active; 'I' for Inactive)
ROOT
ATOM      1  C   UNL d   1       0.309  -3.052   2.440  0.00  0.00     0.020 A 
ATOM      2  C1  UNL d   1      -0.056  -2.438   1.242  0.00  0.00     0.020 A 
ATOM      3  C2  UNL d   1      -1.088  -1.498   1.226  0.00  0.00     0.034 A 
ATOM      4  C3  UNL d   1      -1.760  -1.170   2.409  0.00  0.00     0.017 A 
ATOM      5  C4  UNL d   1      -1.393  -1.787   3.611  0.00  0.00     0.017 A 
ATOM      6  C5  UNL d   1      -0.358  -2.727   3.621  0.00  0.00     0.034 A 
ATOM      7 Cl   UNL d   1      -2.175  -1.434   5.111  0.00  0.00    -0.070 Cl
ATOM      8 Cl1  UNL d   1      -3.027   0.001   2.316  0.00  0.00    -0.070 Cl
ENDROOT
TORSDOF 0
ENDMDL
