MODEL 1
REMARK minimizedAffinity 12.9756603
REMARK minimizedRMSD -1
REMARK  0 active torsions:
REMARK  status: ('A' for Active; 'I' for Inactive)
ROOT
ATOM      1  C   UNL d   1       1.819  -1.107  -4.144  0.00  0.00     0.020 A 
ATOM      2  C1  UNL d   1       0.873  -0.998  -3.125  0.00  0.00     0.020 A 
ATOM      3  C2  UNL d   1       0.629   0.241  -2.529  0.00  0.00     0.034 A 
ATOM      4  C3  UNL d   1       1.331   1.376  -2.951  0.00  0.00     0.017 A 
ATOM      5  C4  UNL d   1       2.281   1.265  -3.974  0.00  0.00     0.017 A 
ATOM      6  C5  UNL d   1       2.521   0.022  -4.567  0.00  0.00     0.034 A 
ATOM      7 Cl   UNL d   1       3.187   2.620  -4.548  0.00  0.00    -0.070 Cl
ATOM      8 Cl1  UNL d   1       0.978   2.876  -2.170  0.00  0.00    -0.070 Cl
ENDROOT
TORSDOF 0
ENDMDL
