MODEL 1
REMARK minimizedAffinity 4.63592815
REMARK minimizedRMSD -1
REMARK  0 active torsions:
REMARK  status: ('A' for Active; 'I' for Inactive)
ROOT
ATOM      1  C   UNL d   1      -1.115  -0.424   1.845  0.00  0.00     0.020 A 
ATOM      2  C1  UNL d   1      -0.832   0.884   2.235  0.00  0.00     0.020 A 
ATOM      3  C2  UNL d   1      -1.871   1.803   2.401  0.00  0.00     0.034 A 
ATOM      4  C3  UNL d   1      -3.196   1.415   2.177  0.00  0.00     0.017 A 
ATOM      5  C4  UNL d   1      -3.479   0.101   1.786  0.00  0.00     0.017 A 
ATOM      6  C5  UNL d   1      -2.435  -0.815   1.622  0.00  0.00     0.034 A 
ATOM      7 Cl   UNL d   1      -5.090  -0.452   1.492  0.00  0.00    -0.070 Cl
ATOM      8 Cl1  UNL d   1      -4.431   2.603   2.402  0.00  0.00    -0.070 Cl
ENDROOT
TORSDOF 0
ENDMDL
