MODEL 1
REMARK minimizedAffinity 8.11255074
REMARK minimizedRMSD -1
REMARK  0 active torsions:
REMARK  status: ('A' for Active; 'I' for Inactive)
ROOT
ATOM      1  C   UNL d   1      -3.468   0.631   3.322  0.00  0.00     0.020 A 
ATOM      2  C1  UNL d   1      -3.383   1.901   2.753  0.00  0.00     0.020 A 
ATOM      3  C2  UNL d   1      -2.516   2.130   1.682  0.00  0.00     0.034 A 
ATOM      4  C3  UNL d   1      -1.731   1.088   1.177  0.00  0.00     0.017 A 
ATOM      5  C4  UNL d   1      -1.817  -0.187   1.748  0.00  0.00     0.017 A 
ATOM      6  C5  UNL d   1      -2.687  -0.411   2.820  0.00  0.00     0.034 A 
ATOM      7 Cl   UNL d   1      -0.880  -1.523   1.178  0.00  0.00    -0.070 Cl
ATOM      8 Cl1  UNL d   1      -0.682   1.442  -0.150  0.00  0.00    -0.070 Cl
ENDROOT
TORSDOF 0
ENDMDL
