MODEL 1
REMARK minimizedAffinity 12.335144
REMARK minimizedRMSD -1
REMARK  0 active torsions:
REMARK  status: ('A' for Active; 'I' for Inactive)
ROOT
ATOM      1  C   UNL d   1       1.883  -0.090  -3.802  0.00  0.00     0.020 A 
ATOM      2  C1  UNL d   1       1.935  -1.483  -3.800  0.00  0.00     0.020 A 
ATOM      3  C2  UNL d   1       0.965  -2.219  -4.484  0.00  0.00     0.034 A 
ATOM      4  C3  UNL d   1      -0.062  -1.562  -5.172  0.00  0.00     0.017 A 
ATOM      5  C4  UNL d   1      -0.113  -0.163  -5.173  0.00  0.00     0.017 A 
ATOM      6  C5  UNL d   1       0.861   0.568  -4.487  0.00  0.00     0.034 A 
ATOM      7 Cl   UNL d   1      -1.349   0.718  -5.999  0.00  0.00    -0.070 Cl
ATOM      8 Cl1  UNL d   1      -1.228  -2.535  -5.996  0.00  0.00    -0.070 Cl
ENDROOT
TORSDOF 0
ENDMDL
