MODEL 1
REMARK minimizedAffinity 6.78893232
REMARK minimizedRMSD -1
REMARK  0 active torsions:
REMARK  status: ('A' for Active; 'I' for Inactive)
ROOT
ATOM      1  C   UNL d   1      -1.196   1.146   1.545  0.00  0.00     0.020 A 
ATOM      2  C1  UNL d   1      -2.547   1.246   1.874  0.00  0.00     0.020 A 
ATOM      3  C2  UNL d   1      -3.093   0.406   2.847  0.00  0.00     0.034 A 
ATOM      4  C3  UNL d   1      -2.287  -0.539   3.493  0.00  0.00     0.017 A 
ATOM      5  C4  UNL d   1      -0.931  -0.639   3.162  0.00  0.00     0.017 A 
ATOM      6  C5  UNL d   1      -0.390   0.205   2.188  0.00  0.00     0.034 A 
ATOM      7 Cl   UNL d   1       0.125  -1.779   3.917  0.00  0.00    -0.070 Cl
ATOM      8 Cl1  UNL d   1      -3.029  -1.545   4.686  0.00  0.00    -0.070 Cl
ENDROOT
TORSDOF 0
ENDMDL
