MODEL 1
REMARK minimizedAffinity 13.4252281
REMARK minimizedRMSD -1
REMARK  0 active torsions:
REMARK  status: ('A' for Active; 'I' for Inactive)
ROOT
ATOM      1  C   UNL d   1      -1.414   1.444   1.247  0.00  0.00     0.020 A 
ATOM      2  C1  UNL d   1      -2.052   1.113   0.053  0.00  0.00     0.020 A 
ATOM      3  C2  UNL d   1      -2.617  -0.154  -0.109  0.00  0.00     0.034 A 
ATOM      4  C3  UNL d   1      -2.545  -1.094   0.925  0.00  0.00     0.017 A 
ATOM      5  C4  UNL d   1      -1.903  -0.761   2.124  0.00  0.00     0.017 A 
ATOM      6  C5  UNL d   1      -1.339   0.509   2.280  0.00  0.00     0.034 A 
ATOM      7 Cl   UNL d   1      -1.774  -1.868   3.445  0.00  0.00    -0.070 Cl
ATOM      8 Cl1  UNL d   1      -3.266  -2.641   0.657  0.00  0.00    -0.070 Cl
ENDROOT
TORSDOF 0
ENDMDL
