MODEL 1
REMARK minimizedAffinity 6.22255039
REMARK minimizedRMSD -1
REMARK  0 active torsions:
REMARK  status: ('A' for Active; 'I' for Inactive)
ROOT
ATOM      1  C   UNL d   1      -5.245  -3.240  -5.885  0.00  0.00     0.020 A 
ATOM      2  C1  UNL d   1      -5.818  -4.138  -4.985  0.00  0.00     0.020 A 
ATOM      3  C2  UNL d   1      -6.000  -3.770  -3.651  0.00  0.00     0.034 A 
ATOM      4  C3  UNL d   1      -5.609  -2.500  -3.211  0.00  0.00     0.017 A 
ATOM      5  C4  UNL d   1      -5.034  -1.599  -4.115  0.00  0.00     0.017 A 
ATOM      6  C5  UNL d   1      -4.854  -1.973  -5.450  0.00  0.00     0.034 A 
ATOM      7 Cl   UNL d   1      -4.526  -0.014  -3.647  0.00  0.00    -0.070 Cl
ATOM      8 Cl1  UNL d   1      -5.864  -2.112  -1.547  0.00  0.00    -0.070 Cl
ENDROOT
TORSDOF 0
ENDMDL
