MODEL 1
REMARK minimizedAffinity 6.68328476
REMARK minimizedRMSD -1
REMARK  0 active torsions:
REMARK  status: ('A' for Active; 'I' for Inactive)
ROOT
ATOM      1  C   UNL d   1       3.913   4.259  -5.362  0.00  0.00     0.020 A 
ATOM      2  C1  UNL d   1       3.462   4.844  -4.179  0.00  0.00     0.020 A 
ATOM      3  C2  UNL d   1       2.801   4.069  -3.225  0.00  0.00     0.034 A 
ATOM      4  C3  UNL d   1       2.587   2.705  -3.450  0.00  0.00     0.017 A 
ATOM      5  C4  UNL d   1       3.040   2.118  -4.638  0.00  0.00     0.017 A 
ATOM      6  C5  UNL d   1       3.702   2.898  -5.590  0.00  0.00     0.034 A 
ATOM      7 Cl   UNL d   1       2.814   0.440  -4.987  0.00  0.00    -0.070 Cl
ATOM      8 Cl1  UNL d   1       1.762   1.807  -2.226  0.00  0.00    -0.070 Cl
ENDROOT
TORSDOF 0
ENDMDL
