MODEL 1
REMARK minimizedAffinity 15.0470085
REMARK minimizedRMSD -1
REMARK  0 active torsions:
REMARK  status: ('A' for Active; 'I' for Inactive)
ROOT
ATOM      1  C   UNL d   1      -5.365  -3.564   0.380  0.00  0.00     0.020 A 
ATOM      2  C1  UNL d   1      -6.000  -2.323   0.400  0.00  0.00     0.020 A 
ATOM      3  C2  UNL d   1      -5.247  -1.155   0.537  0.00  0.00     0.034 A 
ATOM      4  C3  UNL d   1      -3.854  -1.226   0.654  0.00  0.00     0.017 A 
ATOM      5  C4  UNL d   1      -3.217  -2.472   0.634  0.00  0.00     0.017 A 
ATOM      6  C5  UNL d   1      -3.976  -3.639   0.497  0.00  0.00     0.034 A 
ATOM      7 Cl   UNL d   1      -1.502  -2.639   0.773  0.00  0.00    -0.070 Cl
ATOM      8 Cl1  UNL d   1      -2.985   0.258   0.819  0.00  0.00    -0.070 Cl
ENDROOT
TORSDOF 0
ENDMDL
