MODEL 1
REMARK minimizedAffinity 9.59387779
REMARK minimizedRMSD -1
REMARK  0 active torsions:
REMARK  status: ('A' for Active; 'I' for Inactive)
ROOT
ATOM      1  C   UNL d   1      -2.136   2.136   2.282  0.00  0.00     0.020 A 
ATOM      2  C1  UNL d   1      -2.119   0.749   2.137  0.00  0.00     0.020 A 
ATOM      3  C2  UNL d   1      -3.311   0.055   1.918  0.00  0.00     0.034 A 
ATOM      4  C3  UNL d   1      -4.525   0.748   1.844  0.00  0.00     0.017 A 
ATOM      5  C4  UNL d   1      -4.541   2.140   1.989  0.00  0.00     0.017 A 
ATOM      6  C5  UNL d   1      -3.345   2.829   2.208  0.00  0.00     0.034 A 
ATOM      7 Cl   UNL d   1      -6.000   3.063   1.910  0.00  0.00    -0.070 Cl
ATOM      8 Cl1  UNL d   1      -5.961  -0.174   1.570  0.00  0.00    -0.070 Cl
ENDROOT
TORSDOF 0
ENDMDL
