MODEL 1
REMARK minimizedAffinity 8.13602352
REMARK minimizedRMSD -1
REMARK  0 active torsions:
REMARK  status: ('A' for Active; 'I' for Inactive)
ROOT
ATOM      1  C   UNL d   1      -3.748  -1.723   0.380  0.00  0.00     0.020 A 
ATOM      2  C1  UNL d   1      -2.559  -2.257   0.878  0.00  0.00     0.020 A 
ATOM      3  C2  UNL d   1      -1.552  -1.407   1.339  0.00  0.00     0.034 A 
ATOM      4  C3  UNL d   1      -1.730  -0.019   1.303  0.00  0.00     0.017 A 
ATOM      5  C4  UNL d   1      -2.924   0.515   0.804  0.00  0.00     0.017 A 
ATOM      6  C5  UNL d   1      -3.929  -0.340   0.344  0.00  0.00     0.034 A 
ATOM      7 Cl   UNL d   1      -3.217   2.217   0.728  0.00  0.00    -0.070 Cl
ATOM      8 Cl1  UNL d   1      -0.442   0.972   1.890  0.00  0.00    -0.070 Cl
ENDROOT
TORSDOF 0
ENDMDL
