MODEL 1
REMARK minimizedAffinity 10.8467159
REMARK minimizedRMSD -1
REMARK  0 active torsions:
REMARK  status: ('A' for Active; 'I' for Inactive)
ROOT
ATOM      1  C   UNL d   1       0.557   3.468   3.462  0.00  0.00     0.020 A 
ATOM      2  C1  UNL d   1       1.144   2.205   3.401  0.00  0.00     0.020 A 
ATOM      3  C2  UNL d   1       0.480   1.157   2.760  0.00  0.00     0.034 A 
ATOM      4  C3  UNL d   1      -0.775   1.371   2.177  0.00  0.00     0.017 A 
ATOM      5  C4  UNL d   1      -1.363   2.639   2.239  0.00  0.00     0.017 A 
ATOM      6  C5  UNL d   1      -0.693   3.685   2.882  0.00  0.00     0.034 A 
ATOM      7 Cl   UNL d   1      -2.908   2.979   1.543  0.00  0.00    -0.070 Cl
ATOM      8 Cl1  UNL d   1      -1.539   0.029   1.400  0.00  0.00    -0.070 Cl
ENDROOT
TORSDOF 0
ENDMDL
