MODEL 1
REMARK minimizedAffinity 13.693449
REMARK minimizedRMSD -1
REMARK  0 active torsions:
REMARK  status: ('A' for Active; 'I' for Inactive)
ROOT
ATOM      1  C   UNL d   1      -4.840  -0.670   0.827  0.00  0.00     0.020 A 
ATOM      2  C1  UNL d   1      -5.927  -1.508   0.581  0.00  0.00     0.020 A 
ATOM      3  C2  UNL d   1      -5.720  -2.865   0.328  0.00  0.00     0.034 A 
ATOM      4  C3  UNL d   1      -4.422  -3.389   0.319  0.00  0.00     0.017 A 
ATOM      5  C4  UNL d   1      -3.331  -2.548   0.566  0.00  0.00     0.017 A 
ATOM      6  C5  UNL d   1      -3.544  -1.189   0.819  0.00  0.00     0.034 A 
ATOM      7 Cl   UNL d   1      -1.701  -3.122   0.572  0.00  0.00    -0.070 Cl
ATOM      8 Cl1  UNL d   1      -4.239  -5.077  -0.001  0.00  0.00    -0.070 Cl
ENDROOT
TORSDOF 0
ENDMDL
