MODEL 1
REMARK minimizedAffinity 7.36410666
REMARK minimizedRMSD -1
REMARK  0 active torsions:
REMARK  status: ('A' for Active; 'I' for Inactive)
ROOT
ATOM      1  C   UNL d   1      -2.186   0.909   0.327  0.00  0.00     0.020 A 
ATOM      2  C1  UNL d   1      -3.229   1.835   0.340  0.00  0.00     0.020 A 
ATOM      3  C2  UNL d   1      -3.141   2.974   1.143  0.00  0.00     0.034 A 
ATOM      4  C3  UNL d   1      -2.009   3.190   1.937  0.00  0.00     0.017 A 
ATOM      5  C4  UNL d   1      -0.963   2.260   1.924  0.00  0.00     0.017 A 
ATOM      6  C5  UNL d   1      -1.056   1.121   1.118  0.00  0.00     0.034 A 
ATOM      7 Cl   UNL d   1       0.465   2.458   2.877  0.00  0.00    -0.070 Cl
ATOM      8 Cl1  UNL d   1      -1.968   4.620   2.906  0.00  0.00    -0.070 Cl
ENDROOT
TORSDOF 0
ENDMDL
