MODEL 1
REMARK minimizedAffinity -3.39332271
REMARK minimizedRMSD -1
REMARK  0 active torsions:
REMARK  status: ('A' for Active; 'I' for Inactive)
ROOT
ATOM      1  C1  DEN d   1      -0.266   0.737   2.797  0.00  0.00     0.130 A 
ATOM      2  C2  DEN d   1      -1.617   1.112   2.389  0.00  0.00    -0.031 A 
ATOM      3  C3  DEN d   1      -1.783   0.748   0.967  0.00  0.00     0.027 A 
ATOM      4  C4  DEN d   1      -0.089  -0.360  -0.632  0.00  0.00     0.027 A 
ATOM      5  C5  DEN d   1       1.192  -0.852  -0.744  0.00  0.00    -0.003 A 
ATOM      6  C6  DEN d   1       2.081  -0.819   0.298  0.00  0.00     0.001 A 
ATOM      7  C7  DEN d   1       1.686  -0.323   1.512  0.00  0.00     0.017 A 
ATOM      8  C8  DEN d   1       0.398   0.183   1.630  0.00  0.00    -0.094 A 
ATOM      9  C9  DEN d   1      -0.490   0.129   0.569  0.00  0.00    -0.072 A 
ENDROOT
TORSDOF 0
ENDMDL
