MODEL 1
REMARK minimizedAffinity 0.14943637
REMARK minimizedRMSD -1
REMARK  0 active torsions:
REMARK  status: ('A' for Active; 'I' for Inactive)
ROOT
ATOM      1  C1  DEN d   1      -0.522   0.170  -1.120  0.00  0.00     0.130 A 
ATOM      2  C2  DEN d   1       0.060  -0.859  -1.977  0.00  0.00    -0.031 A 
ATOM      3  C3  DEN d   1       1.215  -1.445  -1.267  0.00  0.00     0.027 A 
ATOM      4  C4  DEN d   1       2.150  -0.866   1.066  0.00  0.00     0.027 A 
ATOM      5  C5  DEN d   1       1.997  -0.051   2.166  0.00  0.00    -0.003 A 
ATOM      6  C6  DEN d   1       1.022   0.909   2.233  0.00  0.00     0.001 A 
ATOM      7  C7  DEN d   1       0.134   1.049   1.200  0.00  0.00     0.017 A 
ATOM      8  C8  DEN d   1       0.287   0.236   0.084  0.00  0.00    -0.094 A 
ATOM      9  C9  DEN d   1       1.271  -0.737   0.040  0.00  0.00    -0.072 A 
ENDROOT
TORSDOF 0
ENDMDL
