MODEL 1
REMARK minimizedAffinity -1.9421128
REMARK minimizedRMSD -1
REMARK  0 active torsions:
REMARK  status: ('A' for Active; 'I' for Inactive)
ROOT
ATOM      1  C1  DEN d   1       1.925  -0.070   0.070  0.00  0.00     0.130 A 
ATOM      2  C2  DEN d   1       1.704  -0.711  -1.223  0.00  0.00    -0.031 A 
ATOM      3  C3  DEN d   1       0.247  -0.838  -1.427  0.00  0.00     0.027 A 
ATOM      4  C4  DEN d   1      -1.678  -0.104   0.124  0.00  0.00     0.027 A 
ATOM      5  C5  DEN d   1      -1.985   0.474   1.336  0.00  0.00    -0.003 A 
ATOM      6  C6  DEN d   1      -1.019   0.877   2.218  0.00  0.00     0.001 A 
ATOM      7  C7  DEN d   1       0.303   0.749   1.882  0.00  0.00     0.017 A 
ATOM      8  C8  DEN d   1       0.621   0.160   0.665  0.00  0.00    -0.094 A 
ATOM      9  C9  DEN d   1      -0.371  -0.230  -0.218  0.00  0.00    -0.072 A 
ENDROOT
TORSDOF 0
ENDMDL
