MODEL 1
REMARK minimizedAffinity -3.17234325
REMARK minimizedRMSD -1
REMARK  0 active torsions:
REMARK  status: ('A' for Active; 'I' for Inactive)
ROOT
ATOM      1  C1  DEN d   1       0.626   1.060   2.380  0.00  0.00     0.130 A 
ATOM      2  C2  DEN d   1      -0.618   1.742   2.034  0.00  0.00    -0.031 A 
ATOM      3  C3  DEN d   1      -1.073   1.226   0.728  0.00  0.00     0.027 A 
ATOM      4  C4  DEN d   1       0.020  -0.556  -0.783  0.00  0.00     0.027 A 
ATOM      5  C5  DEN d   1       1.093  -1.409  -0.917  0.00  0.00    -0.003 A 
ATOM      6  C6  DEN d   1       2.095  -1.474   0.014  0.00  0.00     0.001 A 
ATOM      7  C7  DEN d   1       2.022  -0.703   1.144  0.00  0.00     0.017 A 
ATOM      8  C8  DEN d   1       0.946   0.165   1.283  0.00  0.00    -0.094 A 
ATOM      9  C9  DEN d   1      -0.063   0.207   0.336  0.00  0.00    -0.072 A 
ENDROOT
TORSDOF 0
ENDMDL
