MODEL 1
REMARK minimizedAffinity -2.54739237
REMARK minimizedRMSD -1
REMARK  0 active torsions:
REMARK  status: ('A' for Active; 'I' for Inactive)
ROOT
ATOM      1  C1  DEN d   1       1.031   1.406   0.800  0.00  0.00     0.130 A 
ATOM      2  C2  DEN d   1       0.666   2.100   2.032  0.00  0.00    -0.031 A 
ATOM      3  C3  DEN d   1      -0.704   1.688   2.398  0.00  0.00     0.027 A 
ATOM      4  C4  DEN d   1      -2.285   0.049   1.187  0.00  0.00     0.027 A 
ATOM      5  C5  DEN d   1      -2.421  -0.777   0.093  0.00  0.00    -0.003 A 
ATOM      6  C6  DEN d   1      -1.438  -0.907  -0.851  0.00  0.00     0.001 A 
ATOM      7  C7  DEN d   1      -0.255  -0.233  -0.697  0.00  0.00     0.017 A 
ATOM      8  C8  DEN d   1      -0.113   0.608   0.399  0.00  0.00    -0.094 A 
ATOM      9  C9  DEN d   1      -1.114   0.716   1.349  0.00  0.00    -0.072 A 
ENDROOT
TORSDOF 0
ENDMDL
