MODEL 1
REMARK minimizedAffinity -7.00196648
REMARK minimizedRMSD -1
REMARK  0 active torsions:
REMARK  status: ('A' for Active; 'I' for Inactive)
ROOT
ATOM      1  C1  DEN d   1       0.730  -0.787  -0.179  0.00  0.00     0.130 A 
ATOM      2  C2  DEN d   1      -0.518  -0.473  -0.870  0.00  0.00    -0.031 A 
ATOM      3  C3  DEN d   1      -1.381   0.278   0.063  0.00  0.00     0.027 A 
ATOM      4  C4  DEN d   1      -0.908   0.985   2.498  0.00  0.00     0.027 A 
ATOM      5  C5  DEN d   1       0.011   0.935   3.523  0.00  0.00    -0.003 A 
ATOM      6  C6  DEN d   1       1.210   0.284   3.398  0.00  0.00     0.001 A 
ATOM      7  C7  DEN d   1       1.541  -0.306   2.207  0.00  0.00     0.017 A 
ATOM      8  C8  DEN d   1       0.617  -0.266   1.171  0.00  0.00    -0.094 A 
ATOM      9  C9  DEN d   1      -0.585   0.408   1.313  0.00  0.00    -0.072 A 
ENDROOT
TORSDOF 0
ENDMDL
