MODEL 1
REMARK minimizedAffinity 6.85112906
REMARK minimizedRMSD -1
REMARK  0 active torsions:
REMARK  status: ('A' for Active; 'I' for Inactive)
ROOT
ATOM      1  C1  DEN d   1       1.292  -0.910  -4.581  0.00  0.00     0.130 A 
ATOM      2  C2  DEN d   1       0.406   0.251  -4.616  0.00  0.00    -0.031 A 
ATOM      3  C3  DEN d   1       1.174   1.425  -4.158  0.00  0.00     0.027 A 
ATOM      4  C4  DEN d   1       3.638   1.560  -3.407  0.00  0.00     0.027 A 
ATOM      5  C5  DEN d   1       4.789   0.833  -3.197  0.00  0.00    -0.003 A 
ATOM      6  C6  DEN d   1       4.845  -0.520  -3.400  0.00  0.00     0.001 A 
ATOM      7  C7  DEN d   1       3.741  -1.182  -3.869  0.00  0.00     0.017 A 
ATOM      8  C8  DEN d   1       2.575  -0.458  -4.075  0.00  0.00    -0.094 A 
ATOM      9  C9  DEN d   1       2.542   0.912  -3.876  0.00  0.00    -0.072 A 
ENDROOT
TORSDOF 0
ENDMDL
