MODEL 1
REMARK minimizedAffinity -1.33630991
REMARK minimizedRMSD -1
REMARK  0 active torsions:
REMARK  status: ('A' for Active; 'I' for Inactive)
ROOT
ATOM      1  C   UNL d   1      -2.013  -2.293  -0.423  0.00  0.00     0.077 C 
ATOM      2  C1  UNL d   1      -1.387  -0.963  -0.721  0.00  0.00    -0.074 A 
ATOM      3  C2  UNL d   1      -2.008  -0.053  -1.581  0.00  0.00    -0.005 A 
ATOM      4  C3  UNL d   1      -1.417   1.184  -1.841  0.00  0.00     0.006 A 
ATOM      5  C4  UNL d   1      -0.202   1.522  -1.244  0.00  0.00    -0.005 A 
ATOM      6  C5  UNL d   1       0.433   0.625  -0.380  0.00  0.00    -0.074 A 
ATOM      7  C6  UNL d   1       1.734   0.976   0.278  0.00  0.00     0.077 C 
ATOM      8  C7  UNL d   1      -0.170  -0.613  -0.118  0.00  0.00    -0.001 A 
ENDROOT
TORSDOF 0
ENDMDL
