MODEL 1
REMARK minimizedAffinity -2.85594535
REMARK minimizedRMSD -1
REMARK  0 active torsions:
REMARK  status: ('A' for Active; 'I' for Inactive)
ROOT
ATOM      1  C   UNL d   1       1.475  -0.602   0.560  0.00  0.00     0.077 C 
ATOM      2  C1  UNL d   1       2.204   0.709   0.575  0.00  0.00    -0.074 A 
ATOM      3  C2  UNL d   1       2.049   1.605   1.637  0.00  0.00    -0.005 A 
ATOM      4  C3  UNL d   1       2.741   2.816   1.642  0.00  0.00     0.006 A 
ATOM      5  C4  UNL d   1       3.593   3.143   0.587  0.00  0.00    -0.005 A 
ATOM      6  C5  UNL d   1       3.761   2.259  -0.484  0.00  0.00    -0.074 A 
ATOM      7  C6  UNL d   1       4.680   2.591  -1.622  0.00  0.00     0.077 C 
ATOM      8  C7  UNL d   1       3.068   1.041  -0.478  0.00  0.00    -0.001 A 
ENDROOT
TORSDOF 0
ENDMDL
