MODEL 1
REMARK minimizedAffinity -4.96558714
REMARK minimizedRMSD -1
REMARK  0 active torsions:
REMARK  status: ('A' for Active; 'I' for Inactive)
ROOT
ATOM      1  C   UNL d   1       0.215  -0.160   0.105  0.00  0.00     0.077 C 
ATOM      2  C1  UNL d   1       1.055   0.961   0.643  0.00  0.00    -0.074 A 
ATOM      3  C2  UNL d   1       2.412   1.061   0.318  0.00  0.00    -0.005 A 
ATOM      4  C3  UNL d   1       3.178   2.114   0.818  0.00  0.00     0.006 A 
ATOM      5  C4  UNL d   1       2.597   3.075   1.645  0.00  0.00    -0.005 A 
ATOM      6  C5  UNL d   1       1.241   2.992   1.980  0.00  0.00    -0.074 A 
ATOM      7  C6  UNL d   1       0.598   4.022   2.860  0.00  0.00     0.077 C 
ATOM      8  C7  UNL d   1       0.476   1.935   1.468  0.00  0.00    -0.001 A 
ENDROOT
TORSDOF 0
ENDMDL
