MODEL 1
REMARK minimizedAffinity -3.93156004
REMARK minimizedRMSD -1
REMARK  0 active torsions:
REMARK  status: ('A' for Active; 'I' for Inactive)
ROOT
ATOM      1  C   UNL d   1       1.350   0.340   0.143  0.00  0.00     0.077 C 
ATOM      2  C1  UNL d   1       0.058  -0.321  -0.237  0.00  0.00    -0.074 A 
ATOM      3  C2  UNL d   1      -0.787   0.250  -1.193  0.00  0.00    -0.005 A 
ATOM      4  C3  UNL d   1      -1.981  -0.380  -1.543  0.00  0.00     0.006 A 
ATOM      5  C4  UNL d   1      -2.342  -1.586  -0.940  0.00  0.00    -0.005 A 
ATOM      6  C5  UNL d   1      -1.509  -2.172   0.018  0.00  0.00    -0.074 A 
ATOM      7  C6  UNL d   1      -1.876  -3.473   0.668  0.00  0.00     0.077 C 
ATOM      8  C7  UNL d   1      -0.307  -1.536   0.359  0.00  0.00    -0.001 A 
ENDROOT
TORSDOF 0
ENDMDL
