MODEL 1
REMARK minimizedAffinity -3.08617139
REMARK minimizedRMSD -1
REMARK  0 active torsions:
REMARK  status: ('A' for Active; 'I' for Inactive)
ROOT
ATOM      1  C   UNL d   1      -1.540  -3.194   1.015  0.00  0.00     0.077 C 
ATOM      2  C1  UNL d   1      -1.378  -1.946   0.199  0.00  0.00    -0.074 A 
ATOM      3  C2  UNL d   1      -2.331  -1.584  -0.759  0.00  0.00    -0.005 A 
ATOM      4  C3  UNL d   1      -2.172  -0.415  -1.503  0.00  0.00     0.006 A 
ATOM      5  C4  UNL d   1      -1.061   0.403  -1.296  0.00  0.00    -0.005 A 
ATOM      6  C5  UNL d   1      -0.098   0.059  -0.342  0.00  0.00    -0.074 A 
ATOM      7  C6  UNL d   1       1.097   0.932  -0.101  0.00  0.00     0.077 C 
ATOM      8  C7  UNL d   1      -0.268  -1.114   0.406  0.00  0.00    -0.001 A 
ENDROOT
TORSDOF 0
ENDMDL
