MODEL 1
REMARK minimizedAffinity -3.78350663
REMARK minimizedRMSD -1
REMARK  0 active torsions:
REMARK  status: ('A' for Active; 'I' for Inactive)
ROOT
ATOM      1  C   UNL d   1       1.214   0.272   0.035  0.00  0.00     0.077 C 
ATOM      2  C1  UNL d   1      -0.089  -0.407  -0.265  0.00  0.00    -0.074 A 
ATOM      3  C2  UNL d   1      -0.977   0.124  -1.206  0.00  0.00    -0.005 A 
ATOM      4  C3  UNL d   1      -2.181  -0.523  -1.481  0.00  0.00     0.006 A 
ATOM      5  C4  UNL d   1      -2.510  -1.707  -0.819  0.00  0.00    -0.005 A 
ATOM      6  C5  UNL d   1      -1.635  -2.253   0.125  0.00  0.00    -0.074 A 
ATOM      7  C6  UNL d   1      -1.968  -3.529   0.839  0.00  0.00     0.077 C 
ATOM      8  C7  UNL d   1      -0.423  -1.600   0.391  0.00  0.00    -0.001 A 
ENDROOT
TORSDOF 0
ENDMDL
