MODEL 1
REMARK minimizedAffinity -0.704930902
REMARK minimizedRMSD -1
REMARK  0 active torsions:
REMARK  status: ('A' for Active; 'I' for Inactive)
ROOT
ATOM      1  C   UNL d   1      -1.816  -3.094   0.321  0.00  0.00     0.077 C 
ATOM      2  C1  UNL d   1      -1.428  -1.754  -0.231  0.00  0.00    -0.074 A 
ATOM      3  C2  UNL d   1      -2.132  -1.184  -1.296  0.00  0.00    -0.005 A 
ATOM      4  C3  UNL d   1      -1.766   0.067  -1.792  0.00  0.00     0.006 A 
ATOM      5  C4  UNL d   1      -0.694   0.760  -1.228  0.00  0.00    -0.005 A 
ATOM      6  C5  UNL d   1       0.021   0.206  -0.162  0.00  0.00    -0.074 A 
ATOM      7  C6  UNL d   1       1.170   0.942   0.462  0.00  0.00     0.077 C 
ATOM      8  C7  UNL d   1      -0.357  -1.048   0.335  0.00  0.00    -0.001 A 
ENDROOT
TORSDOF 0
ENDMDL
