MODEL 1
REMARK minimizedAffinity -2.41646099
REMARK minimizedRMSD -1
REMARK  0 active torsions:
REMARK  status: ('A' for Active; 'I' for Inactive)
ROOT
ATOM      1  C   UNL d   1      -1.222  -3.186   1.316  0.00  0.00     0.077 C 
ATOM      2  C1  UNL d   1      -1.126  -1.986   0.421  0.00  0.00    -0.074 A 
ATOM      3  C2  UNL d   1      -2.006  -1.819  -0.654  0.00  0.00    -0.005 A 
ATOM      4  C3  UNL d   1      -1.911  -0.694  -1.472  0.00  0.00     0.006 A 
ATOM      5  C4  UNL d   1      -0.937   0.275  -1.224  0.00  0.00    -0.005 A 
ATOM      6  C5  UNL d   1      -0.049   0.125  -0.154  0.00  0.00    -0.074 A 
ATOM      7  C6  UNL d   1       0.997   1.161   0.132  0.00  0.00     0.077 C 
ATOM      8  C7  UNL d   1      -0.156  -1.005   0.668  0.00  0.00    -0.001 A 
ENDROOT
TORSDOF 0
ENDMDL
