MODEL 1
REMARK minimizedAffinity -2.45500588
REMARK minimizedRMSD -1
REMARK  0 active torsions:
REMARK  status: ('A' for Active; 'I' for Inactive)
ROOT
ATOM      1  C   UNL d   1      -1.703   0.026  -0.475  0.00  0.00     0.077 C 
ATOM      2  C1  UNL d   1      -0.338   0.282   0.092  0.00  0.00    -0.074 A 
ATOM      3  C2  UNL d   1       0.665  -0.689   0.017  0.00  0.00    -0.005 A 
ATOM      4  C3  UNL d   1       1.933  -0.432   0.541  0.00  0.00     0.006 A 
ATOM      5  C4  UNL d   1       2.208   0.795   1.144  0.00  0.00    -0.005 A 
ATOM      6  C5  UNL d   1       1.218   1.779   1.227  0.00  0.00    -0.074 A 
ATOM      7  C6  UNL d   1       1.500   3.107   1.863  0.00  0.00     0.077 C 
ATOM      8  C7  UNL d   1      -0.051   1.516   0.693  0.00  0.00    -0.001 A 
ENDROOT
TORSDOF 0
ENDMDL
