MODEL 1
REMARK minimizedAffinity -5.51579762
REMARK minimizedRMSD -1
REMARK  0 active torsions:
REMARK  status: ('A' for Active; 'I' for Inactive)
ROOT
ATOM      1  C   UNL d   1      -1.954  -2.970   1.134  0.00  0.00     0.077 C 
ATOM      2  C1  UNL d   1      -1.682  -1.717   0.357  0.00  0.00    -0.074 A 
ATOM      3  C2  UNL d   1      -2.618  -1.217  -0.554  0.00  0.00    -0.005 A 
ATOM      4  C3  UNL d   1      -2.355  -0.045  -1.262  0.00  0.00     0.006 A 
ATOM      5  C4  UNL d   1      -1.154   0.639  -1.068  0.00  0.00    -0.005 A 
ATOM      6  C5  UNL d   1      -0.206   0.155  -0.161  0.00  0.00    -0.074 A 
ATOM      7  C6  UNL d   1       1.086   0.883   0.067  0.00  0.00     0.077 C 
ATOM      8  C7  UNL d   1      -0.481  -1.020   0.552  0.00  0.00    -0.001 A 
ENDROOT
TORSDOF 0
ENDMDL
