MODEL 1
REMARK minimizedAffinity -3.08248067
REMARK minimizedRMSD -1
REMARK  0 active torsions:
REMARK  status: ('A' for Active; 'I' for Inactive)
ROOT
ATOM      1  C   UNL d   1       2.178   1.591   0.051  0.00  0.00     0.077 C 
ATOM      2  C1  UNL d   1       1.278   0.513   0.579  0.00  0.00    -0.074 A 
ATOM      3  C2  UNL d   1       1.806  -0.649   1.150  0.00  0.00    -0.005 A 
ATOM      4  C3  UNL d   1       0.956  -1.638   1.645  0.00  0.00     0.006 A 
ATOM      5  C4  UNL d   1      -0.428  -1.475   1.575  0.00  0.00    -0.005 A 
ATOM      6  C5  UNL d   1      -0.974  -0.320   1.008  0.00  0.00    -0.074 A 
ATOM      7  C6  UNL d   1      -2.459  -0.124   0.933  0.00  0.00     0.077 C 
ATOM      8  C7  UNL d   1      -0.114   0.673   0.519  0.00  0.00    -0.001 A 
ENDROOT
TORSDOF 0
ENDMDL
