MODEL 1
REMARK minimizedAffinity -4.66935778
REMARK minimizedRMSD -1
REMARK  0 active torsions:
REMARK  status: ('A' for Active; 'I' for Inactive)
ROOT
ATOM      1  C   UNL d   1      -1.442  -0.361  -0.307  0.00  0.00     0.077 C 
ATOM      2  C1  UNL d   1      -0.148   0.306   0.051  0.00  0.00    -0.074 A 
ATOM      3  C2  UNL d   1       1.079  -0.286  -0.267  0.00  0.00    -0.005 A 
ATOM      4  C3  UNL d   1       2.275   0.351   0.064  0.00  0.00     0.006 A 
ATOM      5  C4  UNL d   1       2.256   1.585   0.716  0.00  0.00    -0.005 A 
ATOM      6  C5  UNL d   1       1.040   2.192   1.042  0.00  0.00    -0.074 A 
ATOM      7  C6  UNL d   1       1.002   3.522   1.734  0.00  0.00     0.077 C 
ATOM      8  C7  UNL d   1      -0.158   1.549   0.700  0.00  0.00    -0.001 A 
ENDROOT
TORSDOF 0
ENDMDL
