MODEL 1
REMARK minimizedAffinity -2.45217133
REMARK minimizedRMSD -1
REMARK  0 active torsions:
REMARK  status: ('A' for Active; 'I' for Inactive)
ROOT
ATOM      1  C   UNL d   1       1.930   3.133   0.830  0.00  0.00     0.077 C 
ATOM      2  C1  UNL d   1       1.221   1.943   0.255  0.00  0.00    -0.074 A 
ATOM      3  C2  UNL d   1       1.889   0.729   0.069  0.00  0.00    -0.005 A 
ATOM      4  C3  UNL d   1       1.214  -0.372  -0.458  0.00  0.00     0.006 A 
ATOM      5  C4  UNL d   1      -0.134  -0.270  -0.803  0.00  0.00    -0.005 A 
ATOM      6  C5  UNL d   1      -0.819   0.936  -0.624  0.00  0.00    -0.074 A 
ATOM      7  C6  UNL d   1      -2.271   1.060  -0.980  0.00  0.00     0.077 C 
ATOM      8  C7  UNL d   1      -0.136   2.036  -0.087  0.00  0.00    -0.001 A 
ENDROOT
TORSDOF 0
ENDMDL
