MODEL 1
REMARK minimizedAffinity -5.05544233
REMARK minimizedRMSD -1
REMARK  0 active torsions:
REMARK  status: ('A' for Active; 'I' for Inactive)
ROOT
ATOM      1  C   UNL d   1      -2.689   0.621   0.404  0.00  0.00     0.077 C 
ATOM      2  C1  UNL d   1      -1.239   0.283   0.585  0.00  0.00    -0.074 A 
ATOM      3  C2  UNL d   1      -0.816  -1.048   0.668  0.00  0.00    -0.005 A 
ATOM      4  C3  UNL d   1       0.537  -1.346   0.827  0.00  0.00     0.006 A 
ATOM      5  C4  UNL d   1       1.479  -0.320   0.904  0.00  0.00    -0.005 A 
ATOM      6  C5  UNL d   1       1.075   1.016   0.822  0.00  0.00    -0.074 A 
ATOM      7  C6  UNL d   1       2.075   2.131   0.893  0.00  0.00     0.077 C 
ATOM      8  C7  UNL d   1      -0.286   1.308   0.656  0.00  0.00    -0.001 A 
ENDROOT
TORSDOF 0
ENDMDL
