MODEL 1
REMARK minimizedAffinity -4.83173656
REMARK minimizedRMSD -1
REMARK  0 active torsions:
REMARK  status: ('A' for Active; 'I' for Inactive)
ROOT
ATOM      1  C   UNL d   1       1.158   0.829   0.779  0.00  0.00     0.077 C 
ATOM      2  C1  UNL d   1      -0.248   0.387   0.500  0.00  0.00    -0.074 A 
ATOM      3  C2  UNL d   1      -1.274   0.631   1.418  0.00  0.00    -0.005 A 
ATOM      4  C3  UNL d   1      -2.578   0.222   1.141  0.00  0.00     0.006 A 
ATOM      5  C4  UNL d   1      -2.869  -0.434  -0.055  0.00  0.00    -0.005 A 
ATOM      6  C5  UNL d   1      -1.857  -0.687  -0.986  0.00  0.00    -0.074 A 
ATOM      7  C6  UNL d   1      -2.154  -1.382  -2.281  0.00  0.00     0.077 C 
ATOM      8  C7  UNL d   1      -0.550  -0.266  -0.703  0.00  0.00    -0.001 A 
ENDROOT
TORSDOF 0
ENDMDL
