MODEL 1
REMARK minimizedAffinity -0.0331498645
REMARK minimizedRMSD -1
REMARK  0 active torsions:
REMARK  status: ('A' for Active; 'I' for Inactive)
ROOT
ATOM      1  C   UNL d   1      -0.739  -2.036   1.549  0.00  0.00     0.077 C 
ATOM      2  C1  UNL d   1      -0.785  -1.175   0.322  0.00  0.00    -0.074 A 
ATOM      3  C2  UNL d   1      -1.920  -1.146  -0.495  0.00  0.00    -0.005 A 
ATOM      4  C3  UNL d   1      -1.951  -0.333  -1.627  0.00  0.00     0.006 A 
ATOM      5  C4  UNL d   1      -0.849   0.459  -1.955  0.00  0.00    -0.005 A 
ATOM      6  C5  UNL d   1       0.294   0.444  -1.149  0.00  0.00    -0.074 A 
ATOM      7  C6  UNL d   1       1.483   1.295  -1.481  0.00  0.00     0.077 C 
ATOM      8  C7  UNL d   1       0.315  -0.371  -0.009  0.00  0.00    -0.001 A 
ENDROOT
TORSDOF 0
ENDMDL
