MODEL 1
REMARK minimizedAffinity -3.46541452
REMARK minimizedRMSD -1
REMARK  0 active torsions:
REMARK  status: ('A' for Active; 'I' for Inactive)
ROOT
ATOM      1  C   UNL d   1      -3.197  -0.593  -0.605  0.00  0.00    -0.002 A 
ATOM      2  C1  UNL d   1      -2.937  -0.610   0.758  0.00  0.00     0.010 A 
ATOM      3  C2  UNL d   1      -1.636  -0.436   1.235  0.00  0.00     0.041 A 
ATOM      4  C3  UNL d   1      -0.591  -0.242   0.310  0.00  0.00    -0.075 A 
ATOM      5  S   UNL d   1       1.079  -0.007   0.664  0.00  0.00     0.015 SA
ATOM      6  C4  UNL d   1       1.488   0.121  -0.986  0.00  0.00     0.022 A 
ATOM      7  C5  UNL d   1       0.388  -0.010  -1.800  0.00  0.00     0.026 A 
ATOM      8  C6  UNL d   1      -0.828  -0.221  -1.067  0.00  0.00    -0.082 A 
ATOM      9  C7  UNL d   1      -2.158  -0.401  -1.519  0.00  0.00     0.045 A 
ENDROOT
TORSDOF 0
ENDMDL
