MODEL 1
REMARK minimizedAffinity -2.97147655
REMARK minimizedRMSD -1
REMARK  0 active torsions:
REMARK  status: ('A' for Active; 'I' for Inactive)
ROOT
ATOM      1  C   UNL d   1      -2.876  -1.036  -0.233  0.00  0.00    -0.002 A 
ATOM      2  C1  UNL d   1      -2.265  -0.996  -1.478  0.00  0.00     0.010 A 
ATOM      3  C2  UNL d   1      -0.978  -0.474  -1.621  0.00  0.00     0.041 A 
ATOM      4  C3  UNL d   1      -0.308   0.009  -0.479  0.00  0.00    -0.075 A 
ATOM      5  S   UNL d   1       1.274   0.691  -0.413  0.00  0.00     0.015 SA
ATOM      6  C4  UNL d   1       1.176   0.943   1.269  0.00  0.00     0.022 A 
ATOM      7  C5  UNL d   1      -0.027   0.523   1.785  0.00  0.00     0.026 A 
ATOM      8  C6  UNL d   1      -0.902  -0.023   0.786  0.00  0.00    -0.082 A 
ATOM      9  C7  UNL d   1      -2.209  -0.557   0.897  0.00  0.00     0.045 A 
ENDROOT
TORSDOF 0
ENDMDL
