MODEL 1
REMARK minimizedAffinity -3.17712951
REMARK minimizedRMSD -1
REMARK  0 active torsions:
REMARK  status: ('A' for Active; 'I' for Inactive)
ROOT
ATOM      1  C   UNL d   1      -2.552   0.015   0.853  0.00  0.00    -0.002 A 
ATOM      2  C1  UNL d   1      -2.125  -1.238   1.272  0.00  0.00     0.010 A 
ATOM      3  C2  UNL d   1      -0.764  -1.514   1.412  0.00  0.00     0.041 A 
ATOM      4  C3  UNL d   1       0.170  -0.500   1.123  0.00  0.00    -0.075 A 
ATOM      5  S   UNL d   1       1.888  -0.609   1.225  0.00  0.00     0.015 SA
ATOM      6  C4  UNL d   1       2.095   1.004   0.716  0.00  0.00     0.022 A 
ATOM      7  C5  UNL d   1       0.894   1.626   0.470  0.00  0.00     0.026 A 
ATOM      8  C6  UNL d   1      -0.235   0.770   0.701  0.00  0.00    -0.082 A 
ATOM      9  C7  UNL d   1      -1.623   1.018   0.568  0.00  0.00     0.045 A 
ENDROOT
TORSDOF 0
ENDMDL
