MODEL 1
REMARK minimizedAffinity -2.38886547
REMARK minimizedRMSD -1
REMARK  0 active torsions:
REMARK  status: ('A' for Active; 'I' for Inactive)
ROOT
ATOM      1  C   UNL d   1      -3.130  -0.906  -0.270  0.00  0.00    -0.002 A 
ATOM      2  C1  UNL d   1      -2.796  -1.120   1.060  0.00  0.00     0.010 A 
ATOM      3  C2  UNL d   1      -1.554  -0.717   1.554  0.00  0.00     0.041 A 
ATOM      4  C3  UNL d   1      -0.645  -0.087   0.681  0.00  0.00    -0.075 A 
ATOM      5  S   UNL d   1       0.933   0.492   1.064  0.00  0.00     0.015 SA
ATOM      6  C4  UNL d   1       1.200   1.039  -0.528  0.00  0.00     0.022 A 
ATOM      7  C5  UNL d   1       0.122   0.793  -1.345  0.00  0.00     0.026 A 
ATOM      8  C6  UNL d   1      -0.959   0.141  -0.662  0.00  0.00    -0.082 A 
ATOM      9  C7  UNL d   1      -2.226  -0.280  -1.133  0.00  0.00     0.045 A 
ENDROOT
TORSDOF 0
ENDMDL
