MODEL 1
REMARK minimizedAffinity -1.76339018
REMARK minimizedRMSD -1
REMARK  0 active torsions:
REMARK  status: ('A' for Active; 'I' for Inactive)
ROOT
ATOM      1  C   UNL d   1      -2.443  -0.118  -2.231  0.00  0.00    -0.002 A 
ATOM      2  C1  UNL d   1      -2.993  -0.785  -1.145  0.00  0.00     0.010 A 
ATOM      3  C2  UNL d   1      -2.235  -1.018   0.004  0.00  0.00     0.041 A 
ATOM      4  C3  UNL d   1      -0.902  -0.562   0.045  0.00  0.00    -0.075 A 
ATOM      5  S   UNL d   1       0.215  -0.733   1.347  0.00  0.00     0.015 SA
ATOM      6  C4  UNL d   1       1.448   0.077   0.494  0.00  0.00     0.022 A 
ATOM      7  C5  UNL d   1       1.035   0.475  -0.756  0.00  0.00     0.026 A 
ATOM      8  C6  UNL d   1      -0.327   0.113  -1.035  0.00  0.00    -0.082 A 
ATOM      9  C7  UNL d   1      -1.121   0.333  -2.186  0.00  0.00     0.045 A 
ENDROOT
TORSDOF 0
ENDMDL
