MODEL 1
REMARK minimizedAffinity -4.62579966
REMARK minimizedRMSD -1
REMARK  0 active torsions:
REMARK  status: ('A' for Active; 'I' for Inactive)
ROOT
ATOM      1  C   UNL d   1       0.901   0.590   0.098  0.00  0.00    -0.002 A 
ATOM      2  C1  UNL d   1       0.854   0.801  -1.273  0.00  0.00     0.010 A 
ATOM      3  C2  UNL d   1      -0.273   0.430  -2.010  0.00  0.00     0.041 A 
ATOM      4  C3  UNL d   1      -1.362  -0.160  -1.339  0.00  0.00    -0.075 A 
ATOM      5  S   UNL d   1      -2.847  -0.693  -2.036  0.00  0.00     0.015 SA
ATOM      6  C4  UNL d   1      -3.453  -1.211  -0.530  0.00  0.00     0.022 A 
ATOM      7  C5  UNL d   1      -2.558  -0.991   0.490  0.00  0.00     0.026 A 
ATOM      8  C6  UNL d   1      -1.339  -0.381   0.041  0.00  0.00    -0.082 A 
ATOM      9  C7  UNL d   1      -0.182   0.005   0.760  0.00  0.00     0.045 A 
ENDROOT
TORSDOF 0
ENDMDL
