MODEL 1
REMARK minimizedAffinity 5.4809351
REMARK minimizedRMSD -1
REMARK  0 active torsions:
REMARK  status: ('A' for Active; 'I' for Inactive)
ROOT
ATOM      1  C   UNL d   1       1.876   0.031   0.381  0.00  0.00    -0.002 A 
ATOM      2  C1  UNL d   1       1.229   0.727  -0.630  0.00  0.00     0.010 A 
ATOM      3  C2  UNL d   1      -0.121   0.493  -0.902  0.00  0.00     0.041 A 
ATOM      4  C3  UNL d   1      -0.816  -0.460  -0.131  0.00  0.00    -0.075 A 
ATOM      5  S   UNL d   1      -2.473  -0.912  -0.284  0.00  0.00     0.015 SA
ATOM      6  C4  UNL d   1      -2.361  -2.038   0.990  0.00  0.00     0.022 A 
ATOM      7  C5  UNL d   1      -1.097  -2.082   1.530  0.00  0.00     0.026 A 
ATOM      8  C6  UNL d   1      -0.186  -1.173   0.893  0.00  0.00    -0.082 A 
ATOM      9  C7  UNL d   1       1.183  -0.914   1.143  0.00  0.00     0.045 A 
ENDROOT
TORSDOF 0
ENDMDL
