MODEL 1
REMARK minimizedAffinity -2.90441012
REMARK minimizedRMSD -1
REMARK  0 active torsions:
REMARK  status: ('A' for Active; 'I' for Inactive)
ROOT
ATOM      1  C   UNL d   1       3.248   3.308   0.057  0.00  0.00    -0.002 A 
ATOM      2  C1  UNL d   1       2.005   3.924   0.084  0.00  0.00     0.010 A 
ATOM      3  C2  UNL d   1       0.836   3.162   0.143  0.00  0.00     0.041 A 
ATOM      4  C3  UNL d   1       0.939   1.758   0.176  0.00  0.00    -0.075 A 
ATOM      5  S   UNL d   1      -0.356   0.622   0.249  0.00  0.00     0.015 SA
ATOM      6  C4  UNL d   1       0.711  -0.707   0.247  0.00  0.00     0.022 A 
ATOM      7  C5  UNL d   1       2.027  -0.313   0.192  0.00  0.00     0.026 A 
ATOM      8  C6  UNL d   1       2.180   1.115   0.150  0.00  0.00    -0.082 A 
ATOM      9  C7  UNL d   1       3.346   1.915   0.090  0.00  0.00     0.045 A 
ENDROOT
TORSDOF 0
ENDMDL
