MODEL 1
REMARK minimizedAffinity 3.30084038
REMARK minimizedRMSD -1
REMARK  0 active torsions:
REMARK  status: ('A' for Active; 'I' for Inactive)
ROOT
ATOM      1  C   UNL d   1       3.162   3.158   2.100  0.00  0.00    -0.002 A 
ATOM      2  C1  UNL d   1       3.289   3.200   0.719  0.00  0.00     0.010 A 
ATOM      3  C2  UNL d   1       2.727   2.201  -0.077  0.00  0.00     0.041 A 
ATOM      4  C3  UNL d   1       2.026   1.148   0.545  0.00  0.00    -0.075 A 
ATOM      5  S   UNL d   1       1.253  -0.185  -0.228  0.00  0.00     0.015 SA
ATOM      6  C4  UNL d   1       0.735  -0.842   1.257  0.00  0.00     0.022 A 
ATOM      7  C5  UNL d   1       1.133  -0.075   2.327  0.00  0.00     0.026 A 
ATOM      8  C6  UNL d   1       1.883   1.085   1.934  0.00  0.00    -0.082 A 
ATOM      9  C7  UNL d   1       2.466   2.113   2.713  0.00  0.00     0.045 A 
ENDROOT
TORSDOF 0
ENDMDL
