MODEL 1
REMARK minimizedAffinity -1.1239804
REMARK minimizedRMSD -1
REMARK  0 active torsions:
REMARK  status: ('A' for Active; 'I' for Inactive)
ROOT
ATOM      1  C   UNL d   1       0.210  -1.405   0.812  0.00  0.00    -0.002 A 
ATOM      2  C1  UNL d   1      -0.786  -0.439   0.868  0.00  0.00     0.010 A 
ATOM      3  C2  UNL d   1      -0.475   0.912   0.704  0.00  0.00     0.041 A 
ATOM      4  C3  UNL d   1       0.866   1.280   0.479  0.00  0.00    -0.075 A 
ATOM      5  S   UNL d   1       1.482   2.874   0.249  0.00  0.00     0.015 SA
ATOM      6  C4  UNL d   1       3.081   2.311   0.070  0.00  0.00     0.022 A 
ATOM      7  C5  UNL d   1       3.161   0.943   0.181  0.00  0.00     0.026 A 
ATOM      8  C6  UNL d   1       1.886   0.326   0.418  0.00  0.00    -0.082 A 
ATOM      9  C7  UNL d   1       1.539  -1.035   0.588  0.00  0.00     0.045 A 
ENDROOT
TORSDOF 0
ENDMDL
