MODEL 1
REMARK minimizedAffinity -4.83867502
REMARK minimizedRMSD -1
REMARK  0 active torsions:
REMARK  status: ('A' for Active; 'I' for Inactive)
ROOT
ATOM      1  C   UNL d   1      -3.421  -1.245  -0.956  0.00  0.00    -0.002 A 
ATOM      2  C1  UNL d   1      -3.124  -1.239   0.400  0.00  0.00     0.010 A 
ATOM      3  C2  UNL d   1      -1.885  -0.783   0.853  0.00  0.00     0.041 A 
ATOM      4  C3  UNL d   1      -0.941  -0.327  -0.087  0.00  0.00    -0.075 A 
ATOM      5  S   UNL d   1       0.641   0.278   0.237  0.00  0.00     0.015 SA
ATOM      6  C4  UNL d   1       0.960   0.543  -1.416  0.00  0.00     0.022 A 
ATOM      7  C5  UNL d   1      -0.104   0.184  -2.210  0.00  0.00     0.026 A 
ATOM      8  C6  UNL d   1      -1.217  -0.322  -1.457  0.00  0.00    -0.082 A 
ATOM      9  C7  UNL d   1      -2.482  -0.792  -1.886  0.00  0.00     0.045 A 
ENDROOT
TORSDOF 0
ENDMDL
