MODEL 1
REMARK minimizedAffinity -0.827508926
REMARK minimizedRMSD -1
REMARK  0 active torsions:
REMARK  status: ('A' for Active; 'I' for Inactive)
ROOT
ATOM      1  C   UNL d   1       2.416   3.300   1.736  0.00  0.00    -0.002 A 
ATOM      2  C1  UNL d   1       2.202   3.810   0.463  0.00  0.00     0.010 A 
ATOM      3  C2  UNL d   1       1.506   3.067  -0.492  0.00  0.00     0.041 A 
ATOM      4  C3  UNL d   1       1.021   1.791  -0.142  0.00  0.00    -0.075 A 
ATOM      5  S   UNL d   1       0.140   0.702  -1.147  0.00  0.00     0.015 SA
ATOM      6  C4  UNL d   1       0.025  -0.465   0.090  0.00  0.00     0.022 A 
ATOM      7  C5  UNL d   1       0.639  -0.050   1.248  0.00  0.00     0.026 A 
ATOM      8  C6  UNL d   1       1.223   1.257   1.134  0.00  0.00    -0.082 A 
ATOM      9  C7  UNL d   1       1.933   2.034   2.079  0.00  0.00     0.045 A 
ENDROOT
TORSDOF 0
ENDMDL
