MODEL 1
REMARK minimizedAffinity -0.268834352
REMARK minimizedRMSD -1
REMARK  0 active torsions:
REMARK  status: ('A' for Active; 'I' for Inactive)
ROOT
ATOM      1  C   UNL d   1       2.977   2.993   1.699  0.00  0.00    -0.002 A 
ATOM      2  C1  UNL d   1       2.060   3.729   0.962  0.00  0.00     0.010 A 
ATOM      3  C2  UNL d   1       0.995   3.095   0.318  0.00  0.00     0.041 A 
ATOM      4  C3  UNL d   1       0.866   1.697   0.430  0.00  0.00    -0.075 A 
ATOM      5  S   UNL d   1      -0.359   0.707  -0.273  0.00  0.00     0.015 SA
ATOM      6  C4  UNL d   1       0.306  -0.715   0.390  0.00  0.00     0.022 A 
ATOM      7  C5  UNL d   1       1.436  -0.460   1.132  0.00  0.00     0.026 A 
ATOM      8  C6  UNL d   1       1.776   0.935   1.167  0.00  0.00    -0.082 A 
ATOM      9  C7  UNL d   1       2.845   1.606   1.808  0.00  0.00     0.045 A 
ENDROOT
TORSDOF 0
ENDMDL
