MODEL 1
REMARK minimizedAffinity -2.18198395
REMARK minimizedRMSD -1
REMARK  0 active torsions:
REMARK  status: ('A' for Active; 'I' for Inactive)
ROOT
ATOM      1  C   UNL d   1       0.782   0.208   0.513  0.00  0.00    -0.002 A 
ATOM      2  C1  UNL d   1       0.941   0.352  -0.858  0.00  0.00     0.010 A 
ATOM      3  C2  UNL d   1      -0.064  -0.055  -1.737  0.00  0.00     0.041 A 
ATOM      4  C3  UNL d   1      -1.246  -0.613  -1.209  0.00  0.00    -0.075 A 
ATOM      5  S   UNL d   1      -2.612  -1.181  -2.094  0.00  0.00     0.015 SA
ATOM      6  C4  UNL d   1      -3.440  -1.627  -0.672  0.00  0.00     0.022 A 
ATOM      7  C5  UNL d   1      -2.707  -1.357   0.458  0.00  0.00     0.026 A 
ATOM      8  C6  UNL d   1      -1.430  -0.767   0.168  0.00  0.00    -0.082 A 
ATOM      9  C7  UNL d   1      -0.391  -0.346   1.032  0.00  0.00     0.045 A 
ENDROOT
TORSDOF 0
ENDMDL
