MODEL 1
REMARK minimizedAffinity -4.89447355
REMARK minimizedRMSD -1
REMARK  0 active torsions:
REMARK  status: ('A' for Active; 'I' for Inactive)
ROOT
ATOM      1  C   UNL d   1       3.326  -0.766   0.191  0.00  0.00     0.077 C 
ATOM      2  C1  UNL d   1       1.978  -0.109   0.220  0.00  0.00    -0.074 A 
ATOM      3  C2  UNL d   1       1.858   1.280   0.332  0.00  0.00    -0.005 A 
ATOM      4  C3  UNL d   1       0.597   1.878   0.348  0.00  0.00     0.006 A 
ATOM      5  C4  UNL d   1      -0.553   1.094   0.253  0.00  0.00    -0.005 A 
ATOM      6  C5  UNL d   1      -0.452  -0.296   0.140  0.00  0.00    -0.074 A 
ATOM      7  C6  UNL d   1      -1.678  -1.153   0.027  0.00  0.00     0.077 C 
ATOM      8  C7  UNL d   1       0.818  -0.889   0.117  0.00  0.00    -0.001 A 
ENDROOT
TORSDOF 0
ENDMDL
