MODEL 1
REMARK minimizedAffinity -2.89681768
REMARK minimizedRMSD -1
REMARK  0 active torsions:
REMARK  status: ('A' for Active; 'I' for Inactive)
ROOT
ATOM      1  C   UNL d   1       1.578  -2.441   1.808  0.00  0.00     0.077 C 
ATOM      2  C1  UNL d   1       1.118  -1.145   1.211  0.00  0.00    -0.074 A 
ATOM      3  C2  UNL d   1       1.831   0.038   1.424  0.00  0.00    -0.005 A 
ATOM      4  C3  UNL d   1       1.396   1.235   0.854  0.00  0.00     0.006 A 
ATOM      5  C4  UNL d   1       0.245   1.259   0.066  0.00  0.00    -0.005 A 
ATOM      6  C5  UNL d   1      -0.481   0.086  -0.160  0.00  0.00    -0.074 A 
ATOM      7  C6  UNL d   1      -1.715   0.093  -1.012  0.00  0.00     0.077 C 
ATOM      8  C7  UNL d   1      -0.034  -1.114   0.411  0.00  0.00    -0.001 A 
ENDROOT
TORSDOF 0
ENDMDL
