MODEL 1
REMARK minimizedAffinity -4.75495005
REMARK minimizedRMSD -1
REMARK  0 active torsions:
REMARK  status: ('A' for Active; 'I' for Inactive)
ROOT
ATOM      1  C   UNL d   1      -1.070  -2.446   1.621  0.00  0.00     0.077 C 
ATOM      2  C1  UNL d   1      -0.357  -1.218   1.140  0.00  0.00    -0.074 A 
ATOM      3  C2  UNL d   1      -1.046  -0.017   0.942  0.00  0.00    -0.005 A 
ATOM      4  C3  UNL d   1      -0.367   1.119   0.503  0.00  0.00     0.006 A 
ATOM      5  C4  UNL d   1       1.006   1.067   0.260  0.00  0.00    -0.005 A 
ATOM      6  C5  UNL d   1       1.712  -0.124   0.454  0.00  0.00    -0.074 A 
ATOM      7  C6  UNL d   1       3.190  -0.195   0.206  0.00  0.00     0.077 C 
ATOM      8  C7  UNL d   1       1.024  -1.260   0.901  0.00  0.00    -0.001 A 
ENDROOT
TORSDOF 0
ENDMDL
