MODEL 1
REMARK minimizedAffinity 3.06773186
REMARK minimizedRMSD -1
REMARK  0 active torsions:
REMARK  status: ('A' for Active; 'I' for Inactive)
ROOT
ATOM      1  C   UNL d   1       3.296   0.291   1.481  0.00  0.00     0.077 C 
ATOM      2  C1  UNL d   1       1.886   0.584   1.062  0.00  0.00    -0.074 A 
ATOM      3  C2  UNL d   1       1.304   1.829   1.320  0.00  0.00    -0.005 A 
ATOM      4  C3  UNL d   1      -0.005   2.090   0.915  0.00  0.00     0.006 A 
ATOM      5  C4  UNL d   1      -0.744   1.111   0.250  0.00  0.00    -0.005 A 
ATOM      6  C5  UNL d   1      -0.178  -0.140  -0.017  0.00  0.00    -0.074 A 
ATOM      7  C6  UNL d   1      -0.954  -1.200  -0.740  0.00  0.00     0.077 C 
ATOM      8  C7  UNL d   1       1.141  -0.392   0.386  0.00  0.00    -0.001 A 
ENDROOT
TORSDOF 0
ENDMDL
