MODEL 1
REMARK minimizedAffinity -2.01717854
REMARK minimizedRMSD -1
REMARK  0 active torsions:
REMARK  status: ('A' for Active; 'I' for Inactive)
ROOT
ATOM      1  C   UNL d   1      -2.734   0.473  -3.969  0.00  0.00     0.077 C 
ATOM      2  C1  UNL d   1      -2.384   0.098  -2.559  0.00  0.00    -0.074 A 
ATOM      3  C2  UNL d   1      -3.071  -0.924  -1.896  0.00  0.00    -0.005 A 
ATOM      4  C3  UNL d   1      -2.729  -1.268  -0.588  0.00  0.00     0.006 A 
ATOM      5  C4  UNL d   1      -1.697  -0.595   0.068  0.00  0.00    -0.005 A 
ATOM      6  C5  UNL d   1      -0.999   0.429  -0.580  0.00  0.00    -0.074 A 
ATOM      7  C6  UNL d   1       0.119   1.156   0.108  0.00  0.00     0.077 C 
ATOM      8  C7  UNL d   1      -1.344   0.764  -1.896  0.00  0.00    -0.001 A 
ENDROOT
TORSDOF 0
ENDMDL
