MODEL 1
REMARK minimizedAffinity -5.22577572
REMARK minimizedRMSD -1
REMARK  0 active torsions:
REMARK  status: ('A' for Active; 'I' for Inactive)
ROOT
ATOM      1  C   UNL d   1       3.386  -0.581   0.737  0.00  0.00     0.077 C 
ATOM      2  C1  UNL d   1       1.983  -0.155   0.421  0.00  0.00    -0.074 A 
ATOM      3  C2  UNL d   1       1.731   1.034  -0.271  0.00  0.00    -0.005 A 
ATOM      4  C3  UNL d   1       0.422   1.412  -0.566  0.00  0.00     0.006 A 
ATOM      5  C4  UNL d   1      -0.648   0.607  -0.172  0.00  0.00    -0.005 A 
ATOM      6  C5  UNL d   1      -0.416  -0.585   0.520  0.00  0.00    -0.074 A 
ATOM      7  C6  UNL d   1      -1.553  -1.467   0.942  0.00  0.00     0.077 C 
ATOM      8  C7  UNL d   1       0.903  -0.962   0.806  0.00  0.00    -0.001 A 
ENDROOT
TORSDOF 0
ENDMDL
