MODEL 1
REMARK minimizedAffinity -5.21742296
REMARK minimizedRMSD -1
REMARK  0 active torsions:
REMARK  status: ('A' for Active; 'I' for Inactive)
ROOT
ATOM      1  C   UNL d   1      -0.124   1.417   0.007  0.00  0.00     0.077 C 
ATOM      2  C1  UNL d   1       0.964   0.529   0.534  0.00  0.00    -0.074 A 
ATOM      3  C2  UNL d   1       2.309   0.805   0.268  0.00  0.00    -0.005 A 
ATOM      4  C3  UNL d   1       3.310  -0.024   0.772  0.00  0.00     0.006 A 
ATOM      5  C4  UNL d   1       2.977  -1.137   1.545  0.00  0.00    -0.005 A 
ATOM      6  C5  UNL d   1       1.638  -1.429   1.822  0.00  0.00    -0.074 A 
ATOM      7  C6  UNL d   1       1.264  -2.616   2.660  0.00  0.00     0.077 C 
ATOM      8  C7  UNL d   1       0.638  -0.587   1.318  0.00  0.00    -0.001 A 
ENDROOT
TORSDOF 0
ENDMDL
