MODEL 1
REMARK minimizedAffinity -1.21332777
REMARK minimizedRMSD -1
REMARK  0 active torsions:
REMARK  status: ('A' for Active; 'I' for Inactive)
ROOT
ATOM      1  C   UNL d   1       1.400  -2.288   1.214  0.00  0.00     0.077 C 
ATOM      2  C1  UNL d   1       0.817  -1.042   0.616  0.00  0.00    -0.074 A 
ATOM      3  C2  UNL d   1       1.199   0.223   1.075  0.00  0.00    -0.005 A 
ATOM      4  C3  UNL d   1       0.656   1.372   0.502  0.00  0.00     0.006 A 
ATOM      5  C4  UNL d   1      -0.273   1.269  -0.534  0.00  0.00    -0.005 A 
ATOM      6  C5  UNL d   1      -0.667   0.013  -1.007  0.00  0.00    -0.074 A 
ATOM      7  C6  UNL d   1      -1.657  -0.115  -2.126  0.00  0.00     0.077 C 
ATOM      8  C7  UNL d   1      -0.111  -1.137  -0.431  0.00  0.00    -0.001 A 
ENDROOT
TORSDOF 0
ENDMDL
