MODEL 1
REMARK minimizedAffinity -3.88362169
REMARK minimizedRMSD -1
REMARK  0 active torsions:
REMARK  status: ('A' for Active; 'I' for Inactive)
ROOT
ATOM      1  C   UNL d   1      -1.579  -1.464   0.399  0.00  0.00     0.077 C 
ATOM      2  C1  UNL d   1      -0.419  -0.523   0.267  0.00  0.00    -0.074 A 
ATOM      3  C2  UNL d   1      -0.623   0.851   0.099  0.00  0.00    -0.005 A 
ATOM      4  C3  UNL d   1       0.466   1.715  -0.014  0.00  0.00     0.006 A 
ATOM      5  C4  UNL d   1       1.768   1.216   0.040  0.00  0.00    -0.005 A 
ATOM      6  C5  UNL d   1       1.991  -0.155   0.208  0.00  0.00    -0.074 A 
ATOM      7  C6  UNL d   1       3.384  -0.707   0.278  0.00  0.00     0.077 C 
ATOM      8  C7  UNL d   1       0.892  -1.016   0.328  0.00  0.00    -0.001 A 
ENDROOT
TORSDOF 0
ENDMDL
