MODEL 1
REMARK minimizedAffinity -3.4380281
REMARK minimizedRMSD -1
REMARK  0 active torsions:
REMARK  status: ('A' for Active; 'I' for Inactive)
ROOT
ATOM      1  C   UNL d   1       2.840   1.167   2.274  0.00  0.00     0.077 C 
ATOM      2  C1  UNL d   1       2.150   0.439   1.159  0.00  0.00    -0.074 A 
ATOM      3  C2  UNL d   1       2.787  -0.603   0.478  0.00  0.00    -0.005 A 
ATOM      4  C3  UNL d   1       2.129  -1.277  -0.551  0.00  0.00     0.006 A 
ATOM      5  C4  UNL d   1       0.830  -0.916  -0.909  0.00  0.00    -0.005 A 
ATOM      6  C5  UNL d   1       0.177   0.124  -0.239  0.00  0.00    -0.074 A 
ATOM      7  C6  UNL d   1      -1.223   0.518  -0.605  0.00  0.00     0.077 C 
ATOM      8  C7  UNL d   1       0.842   0.791   0.798  0.00  0.00    -0.001 A 
ENDROOT
TORSDOF 0
ENDMDL
