MODEL 1
REMARK minimizedAffinity -2.72715187
REMARK minimizedRMSD -1
REMARK  0 active torsions:
REMARK  status: ('A' for Active; 'I' for Inactive)
ROOT
ATOM      1  C   UNL d   1      -1.856  -1.402   1.189  0.00  0.00     0.077 C 
ATOM      2  C1  UNL d   1      -0.749  -0.496   0.738  0.00  0.00    -0.074 A 
ATOM      3  C2  UNL d   1      -1.027   0.742   0.151  0.00  0.00    -0.005 A 
ATOM      4  C3  UNL d   1       0.013   1.578  -0.255  0.00  0.00     0.006 A 
ATOM      5  C4  UNL d   1       1.340   1.184  -0.079  0.00  0.00    -0.005 A 
ATOM      6  C5  UNL d   1       1.638  -0.050   0.507  0.00  0.00    -0.074 A 
ATOM      7  C6  UNL d   1       3.059  -0.484   0.714  0.00  0.00     0.077 C 
ATOM      8  C7  UNL d   1       0.587  -0.881   0.919  0.00  0.00    -0.001 A 
ENDROOT
TORSDOF 0
ENDMDL
