MODEL 1
REMARK minimizedAffinity 2.52097917
REMARK minimizedRMSD -1
REMARK  1 active torsions:
REMARK  status: ('A' for Active; 'I' for Inactive)
REMARK    1  A    between atoms: N_2  and  C1_3 
ROOT
ATOM      1  C1  UNL d   1      -5.735  -4.189   4.155  0.00  0.00     0.143 A 
ATOM      2  C2  UNL d   1      -6.000  -5.525   3.833  0.00  0.00    -0.057 A 
ATOM      3  C3  UNL d   1      -5.851  -6.000   2.524  0.00  0.00     0.033 A 
ATOM      4  C4  UNL d   1      -5.460  -5.137   1.505  0.00  0.00    -0.042 A 
ATOM      5  C5  UNL d   1      -5.215  -3.800   1.797  0.00  0.00     0.033 A 
ATOM      6  C6  UNL d   1      -5.360  -3.333   3.107  0.00  0.00    -0.057 A 
ENDROOT
BRANCH   1   7
ATOM      7  N   UNL d   1      -5.960  -3.634   5.417  0.00  0.00    -0.732 N 
ATOM      8  C   UNL d   1      -5.555  -2.276   5.707  0.00  0.00     0.284 C 
ATOM      9  H3  UNL d   1      -6.869  -3.887   5.796  0.00  0.00     0.395 HD
ENDBRANCH   1   7
TORSDOF 1
ENDMDL
