MODEL 1
REMARK minimizedAffinity 3.49271441
REMARK minimizedRMSD -1
REMARK  1 active torsions:
REMARK  status: ('A' for Active; 'I' for Inactive)
REMARK    1  A    between atoms: N_2  and  C1_3 
ROOT
ATOM      1  C1  UNL d   1      -0.229  -1.658   2.957  0.00  0.00     0.143 A 
ATOM      2  C2  UNL d   1      -0.703  -0.650   3.803  0.00  0.00    -0.057 A 
ATOM      3  C3  UNL d   1      -1.750   0.194   3.411  0.00  0.00     0.033 A 
ATOM      4  C4  UNL d   1      -2.323   0.063   2.150  0.00  0.00    -0.042 A 
ATOM      5  C5  UNL d   1      -1.850  -0.916   1.283  0.00  0.00     0.033 A 
ATOM      6  C6  UNL d   1      -0.809  -1.760   1.683  0.00  0.00    -0.057 A 
ENDROOT
BRANCH   1   7
ATOM      7  N   UNL d   1       0.874  -2.464   3.250  0.00  0.00    -0.732 N 
ATOM      8  C   UNL d   1       2.216  -2.018   2.941  0.00  0.00     0.284 C 
ATOM      9  H3  UNL d   1       0.787  -2.928   4.151  0.00  0.00     0.395 HD
ENDBRANCH   1   7
TORSDOF 1
ENDMDL
