MODEL 1
REMARK minimizedAffinity 10.8523712
REMARK minimizedRMSD -1
REMARK  1 active torsions:
REMARK  status: ('A' for Active; 'I' for Inactive)
REMARK    1  A    between atoms: N_2  and  C1_3 
ROOT
ATOM      1  C1  UNL d   1      -0.602  -0.783   3.992  0.00  0.00     0.143 A 
ATOM      2  C2  UNL d   1       0.388  -1.639   4.486  0.00  0.00    -0.057 A 
ATOM      3  C3  UNL d   1       1.010  -2.582   3.659  0.00  0.00     0.033 A 
ATOM      4  C4  UNL d   1       0.632  -2.706   2.327  0.00  0.00    -0.042 A 
ATOM      5  C5  UNL d   1      -0.368  -1.883   1.820  0.00  0.00     0.033 A 
ATOM      6  C6  UNL d   1      -0.981  -0.938   2.649  0.00  0.00    -0.057 A 
ENDROOT
BRANCH   1   7
ATOM      7  N   UNL d   1      -1.328   0.108   4.786  0.00  0.00    -0.732 N 
ATOM      8  C   UNL d   1      -2.625   0.588   4.361  0.00  0.00     0.284 C 
ATOM      9  H3  UNL d   1      -1.273  -0.122   5.776  0.00  0.00     0.395 HD
ENDBRANCH   1   7
TORSDOF 1
ENDMDL
