MODEL 1
REMARK minimizedAffinity 9.21896935
REMARK minimizedRMSD -1
REMARK  1 active torsions:
REMARK  status: ('A' for Active; 'I' for Inactive)
REMARK    1  A    between atoms: N_2  and  C1_3 
ROOT
ATOM      1  C1  UNL d   1      -4.936  -3.664   2.536  0.00  0.00     0.143 A 
ATOM      2  C2  UNL d   1      -5.287  -3.561   3.887  0.00  0.00    -0.057 A 
ATOM      3  C3  UNL d   1      -5.798  -4.658   4.590  0.00  0.00     0.033 A 
ATOM      4  C4  UNL d   1      -5.995  -5.874   3.946  0.00  0.00    -0.042 A 
ATOM      5  C5  UNL d   1      -5.677  -5.993   2.597  0.00  0.00     0.033 A 
ATOM      6  C6  UNL d   1      -5.161  -4.896   1.902  0.00  0.00    -0.057 A 
ENDROOT
BRANCH   1   7
ATOM      7  N   UNL d   1      -4.516  -2.584   1.757  0.00  0.00    -0.732 N 
ATOM      8  C   UNL d   1      -3.107  -2.305   1.582  0.00  0.00     0.284 C 
ATOM      9  H3  UNL d   1      -5.069  -2.478   0.909  0.00  0.00     0.395 HD
ENDBRANCH   1   7
TORSDOF 1
ENDMDL
