MODEL 1
REMARK minimizedAffinity 10.7349939
REMARK minimizedRMSD -1
REMARK  1 active torsions:
REMARK  status: ('A' for Active; 'I' for Inactive)
REMARK    1  A    between atoms: N_2  and  C1_3 
ROOT
ATOM      1  C1  UNL d   1       3.804   3.107  -2.062  0.00  0.00     0.143 A 
ATOM      2  C2  UNL d   1       3.000   2.403  -2.966  0.00  0.00    -0.057 A 
ATOM      3  C3  UNL d   1       2.276   1.274  -2.566  0.00  0.00     0.033 A 
ATOM      4  C4  UNL d   1       2.366   0.810  -1.257  0.00  0.00    -0.042 A 
ATOM      5  C5  UNL d   1       3.179   1.479  -0.349  0.00  0.00     0.033 A 
ATOM      6  C6  UNL d   1       3.894   2.610  -0.753  0.00  0.00    -0.057 A 
ENDROOT
BRANCH   1   7
ATOM      7  N   UNL d   1       4.625   4.178  -2.423  0.00  0.00    -0.732 N 
ATOM      8  C   UNL d   1       5.994   4.247  -1.959  0.00  0.00     0.284 C 
ATOM      9  H3  UNL d   1       4.501   4.453  -3.395  0.00  0.00     0.395 HD
ENDBRANCH   1   7
TORSDOF 1
ENDMDL
