MODEL 1
REMARK minimizedAffinity 6.64901066
REMARK minimizedRMSD -1
REMARK  1 active torsions:
REMARK  status: ('A' for Active; 'I' for Inactive)
REMARK    1  A    between atoms: N_2  and  C1_3 
ROOT
ATOM      1  C1  UNL d   1      -0.615  -1.842   1.915  0.00  0.00     0.143 A 
ATOM      2  C2  UNL d   1      -0.510  -0.995   3.024  0.00  0.00    -0.057 A 
ATOM      3  C3  UNL d   1       0.492  -1.178   3.984  0.00  0.00     0.033 A 
ATOM      4  C4  UNL d   1       1.393  -2.232   3.867  0.00  0.00    -0.042 A 
ATOM      5  C5  UNL d   1       1.292  -3.100   2.786  0.00  0.00     0.033 A 
ATOM      6  C6  UNL d   1       0.293  -2.909   1.827  0.00  0.00    -0.057 A 
ENDROOT
BRANCH   1   7
ATOM      7  N   UNL d   1      -1.650  -1.772   0.979  0.00  0.00    -0.732 N 
ATOM      8  C   UNL d   1      -2.683  -2.784   0.946  0.00  0.00     0.284 C 
ATOM      9  H3  UNL d   1      -1.993  -0.823   0.849  0.00  0.00     0.395 HD
ENDBRANCH   1   7
TORSDOF 1
ENDMDL
