MODEL 1
REMARK minimizedAffinity 9.97801495
REMARK minimizedRMSD -1
REMARK  1 active torsions:
REMARK  status: ('A' for Active; 'I' for Inactive)
REMARK    1  A    between atoms: N_2  and  C1_3 
ROOT
ATOM      1  C1  UNL d   1       0.865   3.121  -4.444  0.00  0.00     0.143 A 
ATOM      2  C2  UNL d   1       1.933   2.252  -4.196  0.00  0.00    -0.057 A 
ATOM      3  C3  UNL d   1       2.829   2.484  -3.145  0.00  0.00     0.033 A 
ATOM      4  C4  UNL d   1       2.689   3.609  -2.340  0.00  0.00    -0.042 A 
ATOM      5  C5  UNL d   1       1.650   4.500  -2.584  0.00  0.00     0.033 A 
ATOM      6  C6  UNL d   1       0.755   4.260  -3.630  0.00  0.00    -0.057 A 
ENDROOT
BRANCH   1   7
ATOM      7  N   UNL d   1      -0.001   2.999  -5.534  0.00  0.00    -0.732 N 
ATOM      8  C   UNL d   1      -0.765   4.136  -6.000  0.00  0.00     0.284 C 
ATOM      9  H3  UNL d   1       0.391   2.428  -6.279  0.00  0.00     0.395 HD
ENDBRANCH   1   7
TORSDOF 1
ENDMDL
