MODEL 1
REMARK minimizedAffinity 4.53905058
REMARK minimizedRMSD -1
REMARK  1 active torsions:
REMARK  status: ('A' for Active; 'I' for Inactive)
REMARK    1  A    between atoms: N_2  and  C1_3 
ROOT
ATOM      1  C1  UNL d   1      -3.282   0.497   0.902  0.00  0.00     0.143 A 
ATOM      2  C2  UNL d   1      -3.290   0.579   2.299  0.00  0.00    -0.057 A 
ATOM      3  C3  UNL d   1      -2.328  -0.084   3.071  0.00  0.00     0.033 A 
ATOM      4  C4  UNL d   1      -1.356  -0.869   2.458  0.00  0.00    -0.042 A 
ATOM      5  C5  UNL d   1      -1.345  -0.986   1.073  0.00  0.00     0.033 A 
ATOM      6  C6  UNL d   1      -2.304  -0.315   0.307  0.00  0.00    -0.057 A 
ENDROOT
BRANCH   1   7
ATOM      7  N   UNL d   1      -4.269   1.053   0.085  0.00  0.00    -0.732 N 
ATOM      8  C   UNL d   1      -5.664   0.991   0.467  0.00  0.00     0.284 C 
ATOM      9  H3  UNL d   1      -3.987   1.946  -0.313  0.00  0.00     0.395 HD
ENDBRANCH   1   7
TORSDOF 1
ENDMDL
