MODEL 1
REMARK minimizedAffinity 3.70177078
REMARK minimizedRMSD -1
REMARK  1 active torsions:
REMARK  status: ('A' for Active; 'I' for Inactive)
REMARK    1  A    between atoms: N_2  and  C1_3 
ROOT
ATOM      1  C1  UNL d   1      -5.419   2.940   5.247  0.00  0.00     0.143 A 
ATOM      2  C2  UNL d   1      -5.999   1.894   5.974  0.00  0.00    -0.057 A 
ATOM      3  C3  UNL d   1      -5.420   0.619   5.999  0.00  0.00     0.033 A 
ATOM      4  C4  UNL d   1      -4.263   0.360   5.273  0.00  0.00    -0.042 A 
ATOM      5  C5  UNL d   1      -3.683   1.377   4.523  0.00  0.00     0.033 A 
ATOM      6  C6  UNL d   1      -4.262   2.650   4.507  0.00  0.00    -0.057 A 
ENDROOT
BRANCH   1   7
ATOM      7  N   UNL d   1      -6.000   4.202   5.103  0.00  0.00    -0.732 N 
ATOM      8  C   UNL d   1      -5.627   5.290   5.981  0.00  0.00     0.284 C 
ATOM      9  H3  UNL d   1      -6.104   4.472   4.127  0.00  0.00     0.395 HD
ENDBRANCH   1   7
TORSDOF 1
ENDMDL
