MODEL 1
REMARK minimizedAffinity 5.47538471
REMARK minimizedRMSD -1
REMARK  1 active torsions:
REMARK  status: ('A' for Active; 'I' for Inactive)
REMARK    1  A    between atoms: N_2  and  C1_3 
ROOT
ATOM      1  C1  UNL d   1       0.740  -3.668   1.332  0.00  0.00     0.143 A 
ATOM      2  C2  UNL d   1       1.363  -2.639   2.046  0.00  0.00    -0.057 A 
ATOM      3  C3  UNL d   1       0.764  -1.380   2.178  0.00  0.00     0.033 A 
ATOM      4  C4  UNL d   1      -0.459  -1.119   1.570  0.00  0.00    -0.042 A 
ATOM      5  C5  UNL d   1      -1.085  -2.120   0.834  0.00  0.00     0.033 A 
ATOM      6  C6  UNL d   1      -0.485  -3.377   0.713  0.00  0.00    -0.057 A 
ENDROOT
BRANCH   1   7
ATOM      7  N   UNL d   1       1.330  -4.910   1.083  0.00  0.00    -0.732 N 
ATOM      8  C   UNL d   1       2.603  -4.998   0.399  0.00  0.00     0.284 C 
ATOM      9  H3  UNL d   1       1.236  -5.549   1.869  0.00  0.00     0.395 HD
ENDBRANCH   1   7
TORSDOF 1
ENDMDL
