MODEL 1
REMARK minimizedAffinity 10.6049919
REMARK minimizedRMSD -1
REMARK  1 active torsions:
REMARK  status: ('A' for Active; 'I' for Inactive)
REMARK    1  A    between atoms: N_2  and  C1_3 
ROOT
ATOM      1  C1  UNL d   1       1.084  -1.047   2.277  0.00  0.00     0.143 A 
ATOM      2  C2  UNL d   1       0.421  -1.239   3.494  0.00  0.00    -0.057 A 
ATOM      3  C3  UNL d   1      -0.873  -1.773   3.540  0.00  0.00     0.033 A 
ATOM      4  C4  UNL d   1      -1.540  -2.098   2.364  0.00  0.00    -0.042 A 
ATOM      5  C5  UNL d   1      -0.910  -1.892   1.141  0.00  0.00     0.033 A 
ATOM      6  C6  UNL d   1       0.384  -1.365   1.102  0.00  0.00    -0.057 A 
ENDROOT
BRANCH   1   7
ATOM      7  N   UNL d   1       2.331  -0.429   2.159  0.00  0.00    -0.732 N 
ATOM      8  C   UNL d   1       3.526  -1.216   1.942  0.00  0.00     0.284 C 
ATOM      9  H3  UNL d   1       2.290   0.427   1.610  0.00  0.00     0.395 HD
ENDBRANCH   1   7
TORSDOF 1
ENDMDL
