MODEL 1
REMARK minimizedAffinity 6.80366707
REMARK minimizedRMSD -1
REMARK  1 active torsions:
REMARK  status: ('A' for Active; 'I' for Inactive)
REMARK    1  A    between atoms: N_2  and  C1_3 
ROOT
ATOM      1  C1  UNL d   1       1.434   0.552   0.150  0.00  0.00     0.143 A 
ATOM      2  C2  UNL d   1       2.509   1.375   0.501  0.00  0.00    -0.057 A 
ATOM      3  C3  UNL d   1       3.223   2.090  -0.468  0.00  0.00     0.033 A 
ATOM      4  C4  UNL d   1       2.892   1.970  -1.813  0.00  0.00    -0.042 A 
ATOM      5  C5  UNL d   1       1.843   1.138  -2.188  0.00  0.00     0.033 A 
ATOM      6  C6  UNL d   1       1.129   0.432  -1.215  0.00  0.00    -0.057 A 
ENDROOT
BRANCH   1   7
ATOM      7  N   UNL d   1       0.747  -0.261   1.056  0.00  0.00    -0.732 N 
ATOM      8  C   UNL d   1      -0.587  -0.734   0.757  0.00  0.00     0.284 C 
ATOM      9  H3  UNL d   1       1.350  -0.960   1.485  0.00  0.00     0.395 HD
ENDBRANCH   1   7
TORSDOF 1
ENDMDL
