MODEL 1
REMARK minimizedAffinity 14.8842125
REMARK minimizedRMSD -1
REMARK  1 active torsions:
REMARK  status: ('A' for Active; 'I' for Inactive)
REMARK    1  A    between atoms: N_2  and  C1_3 
ROOT
ATOM      1  C1  UNL d   1      -1.177   5.079  -5.524  0.00  0.00     0.143 A 
ATOM      2  C2  UNL d   1      -0.194   5.953  -6.000  0.00  0.00    -0.057 A 
ATOM      3  C3  UNL d   1       1.079   6.000  -5.418  0.00  0.00     0.033 A 
ATOM      4  C4  UNL d   1       1.382   5.190  -4.329  0.00  0.00    -0.042 A 
ATOM      5  C5  UNL d   1       0.413   4.331  -3.823  0.00  0.00     0.033 A 
ATOM      6  C6  UNL d   1      -0.854   4.285  -4.413  0.00  0.00    -0.057 A 
ENDROOT
BRANCH   1   7
ATOM      7  N   UNL d   1      -2.492   5.056  -5.996  0.00  0.00    -0.732 N 
ATOM      8  C   UNL d   1      -3.590   5.445  -5.138  0.00  0.00     0.284 C 
ATOM      9  H3  UNL d   1      -2.568   5.400  -6.951  0.00  0.00     0.395 HD
ENDBRANCH   1   7
TORSDOF 1
ENDMDL
