MODEL 1
REMARK minimizedAffinity 5.08526087
REMARK minimizedRMSD -1
REMARK  0 active torsions:
REMARK  status: ('A' for Active; 'I' for Inactive)
ROOT
ATOM      1  C2' OXE d   1       3.125   0.412  -1.339  0.00  0.00     0.078 C 
ATOM      2  C1' OXE d   1       0.909   1.491   0.004  0.00  0.00     0.078 C 
ATOM      3  C1  OXE d   1       1.235   0.038   0.240  0.00  0.00    -0.078 A 
ATOM      4  C2  OXE d   1       2.293  -0.494  -0.457  0.00  0.00    -0.078 A 
ATOM      5  C3  OXE d   1       2.670  -1.815  -0.235  0.00  0.00     0.003 A 
ATOM      6  C4  OXE d   1       1.889  -2.649   0.575  0.00  0.00    -0.002 A 
ATOM      7  C5  OXE d   1       0.784  -2.137   1.264  0.00  0.00    -0.002 A 
ATOM      8  C6  OXE d   1       0.469  -0.789   1.141  0.00  0.00     0.003 A 
ENDROOT
TORSDOF 0
ENDMDL
