MODEL 1
REMARK minimizedAffinity 2.83823562
REMARK minimizedRMSD -1
REMARK  0 active torsions:
REMARK  status: ('A' for Active; 'I' for Inactive)
ROOT
ATOM      1  C2' OXE d   1       1.075   1.245   0.279  0.00  0.00     0.078 C 
ATOM      2  C1' OXE d   1       2.860   0.323  -1.682  0.00  0.00     0.078 C 
ATOM      3  C1  OXE d   1       2.533  -0.603  -0.537  0.00  0.00    -0.078 A 
ATOM      4  C2  OXE d   1       1.695  -0.126   0.442  0.00  0.00    -0.078 A 
ATOM      5  C3  OXE d   1       1.317  -0.959   1.492  0.00  0.00     0.003 A 
ATOM      6  C4  OXE d   1       1.903  -2.222   1.640  0.00  0.00    -0.002 A 
ATOM      7  C5  OXE d   1       2.789  -2.711   0.675  0.00  0.00    -0.002 A 
ATOM      8  C6  OXE d   1       3.081  -1.933  -0.439  0.00  0.00     0.003 A 
ENDROOT
TORSDOF 0
ENDMDL
