MODEL 1
REMARK minimizedAffinity 2.10599017
REMARK minimizedRMSD -1
REMARK  0 active torsions:
REMARK  status: ('A' for Active; 'I' for Inactive)
ROOT
ATOM      1  C2' OXE d   1      -4.591  -6.000   3.742  0.00  0.00     0.078 C 
ATOM      2  C1' OXE d   1      -4.425  -3.367   4.704  0.00  0.00     0.078 C 
ATOM      3  C1  OXE d   1      -3.809  -3.666   3.360  0.00  0.00    -0.078 A 
ATOM      4  C2  OXE d   1      -3.854  -4.966   2.918  0.00  0.00    -0.078 A 
ATOM      5  C3  OXE d   1      -3.349  -5.285   1.661  0.00  0.00     0.003 A 
ATOM      6  C4  OXE d   1      -2.659  -4.325   0.910  0.00  0.00    -0.002 A 
ATOM      7  C5  OXE d   1      -2.567  -3.004   1.359  0.00  0.00    -0.002 A 
ATOM      8  C6  OXE d   1      -3.172  -2.649   2.560  0.00  0.00     0.003 A 
ENDROOT
TORSDOF 0
ENDMDL
