MODEL 1
REMARK minimizedAffinity 8.45274544
REMARK minimizedRMSD -1
REMARK  0 active torsions:
REMARK  status: ('A' for Active; 'I' for Inactive)
ROOT
ATOM      1  C2' OXE d   1       3.717  -0.668  -2.267  0.00  0.00     0.078 C 
ATOM      2  C1' OXE d   1       1.819  -2.729  -2.085  0.00  0.00     0.078 C 
ATOM      3  C1  OXE d   1       1.970  -1.805  -0.902  0.00  0.00    -0.078 A 
ATOM      4  C2  OXE d   1       2.934  -0.829  -0.982  0.00  0.00    -0.078 A 
ATOM      5  C3  OXE d   1       3.078   0.084   0.059  0.00  0.00     0.003 A 
ATOM      6  C4  OXE d   1       2.357  -0.077   1.248  0.00  0.00    -0.002 A 
ATOM      7  C5  OXE d   1       1.398  -1.089   1.365  0.00  0.00    -0.002 A 
ATOM      8  C6  OXE d   1       1.163  -1.934   0.286  0.00  0.00     0.003 A 
ENDROOT
TORSDOF 0
ENDMDL
