MODEL 1
REMARK minimizedAffinity 7.27593613
REMARK minimizedRMSD -1
REMARK  0 active torsions:
REMARK  status: ('A' for Active; 'I' for Inactive)
ROOT
ATOM      1  C2' OXE d   1      -2.794  -2.625   1.289  0.00  0.00     0.078 C 
ATOM      2  C1' OXE d   1      -2.623  -0.204   2.699  0.00  0.00     0.078 C 
ATOM      3  C1  OXE d   1      -3.109  -0.154   1.272  0.00  0.00    -0.078 A 
ATOM      4  C2  OXE d   1      -3.146  -1.338   0.575  0.00  0.00    -0.078 A 
ATOM      5  C3  OXE d   1      -3.638  -1.357  -0.727  0.00  0.00     0.003 A 
ATOM      6  C4  OXE d   1      -3.952  -0.160  -1.383  0.00  0.00    -0.002 A 
ATOM      7  C5  OXE d   1      -3.884   1.061  -0.705  0.00  0.00    -0.002 A 
ATOM      8  C6  OXE d   1      -3.506   1.077   0.634  0.00  0.00     0.003 A 
ENDROOT
TORSDOF 0
ENDMDL
