MODEL 1
REMARK minimizedAffinity 0.559326112
REMARK minimizedRMSD -1
REMARK  0 active torsions:
REMARK  status: ('A' for Active; 'I' for Inactive)
ROOT
ATOM      1  C2' OXE d   1       2.537  -1.702   3.604  0.00  0.00     0.078 C 
ATOM      2  C1' OXE d   1       4.946  -1.072   2.307  0.00  0.00     0.078 C 
ATOM      3  C1  OXE d   1       3.691  -1.125   1.473  0.00  0.00    -0.078 A 
ATOM      4  C2  OXE d   1       2.524  -1.480   2.107  0.00  0.00    -0.078 A 
ATOM      5  C3  OXE d   1       1.328  -1.491   1.395  0.00  0.00     0.003 A 
ATOM      6  C4  OXE d   1       1.327  -1.294   0.008  0.00  0.00    -0.002 A 
ATOM      7  C5  OXE d   1       2.510  -0.970  -0.664  0.00  0.00    -0.002 A 
ATOM      8  C6  OXE d   1       3.691  -0.840   0.059  0.00  0.00     0.003 A 
ENDROOT
TORSDOF 0
ENDMDL
