MODEL 1
REMARK minimizedAffinity 1.79038286
REMARK minimizedRMSD -1
REMARK  0 active torsions:
REMARK  status: ('A' for Active; 'I' for Inactive)
ROOT
ATOM      1  C2' OXE d   1      -3.029  -5.315   0.481  0.00  0.00     0.078 C 
ATOM      2  C1' OXE d   1      -5.806  -5.653   0.723  0.00  0.00     0.078 C 
ATOM      3  C1  OXE d   1      -5.205  -5.733  -0.659  0.00  0.00    -0.078 A 
ATOM      4  C2  OXE d   1      -3.852  -5.520  -0.773  0.00  0.00    -0.078 A 
ATOM      5  C3  OXE d   1      -3.239  -5.637  -2.017  0.00  0.00     0.003 A 
ATOM      6  C4  OXE d   1      -4.008  -5.817  -3.173  0.00  0.00    -0.002 A 
ATOM      7  C5  OXE d   1      -5.393  -5.996  -3.083  0.00  0.00    -0.002 A 
ATOM      8  C6  OXE d   1      -6.000  -5.999  -1.832  0.00  0.00     0.003 A 
ENDROOT
TORSDOF 0
ENDMDL
