MODEL 1
REMARK minimizedAffinity 2.89086986
REMARK minimizedRMSD -1
REMARK  0 active torsions:
REMARK  status: ('A' for Active; 'I' for Inactive)
ROOT
ATOM      1  C2' OXE d   1      -1.893  -4.010  -0.461  0.00  0.00     0.078 C 
ATOM      2  C1' OXE d   1      -4.374  -5.234  -0.938  0.00  0.00     0.078 C 
ATOM      3  C1  OXE d   1      -3.946  -5.046   0.496  0.00  0.00    -0.078 A 
ATOM      4  C2  OXE d   1      -2.710  -4.489   0.720  0.00  0.00    -0.078 A 
ATOM      5  C3  OXE d   1      -2.290  -4.244   2.024  0.00  0.00     0.003 A 
ATOM      6  C4  OXE d   1      -3.047  -4.699   3.110  0.00  0.00    -0.002 A 
ATOM      7  C5  OXE d   1      -4.291  -5.304   2.904  0.00  0.00    -0.002 A 
ATOM      8  C6  OXE d   1      -4.773  -5.447   1.608  0.00  0.00     0.003 A 
ENDROOT
TORSDOF 0
ENDMDL
