MODEL 1
REMARK minimizedAffinity -3.10221124
REMARK minimizedRMSD -1
REMARK  0 active torsions:
REMARK  status: ('A' for Active; 'I' for Inactive)
ROOT
ATOM      1  C2' OXE d   1      -1.863  -5.947  -1.581  0.00  0.00     0.078 C 
ATOM      2  C1' OXE d   1      -4.552  -5.987  -2.386  0.00  0.00     0.078 C 
ATOM      3  C1  OXE d   1      -4.261  -5.971  -0.907  0.00  0.00    -0.078 A 
ATOM      4  C2  OXE d   1      -2.942  -5.998  -0.521  0.00  0.00    -0.078 A 
ATOM      5  C3  OXE d   1      -2.618  -5.929   0.831  0.00  0.00     0.003 A 
ATOM      6  C4  OXE d   1      -3.622  -5.987   1.805  0.00  0.00    -0.002 A 
ATOM      7  C5  OXE d   1      -4.971  -5.999   1.434  0.00  0.00    -0.002 A 
ATOM      8  C6  OXE d   1      -5.307  -5.949   0.086  0.00  0.00     0.003 A 
ENDROOT
TORSDOF 0
ENDMDL
