MODEL 1
REMARK minimizedAffinity 6.00959873
REMARK minimizedRMSD -1
REMARK  0 active torsions:
REMARK  status: ('A' for Active; 'I' for Inactive)
ROOT
ATOM      1  C2' OXE d   1      -5.014  -4.865   2.904  0.00  0.00     0.078 C 
ATOM      2  C1' OXE d   1      -5.598  -5.998   0.403  0.00  0.00     0.078 C 
ATOM      3  C1  OXE d   1      -4.370  -5.130   0.512  0.00  0.00    -0.078 A 
ATOM      4  C2  OXE d   1      -4.118  -4.542   1.728  0.00  0.00    -0.078 A 
ATOM      5  C3  OXE d   1      -2.968  -3.775   1.898  0.00  0.00     0.003 A 
ATOM      6  C4  OXE d   1      -2.150  -3.473   0.803  0.00  0.00    -0.002 A 
ATOM      7  C5  OXE d   1      -2.411  -4.030  -0.454  0.00  0.00    -0.002 A 
ATOM      8  C6  OXE d   1      -3.490  -4.893  -0.606  0.00  0.00     0.003 A 
ENDROOT
TORSDOF 0
ENDMDL
