MODEL 1
REMARK minimizedAffinity 7.61556721
REMARK minimizedRMSD -1
REMARK  0 active torsions:
REMARK  status: ('A' for Active; 'I' for Inactive)
ROOT
ATOM      1  C2' OXE d   1      -1.214  -3.213   0.573  0.00  0.00     0.078 C 
ATOM      2  C1' OXE d   1       1.131  -3.549  -0.933  0.00  0.00     0.078 C 
ATOM      3  C1  OXE d   1       0.719  -2.142  -0.577  0.00  0.00    -0.078 A 
ATOM      4  C2  OXE d   1      -0.455  -1.985   0.120  0.00  0.00    -0.078 A 
ATOM      5  C3  OXE d   1      -0.852  -0.713   0.522  0.00  0.00     0.003 A 
ATOM      6  C4  OXE d   1      -0.150   0.419   0.090  0.00  0.00    -0.002 A 
ATOM      7  C5  OXE d   1       1.026   0.283  -0.655  0.00  0.00    -0.002 A 
ATOM      8  C6  OXE d   1       1.496  -0.990  -0.960  0.00  0.00     0.003 A 
ENDROOT
TORSDOF 0
ENDMDL
