MODEL 1
REMARK minimizedAffinity -3.36149716
REMARK minimizedRMSD -1
REMARK  0 active torsions:
REMARK  status: ('A' for Active; 'I' for Inactive)
ROOT
ATOM      1  C2' OXE d   1       1.153  -5.992  -1.841  0.00  0.00     0.078 C 
ATOM      2  C1' OXE d   1       3.104  -5.740  -3.843  0.00  0.00     0.078 C 
ATOM      3  C1  OXE d   1       1.660  -5.811  -4.273  0.00  0.00    -0.078 A 
ATOM      4  C2  OXE d   1       0.715  -5.981  -3.289  0.00  0.00    -0.078 A 
ATOM      5  C3  OXE d   1      -0.635  -5.998  -3.626  0.00  0.00     0.003 A 
ATOM      6  C4  OXE d   1      -1.031  -5.997  -4.970  0.00  0.00    -0.002 A 
ATOM      7  C5  OXE d   1      -0.082  -5.864  -5.989  0.00  0.00    -0.002 A 
ATOM      8  C6  OXE d   1       1.261  -5.727  -5.656  0.00  0.00     0.003 A 
ENDROOT
TORSDOF 0
ENDMDL
