MODEL 1
REMARK minimizedAffinity 1.55711448
REMARK minimizedRMSD -1
REMARK  0 active torsions:
REMARK  status: ('A' for Active; 'I' for Inactive)
ROOT
ATOM      1  C2' OXE d   1      -1.921  -5.999  -2.965  0.00  0.00     0.078 C 
ATOM      2  C1' OXE d   1       0.321  -4.757  -1.819  0.00  0.00     0.078 C 
ATOM      3  C1  OXE d   1       0.367  -5.071  -3.294  0.00  0.00    -0.078 A 
ATOM      4  C2  OXE d   1      -0.715  -5.721  -3.837  0.00  0.00    -0.078 A 
ATOM      5  C3  OXE d   1      -0.747  -5.984  -5.203  0.00  0.00     0.003 A 
ATOM      6  C4  OXE d   1       0.377  -5.733  -6.000  0.00  0.00    -0.002 A 
ATOM      7  C5  OXE d   1       1.505  -5.107  -5.459  0.00  0.00    -0.002 A 
ATOM      8  C6  OXE d   1       1.500  -4.732  -4.120  0.00  0.00     0.003 A 
ENDROOT
TORSDOF 0
ENDMDL
