MODEL 1
REMARK minimizedAffinity 4.56446218
REMARK minimizedRMSD -1
REMARK  0 active torsions:
REMARK  status: ('A' for Active; 'I' for Inactive)
ROOT
ATOM      1  C2' OXE d   1       0.212   0.312   1.197  0.00  0.00     0.078 C 
ATOM      2  C1' OXE d   1       2.775  -0.566   0.464  0.00  0.00     0.078 C 
ATOM      3  C1  OXE d   1       1.866  -0.060  -0.628  0.00  0.00    -0.078 A 
ATOM      4  C2  OXE d   1       0.597   0.324  -0.267  0.00  0.00    -0.078 A 
ATOM      5  C3  OXE d   1      -0.263   0.850  -1.226  0.00  0.00     0.003 A 
ATOM      6  C4  OXE d   1       0.097   0.849  -2.579  0.00  0.00    -0.002 A 
ATOM      7  C5  OXE d   1       1.371   0.425  -2.974  0.00  0.00    -0.002 A 
ATOM      8  C6  OXE d   1       2.280   0.009  -2.008  0.00  0.00     0.003 A 
ENDROOT
TORSDOF 0
ENDMDL
