MODEL 1
REMARK minimizedAffinity 3.68869114
REMARK minimizedRMSD -1
REMARK  0 active torsions:
REMARK  status: ('A' for Active; 'I' for Inactive)
ROOT
ATOM      1  C2' OXE d   1      -2.257   1.929  -1.662  0.00  0.00     0.078 C 
ATOM      2  C1' OXE d   1      -1.395   2.266   0.989  0.00  0.00     0.078 C 
ATOM      3  C1  OXE d   1      -1.766   0.874   0.541  0.00  0.00    -0.078 A 
ATOM      4  C2  OXE d   1      -2.231   0.726  -0.743  0.00  0.00    -0.078 A 
ATOM      5  C3  OXE d   1      -2.535  -0.544  -1.224  0.00  0.00     0.003 A 
ATOM      6  C4  OXE d   1      -2.519  -1.650  -0.365  0.00  0.00    -0.002 A 
ATOM      7  C5  OXE d   1      -2.086  -1.514   0.958  0.00  0.00    -0.002 A 
ATOM      8  C6  OXE d   1      -1.667  -0.269   1.414  0.00  0.00     0.003 A 
ENDROOT
TORSDOF 0
ENDMDL
