MODEL 1
REMARK minimizedAffinity -2.8124938
REMARK minimizedRMSD -1
REMARK  0 active torsions:
REMARK  status: ('A' for Active; 'I' for Inactive)
ROOT
ATOM      1  C   UNL d   1       2.417  -1.102  -1.678  0.00  0.00     0.077 C 
ATOM      2  C1  UNL d   1       1.217  -0.880  -0.806  0.00  0.00    -0.074 A 
ATOM      3  C2  UNL d   1       0.038  -0.339  -1.329  0.00  0.00    -0.005 A 
ATOM      4  C3  UNL d   1      -1.073  -0.148  -0.508  0.00  0.00     0.006 A 
ATOM      5  C4  UNL d   1      -1.017  -0.496   0.842  0.00  0.00    -0.005 A 
ATOM      6  C5  UNL d   1       0.152  -1.040   1.382  0.00  0.00    -0.074 A 
ATOM      7  C6  UNL d   1       0.226  -1.428   2.829  0.00  0.00     0.077 C 
ATOM      8  C7  UNL d   1       1.262  -1.235   0.549  0.00  0.00    -0.001 A 
ENDROOT
TORSDOF 0
ENDMDL
