MODEL 1
REMARK minimizedAffinity -4.30386734
REMARK minimizedRMSD -1
REMARK  0 active torsions:
REMARK  status: ('A' for Active; 'I' for Inactive)
ROOT
ATOM      1  C   UNL d   1       2.555  -1.227   3.025  0.00  0.00     0.077 C 
ATOM      2  C1  UNL d   1       1.528  -0.999   1.956  0.00  0.00    -0.074 A 
ATOM      3  C2  UNL d   1       0.215  -0.644   2.285  0.00  0.00    -0.005 A 
ATOM      4  C3  UNL d   1      -0.727  -0.426   1.280  0.00  0.00     0.006 A 
ATOM      5  C4  UNL d   1      -0.367  -0.560  -0.062  0.00  0.00    -0.005 A 
ATOM      6  C5  UNL d   1       0.941  -0.914  -0.409  0.00  0.00    -0.074 A 
ATOM      7  C6  UNL d   1       1.346  -1.053  -1.846  0.00  0.00     0.077 C 
ATOM      8  C7  UNL d   1       1.883  -1.125   0.606  0.00  0.00    -0.001 A 
ENDROOT
TORSDOF 0
ENDMDL
