MODEL 1
REMARK minimizedAffinity -2.50945187
REMARK minimizedRMSD -1
REMARK  0 active torsions:
REMARK  status: ('A' for Active; 'I' for Inactive)
ROOT
ATOM      1  C   UNL d   1       1.976  -1.551   3.614  0.00  0.00     0.077 C 
ATOM      2  C1  UNL d   1       1.359  -0.927   2.397  0.00  0.00    -0.074 A 
ATOM      3  C2  UNL d   1       2.098  -0.070   1.576  0.00  0.00    -0.005 A 
ATOM      4  C3  UNL d   1       1.514   0.496   0.442  0.00  0.00     0.006 A 
ATOM      5  C4  UNL d   1       0.187   0.209   0.119  0.00  0.00    -0.005 A 
ATOM      6  C5  UNL d   1      -0.568  -0.647   0.928  0.00  0.00    -0.074 A 
ATOM      7  C6  UNL d   1      -1.992  -0.973   0.589  0.00  0.00     0.077 C 
ATOM      8  C7  UNL d   1       0.029  -1.216   2.061  0.00  0.00    -0.001 A 
ENDROOT
TORSDOF 0
ENDMDL
