MODEL 1
REMARK minimizedAffinity 2.80549097
REMARK minimizedRMSD -1
REMARK  0 active torsions:
REMARK  status: ('A' for Active; 'I' for Inactive)
ROOT
ATOM      1  C   UNL d   1      -1.449  -3.100   3.321  0.00  0.00     0.077 C 
ATOM      2  C1  UNL d   1      -0.712  -2.147   2.427  0.00  0.00    -0.074 A 
ATOM      3  C2  UNL d   1       0.514  -2.501   1.855  0.00  0.00    -0.005 A 
ATOM      4  C3  UNL d   1       1.183  -1.607   1.018  0.00  0.00     0.006 A 
ATOM      5  C4  UNL d   1       0.634  -0.354   0.746  0.00  0.00    -0.005 A 
ATOM      6  C5  UNL d   1      -0.591   0.017   1.309  0.00  0.00    -0.074 A 
ATOM      7  C6  UNL d   1      -1.200   1.357   1.019  0.00  0.00     0.077 C 
ATOM      8  C7  UNL d   1      -1.261  -0.889   2.143  0.00  0.00    -0.001 A 
ENDROOT
TORSDOF 0
ENDMDL
