MODEL 1
REMARK minimizedAffinity -1.06925142
REMARK minimizedRMSD -1
REMARK  0 active torsions:
REMARK  status: ('A' for Active; 'I' for Inactive)
ROOT
ATOM      1  C   UNL d   1      -0.742  -0.947   2.161  0.00  0.00     0.077 C 
ATOM      2  C1  UNL d   1      -0.345  -2.393   2.142  0.00  0.00    -0.074 A 
ATOM      3  C2  UNL d   1      -1.110  -3.357   2.806  0.00  0.00    -0.005 A 
ATOM      4  C3  UNL d   1      -0.734  -4.700   2.771  0.00  0.00     0.006 A 
ATOM      5  C4  UNL d   1       0.409  -5.092   2.073  0.00  0.00    -0.005 A 
ATOM      6  C5  UNL d   1       1.186  -4.142   1.403  0.00  0.00    -0.074 A 
ATOM      7  C6  UNL d   1       2.412  -4.547   0.640  0.00  0.00     0.077 C 
ATOM      8  C7  UNL d   1       0.798  -2.796   1.436  0.00  0.00    -0.001 A 
ENDROOT
TORSDOF 0
ENDMDL
