MODEL 1
REMARK minimizedAffinity 5.42518139
REMARK minimizedRMSD -1
REMARK  0 active torsions:
REMARK  status: ('A' for Active; 'I' for Inactive)
ROOT
ATOM      1  C   UNL d   1       2.626  -3.615   0.459  0.00  0.00     0.077 C 
ATOM      2  C1  UNL d   1       1.478  -2.876   1.079  0.00  0.00    -0.074 A 
ATOM      3  C2  UNL d   1       1.286  -1.512   0.837  0.00  0.00    -0.005 A 
ATOM      4  C3  UNL d   1       0.208  -0.840   1.413  0.00  0.00     0.006 A 
ATOM      5  C4  UNL d   1      -0.688  -1.524   2.234  0.00  0.00    -0.005 A 
ATOM      6  C5  UNL d   1      -0.514  -2.889   2.487  0.00  0.00    -0.074 A 
ATOM      7  C6  UNL d   1      -1.474  -3.641   3.359  0.00  0.00     0.077 C 
ATOM      8  C7  UNL d   1       0.568  -3.558   1.899  0.00  0.00    -0.001 A 
ENDROOT
TORSDOF 0
ENDMDL
