MODEL 1
REMARK minimizedAffinity 8.8907671
REMARK minimizedRMSD -1
REMARK  0 active torsions:
REMARK  status: ('A' for Active; 'I' for Inactive)
ROOT
ATOM      1  C   UNL d   1      -0.638  -0.823   3.249  0.00  0.00     0.077 C 
ATOM      2  C1  UNL d   1       0.271  -1.380   2.193  0.00  0.00    -0.074 A 
ATOM      3  C2  UNL d   1       0.521  -0.672   1.014  0.00  0.00    -0.005 A 
ATOM      4  C3  UNL d   1       1.376  -1.199   0.045  0.00  0.00     0.006 A 
ATOM      5  C4  UNL d   1       1.988  -2.437   0.247  0.00  0.00    -0.005 A 
ATOM      6  C5  UNL d   1       1.750  -3.159   1.420  0.00  0.00    -0.074 A 
ATOM      7  C6  UNL d   1       2.407  -4.486   1.657  0.00  0.00     0.077 C 
ATOM      8  C7  UNL d   1       0.895  -2.620   2.392  0.00  0.00    -0.001 A 
ENDROOT
TORSDOF 0
ENDMDL
