MODEL 1
REMARK minimizedAffinity -0.0554761589
REMARK minimizedRMSD -1
REMARK  0 active torsions:
REMARK  status: ('A' for Active; 'I' for Inactive)
ROOT
ATOM      1  C   UNL d   1      -1.413  -0.005  -0.681  0.00  0.00     0.077 C 
ATOM      2  C1  UNL d   1      -0.917  -0.729   0.534  0.00  0.00    -0.074 A 
ATOM      3  C2  UNL d   1      -1.503  -0.518   1.787  0.00  0.00    -0.005 A 
ATOM      4  C3  UNL d   1      -1.037  -1.206   2.907  0.00  0.00     0.006 A 
ATOM      5  C4  UNL d   1       0.018  -2.112   2.786  0.00  0.00    -0.005 A 
ATOM      6  C5  UNL d   1       0.615  -2.337   1.542  0.00  0.00    -0.074 A 
ATOM      7  C6  UNL d   1       1.744  -3.314   1.393  0.00  0.00     0.077 C 
ATOM      8  C7  UNL d   1       0.137  -1.647   0.420  0.00  0.00    -0.001 A 
ENDROOT
TORSDOF 0
ENDMDL
