MODEL 1
REMARK minimizedAffinity 6.11286259
REMARK minimizedRMSD -1
REMARK  0 active torsions:
REMARK  status: ('A' for Active; 'I' for Inactive)
ROOT
ATOM      1  C   UNL d   1      -1.176  -0.731  -1.319  0.00  0.00     0.077 C 
ATOM      2  C1  UNL d   1      -1.129  -0.610   0.175  0.00  0.00    -0.074 A 
ATOM      3  C2  UNL d   1      -0.024  -1.069   0.899  0.00  0.00    -0.005 A 
ATOM      4  C3  UNL d   1       0.010  -0.941   2.287  0.00  0.00     0.006 A 
ATOM      5  C4  UNL d   1      -1.060  -0.354   2.965  0.00  0.00    -0.005 A 
ATOM      6  C5  UNL d   1      -2.173   0.111   2.258  0.00  0.00    -0.074 A 
ATOM      7  C6  UNL d   1      -3.326   0.754   2.970  0.00  0.00     0.077 C 
ATOM      8  C7  UNL d   1      -2.196  -0.014   0.862  0.00  0.00    -0.001 A 
ENDROOT
TORSDOF 0
ENDMDL
