MODEL 1
REMARK minimizedAffinity -2.13237524
REMARK minimizedRMSD -1
REMARK  0 active torsions:
REMARK  status: ('A' for Active; 'I' for Inactive)
ROOT
ATOM      1  C   UNL d   1       0.375   0.098  -0.602  0.00  0.00     0.077 C 
ATOM      2  C1  UNL d   1       0.516  -0.884   0.522  0.00  0.00    -0.074 A 
ATOM      3  C2  UNL d   1      -0.284  -0.788   1.665  0.00  0.00    -0.005 A 
ATOM      4  C3  UNL d   1      -0.148  -1.715   2.699  0.00  0.00     0.006 A 
ATOM      5  C4  UNL d   1       0.787  -2.746   2.600  0.00  0.00    -0.005 A 
ATOM      6  C5  UNL d   1       1.595  -2.858   1.464  0.00  0.00    -0.074 A 
ATOM      7  C6  UNL d   1       2.599  -3.966   1.337  0.00  0.00     0.077 C 
ATOM      8  C7  UNL d   1       1.448  -1.927   0.427  0.00  0.00    -0.001 A 
ENDROOT
TORSDOF 0
ENDMDL
