MODEL 1
REMARK minimizedAffinity 5.77962589
REMARK minimizedRMSD -1
REMARK  0 active torsions:
REMARK  status: ('A' for Active; 'I' for Inactive)
ROOT
ATOM      1  C   UNL d   1      -5.986   2.952   0.010  0.00  0.00     0.124 A 
ATOM      2  C1  UNL d   1      -5.985   3.143  -1.365  0.00  0.00     0.062 A 
ATOM      3  C2  UNL d   1      -5.989   2.048  -2.224  0.00  0.00     0.162 A 
ATOM      4  C3  UNL d   1      -5.994   0.751  -1.711  0.00  0.00    -0.034 A 
ATOM      5  C4  UNL d   1      -5.994   0.567  -0.327  0.00  0.00     0.162 A 
ATOM      6  C5  UNL d   1      -5.991   1.664   0.527  0.00  0.00     0.062 A 
ATOM      7  F   UNL d   1      -5.992   1.477   1.855  0.00  0.00    -0.097 F 
ATOM      8  F1  UNL d   1      -6.000  -0.667   0.199  0.00  0.00    -0.096 F 
ATOM      9  I   UNL d   1      -6.000  -0.889  -2.993  0.00  0.00    -0.060 I 
ATOM     10  F2  UNL d   1      -5.988   2.263  -3.548  0.00  0.00    -0.096 F 
ATOM     11  F3  UNL d   1      -5.980   4.386  -1.867  0.00  0.00    -0.097 F 
ATOM     12  F4  UNL d   1      -5.982   4.007   0.834  0.00  0.00    -0.092 F 
ENDROOT
TORSDOF 0
ENDMDL
