MODEL 1
REMARK minimizedAffinity 15.4952822
REMARK minimizedRMSD -1
REMARK  0 active torsions:
REMARK  status: ('A' for Active; 'I' for Inactive)
ROOT
ATOM      1  C   UNL d   1      -5.886   0.291  -4.824  0.00  0.00     0.124 A 
ATOM      2  C1  UNL d   1      -5.779   1.675  -4.832  0.00  0.00     0.062 A 
ATOM      3  C2  UNL d   1      -5.674   2.375  -3.634  0.00  0.00     0.162 A 
ATOM      4  C3  UNL d   1      -5.675   1.693  -2.417  0.00  0.00    -0.034 A 
ATOM      5  C4  UNL d   1      -5.784   0.301  -2.418  0.00  0.00     0.162 A 
ATOM      6  C5  UNL d   1      -5.889  -0.394  -3.618  0.00  0.00     0.062 A 
ATOM      7  F   UNL d   1      -5.992  -1.731  -3.608  0.00  0.00    -0.097 F 
ATOM      8  F1  UNL d   1      -5.788  -0.386  -1.266  0.00  0.00    -0.096 F 
ATOM      9  I   UNL d   1      -5.519   2.737  -0.623  0.00  0.00    -0.060 I 
ATOM     10  F2  UNL d   1      -5.572   3.712  -3.671  0.00  0.00    -0.096 F 
ATOM     11  F3  UNL d   1      -5.778   2.339  -5.996  0.00  0.00    -0.097 F 
ATOM     12  F4  UNL d   1      -5.988  -0.380  -5.979  0.00  0.00    -0.092 F 
ENDROOT
TORSDOF 0
ENDMDL
