MODEL 1
REMARK minimizedAffinity 21.2218723
REMARK minimizedRMSD -1
REMARK  0 active torsions:
REMARK  status: ('A' for Active; 'I' for Inactive)
ROOT
ATOM      1  C   UNL d   1       1.828   3.262  -2.967  0.00  0.00     0.124 A 
ATOM      2  C1  UNL d   1       2.374   3.872  -4.088  0.00  0.00     0.062 A 
ATOM      3  C2  UNL d   1       1.575   4.654  -4.918  0.00  0.00     0.162 A 
ATOM      4  C3  UNL d   1       0.222   4.831  -4.629  0.00  0.00    -0.034 A 
ATOM      5  C4  UNL d   1      -0.320   4.214  -3.500  0.00  0.00     0.162 A 
ATOM      6  C5  UNL d   1       0.483   3.433  -2.674  0.00  0.00     0.062 A 
ATOM      7  F   UNL d   1      -0.046   2.845  -1.591  0.00  0.00    -0.097 F 
ATOM      8  F1  UNL d   1      -1.617   4.363  -3.193  0.00  0.00    -0.096 F 
ATOM      9  I   UNL d   1      -0.975   6.000  -5.867  0.00  0.00    -0.060 I 
ATOM     10  F2  UNL d   1       2.129   5.231  -5.994  0.00  0.00    -0.096 F 
ATOM     11  F3  UNL d   1       3.673   3.707  -4.374  0.00  0.00    -0.097 F 
ATOM     12  F4  UNL d   1       2.599   2.509  -2.171  0.00  0.00    -0.092 F 
ENDROOT
TORSDOF 0
ENDMDL
