MODEL 1
REMARK minimizedAffinity 10.8813009
REMARK minimizedRMSD -1
REMARK  0 active torsions:
REMARK  status: ('A' for Active; 'I' for Inactive)
ROOT
ATOM      1  C   UNL d   1      -3.675   0.128   4.597  0.00  0.00     0.124 A 
ATOM      2  C1  UNL d   1      -4.849   0.117   3.856  0.00  0.00     0.062 A 
ATOM      3  C2  UNL d   1      -4.834  -0.300   2.528  0.00  0.00     0.162 A 
ATOM      4  C3  UNL d   1      -3.641  -0.710   1.932  0.00  0.00    -0.034 A 
ATOM      5  C4  UNL d   1      -2.465  -0.696   2.684  0.00  0.00     0.162 A 
ATOM      6  C5  UNL d   1      -2.485  -0.278   4.011  0.00  0.00     0.062 A 
ATOM      7  F   UNL d   1      -1.350  -0.268   4.725  0.00  0.00    -0.097 F 
ATOM      8  F1  UNL d   1      -1.301  -1.084   2.142  0.00  0.00    -0.096 F 
ATOM      9  I   UNL d   1      -3.615  -1.334  -0.053  0.00  0.00    -0.060 I 
ATOM     10  F2  UNL d   1      -5.983  -0.300   1.836  0.00  0.00    -0.096 F 
ATOM     11  F3  UNL d   1      -6.000   0.510   4.420  0.00  0.00    -0.097 F 
ATOM     12  F4  UNL d   1      -3.692   0.531   5.874  0.00  0.00    -0.092 F 
ENDROOT
TORSDOF 0
ENDMDL
