MODEL 1
REMARK minimizedAffinity 8.82926559
REMARK minimizedRMSD -1
REMARK  0 active torsions:
REMARK  status: ('A' for Active; 'I' for Inactive)
ROOT
ATOM      1  C   UNL d   1       3.907  -0.005   0.968  0.00  0.00     0.124 A 
ATOM      2  C1  UNL d   1       3.262  -0.416  -0.190  0.00  0.00     0.062 A 
ATOM      3  C2  UNL d   1       2.427   0.462  -0.875  0.00  0.00     0.162 A 
ATOM      4  C3  UNL d   1       2.233   1.761  -0.405  0.00  0.00    -0.034 A 
ATOM      5  C4  UNL d   1       2.885   2.167   0.761  0.00  0.00     0.162 A 
ATOM      6  C5  UNL d   1       3.718   1.286   1.443  0.00  0.00     0.062 A 
ATOM      7  F   UNL d   1       4.340   1.684   2.561  0.00  0.00    -0.097 F 
ATOM      8  F1  UNL d   1       2.721   3.408   1.241  0.00  0.00    -0.096 F 
ATOM      9  I   UNL d   1       0.986   3.077  -1.427  0.00  0.00    -0.060 I 
ATOM     10  F2  UNL d   1       1.816   0.038  -1.992  0.00  0.00    -0.096 F 
ATOM     11  F3  UNL d   1       3.442  -1.662  -0.650  0.00  0.00    -0.097 F 
ATOM     12  F4  UNL d   1       4.709  -0.852   1.626  0.00  0.00    -0.092 F 
ENDROOT
TORSDOF 0
ENDMDL
