MODEL 1
REMARK minimizedAffinity 3.78074431
REMARK minimizedRMSD -1
REMARK  0 active torsions:
REMARK  status: ('A' for Active; 'I' for Inactive)
ROOT
ATOM      1  C   UNL d   1      -5.990  -0.472  -4.580  0.00  0.00     0.124 A 
ATOM      2  C1  UNL d   1      -5.988   0.907  -4.424  0.00  0.00     0.062 A 
ATOM      3  C2  UNL d   1      -5.991   1.467  -3.149  0.00  0.00     0.162 A 
ATOM      4  C3  UNL d   1      -5.994   0.648  -2.021  0.00  0.00    -0.034 A 
ATOM      5  C4  UNL d   1      -5.996  -0.738  -2.186  0.00  0.00     0.162 A 
ATOM      6  C5  UNL d   1      -5.993  -1.293  -3.462  0.00  0.00     0.062 A 
ATOM      7  F   UNL d   1      -5.994  -2.626  -3.611  0.00  0.00    -0.097 F 
ATOM      8  F1  UNL d   1      -5.998  -1.556  -1.122  0.00  0.00    -0.096 F 
ATOM      9  I   UNL d   1      -5.998   1.481  -0.113  0.00  0.00    -0.060 I 
ATOM     10  F2  UNL d   1      -5.990   2.803  -3.028  0.00  0.00    -0.096 F 
ATOM     11  F3  UNL d   1      -5.986   1.703  -5.503  0.00  0.00    -0.097 F 
ATOM     12  F4  UNL d   1      -5.988  -1.008  -5.807  0.00  0.00    -0.092 F 
ENDROOT
TORSDOF 0
ENDMDL
