MODEL 1
REMARK minimizedAffinity 7.17392063
REMARK minimizedRMSD -1
REMARK  0 active torsions:
REMARK  status: ('A' for Active; 'I' for Inactive)
ROOT
ATOM      1  C   UNL d   1      -5.583   3.381   0.222  0.00  0.00     0.124 A 
ATOM      2  C1  UNL d   1      -5.518   3.651  -1.137  0.00  0.00     0.062 A 
ATOM      3  C2  UNL d   1      -5.615   2.616  -2.062  0.00  0.00     0.162 A 
ATOM      4  C3  UNL d   1      -5.778   1.299  -1.631  0.00  0.00    -0.034 A 
ATOM      5  C4  UNL d   1      -5.841   1.035  -0.262  0.00  0.00     0.162 A 
ATOM      6  C5  UNL d   1      -5.744   2.073   0.659  0.00  0.00     0.062 A 
ATOM      7  F   UNL d   1      -5.806   1.810   1.972  0.00  0.00    -0.097 F 
ATOM      8  F1  UNL d   1      -5.997  -0.219   0.188  0.00  0.00    -0.096 F 
ATOM      9  I   UNL d   1      -5.922  -0.252  -3.011  0.00  0.00    -0.060 I 
ATOM     10  F2  UNL d   1      -5.550   2.907  -3.370  0.00  0.00    -0.096 F 
ATOM     11  F3  UNL d   1      -5.362   4.914  -1.562  0.00  0.00    -0.097 F 
ATOM     12  F4  UNL d   1      -5.488   4.379   1.110  0.00  0.00    -0.092 F 
ENDROOT
TORSDOF 0
ENDMDL
