MODEL 1
REMARK minimizedAffinity 14.4327173
REMARK minimizedRMSD -1
REMARK  0 active torsions:
REMARK  status: ('A' for Active; 'I' for Inactive)
ROOT
ATOM      1  C   UNL d   1      -5.977   2.060  -4.589  0.00  0.00     0.124 A 
ATOM      2  C1  UNL d   1      -5.953   2.593  -3.308  0.00  0.00     0.062 A 
ATOM      3  C2  UNL d   1      -5.930   1.752  -2.199  0.00  0.00     0.162 A 
ATOM      4  C3  UNL d   1      -5.929   0.367  -2.367  0.00  0.00    -0.034 A 
ATOM      5  C4  UNL d   1      -5.954  -0.162  -3.658  0.00  0.00     0.162 A 
ATOM      6  C5  UNL d   1      -5.977   0.683  -4.763  0.00  0.00     0.062 A 
ATOM      7  F   UNL d   1      -6.000   0.166  -6.000  0.00  0.00    -0.097 F 
ATOM      8  F1  UNL d   1      -5.954  -1.489  -3.856  0.00  0.00    -0.096 F 
ATOM      9  I   UNL d   1      -5.894  -0.895  -0.712  0.00  0.00    -0.060 I 
ATOM     10  F2  UNL d   1      -5.907   2.295  -0.973  0.00  0.00    -0.096 F 
ATOM     11  F3  UNL d   1      -5.954   3.923  -3.137  0.00  0.00    -0.097 F 
ATOM     12  F4  UNL d   1      -6.000   2.872  -5.653  0.00  0.00    -0.092 F 
ENDROOT
TORSDOF 0
ENDMDL
