MODEL 1
REMARK minimizedAffinity 1.78908658
REMARK minimizedRMSD -1
REMARK  0 active torsions:
REMARK  status: ('A' for Active; 'I' for Inactive)
ROOT
ATOM      1  C   UNL d   1      -1.507  -1.941   2.297  0.00  0.00     0.124 A 
ATOM      2  C1  UNL d   1      -1.630  -0.816   3.100  0.00  0.00     0.062 A 
ATOM      3  C2  UNL d   1      -2.775  -0.028   3.031  0.00  0.00     0.162 A 
ATOM      4  C3  UNL d   1      -3.809  -0.363   2.157  0.00  0.00    -0.034 A 
ATOM      5  C4  UNL d   1      -3.678  -1.496   1.351  0.00  0.00     0.162 A 
ATOM      6  C5  UNL d   1      -2.531  -2.280   1.423  0.00  0.00     0.062 A 
ATOM      7  F   UNL d   1      -2.415  -3.367   0.646  0.00  0.00    -0.097 F 
ATOM      8  F1  UNL d   1      -4.652  -1.847   0.499  0.00  0.00    -0.096 F 
ATOM      9  I   UNL d   1      -5.523   0.812   2.051  0.00  0.00    -0.060 I 
ATOM     10  F2  UNL d   1      -2.866   1.054   3.819  0.00  0.00    -0.096 F 
ATOM     11  F3  UNL d   1      -0.641  -0.485   3.944  0.00  0.00    -0.097 F 
ATOM     12  F4  UNL d   1      -0.404  -2.697   2.364  0.00  0.00    -0.092 F 
ENDROOT
TORSDOF 0
ENDMDL
