MODEL 1
REMARK minimizedAffinity 9.57213974
REMARK minimizedRMSD -1
REMARK  0 active torsions:
REMARK  status: ('A' for Active; 'I' for Inactive)
ROOT
ATOM      1  C   UNL d   1       1.502   3.266  -2.918  0.00  0.00     0.124 A 
ATOM      2  C1  UNL d   1       2.115   4.265  -3.661  0.00  0.00     0.062 A 
ATOM      3  C2  UNL d   1       1.367   5.040  -4.542  0.00  0.00     0.162 A 
ATOM      4  C3  UNL d   1      -0.003   4.821  -4.684  0.00  0.00    -0.034 A 
ATOM      5  C4  UNL d   1      -0.613   3.814  -3.933  0.00  0.00     0.162 A 
ATOM      6  C5  UNL d   1       0.140   3.041  -3.054  0.00  0.00     0.062 A 
ATOM      7  F   UNL d   1      -0.454   2.077  -2.336  0.00  0.00    -0.097 F 
ATOM      8  F1  UNL d   1      -1.928   3.576  -4.044  0.00  0.00    -0.096 F 
ATOM      9  I   UNL d   1      -1.126   5.979  -6.000  0.00  0.00    -0.060 I 
ATOM     10  F2  UNL d   1       1.985   5.999  -5.248  0.00  0.00    -0.096 F 
ATOM     11  F3  UNL d   1       3.432   4.483  -3.532  0.00  0.00    -0.097 F 
ATOM     12  F4  UNL d   1       2.225   2.520  -2.072  0.00  0.00    -0.092 F 
ENDROOT
TORSDOF 0
ENDMDL
