MODEL 1
REMARK minimizedAffinity 22.367609
REMARK minimizedRMSD -1
REMARK  0 active torsions:
REMARK  status: ('A' for Active; 'I' for Inactive)
ROOT
ATOM      1  C   UNL d   1       0.021  -3.267   1.439  0.00  0.00     0.124 A 
ATOM      2  C1  UNL d   1      -1.101  -2.889   0.715  0.00  0.00     0.062 A 
ATOM      3  C2  UNL d   1      -1.822  -1.756   1.081  0.00  0.00     0.162 A 
ATOM      4  C3  UNL d   1      -1.422  -0.992   2.178  0.00  0.00    -0.034 A 
ATOM      5  C4  UNL d   1      -0.294  -1.379   2.903  0.00  0.00     0.162 A 
ATOM      6  C5  UNL d   1       0.424  -2.512   2.532  0.00  0.00     0.062 A 
ATOM      7  F   UNL d   1       1.507  -2.876   3.233  0.00  0.00    -0.097 F 
ATOM      8  F1  UNL d   1       0.118  -0.668   3.963  0.00  0.00    -0.096 F 
ATOM      9  I   UNL d   1      -2.498   0.702   2.730  0.00  0.00    -0.060 I 
ATOM     10  F2  UNL d   1      -2.902  -1.414   0.363  0.00  0.00    -0.096 F 
ATOM     11  F3  UNL d   1      -1.492  -3.616  -0.341  0.00  0.00    -0.097 F 
ATOM     12  F4  UNL d   1       0.713  -4.357   1.084  0.00  0.00    -0.092 F 
ENDROOT
TORSDOF 0
ENDMDL
