MODEL 1
REMARK minimizedAffinity 15.2774334
REMARK minimizedRMSD -1
REMARK  0 active torsions:
REMARK  status: ('A' for Active; 'I' for Inactive)
ROOT
ATOM      1  C   UNL d   1      -0.721  -3.375   1.396  0.00  0.00     0.124 A 
ATOM      2  C1  UNL d   1      -0.413  -2.108   1.872  0.00  0.00     0.062 A 
ATOM      3  C2  UNL d   1      -1.383  -1.109   1.879  0.00  0.00     0.162 A 
ATOM      4  C3  UNL d   1      -2.669  -1.373   1.410  0.00  0.00    -0.034 A 
ATOM      5  C4  UNL d   1      -2.970  -2.650   0.931  0.00  0.00     0.162 A 
ATOM      6  C5  UNL d   1      -1.998  -3.645   0.927  0.00  0.00     0.062 A 
ATOM      7  F   UNL d   1      -2.297  -4.869   0.466  0.00  0.00    -0.097 F 
ATOM      8  F1  UNL d   1      -4.197  -2.938   0.472  0.00  0.00    -0.096 F 
ATOM      9  I   UNL d   1      -4.121   0.118   1.418  0.00  0.00    -0.060 I 
ATOM     10  F2  UNL d   1      -1.058   0.106   2.345  0.00  0.00    -0.096 F 
ATOM     11  F3  UNL d   1       0.820  -1.845   2.326  0.00  0.00    -0.097 F 
ATOM     12  F4  UNL d   1       0.214  -4.335   1.390  0.00  0.00    -0.092 F 
ENDROOT
TORSDOF 0
ENDMDL
