MODEL 1
REMARK minimizedAffinity 18.3126984
REMARK minimizedRMSD -1
REMARK  0 active torsions:
REMARK  status: ('A' for Active; 'I' for Inactive)
ROOT
ATOM      1  C   UNL d   1       1.742   1.798  -0.284  0.00  0.00     0.124 A 
ATOM      2  C1  UNL d   1       1.982   0.591  -0.926  0.00  0.00     0.062 A 
ATOM      3  C2  UNL d   1       2.693  -0.416  -0.280  0.00  0.00     0.162 A 
ATOM      4  C3  UNL d   1       3.167  -0.222   1.018  0.00  0.00    -0.034 A 
ATOM      5  C4  UNL d   1       2.922   0.996   1.656  0.00  0.00     0.162 A 
ATOM      6  C5  UNL d   1       2.212   1.999   1.006  0.00  0.00     0.062 A 
ATOM      7  F   UNL d   1       1.980   3.165   1.627  0.00  0.00    -0.097 F 
ATOM      8  F1  UNL d   1       3.364   1.216   2.903  0.00  0.00    -0.096 F 
ATOM      9  I   UNL d   1       4.230  -1.725   1.988  0.00  0.00    -0.060 I 
ATOM     10  F2  UNL d   1       2.910  -1.573  -0.924  0.00  0.00    -0.096 F 
ATOM     11  F3  UNL d   1       1.530   0.394  -2.173  0.00  0.00    -0.097 F 
ATOM     12  F4  UNL d   1       1.059   2.766  -0.909  0.00  0.00    -0.092 F 
ENDROOT
TORSDOF 0
ENDMDL
