MODEL 1
REMARK minimizedAffinity 17.5147972
REMARK minimizedRMSD -1
REMARK  0 active torsions:
REMARK  status: ('A' for Active; 'I' for Inactive)
ROOT
ATOM      1  C   UNL d   1      -3.135  -2.792   1.437  0.00  0.00     0.124 A 
ATOM      2  C1  UNL d   1      -2.187  -3.805   1.469  0.00  0.00     0.062 A 
ATOM      3  C2  UNL d   1      -0.849  -3.504   1.703  0.00  0.00     0.162 A 
ATOM      4  C3  UNL d   1      -0.450  -2.183   1.909  0.00  0.00    -0.034 A 
ATOM      5  C4  UNL d   1      -1.409  -1.169   1.874  0.00  0.00     0.162 A 
ATOM      6  C5  UNL d   1      -2.746  -1.475   1.639  0.00  0.00     0.062 A 
ATOM      7  F   UNL d   1      -3.660  -0.495   1.608  0.00  0.00    -0.097 F 
ATOM      8  F1  UNL d   1      -1.060   0.111   2.067  0.00  0.00    -0.096 F 
ATOM      9  I   UNL d   1       1.551  -1.728   2.260  0.00  0.00    -0.060 I 
ATOM     10  F2  UNL d   1       0.046  -4.503   1.729  0.00  0.00    -0.096 F 
ATOM     11  F3  UNL d   1      -2.561  -5.078   1.273  0.00  0.00    -0.097 F 
ATOM     12  F4  UNL d   1      -4.422  -3.084   1.210  0.00  0.00    -0.092 F 
ENDROOT
TORSDOF 0
ENDMDL
