MODEL 1
REMARK minimizedAffinity 7.95899725
REMARK minimizedRMSD -1
REMARK  0 active torsions:
REMARK  status: ('A' for Active; 'I' for Inactive)
ROOT
ATOM      1  C   UNL d   1       1.481   2.207  -0.286  0.00  0.00     0.124 A 
ATOM      2  C1  UNL d   1       1.765   3.552  -0.095  0.00  0.00     0.062 A 
ATOM      3  C2  UNL d   1       1.735   4.433  -1.172  0.00  0.00     0.162 A 
ATOM      4  C3  UNL d   1       1.420   3.973  -2.450  0.00  0.00    -0.034 A 
ATOM      5  C4  UNL d   1       1.136   2.618  -2.635  0.00  0.00     0.162 A 
ATOM      6  C5  UNL d   1       1.167   1.741  -1.555  0.00  0.00     0.062 A 
ATOM      7  F   UNL d   1       0.893   0.442  -1.742  0.00  0.00    -0.097 F 
ATOM      8  F1  UNL d   1       0.829   2.142  -3.850  0.00  0.00    -0.096 F 
ATOM      9  I   UNL d   1       1.374   5.288  -4.062  0.00  0.00    -0.060 I 
ATOM     10  F2  UNL d   1       2.014   5.728  -0.958  0.00  0.00    -0.096 F 
ATOM     11  F3  UNL d   1       2.070   4.004   1.130  0.00  0.00    -0.097 F 
ATOM     12  F4  UNL d   1       1.512   1.360   0.751  0.00  0.00    -0.092 F 
ENDROOT
TORSDOF 0
ENDMDL
