MODEL 1
REMARK minimizedAffinity -2.98109889
REMARK minimizedRMSD -1
REMARK  1 active torsions:
REMARK  status: ('A' for Active; 'I' for Inactive)
REMARK    1  A    between atoms: C1_2  and  C2_3 
ROOT
ATOM      1  C2  UNL d   1       0.276  -0.524  -0.545  0.00  0.00    -0.081 A 
ATOM      2  C3  UNL d   1       0.705  -0.411   0.783  0.00  0.00     0.006 A 
ATOM      3  C4  UNL d   1       0.266   0.647   1.582  0.00  0.00     0.002 A 
ATOM      4  C5  UNL d   1      -0.615   1.605   1.070  0.00  0.00    -0.080 A 
ATOM      5  C6  UNL d   1      -1.118   2.729   1.926  0.00  0.00     0.076 C 
ATOM      6  C7  UNL d   1      -1.031   1.502  -0.262  0.00  0.00     0.002 A 
ATOM      7  C8  UNL d   1      -0.592   0.445  -1.062  0.00  0.00     0.006 A 
ENDROOT
BRANCH   1   8
ATOM      8  C1  UNL d   1       0.696  -1.699  -1.389  0.00  0.00     0.054 C 
ATOM      9  C   UNL d   1      -0.372  -2.784  -1.400  0.00  0.00     0.018 C 
ENDBRANCH   1   8
TORSDOF 1
ENDMDL
