MODEL 1
REMARK minimizedAffinity -4.9733119
REMARK minimizedRMSD -1
REMARK  1 active torsions:
REMARK  status: ('A' for Active; 'I' for Inactive)
REMARK    1  A    between atoms: C1_2  and  C2_3 
ROOT
ATOM      1  C2  UNL d   1       0.253  -0.021  -0.257  0.00  0.00    -0.081 A 
ATOM      2  C3  UNL d   1       0.203   0.058   1.140  0.00  0.00     0.006 A 
ATOM      3  C4  UNL d   1      -0.441   1.128   1.766  0.00  0.00     0.002 A 
ATOM      4  C5  UNL d   1      -1.052   2.132   1.007  0.00  0.00    -0.080 A 
ATOM      5  C6  UNL d   1      -1.772   3.270   1.667  0.00  0.00     0.076 C 
ATOM      6  C7  UNL d   1      -0.986   2.063  -0.389  0.00  0.00     0.002 A 
ATOM      7  C8  UNL d   1      -0.342   0.993  -1.015  0.00  0.00     0.006 A 
ENDROOT
BRANCH   1   8
ATOM      8  C1  UNL d   1       0.890  -1.207  -0.935  0.00  0.00     0.054 C 
ATOM      9  C   UNL d   1      -0.159  -2.203  -1.407  0.00  0.00     0.018 C 
ENDBRANCH   1   8
TORSDOF 1
ENDMDL
