MODEL 1
REMARK minimizedAffinity -6.28471184
REMARK minimizedRMSD -1
REMARK  1 active torsions:
REMARK  status: ('A' for Active; 'I' for Inactive)
REMARK    1  A    between atoms: C1_2  and  C2_3 
ROOT
ATOM      1  C2  UNL d   1      -0.519   1.562   0.484  0.00  0.00    -0.081 A 
ATOM      2  C3  UNL d   1      -0.684   1.292  -0.880  0.00  0.00     0.006 A 
ATOM      3  C4  UNL d   1      -0.171   0.118  -1.437  0.00  0.00     0.002 A 
ATOM      4  C5  UNL d   1       0.507  -0.809  -0.638  0.00  0.00    -0.080 A 
ATOM      5  C6  UNL d   1       1.035  -2.088  -1.217  0.00  0.00     0.076 C 
ATOM      6  C7  UNL d   1       0.686  -0.532   0.721  0.00  0.00     0.002 A 
ATOM      7  C8  UNL d   1       0.175   0.642   1.278  0.00  0.00     0.006 A 
ENDROOT
BRANCH   1   8
ATOM      8  C1  UNL d   1      -1.127   2.796   1.100  0.00  0.00     0.054 C 
ATOM      9  C   UNL d   1      -0.365   3.225   2.346  0.00  0.00     0.018 C 
ENDBRANCH   1   8
TORSDOF 1
ENDMDL
