MODEL 1
REMARK minimizedAffinity -4.60205555
REMARK minimizedRMSD -1
REMARK  1 active torsions:
REMARK  status: ('A' for Active; 'I' for Inactive)
REMARK    1  A    between atoms: C1_2  and  C2_3 
ROOT
ATOM      1  C2  UNL d   1      -0.062  -1.823  -0.553  0.00  0.00    -0.081 A 
ATOM      2  C3  UNL d   1      -0.244  -0.533  -1.065  0.00  0.00     0.006 A 
ATOM      3  C4  UNL d   1      -0.187   0.579  -0.221  0.00  0.00     0.002 A 
ATOM      4  C5  UNL d   1       0.060   0.419   1.146  0.00  0.00    -0.080 A 
ATOM      5  C6  UNL d   1       0.154   1.606   2.058  0.00  0.00     0.076 C 
ATOM      6  C7  UNL d   1       0.225  -0.871   1.661  0.00  0.00     0.002 A 
ATOM      7  C8  UNL d   1       0.167  -1.983   0.818  0.00  0.00     0.006 A 
ENDROOT
BRANCH   1   8
ATOM      8  C1  UNL d   1      -0.059  -3.019  -1.471  0.00  0.00     0.054 C 
ATOM      9  C   UNL d   1      -0.985  -4.113  -0.959  0.00  0.00     0.018 C 
ENDBRANCH   1   8
TORSDOF 1
ENDMDL
