MODEL 1
REMARK minimizedAffinity -5.42601395
REMARK minimizedRMSD -1
REMARK  1 active torsions:
REMARK  status: ('A' for Active; 'I' for Inactive)
REMARK    1  A    between atoms: C1_2  and  C2_3 
ROOT
ATOM      1  C2  UNL d   1       0.311   0.035  -0.657  0.00  0.00    -0.081 A 
ATOM      2  C3  UNL d   1       0.496   0.082   0.730  0.00  0.00     0.006 A 
ATOM      3  C4  UNL d   1      -0.085   1.102   1.488  0.00  0.00     0.002 A 
ATOM      4  C5  UNL d   1      -0.866   2.086   0.873  0.00  0.00    -0.080 A 
ATOM      5  C6  UNL d   1      -1.521   3.169   1.678  0.00  0.00     0.076 C 
ATOM      6  C7  UNL d   1      -1.037   2.049  -0.515  0.00  0.00     0.002 A 
ATOM      7  C8  UNL d   1      -0.456   1.030  -1.273  0.00  0.00     0.006 A 
ENDROOT
BRANCH   1   8
ATOM      8  C1  UNL d   1       0.882  -1.100  -1.468  0.00  0.00     0.054 C 
ATOM      9  C   UNL d   1       0.142  -2.402  -1.197  0.00  0.00     0.018 C 
ENDBRANCH   1   8
TORSDOF 1
ENDMDL
