MODEL 1
REMARK minimizedAffinity -5.57064819
REMARK minimizedRMSD -1
REMARK  1 active torsions:
REMARK  status: ('A' for Active; 'I' for Inactive)
REMARK    1  A    between atoms: C1_2  and  C2_3 
ROOT
ATOM      1  C2  UNL d   1       0.227  -0.561  -0.134  0.00  0.00    -0.081 A 
ATOM      2  C3  UNL d   1       0.438  -0.353   1.234  0.00  0.00     0.006 A 
ATOM      3  C4  UNL d   1      -0.009   0.819   1.849  0.00  0.00     0.002 A 
ATOM      4  C5  UNL d   1      -0.681   1.797   1.109  0.00  0.00    -0.080 A 
ATOM      5  C6  UNL d   1      -1.192   3.046   1.764  0.00  0.00     0.076 C 
ATOM      6  C7  UNL d   1      -0.876   1.597  -0.262  0.00  0.00     0.002 A 
ATOM      7  C8  UNL d   1      -0.429   0.426  -0.877  0.00  0.00     0.006 A 
ENDROOT
BRANCH   1   8
ATOM      8  C1  UNL d   1       0.650  -1.852  -0.788  0.00  0.00     0.054 C 
ATOM      9  C   UNL d   1      -0.550  -2.732  -1.104  0.00  0.00     0.018 C 
ENDBRANCH   1   8
TORSDOF 1
ENDMDL
