MODEL 1
REMARK minimizedAffinity 1.61219883
REMARK minimizedRMSD -1
REMARK  0 active torsions:
REMARK  status: ('A' for Active; 'I' for Inactive)
ROOT
ATOM      1  C   UNL d   1      -5.163  -6.000  -5.518  0.00  0.00     0.020 A 
ATOM      2  C1  UNL d   1      -6.000  -4.994  -5.998  0.00  0.00     0.020 A 
ATOM      3  C2  UNL d   1      -5.567  -3.666  -6.000  0.00  0.00     0.034 A 
ATOM      4  C3  UNL d   1      -4.293  -3.341  -5.519  0.00  0.00     0.017 A 
ATOM      5  C4  UNL d   1      -3.453  -4.352  -5.037  0.00  0.00     0.017 A 
ATOM      6  C5  UNL d   1      -3.892  -5.679  -5.038  0.00  0.00     0.034 A 
ATOM      7 Cl   UNL d   1      -1.868  -4.028  -4.429  0.00  0.00    -0.070 Cl
ATOM      8 Cl1  UNL d   1      -3.823  -1.679  -5.551  0.00  0.00    -0.070 Cl
ENDROOT
TORSDOF 0
ENDMDL
