MODEL 1
REMARK minimizedAffinity 3.04195619
REMARK minimizedRMSD -1
REMARK  0 active torsions:
REMARK  status: ('A' for Active; 'I' for Inactive)
ROOT
ATOM      1  C   UNL d   1       0.273   2.590   2.886  0.00  0.00     0.020 A 
ATOM      2  C1  UNL d   1      -1.040   2.664   2.424  0.00  0.00     0.020 A 
ATOM      3  C2  UNL d   1      -1.875   1.548   2.511  0.00  0.00     0.034 A 
ATOM      4  C3  UNL d   1      -1.397   0.353   3.061  0.00  0.00     0.017 A 
ATOM      5  C4  UNL d   1      -0.078   0.279   3.524  0.00  0.00     0.017 A 
ATOM      6  C5  UNL d   1       0.753   1.400   3.435  0.00  0.00     0.034 A 
ATOM      7 Cl   UNL d   1       0.582  -1.161   4.215  0.00  0.00    -0.070 Cl
ATOM      8 Cl1  UNL d   1      -2.484  -0.988   3.137  0.00  0.00    -0.070 Cl
ENDROOT
TORSDOF 0
ENDMDL
