MODEL 1
REMARK minimizedAffinity 5.87694407
REMARK minimizedRMSD -1
REMARK  0 active torsions:
REMARK  status: ('A' for Active; 'I' for Inactive)
ROOT
ATOM      1  C   UNL d   1       0.898   3.054   0.096  0.00  0.00     0.020 A 
ATOM      2  C1  UNL d   1      -0.374   2.487   0.146  0.00  0.00     0.020 A 
ATOM      3  C2  UNL d   1      -1.401   3.003  -0.647  0.00  0.00     0.034 A 
ATOM      4  C3  UNL d   1      -1.157   4.089  -1.495  0.00  0.00     0.017 A 
ATOM      5  C4  UNL d   1       0.121   4.658  -1.546  0.00  0.00     0.017 A 
ATOM      6  C5  UNL d   1       1.145   4.137  -0.749  0.00  0.00     0.034 A 
ATOM      7 Cl   UNL d   1       0.499   6.000  -2.568  0.00  0.00    -0.070 Cl
ATOM      8 Cl1  UNL d   1      -2.473   4.675  -2.449  0.00  0.00    -0.070 Cl
ENDROOT
TORSDOF 0
ENDMDL
