MODEL 1
REMARK minimizedAffinity 17.8072109
REMARK minimizedRMSD -1
REMARK  0 active torsions:
REMARK  status: ('A' for Active; 'I' for Inactive)
ROOT
ATOM      1  C   UNL d   1      -0.410   5.753  -0.830  0.00  0.00     0.020 A 
ATOM      2  C1  UNL d   1      -0.608   5.169  -2.081  0.00  0.00     0.020 A 
ATOM      3  C2  UNL d   1      -1.897   4.832  -2.498  0.00  0.00     0.034 A 
ATOM      4  C3  UNL d   1      -2.994   5.078  -1.664  0.00  0.00     0.017 A 
ATOM      5  C4  UNL d   1      -2.794   5.664  -0.409  0.00  0.00     0.017 A 
ATOM      6  C5  UNL d   1      -1.501   6.000   0.004  0.00  0.00     0.034 A 
ATOM      7 Cl   UNL d   1      -4.097   5.999   0.676  0.00  0.00    -0.070 Cl
ATOM      8 Cl1  UNL d   1      -4.560   4.636  -2.244  0.00  0.00    -0.070 Cl
ENDROOT
TORSDOF 0
ENDMDL
