MODEL 1
REMARK minimizedAffinity 6.65714312
REMARK minimizedRMSD -1
REMARK  0 active torsions:
REMARK  status: ('A' for Active; 'I' for Inactive)
ROOT
ATOM      1  C   UNL d   1      -1.978   4.668  -2.228  0.00  0.00     0.020 A 
ATOM      2  C1  UNL d   1      -1.119   5.692  -2.627  0.00  0.00     0.020 A 
ATOM      3  C2  UNL d   1       0.219   5.675  -2.228  0.00  0.00     0.034 A 
ATOM      4  C3  UNL d   1       0.703   4.633  -1.429  0.00  0.00     0.017 A 
ATOM      5  C4  UNL d   1      -0.160   3.606  -1.029  0.00  0.00     0.017 A 
ATOM      6  C5  UNL d   1      -1.499   3.628  -1.431  0.00  0.00     0.034 A 
ATOM      7 Cl   UNL d   1       0.363   2.287  -0.043  0.00  0.00    -0.070 Cl
ATOM      8 Cl1  UNL d   1       2.369   4.676  -0.973  0.00  0.00    -0.070 Cl
ENDROOT
TORSDOF 0
ENDMDL
