MODEL 1
REMARK minimizedAffinity 4.7849164
REMARK minimizedRMSD -1
REMARK  0 active torsions:
REMARK  status: ('A' for Active; 'I' for Inactive)
ROOT
ATOM      1  C   UNL d   1      -0.250   5.967  -0.885  0.00  0.00     0.020 A 
ATOM      2  C1  UNL d   1      -1.111   5.887  -1.979  0.00  0.00     0.020 A 
ATOM      3  C2  UNL d   1      -2.492   5.839  -1.778  0.00  0.00     0.034 A 
ATOM      4  C3  UNL d   1      -3.016   5.871  -0.480  0.00  0.00     0.017 A 
ATOM      5  C4  UNL d   1      -2.151   5.952   0.617  0.00  0.00     0.017 A 
ATOM      6  C5  UNL d   1      -0.769   5.999   0.410  0.00  0.00     0.034 A 
ATOM      7 Cl   UNL d   1      -2.723   5.995   2.247  0.00  0.00    -0.070 Cl
ATOM      8 Cl1  UNL d   1      -4.734   5.809  -0.306  0.00  0.00    -0.070 Cl
ENDROOT
TORSDOF 0
ENDMDL
