MODEL 1
REMARK minimizedAffinity 4.74990749
REMARK minimizedRMSD -1
REMARK  0 active torsions:
REMARK  status: ('A' for Active; 'I' for Inactive)
ROOT
ATOM      1  C   UNL d   1       0.750   4.151  -1.124  0.00  0.00     0.020 A 
ATOM      2  C1  UNL d   1       0.292   5.440  -1.393  0.00  0.00     0.020 A 
ATOM      3  C2  UNL d   1      -0.733   5.991  -0.622  0.00  0.00     0.034 A 
ATOM      4  C3  UNL d   1      -1.305   5.253   0.421  0.00  0.00     0.017 A 
ATOM      5  C4  UNL d   1      -0.845   3.959   0.690  0.00  0.00     0.017 A 
ATOM      6  C5  UNL d   1       0.183   3.412  -0.085  0.00  0.00     0.034 A 
ATOM      7 Cl   UNL d   1      -1.500   2.988   1.960  0.00  0.00    -0.070 Cl
ATOM      8 Cl1  UNL d   1      -2.569   5.998   1.333  0.00  0.00    -0.070 Cl
ENDROOT
TORSDOF 0
ENDMDL
