MODEL 1
REMARK minimizedAffinity 16.6327324
REMARK minimizedRMSD -1
REMARK  0 active torsions:
REMARK  status: ('A' for Active; 'I' for Inactive)
ROOT
ATOM      1  C   UNL d   1      -0.083  -1.383   5.396  0.00  0.00     0.020 A 
ATOM      2  C1  UNL d   1       1.042  -2.152   5.097  0.00  0.00     0.020 A 
ATOM      3  C2  UNL d   1       1.959  -1.706   4.143  0.00  0.00     0.034 A 
ATOM      4  C3  UNL d   1       1.752  -0.489   3.483  0.00  0.00     0.017 A 
ATOM      5  C4  UNL d   1       0.623   0.282   3.783  0.00  0.00     0.017 A 
ATOM      6  C5  UNL d   1      -0.291  -0.169   4.740  0.00  0.00     0.034 A 
ATOM      7 Cl   UNL d   1       0.301   1.794   3.011  0.00  0.00    -0.070 Cl
ATOM      8 Cl1  UNL d   1       2.927   0.000   2.314  0.00  0.00    -0.070 Cl
ENDROOT
TORSDOF 0
ENDMDL
