MODEL 1
REMARK minimizedAffinity 10.4612122
REMARK minimizedRMSD -1
REMARK  0 active torsions:
REMARK  status: ('A' for Active; 'I' for Inactive)
ROOT
ATOM      1  C   UNL d   1      -0.327   5.205  -2.647  0.00  0.00     0.020 A 
ATOM      2  C1  UNL d   1       0.306   3.971  -2.509  0.00  0.00     0.020 A 
ATOM      3  C2  UNL d   1       0.346   3.342  -1.262  0.00  0.00     0.034 A 
ATOM      4  C3  UNL d   1      -0.247   3.948  -0.149  0.00  0.00     0.017 A 
ATOM      5  C4  UNL d   1      -0.883   5.187  -0.288  0.00  0.00     0.017 A 
ATOM      6  C5  UNL d   1      -0.920   5.812  -1.539  0.00  0.00     0.034 A 
ATOM      7 Cl   UNL d   1      -1.638   5.996   1.039  0.00  0.00    -0.070 Cl
ATOM      8 Cl1  UNL d   1      -0.160   3.113   1.362  0.00  0.00    -0.070 Cl
ENDROOT
TORSDOF 0
ENDMDL
