MODEL 1
REMARK minimizedAffinity -1.5285275
REMARK minimizedRMSD -1
REMARK  1 active torsions:
REMARK  status: ('A' for Active; 'I' for Inactive)
REMARK    1  A    between atoms: C1_2  and  C2_3 
ROOT
ATOM      1  C2  UNL d   1      -0.244  -2.028  -4.761  0.00  0.00    -0.077 A 
ATOM      2  C3  UNL d   1       0.383  -1.455  -5.875  0.00  0.00     0.002 A 
ATOM      3  C4  UNL d   1       0.474  -0.067  -5.999  0.00  0.00     0.002 A 
ATOM      4  C5  UNL d   1      -0.057   0.758  -5.010  0.00  0.00    -0.004 A 
ATOM      5  C6  UNL d   1      -0.685   0.198  -3.898  0.00  0.00     0.002 A 
ATOM      6  C7  UNL d   1      -0.778  -1.189  -3.774  0.00  0.00     0.002 A 
ENDROOT
BRANCH   1   7
ATOM      7  C1  UNL d   1      -0.299  -3.525  -4.602  0.00  0.00     0.055 C 
ATOM      8  C   UNL d   1       0.419  -4.230  -5.743  0.00  0.00     0.019 C 
ENDBRANCH   1   7
TORSDOF 1
ENDMDL
