MODEL 1
REMARK minimizedAffinity -0.326079994
REMARK minimizedRMSD -1
REMARK  1 active torsions:
REMARK  status: ('A' for Active; 'I' for Inactive)
REMARK    1  A    between atoms: C1_2  and  C2_3 
ROOT
ATOM      1  C2  UNL d   1      -1.029  -0.125   1.960  0.00  0.00    -0.077 A 
ATOM      2  C3  UNL d   1      -0.891  -0.849   0.768  0.00  0.00     0.002 A 
ATOM      3  C4  UNL d   1      -1.918  -0.855  -0.178  0.00  0.00     0.002 A 
ATOM      4  C5  UNL d   1      -3.088  -0.136   0.057  0.00  0.00    -0.004 A 
ATOM      5  C6  UNL d   1      -3.235   0.585   1.241  0.00  0.00     0.002 A 
ATOM      6  C7  UNL d   1      -2.210   0.592   2.188  0.00  0.00     0.002 A 
ENDROOT
BRANCH   1   7
ATOM      7  C1  UNL d   1       0.098  -0.078   2.959  0.00  0.00     0.055 C 
ATOM      8  C   UNL d   1       0.540  -1.477   3.362  0.00  0.00     0.019 C 
ENDBRANCH   1   7
TORSDOF 1
ENDMDL
