MODEL 1
REMARK minimizedAffinity 4.52957487
REMARK minimizedRMSD -1
REMARK  1 active torsions:
REMARK  status: ('A' for Active; 'I' for Inactive)
REMARK    1  A    between atoms: C1_2  and  C2_3 
ROOT
ATOM      1  C2  UNL d   1       1.133  -1.416   2.788  0.00  0.00    -0.077 A 
ATOM      2  C3  UNL d   1       0.882  -0.073   2.471  0.00  0.00     0.002 A 
ATOM      3  C4  UNL d   1      -0.322   0.297   1.869  0.00  0.00     0.002 A 
ATOM      4  C5  UNL d   1      -1.285  -0.668   1.582  0.00  0.00    -0.004 A 
ATOM      5  C6  UNL d   1      -1.044  -2.006   1.891  0.00  0.00     0.002 A 
ATOM      6  C7  UNL d   1       0.159  -2.378   2.493  0.00  0.00     0.002 A 
ENDROOT
BRANCH   1   7
ATOM      7  C1  UNL d   1       2.410  -1.810   3.483  0.00  0.00     0.055 C 
ATOM      8  C   UNL d   1       2.381  -1.425   4.955  0.00  0.00     0.019 C 
ENDBRANCH   1   7
TORSDOF 1
ENDMDL
