MODEL 1
REMARK minimizedAffinity -2.51201129
REMARK minimizedRMSD -1
REMARK  1 active torsions:
REMARK  status: ('A' for Active; 'I' for Inactive)
REMARK    1  A    between atoms: C1_2  and  C2_3 
ROOT
ATOM      1  C2  UNL d   1      -2.927  -0.208   0.687  0.00  0.00    -0.077 A 
ATOM      2  C3  UNL d   1      -1.836  -1.070   0.510  0.00  0.00     0.002 A 
ATOM      3  C4  UNL d   1      -0.786  -1.080   1.431  0.00  0.00     0.002 A 
ATOM      4  C5  UNL d   1      -0.820  -0.233   2.537  0.00  0.00    -0.004 A 
ATOM      5  C6  UNL d   1      -1.900   0.629   2.721  0.00  0.00     0.002 A 
ATOM      6  C7  UNL d   1      -2.949   0.641   1.801  0.00  0.00     0.002 A 
ENDROOT
BRANCH   1   7
ATOM      7  C1  UNL d   1      -4.083  -0.231  -0.278  0.00  0.00     0.055 C 
ATOM      8  C   UNL d   1      -5.202   0.694   0.176  0.00  0.00     0.019 C 
ENDBRANCH   1   7
TORSDOF 1
ENDMDL
