MODEL 1
REMARK minimizedAffinity -4.73832369
REMARK minimizedRMSD -1
REMARK  1 active torsions:
REMARK  status: ('A' for Active; 'I' for Inactive)
REMARK    1  A    between atoms: C1_2  and  C2_3 
ROOT
ATOM      1  C2  UNL d   1      -1.289  -0.546   0.028  0.00  0.00    -0.077 A 
ATOM      2  C3  UNL d   1      -2.605  -0.253  -0.356  0.00  0.00     0.002 A 
ATOM      3  C4  UNL d   1      -3.621  -0.183   0.600  0.00  0.00     0.002 A 
ATOM      4  C5  UNL d   1      -3.330  -0.399   1.945  0.00  0.00    -0.004 A 
ATOM      5  C6  UNL d   1      -2.025  -0.692   2.337  0.00  0.00     0.002 A 
ATOM      6  C7  UNL d   1      -1.009  -0.765   1.383  0.00  0.00     0.002 A 
ENDROOT
BRANCH   1   7
ATOM      7  C1  UNL d   1      -0.184  -0.574  -0.995  0.00  0.00     0.055 C 
ATOM      8  C   UNL d   1      -0.018  -1.964  -1.592  0.00  0.00     0.019 C 
ENDBRANCH   1   7
TORSDOF 1
ENDMDL
