MODEL 1
REMARK minimizedAffinity 3.1156044
REMARK minimizedRMSD -1
REMARK  0 active torsions:
REMARK  status: ('A' for Active; 'I' for Inactive)
ROOT
ATOM      1  C   UNL d   1      -4.067  -5.032  -6.000  0.00  0.00     0.078 C 
ATOM      2  C1  UNL d   1      -2.768  -5.290  -5.296  0.00  0.00    -0.077 A 
ATOM      3  C2  UNL d   1      -1.646  -5.746  -5.999  0.00  0.00    -0.001 A 
ATOM      4  C3  UNL d   1      -0.446  -5.992  -5.329  0.00  0.00     0.003 A 
ATOM      5  C4  UNL d   1      -0.357  -5.786  -3.954  0.00  0.00    -0.005 A 
ATOM      6  C5  UNL d   1      -1.469  -5.335  -3.246  0.00  0.00     0.003 A 
ATOM      7  C6  UNL d   1      -2.670  -5.089  -3.914  0.00  0.00    -0.001 A 
ENDROOT
TORSDOF 0
ENDMDL
