MODEL 1
REMARK minimizedAffinity -2.07157254
REMARK minimizedRMSD -1
REMARK  0 active torsions:
REMARK  status: ('A' for Active; 'I' for Inactive)
ROOT
ATOM      1  C   UNL d   1      -5.679  -3.751  -4.950  0.00  0.00     0.078 C 
ATOM      2  C1  UNL d   1      -4.387  -4.511  -4.907  0.00  0.00    -0.077 A 
ATOM      3  C2  UNL d   1      -3.969  -5.284  -5.997  0.00  0.00    -0.001 A 
ATOM      4  C3  UNL d   1      -2.769  -5.994  -5.940  0.00  0.00     0.003 A 
ATOM      5  C4  UNL d   1      -1.977  -5.939  -4.795  0.00  0.00    -0.005 A 
ATOM      6  C5  UNL d   1      -2.386  -5.174  -3.704  0.00  0.00     0.003 A 
ATOM      7  C6  UNL d   1      -3.586  -4.464  -3.760  0.00  0.00    -0.001 A 
ENDROOT
TORSDOF 0
ENDMDL
