MODEL 1
REMARK minimizedAffinity -0.63781023
REMARK minimizedRMSD -1
REMARK  0 active torsions:
REMARK  status: ('A' for Active; 'I' for Inactive)
ROOT
ATOM      1  C   UNL d   1      -1.951  -5.846  -5.341  0.00  0.00     0.078 C 
ATOM      2  C1  UNL d   1      -3.319  -5.234  -5.305  0.00  0.00    -0.077 A 
ATOM      3  C2  UNL d   1      -3.567  -4.065  -4.575  0.00  0.00    -0.001 A 
ATOM      4  C3  UNL d   1      -4.848  -3.511  -4.543  0.00  0.00     0.003 A 
ATOM      5  C4  UNL d   1      -5.891  -4.119  -5.239  0.00  0.00    -0.005 A 
ATOM      6  C5  UNL d   1      -5.654  -5.284  -5.967  0.00  0.00     0.003 A 
ATOM      7  C6  UNL d   1      -4.374  -5.839  -6.000  0.00  0.00    -0.001 A 
ENDROOT
TORSDOF 0
ENDMDL
