MODEL 1
REMARK minimizedAffinity 0.272551358
REMARK minimizedRMSD -1
REMARK  0 active torsions:
REMARK  status: ('A' for Active; 'I' for Inactive)
ROOT
ATOM      1  C   UNL d   1      -2.965  -0.491   3.330  0.00  0.00     0.078 C 
ATOM      2  C1  UNL d   1      -2.044  -0.835   2.198  0.00  0.00    -0.077 A 
ATOM      3  C2  UNL d   1      -1.055   0.060   1.775  0.00  0.00    -0.001 A 
ATOM      4  C3  UNL d   1      -0.211  -0.269   0.713  0.00  0.00     0.003 A 
ATOM      5  C4  UNL d   1      -0.350  -1.494   0.063  0.00  0.00    -0.005 A 
ATOM      6  C5  UNL d   1      -1.333  -2.391   0.475  0.00  0.00     0.003 A 
ATOM      7  C6  UNL d   1      -2.178  -2.063   1.537  0.00  0.00    -0.001 A 
ENDROOT
TORSDOF 0
ENDMDL
