MODEL 1
REMARK minimizedAffinity -2.40357184
REMARK minimizedRMSD -1
REMARK  0 active torsions:
REMARK  status: ('A' for Active; 'I' for Inactive)
ROOT
ATOM      1  C   UNL d   1      -4.301  -4.063  -5.996  0.00  0.00     0.078 C 
ATOM      2  C1  UNL d   1      -3.223  -4.741  -5.205  0.00  0.00    -0.077 A 
ATOM      3  C2  UNL d   1      -3.294  -4.820  -3.809  0.00  0.00    -0.001 A 
ATOM      4  C3  UNL d   1      -2.278  -5.446  -3.084  0.00  0.00     0.003 A 
ATOM      5  C4  UNL d   1      -1.183  -5.996  -3.747  0.00  0.00    -0.005 A 
ATOM      6  C5  UNL d   1      -1.103  -5.921  -5.136  0.00  0.00     0.003 A 
ATOM      7  C6  UNL d   1      -2.118  -5.296  -5.862  0.00  0.00    -0.001 A 
ENDROOT
TORSDOF 0
ENDMDL
