MODEL 1
REMARK minimizedAffinity -0.0346339531
REMARK minimizedRMSD -1
REMARK  0 active torsions:
REMARK  status: ('A' for Active; 'I' for Inactive)
ROOT
ATOM      1  C   UNL d   1      -5.972  -2.963  -5.190  0.00  0.00     0.078 C 
ATOM      2  C1  UNL d   1      -4.866  -3.902  -4.812  0.00  0.00    -0.077 A 
ATOM      3  C2  UNL d   1      -4.006  -3.611  -3.746  0.00  0.00    -0.001 A 
ATOM      4  C3  UNL d   1      -2.974  -4.490  -3.412  0.00  0.00     0.003 A 
ATOM      5  C4  UNL d   1      -2.791  -5.664  -4.139  0.00  0.00    -0.005 A 
ATOM      6  C5  UNL d   1      -3.640  -5.960  -5.204  0.00  0.00     0.003 A 
ATOM      7  C6  UNL d   1      -4.673  -5.083  -5.539  0.00  0.00    -0.001 A 
ENDROOT
TORSDOF 0
ENDMDL
