MODEL 1
REMARK minimizedAffinity -1.94368398
REMARK minimizedRMSD -1
REMARK  0 active torsions:
REMARK  status: ('A' for Active; 'I' for Inactive)
ROOT
ATOM      1  C   UNL d   1      -1.776  -4.899  -5.072  0.00  0.00     0.078 C 
ATOM      2  C1  UNL d   1      -3.238  -4.828  -5.398  0.00  0.00    -0.077 A 
ATOM      3  C2  UNL d   1      -3.921  -3.606  -5.388  0.00  0.00    -0.001 A 
ATOM      4  C3  UNL d   1      -5.284  -3.556  -5.683  0.00  0.00     0.003 A 
ATOM      5  C4  UNL d   1      -5.976  -4.726  -5.989  0.00  0.00    -0.005 A 
ATOM      6  C5  UNL d   1      -5.306  -5.948  -6.000  0.00  0.00     0.003 A 
ATOM      7  C6  UNL d   1      -3.943  -5.999  -5.704  0.00  0.00    -0.001 A 
ENDROOT
TORSDOF 0
ENDMDL
