MODEL 1
REMARK minimizedAffinity -2.50356674
REMARK minimizedRMSD -1
REMARK  0 active torsions:
REMARK  status: ('A' for Active; 'I' for Inactive)
ROOT
ATOM      1  C   UNL d   1      -5.335  -3.690  -4.879  0.00  0.00     0.078 C 
ATOM      2  C1  UNL d   1      -3.997  -4.366  -4.832  0.00  0.00    -0.077 A 
ATOM      3  C2  UNL d   1      -3.486  -4.871  -3.629  0.00  0.00    -0.001 A 
ATOM      4  C3  UNL d   1      -2.235  -5.489  -3.598  0.00  0.00     0.003 A 
ATOM      5  C4  UNL d   1      -1.484  -5.608  -4.766  0.00  0.00    -0.005 A 
ATOM      6  C5  UNL d   1      -1.983  -5.107  -5.967  0.00  0.00     0.003 A 
ATOM      7  C6  UNL d   1      -3.234  -4.488  -6.000  0.00  0.00    -0.001 A 
ENDROOT
TORSDOF 0
ENDMDL
