MODEL 1
REMARK minimizedAffinity -2.49566984
REMARK minimizedRMSD -1
REMARK  0 active torsions:
REMARK  status: ('A' for Active; 'I' for Inactive)
ROOT
ATOM      1  C   UNL d   1      -0.846  -5.269  -5.167  0.00  0.00     0.078 C 
ATOM      2  C1  UNL d   1      -2.343  -5.264  -5.091  0.00  0.00    -0.077 A 
ATOM      3  C2  UNL d   1      -3.115  -5.999  -5.999  0.00  0.00    -0.001 A 
ATOM      4  C3  UNL d   1      -4.508  -5.977  -5.922  0.00  0.00     0.003 A 
ATOM      5  C4  UNL d   1      -5.142  -5.220  -4.939  0.00  0.00    -0.005 A 
ATOM      6  C5  UNL d   1      -4.383  -4.483  -4.032  0.00  0.00     0.003 A 
ATOM      7  C6  UNL d   1      -2.990  -4.504  -4.108  0.00  0.00    -0.001 A 
ENDROOT
TORSDOF 0
ENDMDL
