MODEL 1
REMARK minimizedAffinity -1.21983385
REMARK minimizedRMSD -1
REMARK  0 active torsions:
REMARK  status: ('A' for Active; 'I' for Inactive)
ROOT
ATOM      1  C   UNL d   1      -5.485  -4.527  -5.870  0.00  0.00     0.078 C 
ATOM      2  C1  UNL d   1      -4.172  -4.909  -5.256  0.00  0.00    -0.077 A 
ATOM      3  C2  UNL d   1      -3.851  -4.532  -3.946  0.00  0.00    -0.001 A 
ATOM      4  C3  UNL d   1      -2.621  -4.886  -3.391  0.00  0.00     0.003 A 
ATOM      5  C4  UNL d   1      -1.701  -5.620  -4.138  0.00  0.00    -0.005 A 
ATOM      6  C5  UNL d   1      -2.010  -5.998  -5.442  0.00  0.00     0.003 A 
ATOM      7  C6  UNL d   1      -3.240  -5.644  -6.000  0.00  0.00    -0.001 A 
ENDROOT
TORSDOF 0
ENDMDL
