MODEL 1
REMARK minimizedAffinity -2.6202352
REMARK minimizedRMSD -1
REMARK  0 active torsions:
REMARK  status: ('A' for Active; 'I' for Inactive)
ROOT
ATOM      1  C   UNL d   1      -5.977  -2.264  -4.867  0.00  0.00     0.078 C 
ATOM      2  C1  UNL d   1      -5.252  -3.565  -5.039  0.00  0.00    -0.077 A 
ATOM      3  C2  UNL d   1      -4.007  -3.782  -4.436  0.00  0.00    -0.001 A 
ATOM      4  C3  UNL d   1      -3.338  -4.995  -4.613  0.00  0.00     0.003 A 
ATOM      5  C4  UNL d   1      -3.907  -6.000  -5.393  0.00  0.00    -0.005 A 
ATOM      6  C5  UNL d   1      -5.145  -5.793  -5.998  0.00  0.00     0.003 A 
ATOM      7  C6  UNL d   1      -5.815  -4.581  -5.822  0.00  0.00    -0.001 A 
ENDROOT
TORSDOF 0
ENDMDL
