MODEL 1
REMARK minimizedAffinity -3.10554743
REMARK minimizedRMSD -1
REMARK  0 active torsions:
REMARK  status: ('A' for Active; 'I' for Inactive)
ROOT
ATOM      1  C   UNL d   1      -1.835  -5.665  -5.266  0.00  0.00     0.078 C 
ATOM      2  C1  UNL d   1      -3.279  -5.260  -5.265  0.00  0.00    -0.077 A 
ATOM      3  C2  UNL d   1      -3.716  -4.154  -4.526  0.00  0.00    -0.001 A 
ATOM      4  C3  UNL d   1      -5.065  -3.793  -4.526  0.00  0.00     0.003 A 
ATOM      5  C4  UNL d   1      -5.987  -4.534  -5.262  0.00  0.00    -0.005 A 
ATOM      6  C5  UNL d   1      -5.561  -5.638  -5.999  0.00  0.00     0.003 A 
ATOM      7  C6  UNL d   1      -4.213  -6.000  -6.000  0.00  0.00    -0.001 A 
ENDROOT
TORSDOF 0
ENDMDL
