MODEL 1
REMARK minimizedAffinity -3.36406755
REMARK minimizedRMSD -1
REMARK  0 active torsions:
REMARK  status: ('A' for Active; 'I' for Inactive)
ROOT
ATOM      1  C   UNL d   1      -5.470  -2.963  -5.546  0.00  0.00     0.078 C 
ATOM      2  C1  UNL d   1      -4.255  -3.841  -5.588  0.00  0.00    -0.077 A 
ATOM      3  C2  UNL d   1      -4.350  -5.185  -5.971  0.00  0.00    -0.001 A 
ATOM      4  C3  UNL d   1      -3.212  -5.993  -5.997  0.00  0.00     0.003 A 
ATOM      5  C4  UNL d   1      -1.972  -5.468  -5.640  0.00  0.00    -0.005 A 
ATOM      6  C5  UNL d   1      -1.868  -4.132  -5.255  0.00  0.00     0.003 A 
ATOM      7  C6  UNL d   1      -3.005  -3.323  -5.228  0.00  0.00    -0.001 A 
ENDROOT
TORSDOF 0
ENDMDL
