MODEL 1
REMARK minimizedAffinity -1.92223787
REMARK minimizedRMSD -1
REMARK  0 active torsions:
REMARK  status: ('A' for Active; 'I' for Inactive)
ROOT
ATOM      1  C   UNL d   1      -1.095  -5.587  -5.628  0.00  0.00     0.078 C 
ATOM      2  C1  UNL d   1      -2.510  -5.095  -5.580  0.00  0.00    -0.077 A 
ATOM      3  C2  UNL d   1      -3.579  -5.938  -5.909  0.00  0.00    -0.001 A 
ATOM      4  C3  UNL d   1      -4.891  -5.463  -5.869  0.00  0.00     0.003 A 
ATOM      5  C4  UNL d   1      -5.147  -4.144  -5.502  0.00  0.00    -0.005 A 
ATOM      6  C5  UNL d   1      -4.090  -3.297  -5.174  0.00  0.00     0.003 A 
ATOM      7  C6  UNL d   1      -2.777  -3.769  -5.214  0.00  0.00    -0.001 A 
ENDROOT
TORSDOF 0
ENDMDL
