MODEL 1
REMARK minimizedAffinity 0.555895209
REMARK minimizedRMSD -1
REMARK  0 active torsions:
REMARK  status: ('A' for Active; 'I' for Inactive)
ROOT
ATOM      1  C   UNL d   1      -5.569  -2.591  -4.630  0.00  0.00     0.078 C 
ATOM      2  C1  UNL d   1      -4.629  -3.755  -4.731  0.00  0.00    -0.077 A 
ATOM      3  C2  UNL d   1      -4.503  -4.479  -5.923  0.00  0.00    -0.001 A 
ATOM      4  C3  UNL d   1      -3.631  -5.566  -6.000  0.00  0.00     0.003 A 
ATOM      5  C4  UNL d   1      -2.878  -5.939  -4.888  0.00  0.00    -0.005 A 
ATOM      6  C5  UNL d   1      -2.998  -5.226  -3.697  0.00  0.00     0.003 A 
ATOM      7  C6  UNL d   1      -3.870  -4.139  -3.618  0.00  0.00    -0.001 A 
ENDROOT
TORSDOF 0
ENDMDL
