MODEL 1
REMARK minimizedAffinity 1.143875
REMARK minimizedRMSD -1
REMARK  0 active torsions:
REMARK  status: ('A' for Active; 'I' for Inactive)
ROOT
ATOM      1  C   UNL d   1      -6.000  -0.190  -2.222  0.00  0.00     0.078 C 
ATOM      2  C1  UNL d   1      -5.330  -0.477  -3.533  0.00  0.00    -0.077 A 
ATOM      3  C2  UNL d   1      -4.043   0.002  -3.805  0.00  0.00    -0.001 A 
ATOM      4  C3  UNL d   1      -3.435  -0.265  -5.033  0.00  0.00     0.003 A 
ATOM      5  C4  UNL d   1      -4.108  -1.010  -6.000  0.00  0.00    -0.005 A 
ATOM      6  C5  UNL d   1      -5.391  -1.489  -5.739  0.00  0.00     0.003 A 
ATOM      7  C6  UNL d   1      -6.000  -1.223  -4.511  0.00  0.00    -0.001 A 
ENDROOT
TORSDOF 0
ENDMDL
