MODEL 1
REMARK minimizedAffinity 12.6335459
REMARK minimizedRMSD -1
REMARK  1 active torsions:
REMARK  status: ('A' for Active; 'I' for Inactive)
REMARK    1  A    between atoms: C1_2  and  C2_3 
ROOT
ATOM      1  C2  UNL d   1       3.421   4.622  -5.939  0.00  0.00    -0.073 A 
ATOM      2  C3  UNL d   1       2.775   5.864  -5.956  0.00  0.00    -0.002 A 
ATOM      3  C4  UNL d   1       1.381   5.934  -5.958  0.00  0.00     0.004 A 
ATOM      4  C5  UNL d   1       0.620   4.765  -5.937  0.00  0.00    -0.004 A 
ATOM      5  C6  UNL d   1       1.247   3.515  -5.908  0.00  0.00    -0.075 A 
ATOM      6  C7  UNL d   1       0.442   2.249  -5.887  0.00  0.00     0.076 C 
ATOM      7  C8  UNL d   1       2.647   3.454  -5.909  0.00  0.00     0.001 A 
ENDROOT
BRANCH   1   8
ATOM      8  C1  UNL d   1       4.925   4.542  -5.930  0.00  0.00     0.053 C 
ATOM      9  C   UNL d   1       5.566   5.886  -5.619  0.00  0.00     0.018 C 
ENDBRANCH   1   8
TORSDOF 1
ENDMDL
