MODEL 1
REMARK minimizedAffinity 12.9342699
REMARK minimizedRMSD -1
REMARK  1 active torsions:
REMARK  status: ('A' for Active; 'I' for Inactive)
REMARK    1  A    between atoms: C1_2  and  C2_3 
ROOT
ATOM      1  C2  UNL d   1       0.648  -1.821   0.180  0.00  0.00    -0.073 A 
ATOM      2  C3  UNL d   1       1.562  -1.025   0.880  0.00  0.00    -0.002 A 
ATOM      3  C4  UNL d   1       2.722  -1.588   1.415  0.00  0.00     0.004 A 
ATOM      4  C5  UNL d   1       2.983  -2.948   1.249  0.00  0.00    -0.004 A 
ATOM      5  C6  UNL d   1       2.088  -3.757   0.542  0.00  0.00    -0.075 A 
ATOM      6  C7  UNL d   1       2.353  -5.222   0.357  0.00  0.00     0.076 C 
ATOM      7  C8  UNL d   1       0.924  -3.185   0.011  0.00  0.00     0.001 A 
ENDROOT
BRANCH   1   8
ATOM      8  C1  UNL d   1      -0.602  -1.216  -0.404  0.00  0.00     0.053 C 
ATOM      9  C   UNL d   1      -0.559  -1.174  -1.923  0.00  0.00     0.018 C 
ENDBRANCH   1   8
TORSDOF 1
ENDMDL
