MODEL 1
REMARK minimizedAffinity 12.4050636
REMARK minimizedRMSD -1
REMARK  1 active torsions:
REMARK  status: ('A' for Active; 'I' for Inactive)
REMARK    1  A    between atoms: C1_2  and  C2_3 
ROOT
ATOM      1  C2  UNL d   1       2.396  -4.330   0.437  0.00  0.00    -0.073 A 
ATOM      2  C3  UNL d   1       3.453  -3.413   0.482  0.00  0.00    -0.002 A 
ATOM      3  C4  UNL d   1       3.225  -2.094   0.877  0.00  0.00     0.004 A 
ATOM      4  C5  UNL d   1       1.942  -1.680   1.236  0.00  0.00    -0.004 A 
ATOM      5  C6  UNL d   1       0.876  -2.585   1.209  0.00  0.00    -0.075 A 
ATOM      6  C7  UNL d   1      -0.510  -2.155   1.590  0.00  0.00     0.076 C 
ATOM      7  C8  UNL d   1       1.112  -3.907   0.809  0.00  0.00     0.001 A 
ENDROOT
BRANCH   1   8
ATOM      8  C1  UNL d   1       2.638  -5.757   0.019  0.00  0.00     0.053 C 
ATOM      9  C   UNL d   1       4.084  -5.995  -0.387  0.00  0.00     0.018 C 
ENDBRANCH   1   8
TORSDOF 1
ENDMDL
