MODEL 1
REMARK minimizedAffinity 16.553709
REMARK minimizedRMSD -1
REMARK  1 active torsions:
REMARK  status: ('A' for Active; 'I' for Inactive)
REMARK    1  A    between atoms: C1_2  and  C2_3 
ROOT
ATOM      1  C2  UNL d   1      -3.987   1.874  -5.080  0.00  0.00    -0.073 A 
ATOM      2  C3  UNL d   1      -3.888   2.626  -3.904  0.00  0.00    -0.002 A 
ATOM      3  C4  UNL d   1      -2.637   2.993  -3.405  0.00  0.00     0.004 A 
ATOM      4  C5  UNL d   1      -1.475   2.618  -4.080  0.00  0.00    -0.004 A 
ATOM      5  C6  UNL d   1      -1.554   1.877  -5.263  0.00  0.00    -0.075 A 
ATOM      6  C7  UNL d   1      -0.314   1.464  -6.000  0.00  0.00     0.076 C 
ATOM      7  C8  UNL d   1      -2.814   1.510  -5.756  0.00  0.00     0.001 A 
ENDROOT
BRANCH   1   8
ATOM      8  C1  UNL d   1      -5.336   1.481  -5.626  0.00  0.00     0.053 C 
ATOM      9  C   UNL d   1      -5.985   0.381  -4.802  0.00  0.00     0.018 C 
ENDBRANCH   1   8
TORSDOF 1
ENDMDL
