MODEL 1
REMARK minimizedAffinity -2.58850479
REMARK minimizedRMSD -1
REMARK  0 active torsions:
REMARK  status: ('A' for Active; 'I' for Inactive)
ROOT
ATOM      1  C4' PXY d   1       0.742   0.994   0.538  0.00  0.00     0.077 C 
ATOM      2  C1' PXY d   1      -0.932   4.663  -3.602  0.00  0.00     0.077 C 
ATOM      3  C1  PXY d   1      -0.481   3.706  -2.517  0.00  0.00    -0.082 A 
ATOM      4  C2  PXY d   1      -1.128   2.566  -2.340  0.00  0.00     0.003 A 
ATOM      5  C3  PXY d   1      -0.754   1.703  -1.342  0.00  0.00     0.003 A 
ATOM      6  C4  PXY d   1       0.328   1.986  -0.551  0.00  0.00    -0.082 A 
ATOM      7  C5  PXY d   1       1.000   3.142  -0.733  0.00  0.00     0.003 A 
ATOM      8  C6  PXY d   1       0.578   4.024  -1.724  0.00  0.00     0.003 A 
ENDROOT
TORSDOF 0
ENDMDL
