MODEL 1
REMARK minimizedAffinity -0.652662694
REMARK minimizedRMSD -1
REMARK  0 active torsions:
REMARK  status: ('A' for Active; 'I' for Inactive)
ROOT
ATOM      1  C4' PXY d   1      -0.377   3.473  -1.601  0.00  0.00     0.077 C 
ATOM      2  C1' PXY d   1       1.799  -1.144   1.113  0.00  0.00     0.077 C 
ATOM      3  C1  PXY d   1       1.224   0.059   0.392  0.00  0.00    -0.082 A 
ATOM      4  C2  PXY d   1       1.724   1.262   0.625  0.00  0.00     0.003 A 
ATOM      5  C3  PXY d   1       1.194   2.365   0.005  0.00  0.00     0.003 A 
ATOM      6  C4  PXY d   1       0.178   2.229  -0.902  0.00  0.00    -0.082 A 
ATOM      7  C5  PXY d   1      -0.329   1.004  -1.154  0.00  0.00     0.003 A 
ATOM      8  C6  PXY d   1       0.194  -0.098  -0.483  0.00  0.00     0.003 A 
ENDROOT
TORSDOF 0
ENDMDL
