MODEL 1
REMARK minimizedAffinity 0.860518456
REMARK minimizedRMSD -1
REMARK  0 active torsions:
REMARK  status: ('A' for Active; 'I' for Inactive)
ROOT
ATOM      1  C4' PXY d   1      -0.700   1.565  -1.566  0.00  0.00     0.077 C 
ATOM      2  C1' PXY d   1       0.688  -1.872   2.870  0.00  0.00     0.077 C 
ATOM      3  C1  PXY d   1       0.337  -0.968   1.705  0.00  0.00    -0.082 A 
ATOM      4  C2  PXY d   1      -0.870  -0.430   1.635  0.00  0.00     0.003 A 
ATOM      5  C3  PXY d   1      -1.215   0.364   0.571  0.00  0.00     0.003 A 
ATOM      6  C4  PXY d   1      -0.298   0.654  -0.403  0.00  0.00    -0.082 A 
ATOM      7  C5  PXY d   1       0.939   0.118  -0.333  0.00  0.00     0.003 A 
ATOM      8  C6  PXY d   1       1.256  -0.718   0.733  0.00  0.00     0.003 A 
ENDROOT
TORSDOF 0
ENDMDL
