MODEL 1
REMARK minimizedAffinity -4.60091496
REMARK minimizedRMSD -1
REMARK  0 active torsions:
REMARK  status: ('A' for Active; 'I' for Inactive)
ROOT
ATOM      1  C4' PXY d   1      -3.498  -1.389   0.037  0.00  0.00     0.077 C 
ATOM      2  C1' PXY d   1       1.575   0.417   2.139  0.00  0.00     0.077 C 
ATOM      3  C1  PXY d   1       0.246  -0.049   1.577  0.00  0.00    -0.082 A 
ATOM      4  C2  PXY d   1      -0.696  -0.480   2.399  0.00  0.00     0.003 A 
ATOM      5  C3  PXY d   1      -1.892  -0.935   1.905  0.00  0.00     0.003 A 
ATOM      6  C4  PXY d   1      -2.145  -0.899   0.560  0.00  0.00    -0.082 A 
ATOM      7  C5  PXY d   1      -1.192  -0.451  -0.284  0.00  0.00     0.003 A 
ATOM      8  C6  PXY d   1       0.030  -0.032   0.234  0.00  0.00     0.003 A 
ENDROOT
TORSDOF 0
ENDMDL
