MODEL 1
REMARK minimizedAffinity -1.55307126
REMARK minimizedRMSD -1
REMARK  0 active torsions:
REMARK  status: ('A' for Active; 'I' for Inactive)
ROOT
ATOM      1  C4' PXY d   1       0.252  -0.373   0.205  0.00  0.00     0.077 C 
ATOM      2  C1' PXY d   1      -0.733   4.357  -2.969  0.00  0.00     0.077 C 
ATOM      3  C1  PXY d   1      -0.466   3.123  -2.129  0.00  0.00    -0.082 A 
ATOM      4  C2  PXY d   1      -0.662   1.923  -2.650  0.00  0.00     0.003 A 
ATOM      5  C3  PXY d   1      -0.456   0.797  -1.894  0.00  0.00     0.003 A 
ATOM      6  C4  PXY d   1       0.005   0.900  -0.609  0.00  0.00    -0.082 A 
ATOM      7  C5  PXY d   1       0.218   2.122  -0.074  0.00  0.00     0.003 A 
ATOM      8  C6  PXY d   1      -0.036   3.253  -0.844  0.00  0.00     0.003 A 
ENDROOT
TORSDOF 0
ENDMDL
