MODEL 1
REMARK minimizedAffinity -5.08847713
REMARK minimizedRMSD -1
REMARK  0 active torsions:
REMARK  status: ('A' for Active; 'I' for Inactive)
ROOT
ATOM      1  C4' PXY d   1      -2.924  -0.833  -2.029  0.00  0.00     0.077 C 
ATOM      2  C1' PXY d   1       1.015   0.068   2.104  0.00  0.00     0.077 C 
ATOM      3  C1  PXY d   1      -0.011  -0.162   1.011  0.00  0.00    -0.082 A 
ATOM      4  C2  PXY d   1      -1.280  -0.351   1.335  0.00  0.00     0.003 A 
ATOM      5  C3  PXY d   1      -2.215  -0.592   0.361  0.00  0.00     0.003 A 
ATOM      6  C4  PXY d   1      -1.856  -0.588  -0.960  0.00  0.00    -0.082 A 
ATOM      7  C5  PXY d   1      -0.565  -0.386  -1.299  0.00  0.00     0.003 A 
ATOM      8  C6  PXY d   1       0.376  -0.184  -0.293  0.00  0.00     0.003 A 
ENDROOT
TORSDOF 0
ENDMDL
