MODEL 1
REMARK minimizedAffinity -4.8542819
REMARK minimizedRMSD -1
REMARK  0 active torsions:
REMARK  status: ('A' for Active; 'I' for Inactive)
ROOT
ATOM      1  C4' PXY d   1      -3.136  -0.899  -1.220  0.00  0.00     0.077 C 
ATOM      2  C1' PXY d   1       1.714  -0.057   1.811  0.00  0.00     0.077 C 
ATOM      3  C1  PXY d   1       0.437  -0.285   1.025  0.00  0.00    -0.082 A 
ATOM      4  C2  PXY d   1       0.440  -0.128  -0.288  0.00  0.00     0.003 A 
ATOM      5  C3  PXY d   1      -0.713  -0.300  -1.010  0.00  0.00     0.003 A 
ATOM      6  C4  PXY d   1      -1.868  -0.688  -0.388  0.00  0.00    -0.082 A 
ATOM      7  C5  PXY d   1      -1.877  -0.861   0.951  0.00  0.00     0.003 A 
ATOM      8  C6  PXY d   1      -0.706  -0.642   1.671  0.00  0.00     0.003 A 
ENDROOT
TORSDOF 0
ENDMDL
