MODEL 1
REMARK minimizedAffinity 2.085567
REMARK minimizedRMSD -1
REMARK  0 active torsions:
REMARK  status: ('A' for Active; 'I' for Inactive)
ROOT
ATOM      1  C4' PXY d   1       0.601  -2.022   2.564  0.00  0.00     0.077 C 
ATOM      2  C1' PXY d   1       0.362   2.354  -1.207  0.00  0.00     0.077 C 
ATOM      3  C1  PXY d   1       0.438   1.207  -0.218  0.00  0.00    -0.082 A 
ATOM      4  C2  PXY d   1      -0.543   0.321  -0.167  0.00  0.00     0.003 A 
ATOM      5  C3  PXY d   1      -0.506  -0.704   0.743  0.00  0.00     0.003 A 
ATOM      6  C4  PXY d   1       0.572  -0.853   1.574  0.00  0.00    -0.082 A 
ATOM      7  C5  PXY d   1       1.582   0.041   1.522  0.00  0.00     0.003 A 
ATOM      8  C6  PXY d   1       1.506   1.097   0.619  0.00  0.00     0.003 A 
ENDROOT
TORSDOF 0
ENDMDL
