MODEL 1
REMARK minimizedAffinity -1.21621835
REMARK minimizedRMSD -1
REMARK  0 active torsions:
REMARK  status: ('A' for Active; 'I' for Inactive)
ROOT
ATOM      1  C4' PXY d   1      -1.583   0.937   0.158  0.00  0.00     0.077 C 
ATOM      2  C1' PXY d   1       3.577  -1.636  -0.242  0.00  0.00     0.077 C 
ATOM      3  C1  PXY d   1       2.225  -0.962  -0.124  0.00  0.00    -0.082 A 
ATOM      4  C2  PXY d   1       1.380  -1.007  -1.142  0.00  0.00     0.003 A 
ATOM      5  C3  PXY d   1       0.166  -0.376  -1.064  0.00  0.00     0.003 A 
ATOM      6  C4  PXY d   1      -0.211   0.263   0.087  0.00  0.00    -0.082 A 
ATOM      7  C5  PXY d   1       0.641   0.304   1.133  0.00  0.00     0.003 A 
ATOM      8  C6  PXY d   1       1.886  -0.307   1.019  0.00  0.00     0.003 A 
ENDROOT
TORSDOF 0
ENDMDL
