MODEL 1
REMARK minimizedAffinity -3.67982721
REMARK minimizedRMSD -1
REMARK  0 active torsions:
REMARK  status: ('A' for Active; 'I' for Inactive)
ROOT
ATOM      1  C4' PXY d   1      -0.704  -0.338  -1.945  0.00  0.00     0.077 C 
ATOM      2  C1' PXY d   1       1.923  -0.396   3.204  0.00  0.00     0.077 C 
ATOM      3  C1  PXY d   1       1.245  -0.377   1.848  0.00  0.00    -0.082 A 
ATOM      4  C2  PXY d   1      -0.065  -0.206   1.774  0.00  0.00     0.003 A 
ATOM      5  C3  PXY d   1      -0.698  -0.218   0.558  0.00  0.00     0.003 A 
ATOM      6  C4  PXY d   1       0.024  -0.354  -0.598  0.00  0.00    -0.082 A 
ATOM      7  C5  PXY d   1       1.362  -0.519  -0.531  0.00  0.00     0.003 A 
ATOM      8  C6  PXY d   1       1.981  -0.545   0.716  0.00  0.00     0.003 A 
ENDROOT
TORSDOF 0
ENDMDL
