MODEL 1
REMARK minimizedAffinity 4.73635721
REMARK minimizedRMSD -1
REMARK  0 active torsions:
REMARK  status: ('A' for Active; 'I' for Inactive)
ROOT
ATOM      1  C4' PXY d   1      -1.253   1.491  -1.390  0.00  0.00     0.077 C 
ATOM      2  C1' PXY d   1       3.160  -1.724   0.510  0.00  0.00     0.077 C 
ATOM      3  C1  PXY d   1       1.998  -0.880   0.024  0.00  0.00    -0.082 A 
ATOM      4  C2  PXY d   1       1.595  -0.983  -1.232  0.00  0.00     0.003 A 
ATOM      5  C3  PXY d   1       0.567  -0.204  -1.697  0.00  0.00     0.003 A 
ATOM      6  C4  PXY d   1      -0.090   0.651  -0.854  0.00  0.00    -0.082 A 
ATOM      7  C5  PXY d   1       0.308   0.755   0.432  0.00  0.00     0.003 A 
ATOM      8  C6  PXY d   1       1.381  -0.015   0.873  0.00  0.00     0.003 A 
ENDROOT
TORSDOF 0
ENDMDL
