MODEL 1
REMARK minimizedAffinity -2.12088943
REMARK minimizedRMSD -1
REMARK  0 active torsions:
REMARK  status: ('A' for Active; 'I' for Inactive)
ROOT
ATOM      1  C4' PXY d   1       0.384  -1.776   3.129  0.00  0.00     0.077 C 
ATOM      2  C1' PXY d   1       0.070   1.525  -1.605  0.00  0.00     0.077 C 
ATOM      3  C1  PXY d   1       0.164   0.655  -0.367  0.00  0.00    -0.082 A 
ATOM      4  C2  PXY d   1      -0.942   0.279   0.254  0.00  0.00     0.003 A 
ATOM      5  C3  PXY d   1      -0.874  -0.481   1.393  0.00  0.00     0.003 A 
ATOM      6  C4  PXY d   1       0.337  -0.906   1.871  0.00  0.00    -0.082 A 
ATOM      7  C5  PXY d   1       1.470  -0.535   1.237  0.00  0.00     0.003 A 
ATOM      8  C6  PXY d   1       1.381   0.271   0.106  0.00  0.00     0.003 A 
ENDROOT
TORSDOF 0
ENDMDL
