MODEL 1
REMARK minimizedAffinity -2.4110992
REMARK minimizedRMSD -1
REMARK  0 active torsions:
REMARK  status: ('A' for Active; 'I' for Inactive)
ROOT
ATOM      1  C4' PXY d   1      -2.037  -0.364  -2.288  0.00  0.00     0.077 C 
ATOM      2  C1' PXY d   1       2.661  -0.333   1.081  0.00  0.00     0.077 C 
ATOM      3  C1  PXY d   1       1.436  -0.339   0.187  0.00  0.00    -0.082 A 
ATOM      4  C2  PXY d   1       0.247  -0.076   0.705  0.00  0.00     0.003 A 
ATOM      5  C3  PXY d   1      -0.875  -0.108  -0.083  0.00  0.00     0.003 A 
ATOM      6  C4  PXY d   1      -0.772  -0.360  -1.425  0.00  0.00    -0.082 A 
ATOM      7  C5  PXY d   1       0.439  -0.619  -1.962  0.00  0.00     0.003 A 
ATOM      8  C6  PXY d   1       1.560  -0.622  -1.138  0.00  0.00     0.003 A 
ENDROOT
TORSDOF 0
ENDMDL
