MODEL 1
REMARK minimizedAffinity -1.27349341
REMARK minimizedRMSD -1
REMARK  0 active torsions:
REMARK  status: ('A' for Active; 'I' for Inactive)
ROOT
ATOM      1  C4' PXY d   1       0.336  -0.231  -0.735  0.00  0.00     0.077 C 
ATOM      2  C1' PXY d   1      -0.518   4.350  -4.155  0.00  0.00     0.077 C 
ATOM      3  C1  PXY d   1      -0.297   3.141  -3.268  0.00  0.00    -0.082 A 
ATOM      4  C2  PXY d   1      -0.451   3.253  -1.959  0.00  0.00     0.003 A 
ATOM      5  C3  PXY d   1      -0.223   2.177  -1.139  0.00  0.00     0.003 A 
ATOM      6  C4  PXY d   1       0.113   0.961  -1.670  0.00  0.00    -0.082 A 
ATOM      7  C5  PXY d   1       0.262   0.836  -3.006  0.00  0.00     0.003 A 
ATOM      8  C6  PXY d   1       0.066   1.950  -3.817  0.00  0.00     0.003 A 
ENDROOT
TORSDOF 0
ENDMDL
