MODEL 1
REMARK minimizedAffinity 7.0366869
REMARK minimizedRMSD -1
REMARK  0 active torsions:
REMARK  status: ('A' for Active; 'I' for Inactive)
ROOT
ATOM      1  C   UNL d   1       3.392   2.322   1.620  0.00  0.00    -0.002 A 
ATOM      2  C1  UNL d   1       2.914   2.783   2.838  0.00  0.00     0.010 A 
ATOM      3  C2  UNL d   1       2.273   1.915   3.724  0.00  0.00     0.041 A 
ATOM      4  C3  UNL d   1       2.120   0.562   3.362  0.00  0.00    -0.075 A 
ATOM      5  S   UNL d   1       1.369  -0.683   4.288  0.00  0.00     0.015 SA
ATOM      6  C4  UNL d   1       1.665  -1.857   3.089  0.00  0.00     0.022 A 
ATOM      7  C5  UNL d   1       2.320  -1.329   2.001  0.00  0.00     0.026 A 
ATOM      8  C6  UNL d   1       2.594   0.074   2.141  0.00  0.00    -0.082 A 
ATOM      9  C7  UNL d   1       3.239   0.979   1.264  0.00  0.00     0.045 A 
ENDROOT
TORSDOF 0
ENDMDL
