MODEL 1
REMARK minimizedAffinity 6.59678745
REMARK minimizedRMSD -1
REMARK  0 active torsions:
REMARK  status: ('A' for Active; 'I' for Inactive)
ROOT
ATOM      1  C   UNL d   1       3.510  -4.160   5.261  0.00  0.00    -0.002 A 
ATOM      2  C1  UNL d   1       4.565  -3.284   5.046  0.00  0.00     0.010 A 
ATOM      3  C2  UNL d   1       4.418  -2.193   4.187  0.00  0.00     0.041 A 
ATOM      4  C3  UNL d   1       3.181  -1.994   3.543  0.00  0.00    -0.075 A 
ATOM      5  S   UNL d   1       2.771  -0.727   2.449  0.00  0.00     0.015 SA
ATOM      6  C4  UNL d   1       1.186  -1.318   2.241  0.00  0.00     0.022 A 
ATOM      7  C5  UNL d   1       0.958  -2.454   2.981  0.00  0.00     0.026 A 
ATOM      8  C6  UNL d   1       2.104  -2.862   3.744  0.00  0.00    -0.082 A 
ATOM      9  C7  UNL d   1       2.285  -3.959   4.620  0.00  0.00     0.045 A 
ENDROOT
TORSDOF 0
ENDMDL
