MODEL 1
REMARK minimizedAffinity 0.558135748
REMARK minimizedRMSD -1
REMARK  0 active torsions:
REMARK  status: ('A' for Active; 'I' for Inactive)
ROOT
ATOM      1  C   UNL d   1       1.641  -1.952   4.019  0.00  0.00    -0.002 A 
ATOM      2  C1  UNL d   1       0.763  -2.358   3.024  0.00  0.00     0.010 A 
ATOM      3  C2  UNL d   1       0.483  -1.522   1.941  0.00  0.00     0.041 A 
ATOM      4  C3  UNL d   1       1.108  -0.262   1.873  0.00  0.00    -0.075 A 
ATOM      5  S   UNL d   1       0.917   0.928   0.639  0.00  0.00     0.015 SA
ATOM      6  C4  UNL d   1       1.997   2.002   1.404  0.00  0.00     0.022 A 
ATOM      7  C5  UNL d   1       2.500   1.482   2.573  0.00  0.00     0.026 A 
ATOM      8  C6  UNL d   1       1.996   0.168   2.862  0.00  0.00    -0.082 A 
ATOM      9  C7  UNL d   1       2.259  -0.701   3.948  0.00  0.00     0.045 A 
ENDROOT
TORSDOF 0
ENDMDL
