MODEL 1
REMARK minimizedAffinity 4.43661976
REMARK minimizedRMSD -1
REMARK  0 active torsions:
REMARK  status: ('A' for Active; 'I' for Inactive)
ROOT
ATOM      1  C   UNL d   1       1.574   1.353   0.411  0.00  0.00    -0.002 A 
ATOM      2  C1  UNL d   1       0.508   0.558   0.017  0.00  0.00     0.010 A 
ATOM      3  C2  UNL d   1       0.171  -0.588   0.741  0.00  0.00     0.041 A 
ATOM      4  C3  UNL d   1       0.931  -0.922   1.879  0.00  0.00    -0.075 A 
ATOM      5  S   UNL d   1       0.702  -2.277   2.920  0.00  0.00     0.015 SA
ATOM      6  C4  UNL d   1       2.013  -1.831   3.913  0.00  0.00     0.022 A 
ATOM      7  C5  UNL d   1       2.623  -0.679   3.475  0.00  0.00     0.026 A 
ATOM      8  C6  UNL d   1       2.008  -0.136   2.296  0.00  0.00    -0.082 A 
ATOM      9  C7  UNL d   1       2.325   1.019   1.541  0.00  0.00     0.045 A 
ENDROOT
TORSDOF 0
ENDMDL
