MODEL 1
REMARK minimizedAffinity 3.77549481
REMARK minimizedRMSD -1
REMARK  0 active torsions:
REMARK  status: ('A' for Active; 'I' for Inactive)
ROOT
ATOM      1  C   UNL d   1       1.919   0.769   0.998  0.00  0.00    -0.002 A 
ATOM      2  C1  UNL d   1       0.984  -0.024   0.348  0.00  0.00     0.010 A 
ATOM      3  C2  UNL d   1       0.492  -1.182   0.953  0.00  0.00     0.041 A 
ATOM      4  C3  UNL d   1       0.960  -1.533   2.235  0.00  0.00    -0.075 A 
ATOM      5  S   UNL d   1       0.498  -2.906   3.170  0.00  0.00     0.015 SA
ATOM      6  C4  UNL d   1       1.531  -2.472   4.454  0.00  0.00     0.022 A 
ATOM      7  C5  UNL d   1       2.220  -1.311   4.192  0.00  0.00     0.026 A 
ATOM      8  C6  UNL d   1       1.901  -0.750   2.909  0.00  0.00    -0.082 A 
ATOM      9  C7  UNL d   1       2.381   0.418   2.269  0.00  0.00     0.045 A 
ENDROOT
TORSDOF 0
ENDMDL
