MODEL 1
REMARK minimizedAffinity 0.983697832
REMARK minimizedRMSD -1
REMARK  0 active torsions:
REMARK  status: ('A' for Active; 'I' for Inactive)
ROOT
ATOM      1  C   UNL d   1       2.657   2.151   2.778  0.00  0.00    -0.002 A 
ATOM      2  C1  UNL d   1       2.854   1.126   1.864  0.00  0.00     0.010 A 
ATOM      3  C2  UNL d   1       3.021  -0.191   2.297  0.00  0.00     0.041 A 
ATOM      4  C3  UNL d   1       2.985  -0.463   3.679  0.00  0.00    -0.075 A 
ATOM      5  S   UNL d   1       3.165  -1.999   4.441  0.00  0.00     0.015 SA
ATOM      6  C4  UNL d   1       2.984  -1.331   5.999  0.00  0.00     0.022 A 
ATOM      7  C5  UNL d   1       2.791   0.030   5.957  0.00  0.00     0.026 A 
ATOM      8  C6  UNL d   1       2.788   0.552   4.620  0.00  0.00    -0.082 A 
ATOM      9  C7  UNL d   1       2.622   1.877   4.148  0.00  0.00     0.045 A 
ENDROOT
TORSDOF 0
ENDMDL
