MODEL 1
REMARK minimizedAffinity -1.79754531
REMARK minimizedRMSD -1
REMARK  1 active torsions:
REMARK  status: ('A' for Active; 'I' for Inactive)
REMARK    1  A    between atoms: C1_2  and  C2_3 
ROOT
ATOM      1  C2  UNL d   1       0.489  -3.219  -1.073  0.00  0.00    -0.077 A 
ATOM      2  C3  UNL d   1      -0.456  -4.254  -1.047  0.00  0.00     0.002 A 
ATOM      3  C4  UNL d   1      -0.083  -5.541  -0.655  0.00  0.00     0.002 A 
ATOM      4  C5  UNL d   1       1.233  -5.804  -0.283  0.00  0.00    -0.004 A 
ATOM      5  C6  UNL d   1       2.181  -4.782  -0.307  0.00  0.00     0.002 A 
ATOM      6  C7  UNL d   1       1.811  -3.495  -0.699  0.00  0.00     0.002 A 
ENDROOT
BRANCH   1   7
ATOM      7  C1  UNL d   1       0.078  -1.819  -1.447  0.00  0.00     0.055 C 
ATOM      8  C   UNL d   1       0.531  -0.810  -0.402  0.00  0.00     0.019 C 
ENDBRANCH   1   7
TORSDOF 1
ENDMDL
