MODEL 1
REMARK minimizedAffinity -3.55299902
REMARK minimizedRMSD -1
REMARK  1 active torsions:
REMARK  status: ('A' for Active; 'I' for Inactive)
REMARK    1  A    between atoms: C1_2  and  C2_3 
ROOT
ATOM      1  C2  UNL d   1       0.030  -1.062  -1.143  0.00  0.00    -0.077 A 
ATOM      2  C3  UNL d   1      -0.613  -0.903   0.093  0.00  0.00     0.002 A 
ATOM      3  C4  UNL d   1      -1.041   0.359   0.509  0.00  0.00     0.002 A 
ATOM      4  C5  UNL d   1      -0.836   1.470  -0.306  0.00  0.00    -0.004 A 
ATOM      5  C6  UNL d   1      -0.197   1.323  -1.536  0.00  0.00     0.002 A 
ATOM      6  C7  UNL d   1       0.234   0.062  -1.953  0.00  0.00     0.002 A 
ENDROOT
BRANCH   1   7
ATOM      7  C1  UNL d   1       0.449  -2.430  -1.615  0.00  0.00     0.055 C 
ATOM      8  C   UNL d   1      -0.757  -3.326  -1.856  0.00  0.00     0.019 C 
ENDBRANCH   1   7
TORSDOF 1
ENDMDL
