MODEL 1
REMARK minimizedAffinity 2.27770495
REMARK minimizedRMSD -1
REMARK  1 active torsions:
REMARK  status: ('A' for Active; 'I' for Inactive)
REMARK    1  A    between atoms: C1_2  and  C2_3 
ROOT
ATOM      1  C2  UNL d   1      -0.427  -1.181  -0.123  0.00  0.00    -0.077 A 
ATOM      2  C3  UNL d   1       0.002  -0.699  -1.367  0.00  0.00     0.002 A 
ATOM      3  C4  UNL d   1       0.214   0.668  -1.560  0.00  0.00     0.002 A 
ATOM      4  C5  UNL d   1       0.003   1.562  -0.512  0.00  0.00    -0.004 A 
ATOM      5  C6  UNL d   1      -0.426   1.092   0.729  0.00  0.00     0.002 A 
ATOM      6  C7  UNL d   1      -0.640  -0.274   0.923  0.00  0.00     0.002 A 
ENDROOT
BRANCH   1   7
ATOM      7  C1  UNL d   1      -0.609  -2.660   0.101  0.00  0.00     0.055 C 
ATOM      8  C   UNL d   1      -1.072  -3.359  -1.169  0.00  0.00     0.019 C 
ENDBRANCH   1   7
TORSDOF 1
ENDMDL
