MODEL 1
REMARK minimizedAffinity 5.02803564
REMARK minimizedRMSD -1
REMARK  0 active torsions:
REMARK  status: ('A' for Active; 'I' for Inactive)
ROOT
ATOM      1  N1  IND d   1       2.985  -2.597  -0.670  0.00  0.00    -0.196 N 
ATOM      2  C2  IND d   1       1.978  -3.208   0.024  0.00  0.00     0.054 A 
ATOM      3  C3  IND d   1       1.425  -2.346   0.906  0.00  0.00    -0.031 A 
ATOM      4  C4  IND d   1       1.946   0.143   1.309  0.00  0.00     0.051 A 
ATOM      5  C5  IND d   1       2.811   1.135   0.941  0.00  0.00    -0.031 A 
ATOM      6  C6  IND d   1       3.796   0.931  -0.004  0.00  0.00     0.015 A 
ATOM      7  C7  IND d   1       3.946  -0.275  -0.627  0.00  0.00    -0.016 A 
ATOM      8  C8  IND d   1       3.075  -1.288  -0.251  0.00  0.00    -0.047 A 
ATOM      9  C9  IND d   1       2.101  -1.099   0.738  0.00  0.00    -0.096 A 
ATOM     10  HN1 IND d   1       3.480  -2.968  -1.267  0.00  0.00     0.298 HD
ENDROOT
TORSDOF 0
ENDMDL
