MODEL 1
REMARK minimizedAffinity 0.481902391
REMARK minimizedRMSD -1
REMARK  0 active torsions:
REMARK  status: ('A' for Active; 'I' for Inactive)
ROOT
ATOM      1  N1  IND d   1      -2.801   3.760  -2.978  0.00  0.00    -0.196 N 
ATOM      2  C2  IND d   1      -1.878   2.847  -3.406  0.00  0.00     0.054 A 
ATOM      3  C3  IND d   1      -2.278   2.283  -4.568  0.00  0.00    -0.031 A 
ATOM      4  C4  IND d   1      -4.360   2.782  -5.997  0.00  0.00     0.051 A 
ATOM      5  C5  IND d   1      -5.515   3.512  -5.999  0.00  0.00    -0.031 A 
ATOM      6  C6  IND d   1      -5.830   4.382  -4.975  0.00  0.00     0.015 A 
ATOM      7  C7  IND d   1      -4.992   4.563  -3.911  0.00  0.00    -0.016 A 
ATOM      8  C8  IND d   1      -3.821   3.818  -3.902  0.00  0.00    -0.047 A 
ATOM      9  C9  IND d   1      -3.516   2.903  -4.918  0.00  0.00    -0.096 A 
ATOM     10  HN1 IND d   1      -2.752   4.221  -2.254  0.00  0.00     0.298 HD
ENDROOT
TORSDOF 0
ENDMDL
