MODEL 1
REMARK minimizedAffinity 10.9660854
REMARK minimizedRMSD -1
REMARK  0 active torsions:
REMARK  status: ('A' for Active; 'I' for Inactive)
ROOT
ATOM      1  N1  IND d   1      -4.813   2.277  -6.000  0.00  0.00    -0.196 N 
ATOM      2  C2  IND d   1      -5.998   2.859  -5.643  0.00  0.00     0.054 A 
ATOM      3  C3  IND d   1      -5.873   3.489  -4.453  0.00  0.00    -0.031 A 
ATOM      4  C4  IND d   1      -3.791   3.778  -2.967  0.00  0.00     0.051 A 
ATOM      5  C5  IND d   1      -2.484   3.393  -2.856  0.00  0.00    -0.031 A 
ATOM      6  C6  IND d   1      -1.874   2.602  -3.809  0.00  0.00     0.015 A 
ATOM      7  C7  IND d   1      -2.548   2.175  -4.918  0.00  0.00    -0.016 A 
ATOM      8  C8  IND d   1      -3.877   2.558  -5.030  0.00  0.00    -0.047 A 
ATOM      9  C9  IND d   1      -4.513   3.325  -4.045  0.00  0.00    -0.096 A 
ATOM     10  HN1 IND d   1      -4.676   1.813  -6.711  0.00  0.00     0.298 HD
ENDROOT
TORSDOF 0
ENDMDL
