MODEL 1
REMARK minimizedAffinity 1.49854767
REMARK minimizedRMSD -1
REMARK  0 active torsions:
REMARK  status: ('A' for Active; 'I' for Inactive)
ROOT
ATOM      1  N1  IND d   1      -3.191  -0.372  -3.196  0.00  0.00    -0.196 N 
ATOM      2  C2  IND d   1      -2.692   0.207  -4.329  0.00  0.00     0.054 A 
ATOM      3  C3  IND d   1      -3.328   1.373  -4.581  0.00  0.00    -0.031 A 
ATOM      4  C4  IND d   1      -5.150   2.571  -3.212  0.00  0.00     0.051 A 
ATOM      5  C5  IND d   1      -5.954   2.413  -2.119  0.00  0.00    -0.031 A 
ATOM      6  C6  IND d   1      -5.875   1.297  -1.310  0.00  0.00     0.015 A 
ATOM      7  C7  IND d   1      -4.977   0.299  -1.560  0.00  0.00    -0.016 A 
ATOM      8  C8  IND d   1      -4.163   0.452  -2.674  0.00  0.00    -0.047 A 
ATOM      9  C9  IND d   1      -4.268   1.562  -3.522  0.00  0.00    -0.096 A 
ATOM     10  HN1 IND d   1      -2.940  -1.125  -2.865  0.00  0.00     0.298 HD
ENDROOT
TORSDOF 0
ENDMDL
