MODEL 1
REMARK minimizedAffinity 4.08387375
REMARK minimizedRMSD -1
REMARK  0 active torsions:
REMARK  status: ('A' for Active; 'I' for Inactive)
ROOT
ATOM      1  N1  IND d   1      -3.061   3.436  -4.436  0.00  0.00    -0.196 N 
ATOM      2  C2  IND d   1      -2.199   3.450  -3.375  0.00  0.00     0.054 A 
ATOM      3  C3  IND d   1      -2.497   2.450  -2.514  0.00  0.00    -0.031 A 
ATOM      4  C4  IND d   1      -4.291   0.613  -2.700  0.00  0.00     0.051 A 
ATOM      5  C5  IND d   1      -5.343   0.209  -3.473  0.00  0.00    -0.031 A 
ATOM      6  C6  IND d   1      -5.694   0.872  -4.632  0.00  0.00     0.015 A 
ATOM      7  C7  IND d   1      -4.995   1.961  -5.068  0.00  0.00    -0.016 A 
ATOM      8  C8  IND d   1      -3.930   2.379  -4.282  0.00  0.00    -0.047 A 
ATOM      9  C9  IND d   1      -3.596   1.736  -3.083  0.00  0.00    -0.096 A 
ATOM     10  HN1 IND d   1      -3.060   3.995  -5.090  0.00  0.00     0.298 HD
ENDROOT
TORSDOF 0
ENDMDL
