MODEL 1
REMARK minimizedAffinity 1.2822113
REMARK minimizedRMSD -1
REMARK  0 active torsions:
REMARK  status: ('A' for Active; 'I' for Inactive)
ROOT
ATOM      1  N1  IND d   1      -5.865   1.805  -2.283  0.00  0.00    -0.196 N 
ATOM      2  C2  IND d   1      -5.838   2.842  -3.174  0.00  0.00     0.054 A 
ATOM      3  C3  IND d   1      -4.754   2.743  -3.977  0.00  0.00    -0.031 A 
ATOM      4  C4  IND d   1      -2.949   0.910  -4.070  0.00  0.00     0.051 A 
ATOM      5  C5  IND d   1      -2.529  -0.222  -3.429  0.00  0.00    -0.031 A 
ATOM      6  C6  IND d   1      -3.215  -0.748  -2.354  0.00  0.00     0.015 A 
ATOM      7  C7  IND d   1      -4.358  -0.166  -1.884  0.00  0.00    -0.016 A 
ATOM      8  C8  IND d   1      -4.784   0.988  -2.528  0.00  0.00    -0.047 A 
ATOM      9  C9  IND d   1      -4.068   1.550  -3.593  0.00  0.00    -0.096 A 
ATOM     10  HN1 IND d   1      -6.458   1.685  -1.672  0.00  0.00     0.298 HD
ENDROOT
TORSDOF 0
ENDMDL
