MODEL 1
REMARK minimizedAffinity 2.7669754
REMARK minimizedRMSD -1
REMARK  0 active torsions:
REMARK  status: ('A' for Active; 'I' for Inactive)
ROOT
ATOM      1  N1  IND d   1      -3.726   3.777  -3.776  0.00  0.00    -0.196 N 
ATOM      2  C2  IND d   1      -4.873   4.465  -3.493  0.00  0.00     0.054 A 
ATOM      3  C3  IND d   1      -5.931   3.624  -3.467  0.00  0.00    -0.031 A 
ATOM      4  C4  IND d   1      -5.996   1.067  -3.758  0.00  0.00     0.051 A 
ATOM      5  C5  IND d   1      -5.204  -0.002  -4.071  0.00  0.00    -0.031 A 
ATOM      6  C6  IND d   1      -3.850   0.136  -4.302  0.00  0.00     0.015 A 
ATOM      7  C7  IND d   1      -3.234   1.353  -4.219  0.00  0.00    -0.016 A 
ATOM      8  C8  IND d   1      -4.037   2.442  -3.909  0.00  0.00    -0.047 A 
ATOM      9  C9  IND d   1      -5.418   2.314  -3.715  0.00  0.00    -0.096 A 
ATOM     10  HN1 IND d   1      -2.942   4.121  -3.856  0.00  0.00     0.298 HD
ENDROOT
TORSDOF 0
ENDMDL
