MODEL 1
REMARK minimizedAffinity 3.09175849
REMARK minimizedRMSD -1
REMARK  0 active torsions:
REMARK  status: ('A' for Active; 'I' for Inactive)
ROOT
ATOM      1  N1  IND d   1       4.912   2.632   1.095  0.00  0.00    -0.196 N 
ATOM      2  C2  IND d   1       6.000   2.175   0.405  0.00  0.00     0.054 A 
ATOM      3  C3  IND d   1       5.656   1.123  -0.372  0.00  0.00    -0.031 A 
ATOM      4  C4  IND d   1       3.345   0.050  -0.743  0.00  0.00     0.051 A 
ATOM      5  C5  IND d   1       2.052   0.099  -0.305  0.00  0.00    -0.031 A 
ATOM      6  C6  IND d   1       1.637   1.015   0.640  0.00  0.00     0.015 A 
ATOM      7  C7  IND d   1       2.501   1.928   1.175  0.00  0.00    -0.016 A 
ATOM      8  C8  IND d   1       3.817   1.877   0.737  0.00  0.00    -0.047 A 
ATOM      9  C9  IND d   1       4.253   0.922  -0.190  0.00  0.00    -0.096 A 
ATOM     10  HN1 IND d   1       4.912   3.282   1.658  0.00  0.00     0.298 HD
ENDROOT
TORSDOF 0
ENDMDL
