MODEL 1
REMARK minimizedAffinity 2.35865378
REMARK minimizedRMSD -1
REMARK  0 active torsions:
REMARK  status: ('A' for Active; 'I' for Inactive)
ROOT
ATOM      1  N1  IND d   1      -2.020   2.007  -3.413  0.00  0.00    -0.196 N 
ATOM      2  C2  IND d   1      -2.056   3.170  -2.696  0.00  0.00     0.054 A 
ATOM      3  C3  IND d   1      -3.333   3.582  -2.534  0.00  0.00    -0.031 A 
ATOM      4  C4  IND d   1      -5.524   2.451  -3.273  0.00  0.00     0.051 A 
ATOM      5  C5  IND d   1      -6.000   1.389  -3.991  0.00  0.00    -0.031 A 
ATOM      6  C6  IND d   1      -5.156   0.459  -4.562  0.00  0.00     0.015 A 
ATOM      7  C7  IND d   1      -3.799   0.550  -4.426  0.00  0.00    -0.016 A 
ATOM      8  C8  IND d   1      -3.313   1.630  -3.704  0.00  0.00    -0.047 A 
ATOM      9  C9  IND d   1      -4.163   2.601  -3.158  0.00  0.00    -0.096 A 
ATOM     10  HN1 IND d   1      -1.309   1.581  -3.644  0.00  0.00     0.298 HD
ENDROOT
TORSDOF 0
ENDMDL
