MODEL 1
REMARK minimizedAffinity 8.34357548
REMARK minimizedRMSD -1
REMARK  0 active torsions:
REMARK  status: ('A' for Active; 'I' for Inactive)
ROOT
ATOM      1  N1  IND d   1       2.677   0.536  -0.914  0.00  0.00    -0.196 N 
ATOM      2  C2  IND d   1       1.738   0.786   0.048  0.00  0.00     0.054 A 
ATOM      3  C3  IND d   1       2.238   1.618   0.989  0.00  0.00    -0.031 A 
ATOM      4  C4  IND d   1       4.537   2.771   1.097  0.00  0.00     0.051 A 
ATOM      5  C5  IND d   1       5.747   2.823   0.463  0.00  0.00    -0.031 A 
ATOM      6  C6  IND d   1       5.999   2.103  -0.686  0.00  0.00     0.015 A 
ATOM      7  C7  IND d   1       5.043   1.309  -1.254  0.00  0.00    -0.016 A 
ATOM      8  C8  IND d   1       3.816   1.249  -0.610  0.00  0.00    -0.047 A 
ATOM      9  C9  IND d   1       3.568   1.944   0.581  0.00  0.00    -0.096 A 
ATOM     10  HN1 IND d   1       2.573   0.021  -1.594  0.00  0.00     0.298 HD
ENDROOT
TORSDOF 0
ENDMDL
