MODEL 1
REMARK minimizedAffinity 3.90448713
REMARK minimizedRMSD -1
REMARK  0 active torsions:
REMARK  status: ('A' for Active; 'I' for Inactive)
ROOT
ATOM      1  N1  IND d   1      -3.753   1.592  -3.677  0.00  0.00    -0.196 N 
ATOM      2  C2  IND d   1      -3.185   0.364  -3.868  0.00  0.00     0.054 A 
ATOM      3  C3  IND d   1      -3.567  -0.489  -2.891  0.00  0.00    -0.031 A 
ATOM      4  C4  IND d   1      -5.199  -0.109  -0.936  0.00  0.00     0.051 A 
ATOM      5  C5  IND d   1      -5.942   0.862  -0.326  0.00  0.00    -0.031 A 
ATOM      6  C6  IND d   1      -5.996   2.152  -0.813  0.00  0.00     0.015 A 
ATOM      7  C7  IND d   1      -5.316   2.517  -1.940  0.00  0.00    -0.016 A 
ATOM      8  C8  IND d   1      -4.555   1.535  -2.559  0.00  0.00    -0.047 A 
ATOM      9  C9  IND d   1      -4.462   0.235  -2.045  0.00  0.00    -0.096 A 
ATOM     10  HN1 IND d   1      -3.631   2.284  -4.173  0.00  0.00     0.298 HD
ENDROOT
TORSDOF 0
ENDMDL
