MODEL 1
REMARK minimizedAffinity 5.25618553
REMARK minimizedRMSD -1
REMARK  0 active torsions:
REMARK  status: ('A' for Active; 'I' for Inactive)
ROOT
ATOM      1  N1  IND d   1      -5.251  -0.142  -0.962  0.00  0.00    -0.196 N 
ATOM      2  C2  IND d   1      -5.999   0.764  -0.264  0.00  0.00     0.054 A 
ATOM      3  C3  IND d   1      -5.999   1.960  -0.894  0.00  0.00    -0.031 A 
ATOM      4  C4  IND d   1      -4.922   2.627  -3.135  0.00  0.00     0.051 A 
ATOM      5  C5  IND d   1      -4.106   2.151  -4.122  0.00  0.00    -0.031 A 
ATOM      6  C6  IND d   1      -3.622   0.858  -4.108  0.00  0.00     0.015 A 
ATOM      7  C7  IND d   1      -3.947  -0.013  -3.107  0.00  0.00    -0.016 A 
ATOM      8  C8  IND d   1      -4.770   0.470  -2.099  0.00  0.00    -0.047 A 
ATOM      9  C9  IND d   1      -5.229   1.793  -2.086  0.00  0.00    -0.096 A 
ATOM     10  HN1 IND d   1      -5.105  -0.957  -0.730  0.00  0.00     0.298 HD
ENDROOT
TORSDOF 0
ENDMDL
