MODEL 1
REMARK minimizedAffinity 7.47365141
REMARK minimizedRMSD -1
REMARK  0 active torsions:
REMARK  status: ('A' for Active; 'I' for Inactive)
ROOT
ATOM      1  N1  IND d   1      -5.776   1.786  -1.351  0.00  0.00    -0.196 N 
ATOM      2  C2  IND d   1      -6.000   0.645  -0.633  0.00  0.00     0.054 A 
ATOM      3  C3  IND d   1      -5.240  -0.367  -1.109  0.00  0.00    -0.031 A 
ATOM      4  C4  IND d   1      -3.484  -0.348  -2.992  0.00  0.00     0.051 A 
ATOM      5  C5  IND d   1      -2.955   0.455  -3.963  0.00  0.00    -0.031 A 
ATOM      6  C6  IND d   1      -3.345   1.770  -4.114  0.00  0.00     0.015 A 
ATOM      7  C7  IND d   1      -4.275   2.337  -3.289  0.00  0.00    -0.016 A 
ATOM      8  C8  IND d   1      -4.819   1.523  -2.306  0.00  0.00    -0.047 A 
ATOM      9  C9  IND d   1      -4.459   0.176  -2.175  0.00  0.00    -0.096 A 
ATOM     10  HN1 IND d   1      -6.167   2.542  -1.226  0.00  0.00     0.298 HD
ENDROOT
TORSDOF 0
ENDMDL
