MODEL 1
REMARK minimizedAffinity 6.40640879
REMARK minimizedRMSD -1
REMARK  0 active torsions:
REMARK  status: ('A' for Active; 'I' for Inactive)
ROOT
ATOM      1  N1  IND d   1      -4.439   3.994  -3.004  0.00  0.00    -0.196 N 
ATOM      2  C2  IND d   1      -3.079   4.085  -2.906  0.00  0.00     0.054 A 
ATOM      3  C3  IND d   1      -2.499   2.937  -3.321  0.00  0.00    -0.031 A 
ATOM      4  C4  IND d   1      -3.585   0.816  -4.297  0.00  0.00     0.051 A 
ATOM      5  C5  IND d   1      -4.802   0.248  -4.548  0.00  0.00    -0.031 A 
ATOM      6  C6  IND d   1      -5.984   0.913  -4.295  0.00  0.00     0.015 A 
ATOM      7  C7  IND d   1      -5.993   2.182  -3.789  0.00  0.00    -0.016 A 
ATOM      8  C8  IND d   1      -4.759   2.760  -3.526  0.00  0.00    -0.047 A 
ATOM      9  C9  IND d   1      -3.557   2.074  -3.741  0.00  0.00    -0.096 A 
ATOM     10  HN1 IND d   1      -5.000   4.605  -2.777  0.00  0.00     0.298 HD
ENDROOT
TORSDOF 0
ENDMDL
