MODEL 1
REMARK minimizedAffinity -1.03977823
REMARK minimizedRMSD -1
REMARK  0 active torsions:
REMARK  status: ('A' for Active; 'I' for Inactive)
ROOT
ATOM      1  C4' PXY d   1      -2.083  -1.796  -5.947  0.00  0.00     0.077 C 
ATOM      2  C1' PXY d   1       1.656   1.595  -3.130  0.00  0.00     0.077 C 
ATOM      3  C1  PXY d   1       0.668   0.716  -3.872  0.00  0.00    -0.082 A 
ATOM      4  C2  PXY d   1       0.523  -0.550  -3.516  0.00  0.00     0.003 A 
ATOM      5  C3  PXY d   1      -0.342  -1.367  -4.198  0.00  0.00     0.003 A 
ATOM      6  C4  PXY d   1      -1.105  -0.869  -5.220  0.00  0.00    -0.082 A 
ATOM      7  C5  PXY d   1      -0.970   0.424  -5.582  0.00  0.00     0.003 A 
ATOM      8  C6  PXY d   1      -0.057   1.226  -4.905  0.00  0.00     0.003 A 
ENDROOT
TORSDOF 0
ENDMDL
