MODEL 1
REMARK minimizedAffinity -3.71174431
REMARK minimizedRMSD -1
REMARK  0 active torsions:
REMARK  status: ('A' for Active; 'I' for Inactive)
ROOT
ATOM      1  C4' PXY d   1       0.674   0.089  -2.694  0.00  0.00     0.077 C 
ATOM      2  C1' PXY d   1      -1.468  -0.182   2.669  0.00  0.00     0.077 C 
ATOM      3  C1  PXY d   1      -0.906  -0.124   1.262  0.00  0.00    -0.082 A 
ATOM      4  C2  PXY d   1      -0.233   0.945   0.870  0.00  0.00     0.003 A 
ATOM      5  C3  PXY d   1       0.254   1.028  -0.409  0.00  0.00     0.003 A 
ATOM      6  C4  PXY d   1       0.097  -0.017  -1.279  0.00  0.00    -0.082 A 
ATOM      7  C5  PXY d   1      -0.580  -1.116  -0.884  0.00  0.00     0.003 A 
ATOM      8  C6  PXY d   1      -1.102  -1.163   0.405  0.00  0.00     0.003 A 
ENDROOT
TORSDOF 0
ENDMDL
