MODEL 1
REMARK minimizedAffinity -3.84405398
REMARK minimizedRMSD -1
REMARK  0 active torsions:
REMARK  status: ('A' for Active; 'I' for Inactive)
ROOT
ATOM      1  C4' PXY d   1       1.451  -0.149  -3.149  0.00  0.00     0.077 C 
ATOM      2  C1' PXY d   1      -1.713   0.344   1.663  0.00  0.00     0.077 C 
ATOM      3  C1  PXY d   1      -0.874   0.208   0.408  0.00  0.00    -0.082 A 
ATOM      4  C2  PXY d   1      -1.012   1.090  -0.569  0.00  0.00     0.003 A 
ATOM      5  C3  PXY d   1      -0.284   0.963  -1.724  0.00  0.00     0.003 A 
ATOM      6  C4  PXY d   1       0.632  -0.045  -1.859  0.00  0.00    -0.082 A 
ATOM      7  C5  PXY d   1       0.785  -0.942  -0.863  0.00  0.00     0.003 A 
ATOM      8  C6  PXY d   1       0.008  -0.820   0.285  0.00  0.00     0.003 A 
ENDROOT
TORSDOF 0
ENDMDL
