MODEL 1
REMARK minimizedAffinity -5.13195467
REMARK minimizedRMSD -1
REMARK  0 active torsions:
REMARK  status: ('A' for Active; 'I' for Inactive)
ROOT
ATOM      1  C4' PXY d   1       0.682  -0.759  -1.883  0.00  0.00     0.077 C 
ATOM      2  C1' PXY d   1      -0.650   0.966   3.471  0.00  0.00     0.077 C 
ATOM      3  C1  PXY d   1      -0.288   0.516   2.069  0.00  0.00    -0.082 A 
ATOM      4  C2  PXY d   1      -1.198   0.568   1.110  0.00  0.00     0.003 A 
ATOM      5  C3  PXY d   1      -0.897   0.135  -0.156  0.00  0.00     0.003 A 
ATOM      6  C4  PXY d   1       0.364  -0.306  -0.456  0.00  0.00    -0.082 A 
ATOM      7  C5  PXY d   1       1.301  -0.352   0.515  0.00  0.00     0.003 A 
ATOM      8  C6  PXY d   1       0.964   0.053   1.803  0.00  0.00     0.003 A 
ENDROOT
TORSDOF 0
ENDMDL
