MODEL 1
REMARK minimizedAffinity -5.41325474
REMARK minimizedRMSD -1
REMARK  0 active torsions:
REMARK  status: ('A' for Active; 'I' for Inactive)
ROOT
ATOM      1  C4' PXY d   1       1.133  -0.212  -2.074  0.00  0.00     0.077 C 
ATOM      2  C1' PXY d   1      -1.197   0.704   3.137  0.00  0.00     0.077 C 
ATOM      3  C1  PXY d   1      -0.575   0.467   1.775  0.00  0.00    -0.082 A 
ATOM      4  C2  PXY d   1      -1.326   0.548   0.689  0.00  0.00     0.003 A 
ATOM      5  C3  PXY d   1      -0.786   0.305  -0.548  0.00  0.00     0.003 A 
ATOM      6  C4  PXY d   1       0.548   0.029  -0.679  0.00  0.00    -0.082 A 
ATOM      7  C5  PXY d   1       1.324  -0.045   0.424  0.00  0.00     0.003 A 
ATOM      8  C6  PXY d   1       0.748   0.164   1.673  0.00  0.00     0.003 A 
ENDROOT
TORSDOF 0
ENDMDL
