MODEL 1
REMARK minimizedAffinity 0.230937064
REMARK minimizedRMSD -1
REMARK  0 active torsions:
REMARK  status: ('A' for Active; 'I' for Inactive)
ROOT
ATOM      1  C4' PXY d   1       0.938  -0.378  -1.759  0.00  0.00     0.077 C 
ATOM      2  C1' PXY d   1      -0.607   0.362   3.762  0.00  0.00     0.077 C 
ATOM      3  C1  PXY d   1      -0.189   0.170   2.318  0.00  0.00    -0.082 A 
ATOM      4  C2  PXY d   1      -1.058   0.406   1.349  0.00  0.00     0.003 A 
ATOM      5  C3  PXY d   1      -0.707   0.207   0.038  0.00  0.00     0.003 A 
ATOM      6  C4  PXY d   1       0.563  -0.188  -0.286  0.00  0.00    -0.082 A 
ATOM      7  C5  PXY d   1       1.459  -0.421   0.696  0.00  0.00     0.003 A 
ATOM      8  C6  PXY d   1       1.070  -0.253   2.022  0.00  0.00     0.003 A 
ENDROOT
TORSDOF 0
ENDMDL
