MODEL 1
REMARK minimizedAffinity -2.75887775
REMARK minimizedRMSD -1
REMARK  0 active torsions:
REMARK  status: ('A' for Active; 'I' for Inactive)
ROOT
ATOM      1  C4' PXY d   1      -1.312  -0.256   0.306  0.00  0.00     0.077 C 
ATOM      2  C1' PXY d   1       2.249   0.071  -4.236  0.00  0.00     0.077 C 
ATOM      3  C1  PXY d   1       1.315  -0.028  -3.046  0.00  0.00    -0.082 A 
ATOM      4  C2  PXY d   1       0.558   1.007  -2.721  0.00  0.00     0.003 A 
ATOM      5  C3  PXY d   1      -0.269   0.946  -1.629  0.00  0.00     0.003 A 
ATOM      6  C4  PXY d   1      -0.361  -0.205  -0.893  0.00  0.00    -0.082 A 
ATOM      7  C5  PXY d   1       0.401  -1.269  -1.224  0.00  0.00     0.003 A 
ATOM      8  C6  PXY d   1       1.264  -1.172  -2.311  0.00  0.00     0.003 A 
ENDROOT
TORSDOF 0
ENDMDL
