MODEL 1
REMARK minimizedAffinity -3.96396637
REMARK minimizedRMSD -1
REMARK  0 active torsions:
REMARK  status: ('A' for Active; 'I' for Inactive)
ROOT
ATOM      1  C4' PXY d   1       1.607  -0.455   0.975  0.00  0.00     0.077 C 
ATOM      2  C1' PXY d   1       0.774   0.370  -4.685  0.00  0.00     0.077 C 
ATOM      3  C1  PXY d   1       0.980   0.152  -3.199  0.00  0.00    -0.082 A 
ATOM      4  C2  PXY d   1       2.071   0.619  -2.614  0.00  0.00     0.003 A 
ATOM      5  C3  PXY d   1       2.288   0.404  -1.278  0.00  0.00     0.003 A 
ATOM      6  C4  PXY d   1       1.353  -0.251  -0.521  0.00  0.00    -0.082 A 
ATOM      7  C5  PXY d   1       0.233  -0.721  -1.108  0.00  0.00     0.003 A 
ATOM      8  C6  PXY d   1       0.050  -0.528  -2.474  0.00  0.00     0.003 A 
ENDROOT
TORSDOF 0
ENDMDL
