MODEL 1
REMARK minimizedAffinity -2.31230092
REMARK minimizedRMSD -1
REMARK  0 active torsions:
REMARK  status: ('A' for Active; 'I' for Inactive)
ROOT
ATOM      1  C4' PXY d   1       0.887  -0.061  -3.299  0.00  0.00     0.077 C 
ATOM      2  C1' PXY d   1      -1.549   0.327   1.929  0.00  0.00     0.077 C 
ATOM      3  C1  PXY d   1      -0.910   0.213   0.559  0.00  0.00    -0.082 A 
ATOM      4  C2  PXY d   1      -0.258   1.247   0.053  0.00  0.00     0.003 A 
ATOM      5  C3  PXY d   1       0.299   1.171  -1.198  0.00  0.00     0.003 A 
ATOM      6  C4  PXY d   1       0.234   0.007  -1.916  0.00  0.00    -0.082 A 
ATOM      7  C5  PXY d   1      -0.420  -1.056  -1.402  0.00  0.00     0.003 A 
ATOM      8  C6  PXY d   1      -1.014  -0.945  -0.148  0.00  0.00     0.003 A 
ENDROOT
TORSDOF 0
ENDMDL
