MODEL 1
REMARK minimizedAffinity -1.75609183
REMARK minimizedRMSD -1
REMARK  0 active torsions:
REMARK  status: ('A' for Active; 'I' for Inactive)
ROOT
ATOM      1  C4' PXY d   1       0.367  -0.008  -2.407  0.00  0.00     0.077 C 
ATOM      2  C1' PXY d   1      -1.089   0.459   3.168  0.00  0.00     0.077 C 
ATOM      3  C1  PXY d   1      -0.695   0.339   1.709  0.00  0.00    -0.082 A 
ATOM      4  C2  PXY d   1      -1.598   0.556   0.767  0.00  0.00     0.003 A 
ATOM      5  C3  PXY d   1      -1.267   0.420  -0.556  0.00  0.00     0.003 A 
ATOM      6  C4  PXY d   1       0.016   0.111  -0.921  0.00  0.00    -0.082 A 
ATOM      7  C5  PXY d   1       0.947  -0.101   0.034  0.00  0.00     0.003 A 
ATOM      8  C6  PXY d   1       0.580   0.002   1.372  0.00  0.00     0.003 A 
ENDROOT
TORSDOF 0
ENDMDL
