MODEL 1
REMARK minimizedAffinity -3.1050365
REMARK minimizedRMSD -1
REMARK  0 active torsions:
REMARK  status: ('A' for Active; 'I' for Inactive)
ROOT
ATOM      1  C4' PXY d   1       0.876  -0.075  -2.841  0.00  0.00     0.077 C 
ATOM      2  C1' PXY d   1      -1.724   0.648   2.271  0.00  0.00     0.077 C 
ATOM      3  C1  PXY d   1      -1.031   0.456   0.936  0.00  0.00    -0.082 A 
ATOM      4  C2  PXY d   1      -1.522   1.038  -0.145  0.00  0.00     0.003 A 
ATOM      5  C3  PXY d   1      -0.926   0.849  -1.366  0.00  0.00     0.003 A 
ATOM      6  C4  PXY d   1       0.215   0.099  -1.471  0.00  0.00    -0.082 A 
ATOM      7  C5  PXY d   1       0.728  -0.490  -0.370  0.00  0.00     0.003 A 
ATOM      8  C6  PXY d   1       0.084  -0.319   0.852  0.00  0.00     0.003 A 
ENDROOT
TORSDOF 0
ENDMDL
