MODEL 1
REMARK minimizedAffinity -1.49453533
REMARK minimizedRMSD -1
REMARK  0 active torsions:
REMARK  status: ('A' for Active; 'I' for Inactive)
ROOT
ATOM      1  C4' PXY d   1      -2.963   0.628   0.024  0.00  0.00     0.077 C 
ATOM      2  C1' PXY d   1       2.277  -0.413   2.231  0.00  0.00     0.077 C 
ATOM      3  C1  PXY d   1       0.898  -0.142   1.664  0.00  0.00    -0.082 A 
ATOM      4  C2  PXY d   1       0.659  -0.374   0.384  0.00  0.00     0.003 A 
ATOM      5  C3  PXY d   1      -0.573  -0.104  -0.153  0.00  0.00     0.003 A 
ATOM      6  C4  PXY d   1      -1.588   0.360   0.642  0.00  0.00    -0.082 A 
ATOM      7  C5  PXY d   1      -1.355   0.589   1.951  0.00  0.00     0.003 A 
ATOM      8  C6  PXY d   1      -0.086   0.347   2.467  0.00  0.00     0.003 A 
ENDROOT
TORSDOF 0
ENDMDL
