MODEL 1
REMARK minimizedAffinity -2.70407748
REMARK minimizedRMSD -1
REMARK  0 active torsions:
REMARK  status: ('A' for Active; 'I' for Inactive)
ROOT
ATOM      1  C4' PXY d   1       1.807   0.501  -3.840  0.00  0.00     0.077 C 
ATOM      2  C1' PXY d   1      -1.407  -0.368   0.885  0.00  0.00     0.077 C 
ATOM      3  C1  PXY d   1      -0.573  -0.132  -0.358  0.00  0.00    -0.082 A 
ATOM      4  C2  PXY d   1       0.253  -1.075  -0.781  0.00  0.00     0.003 A 
ATOM      5  C3  PXY d   1       1.039  -0.865  -1.885  0.00  0.00     0.003 A 
ATOM      6  C4  PXY d   1       0.939   0.302  -2.595  0.00  0.00    -0.082 A 
ATOM      7  C5  PXY d   1       0.090   1.264  -2.176  0.00  0.00     0.003 A 
ATOM      8  C6  PXY d   1      -0.668   1.048  -1.029  0.00  0.00     0.003 A 
ENDROOT
TORSDOF 0
ENDMDL
