MODEL 1
REMARK minimizedAffinity 11.2925844
REMARK minimizedRMSD -1
REMARK  0 active torsions:
REMARK  status: ('A' for Active; 'I' for Inactive)
ROOT
ATOM      1  C   UNL d   1      -0.550  -0.960   4.274  0.00  0.00    -0.002 A 
ATOM      2  C1  UNL d   1       0.741  -0.975   3.765  0.00  0.00     0.010 A 
ATOM      3  C2  UNL d   1       0.987  -0.600   2.442  0.00  0.00     0.041 A 
ATOM      4  C3  UNL d   1      -0.096  -0.204   1.633  0.00  0.00    -0.075 A 
ATOM      5  S   UNL d   1      -0.034   0.297  -0.015  0.00  0.00     0.015 SA
ATOM      6  C4  UNL d   1      -1.719   0.544  -0.082  0.00  0.00     0.022 A 
ATOM      7  C5  UNL d   1      -2.330   0.255   1.116  0.00  0.00     0.026 A 
ATOM      8  C6  UNL d   1      -1.405  -0.180   2.124  0.00  0.00    -0.082 A 
ATOM      9  C7  UNL d   1      -1.622  -0.567   3.468  0.00  0.00     0.045 A 
ENDROOT
TORSDOF 0
ENDMDL
