MODEL 1
REMARK minimizedAffinity 0.864742339
REMARK minimizedRMSD -1
REMARK  0 active torsions:
REMARK  status: ('A' for Active; 'I' for Inactive)
ROOT
ATOM      1  C   UNL d   1      -1.623  -0.988   4.358  0.00  0.00    -0.002 A 
ATOM      2  C1  UNL d   1      -0.326  -1.474   4.436  0.00  0.00     0.010 A 
ATOM      3  C2  UNL d   1       0.527  -1.404   3.333  0.00  0.00     0.041 A 
ATOM      4  C3  UNL d   1       0.050  -0.830   2.139  0.00  0.00    -0.075 A 
ATOM      5  S   UNL d   1       0.916  -0.636   0.660  0.00  0.00     0.015 SA
ATOM      6  C4  UNL d   1      -0.416   0.098  -0.110  0.00  0.00     0.022 A 
ATOM      7  C5  UNL d   1      -1.502   0.201   0.726  0.00  0.00     0.026 A 
ATOM      8  C6  UNL d   1      -1.252  -0.332   2.036  0.00  0.00    -0.082 A 
ATOM      9  C7  UNL d   1      -2.092  -0.418   3.171  0.00  0.00     0.045 A 
ENDROOT
TORSDOF 0
ENDMDL
