MODEL 1
REMARK minimizedAffinity 4.63405085
REMARK minimizedRMSD -1
REMARK  0 active torsions:
REMARK  status: ('A' for Active; 'I' for Inactive)
ROOT
ATOM      1  C   UNL d   1      -1.277  -2.371   4.654  0.00  0.00    -0.002 A 
ATOM      2  C1  UNL d   1      -0.050  -1.726   4.608  0.00  0.00     0.010 A 
ATOM      3  C2  UNL d   1       0.206  -0.755   3.637  0.00  0.00     0.041 A 
ATOM      4  C3  UNL d   1      -0.803  -0.440   2.706  0.00  0.00    -0.075 A 
ATOM      5  S   UNL d   1      -0.715   0.716   1.429  0.00  0.00     0.015 SA
ATOM      6  C4  UNL d   1      -2.306   0.380   0.916  0.00  0.00     0.022 A 
ATOM      7  C5  UNL d   1      -2.904  -0.587   1.689  0.00  0.00     0.026 A 
ATOM      8  C6  UNL d   1      -2.048  -1.076   2.733  0.00  0.00    -0.082 A 
ATOM      9  C7  UNL d   1      -2.276  -2.056   3.729  0.00  0.00     0.045 A 
ENDROOT
TORSDOF 0
ENDMDL
