MODEL 1
REMARK minimizedAffinity -1.86607778
REMARK minimizedRMSD -1
REMARK  1 active torsions:
REMARK  status: ('A' for Active; 'I' for Inactive)
REMARK    1  A    between atoms: N_2  and  C1_3 
ROOT
ATOM      1  C1  UNL d   1      -0.152  -0.882   0.179  0.00  0.00     0.143 A 
ATOM      2  C2  UNL d   1      -1.044  -0.411   1.148  0.00  0.00    -0.057 A 
ATOM      3  C3  UNL d   1      -1.928  -1.277   1.803  0.00  0.00     0.033 A 
ATOM      4  C4  UNL d   1      -1.955  -2.629   1.478  0.00  0.00    -0.042 A 
ATOM      5  C5  UNL d   1      -1.094  -3.115   0.500  0.00  0.00     0.033 A 
ATOM      6  C6  UNL d   1      -0.209  -2.246  -0.146  0.00  0.00    -0.057 A 
ENDROOT
BRANCH   1   7
ATOM      7  N   UNL d   1       0.682  -0.054  -0.578  0.00  0.00    -0.732 N 
ATOM      8  C   UNL d   1       0.715  -0.163  -2.021  0.00  0.00     0.284 C 
ATOM      9  H3  UNL d   1       0.697   0.902  -0.232  0.00  0.00     0.395 HD
ENDBRANCH   1   7
TORSDOF 1
ENDMDL
