MODEL 1
REMARK minimizedAffinity -2.98203492
REMARK minimizedRMSD -1
REMARK  1 active torsions:
REMARK  status: ('A' for Active; 'I' for Inactive)
REMARK    1  A    between atoms: N_2  and  C1_3 
ROOT
ATOM      1  C1  UNL d   1      -0.084   0.355   0.418  0.00  0.00     0.143 A 
ATOM      2  C2  UNL d   1      -0.372   0.260  -0.947  0.00  0.00    -0.057 A 
ATOM      3  C3  UNL d   1      -0.258   1.371  -1.792  0.00  0.00     0.033 A 
ATOM      4  C4  UNL d   1       0.120   2.607  -1.279  0.00  0.00    -0.042 A 
ATOM      5  C5  UNL d   1       0.388   2.730   0.080  0.00  0.00     0.033 A 
ATOM      6  C6  UNL d   1       0.278   1.616   0.918  0.00  0.00    -0.057 A 
ENDROOT
BRANCH   1   7
ATOM      7  N   UNL d   1      -0.273  -0.689   1.328  0.00  0.00    -0.732 N 
ATOM      8  C   UNL d   1      -1.362  -1.627   1.157  0.00  0.00     0.284 C 
ATOM      9  H3  UNL d   1       0.604  -1.118   1.615  0.00  0.00     0.395 HD
ENDBRANCH   1   7
TORSDOF 1
ENDMDL
