MODEL 1
REMARK minimizedAffinity -0.872965634
REMARK minimizedRMSD -1
REMARK  1 active torsions:
REMARK  status: ('A' for Active; 'I' for Inactive)
REMARK    1  A    between atoms: N_2  and  C1_3 
ROOT
ATOM      1  C1  UNL d   1       1.294   0.677   0.922  0.00  0.00     0.143 A 
ATOM      2  C2  UNL d   1       1.052  -0.285   1.908  0.00  0.00    -0.057 A 
ATOM      3  C3  UNL d   1       0.065  -1.265   1.740  0.00  0.00     0.033 A 
ATOM      4  C4  UNL d   1      -0.719  -1.281   0.592  0.00  0.00    -0.042 A 
ATOM      5  C5  UNL d   1      -0.513  -0.319  -0.391  0.00  0.00     0.033 A 
ATOM      6  C6  UNL d   1       0.478   0.653  -0.220  0.00  0.00    -0.057 A 
ENDROOT
BRANCH   1   7
ATOM      7  N   UNL d   1       2.193   1.736   1.073  0.00  0.00    -0.732 N 
ATOM      8  C   UNL d   1       1.822   3.079   0.683  0.00  0.00     0.284 C 
ATOM      9  H3  UNL d   1       2.710   1.685   1.947  0.00  0.00     0.395 HD
ENDBRANCH   1   7
TORSDOF 1
ENDMDL
