MODEL 1
REMARK minimizedAffinity -4.86220598
REMARK minimizedRMSD -1
REMARK  1 active torsions:
REMARK  status: ('A' for Active; 'I' for Inactive)
REMARK    1  A    between atoms: N_2  and  C1_3 
ROOT
ATOM      1  C1  UNL d   1       0.016  -0.026   0.309  0.00  0.00     0.143 A 
ATOM      2  C2  UNL d   1      -1.179  -0.502   0.858  0.00  0.00    -0.057 A 
ATOM      3  C3  UNL d   1      -1.402  -1.874   1.032  0.00  0.00     0.033 A 
ATOM      4  C4  UNL d   1      -0.442  -2.797   0.631  0.00  0.00    -0.042 A 
ATOM      5  C5  UNL d   1       0.743  -2.347   0.060  0.00  0.00     0.033 A 
ATOM      6  C6  UNL d   1       0.963  -0.977  -0.105  0.00  0.00    -0.057 A 
ENDROOT
BRANCH   1   7
ATOM      7  N   UNL d   1       0.258   1.319   0.019  0.00  0.00    -0.732 N 
ATOM      8  C   UNL d   1       1.300   2.047   0.711  0.00  0.00     0.284 C 
ATOM      9  H3  UNL d   1       0.202   1.518  -0.977  0.00  0.00     0.395 HD
ENDBRANCH   1   7
TORSDOF 1
ENDMDL
