MODEL 1
REMARK minimizedAffinity -3.6674788
REMARK minimizedRMSD -1
REMARK  1 active torsions:
REMARK  status: ('A' for Active; 'I' for Inactive)
REMARK    1  A    between atoms: N_2  and  C1_3 
ROOT
ATOM      1  C1  UNL d   1      -0.488  -0.427   0.279  0.00  0.00     0.143 A 
ATOM      2  C2  UNL d   1       0.078  -1.702   0.178  0.00  0.00    -0.057 A 
ATOM      3  C3  UNL d   1      -0.471  -2.796   0.859  0.00  0.00     0.033 A 
ATOM      4  C4  UNL d   1      -1.581  -2.626   1.680  0.00  0.00    -0.042 A 
ATOM      5  C5  UNL d   1      -2.145  -1.363   1.815  0.00  0.00     0.033 A 
ATOM      6  C6  UNL d   1      -1.597  -0.276   1.126  0.00  0.00    -0.057 A 
ENDROOT
BRANCH   1   7
ATOM      7  N   UNL d   1       0.068   0.719  -0.295  0.00  0.00    -0.732 N 
ATOM      8  C   UNL d   1       1.008   1.532   0.446  0.00  0.00     0.284 C 
ATOM      9  H3  UNL d   1       0.317   0.582  -1.272  0.00  0.00     0.395 HD
ENDBRANCH   1   7
TORSDOF 1
ENDMDL
