MODEL 1
REMARK minimizedAffinity -4.4430232
REMARK minimizedRMSD -1
REMARK  1 active torsions:
REMARK  status: ('A' for Active; 'I' for Inactive)
REMARK    1  A    between atoms: N_2  and  C1_3 
ROOT
ATOM      1  C1  UNL d   1      -2.815   0.542   0.880  0.00  0.00     0.143 A 
ATOM      2  C2  UNL d   1      -2.407  -0.489   1.733  0.00  0.00    -0.057 A 
ATOM      3  C3  UNL d   1      -1.096  -0.981   1.703  0.00  0.00     0.033 A 
ATOM      4  C4  UNL d   1      -0.176  -0.468   0.795  0.00  0.00    -0.042 A 
ATOM      5  C5  UNL d   1      -0.566   0.541  -0.079  0.00  0.00     0.033 A 
ATOM      6  C6  UNL d   1      -1.874   1.032  -0.039  0.00  0.00    -0.057 A 
ENDROOT
BRANCH   1   7
ATOM      7  N   UNL d   1      -4.130   1.006   0.794  0.00  0.00    -0.732 N 
ATOM      8  C   UNL d   1      -4.477   2.075  -0.117  0.00  0.00     0.284 C 
ATOM      9  H3  UNL d   1      -4.811   0.250   0.827  0.00  0.00     0.395 HD
ENDBRANCH   1   7
TORSDOF 1
ENDMDL
