MODEL 1
REMARK minimizedAffinity -4.13276911
REMARK minimizedRMSD -1
REMARK  1 active torsions:
REMARK  status: ('A' for Active; 'I' for Inactive)
REMARK    1  A    between atoms: N_2  and  C1_3 
ROOT
ATOM      1  C1  UNL d   1      -1.467  -0.725   1.415  0.00  0.00     0.143 A 
ATOM      2  C2  UNL d   1      -1.321  -2.116   1.391  0.00  0.00    -0.057 A 
ATOM      3  C3  UNL d   1      -0.385  -2.733   0.552  0.00  0.00     0.033 A 
ATOM      4  C4  UNL d   1       0.403  -1.969  -0.302  0.00  0.00    -0.042 A 
ATOM      5  C5  UNL d   1       0.258  -0.586  -0.312  0.00  0.00     0.033 A 
ATOM      6  C6  UNL d   1      -0.673   0.025   0.533  0.00  0.00    -0.057 A 
ENDROOT
BRANCH   1   7
ATOM      7  N   UNL d   1      -2.447  -0.059   2.155  0.00  0.00    -0.732 N 
ATOM      8  C   UNL d   1      -3.286   0.943   1.533  0.00  0.00     0.284 C 
ATOM      9  H3  UNL d   1      -2.942  -0.679   2.792  0.00  0.00     0.395 HD
ENDBRANCH   1   7
TORSDOF 1
ENDMDL
