MODEL 1
REMARK minimizedAffinity -2.55140686
REMARK minimizedRMSD -1
REMARK  1 active torsions:
REMARK  status: ('A' for Active; 'I' for Inactive)
REMARK    1  A    between atoms: N_2  and  C1_3 
ROOT
ATOM      1  C1  UNL d   1       0.398   0.503  -0.047  0.00  0.00     0.143 A 
ATOM      2  C2  UNL d   1      -0.476   0.244   1.014  0.00  0.00    -0.057 A 
ATOM      3  C3  UNL d   1      -0.879  -1.061   1.322  0.00  0.00     0.033 A 
ATOM      4  C4  UNL d   1      -0.435  -2.132   0.552  0.00  0.00    -0.042 A 
ATOM      5  C5  UNL d   1       0.414  -1.895  -0.523  0.00  0.00     0.033 A 
ATOM      6  C6  UNL d   1       0.818  -0.590  -0.821  0.00  0.00    -0.057 A 
ENDROOT
BRANCH   1   7
ATOM      7  N   UNL d   1       0.756   1.787  -0.464  0.00  0.00    -0.732 N 
ATOM      8  C   UNL d   1       1.781   2.530   0.237  0.00  0.00     0.284 C 
ATOM      9  H3  UNL d   1       0.804   1.868  -1.477  0.00  0.00     0.395 HD
ENDBRANCH   1   7
TORSDOF 1
ENDMDL
