MODEL 1
REMARK minimizedAffinity -3.78709245
REMARK minimizedRMSD -1
REMARK  1 active torsions:
REMARK  status: ('A' for Active; 'I' for Inactive)
REMARK    1  A    between atoms: N_2  and  C1_3 
ROOT
ATOM      1  C1  UNL d   1       0.460   1.709  -0.077  0.00  0.00     0.143 A 
ATOM      2  C2  UNL d   1       1.431   1.916   0.909  0.00  0.00    -0.057 A 
ATOM      3  C3  UNL d   1       2.417   2.899   0.762  0.00  0.00     0.033 A 
ATOM      4  C4  UNL d   1       2.467   3.675  -0.392  0.00  0.00    -0.042 A 
ATOM      5  C5  UNL d   1       1.528   3.469  -1.396  0.00  0.00     0.033 A 
ATOM      6  C6  UNL d   1       0.542   2.491  -1.240  0.00  0.00    -0.057 A 
ENDROOT
BRANCH   1   7
ATOM      7  N   UNL d   1      -0.486   0.682  -0.034  0.00  0.00    -0.732 N 
ATOM      8  C   UNL d   1      -0.078  -0.702  -0.154  0.00  0.00     0.284 C 
ATOM      9  H3  UNL d   1      -1.204   0.844   0.669  0.00  0.00     0.395 HD
ENDBRANCH   1   7
TORSDOF 1
ENDMDL
