MODEL 1
REMARK minimizedAffinity -4.3043437
REMARK minimizedRMSD -1
REMARK  1 active torsions:
REMARK  status: ('A' for Active; 'I' for Inactive)
REMARK    1  A    between atoms: N_2  and  C1_3 
ROOT
ATOM      1  C1  UNL d   1      -0.240  -0.306   0.495  0.00  0.00     0.143 A 
ATOM      2  C2  UNL d   1      -1.523  -0.784   0.781  0.00  0.00    -0.057 A 
ATOM      3  C3  UNL d   1      -1.769  -2.153   0.939  0.00  0.00     0.033 A 
ATOM      4  C4  UNL d   1      -0.737  -3.074   0.783  0.00  0.00    -0.042 A 
ATOM      5  C5  UNL d   1       0.541  -2.623   0.474  0.00  0.00     0.033 A 
ATOM      6  C6  UNL d   1       0.782  -1.254   0.324  0.00  0.00    -0.057 A 
ENDROOT
BRANCH   1   7
ATOM      7  N   UNL d   1       0.049   1.035   0.229  0.00  0.00    -0.732 N 
ATOM      8  C   UNL d   1       1.140   1.702   0.908  0.00  0.00     0.284 C 
ATOM      9  H3  UNL d   1      -0.024   1.260  -0.760  0.00  0.00     0.395 HD
ENDBRANCH   1   7
TORSDOF 1
ENDMDL
