MODEL 1
REMARK minimizedAffinity -3.90542603
REMARK minimizedRMSD -1
REMARK  1 active torsions:
REMARK  status: ('A' for Active; 'I' for Inactive)
REMARK    1  A    between atoms: N_2  and  C1_3 
ROOT
ATOM      1  C1  UNL d   1       0.034  -1.440  -0.461  0.00  0.00     0.143 A 
ATOM      2  C2  UNL d   1      -0.032  -0.305   0.354  0.00  0.00    -0.057 A 
ATOM      3  C3  UNL d   1      -0.801  -0.295   1.524  0.00  0.00     0.033 A 
ATOM      4  C4  UNL d   1      -1.542  -1.415   1.886  0.00  0.00    -0.042 A 
ATOM      5  C5  UNL d   1      -1.511  -2.546   1.079  0.00  0.00     0.033 A 
ATOM      6  C6  UNL d   1      -0.736  -2.552  -0.085  0.00  0.00    -0.057 A 
ENDROOT
BRANCH   1   7
ATOM      7  N   UNL d   1       0.701  -1.480  -1.688  0.00  0.00    -0.732 N 
ATOM      8  C   UNL d   1       0.380  -0.531  -2.732  0.00  0.00     0.284 C 
ATOM      9  H3  UNL d   1       1.697  -1.661  -1.583  0.00  0.00     0.395 HD
ENDBRANCH   1   7
TORSDOF 1
ENDMDL
