MODEL 1
REMARK minimizedAffinity 9.40799999
REMARK minimizedRMSD -1
REMARK  1 active torsions:
REMARK  status: ('A' for Active; 'I' for Inactive)
REMARK    1  A    between atoms: N_2  and  C1_3 
ROOT
ATOM      1  C1  UNL d   1       0.804   2.701   0.298  0.00  0.00     0.143 A 
ATOM      2  C2  UNL d   1       0.289   3.328   1.438  0.00  0.00    -0.057 A 
ATOM      3  C3  UNL d   1       0.963   4.392   2.049  0.00  0.00     0.033 A 
ATOM      4  C4  UNL d   1       2.183   4.831   1.545  0.00  0.00    -0.042 A 
ATOM      5  C5  UNL d   1       2.726   4.207   0.428  0.00  0.00     0.033 A 
ATOM      6  C6  UNL d   1       2.045   3.149  -0.181  0.00  0.00    -0.057 A 
ENDROOT
BRANCH   1   7
ATOM      7  N   UNL d   1       0.231   1.575  -0.296  0.00  0.00    -0.732 N 
ATOM      8  C   UNL d   1      -1.063   1.090   0.136  0.00  0.00     0.284 C 
ATOM      9  H3  UNL d   1       0.365   1.557  -1.305  0.00  0.00     0.395 HD
ENDBRANCH   1   7
TORSDOF 1
ENDMDL
