MODEL 1
REMARK minimizedAffinity 3.24256897
REMARK minimizedRMSD -1
REMARK  1 active torsions:
REMARK  status: ('A' for Active; 'I' for Inactive)
REMARK    1  A    between atoms: N_2  and  C1_3 
ROOT
ATOM      1  C1  UNL d   1       2.625   3.953   0.420  0.00  0.00     0.143 A 
ATOM      2  C2  UNL d   1       1.915   3.283  -0.582  0.00  0.00    -0.057 A 
ATOM      3  C3  UNL d   1       2.547   2.849  -1.754  0.00  0.00     0.033 A 
ATOM      4  C4  UNL d   1       3.899   3.104  -1.957  0.00  0.00    -0.042 A 
ATOM      5  C5  UNL d   1       4.619   3.790  -0.985  0.00  0.00     0.033 A 
ATOM      6  C6  UNL d   1       3.984   4.215   0.186  0.00  0.00    -0.057 A 
ENDROOT
BRANCH   1   7
ATOM      7  N   UNL d   1       2.032   4.496   1.563  0.00  0.00    -0.732 N 
ATOM      8  C   UNL d   1       0.850   3.891   2.139  0.00  0.00     0.284 C 
ATOM      9  H3  UNL d   1       2.719   4.802   2.249  0.00  0.00     0.395 HD
ENDBRANCH   1   7
TORSDOF 1
ENDMDL
