MODEL 1
REMARK minimizedAffinity 4.67522526
REMARK minimizedRMSD -1
REMARK  1 active torsions:
REMARK  status: ('A' for Active; 'I' for Inactive)
REMARK    1  A    between atoms: N_2  and  C1_3 
ROOT
ATOM      1  C1  UNL d   1       0.654   2.409   0.733  0.00  0.00     0.143 A 
ATOM      2  C2  UNL d   1       0.675   2.175  -0.646  0.00  0.00    -0.057 A 
ATOM      3  C3  UNL d   1       0.101   1.023  -1.196  0.00  0.00     0.033 A 
ATOM      4  C4  UNL d   1      -0.482   0.067  -0.370  0.00  0.00    -0.042 A 
ATOM      5  C5  UNL d   1      -0.492   0.266   1.006  0.00  0.00     0.033 A 
ATOM      6  C6  UNL d   1       0.077   1.422   1.548  0.00  0.00    -0.057 A 
ENDROOT
BRANCH   1   7
ATOM      7  N   UNL d   1       1.295   3.487   1.349  0.00  0.00    -0.732 N 
ATOM      8  C   UNL d   1       2.411   4.147   0.706  0.00  0.00     0.284 C 
ATOM      9  H3  UNL d   1       0.640   4.122   1.800  0.00  0.00     0.395 HD
ENDBRANCH   1   7
TORSDOF 1
ENDMDL
