MODEL 1
REMARK minimizedAffinity 1.39305317
REMARK minimizedRMSD -1
REMARK  1 active torsions:
REMARK  status: ('A' for Active; 'I' for Inactive)
REMARK    1  A    between atoms: C1_2  and  C2_3 
ROOT
ATOM      1  C2  UNL d   1      -5.852   2.095   3.370  0.00  0.00    -0.073 A 
ATOM      2  C3  UNL d   1      -5.606   1.205   4.422  0.00  0.00    -0.002 A 
ATOM      3  C4  UNL d   1      -5.480   1.677   5.729  0.00  0.00     0.004 A 
ATOM      4  C5  UNL d   1      -5.606   3.039   6.000  0.00  0.00    -0.004 A 
ATOM      5  C6  UNL d   1      -5.864   3.943   4.964  0.00  0.00    -0.075 A 
ATOM      6  C7  UNL d   1      -5.999   5.412   5.237  0.00  0.00     0.076 C 
ATOM      7  C8  UNL d   1      -5.986   3.462   3.653  0.00  0.00     0.001 A 
ENDROOT
BRANCH   1   8
ATOM      8  C1  UNL d   1      -5.996   1.590   1.958  0.00  0.00     0.053 C 
ATOM      9  C   UNL d   1      -5.592   0.130   1.831  0.00  0.00     0.018 C 
ENDBRANCH   1   8
TORSDOF 1
ENDMDL
