MODEL 1
REMARK minimizedAffinity 15.9918976
REMARK minimizedRMSD -1
REMARK  1 active torsions:
REMARK  status: ('A' for Active; 'I' for Inactive)
REMARK    1  A    between atoms: C1_2  and  C2_3 
ROOT
ATOM      1  C2  UNL d   1       4.037  -0.343   1.676  0.00  0.00    -0.073 A 
ATOM      2  C3  UNL d   1       4.124   0.542   0.596  0.00  0.00    -0.002 A 
ATOM      3  C4  UNL d   1       2.981   1.179   0.112  0.00  0.00     0.004 A 
ATOM      4  C5  UNL d   1       1.741   0.942   0.706  0.00  0.00    -0.004 A 
ATOM      5  C6  UNL d   1       1.635   0.070   1.794  0.00  0.00    -0.075 A 
ATOM      6  C7  UNL d   1       0.309  -0.197   2.443  0.00  0.00     0.076 C 
ATOM      7  C8  UNL d   1       2.788  -0.568   2.273  0.00  0.00     0.001 A 
ENDROOT
BRANCH   1   8
ATOM      8  C1  UNL d   1       5.270  -1.028   2.207  0.00  0.00     0.053 C 
ATOM      9  C   UNL d   1       5.997  -0.176   3.235  0.00  0.00     0.018 C 
ENDBRANCH   1   8
TORSDOF 1
ENDMDL
