MODEL 1
REMARK minimizedAffinity 3.56132817
REMARK minimizedRMSD -1
REMARK  1 active torsions:
REMARK  status: ('A' for Active; 'I' for Inactive)
REMARK    1  A    between atoms: C1_2  and  C2_3 
ROOT
ATOM      1  C2  UNL d   1      -2.403  -0.162   0.588  0.00  0.00    -0.073 A 
ATOM      2  C3  UNL d   1      -3.656   0.433   0.773  0.00  0.00    -0.002 A 
ATOM      3  C4  UNL d   1      -3.804   1.504   1.657  0.00  0.00     0.004 A 
ATOM      4  C5  UNL d   1      -2.702   1.994   2.357  0.00  0.00    -0.004 A 
ATOM      5  C6  UNL d   1      -1.440   1.420   2.176  0.00  0.00    -0.075 A 
ATOM      6  C7  UNL d   1      -0.244   1.934   2.924  0.00  0.00     0.076 C 
ATOM      7  C8  UNL d   1      -1.299   0.344   1.290  0.00  0.00     0.001 A 
ENDROOT
BRANCH   1   8
ATOM      8  C1  UNL d   1      -2.237  -1.313  -0.370  0.00  0.00     0.053 C 
ATOM      9  C   UNL d   1      -1.647  -2.539   0.310  0.00  0.00     0.018 C 
ENDBRANCH   1   8
TORSDOF 1
ENDMDL
