MODEL 1
REMARK minimizedAffinity 8.93893909
REMARK minimizedRMSD -1
REMARK  1 active torsions:
REMARK  status: ('A' for Active; 'I' for Inactive)
REMARK    1  A    between atoms: C1_2  and  C2_3 
ROOT
ATOM      1  C2  UNL d   1      -2.276  -0.506   0.422  0.00  0.00    -0.073 A 
ATOM      2  C3  UNL d   1      -3.502   0.122   0.668  0.00  0.00    -0.002 A 
ATOM      3  C4  UNL d   1      -3.581   1.191   1.562  0.00  0.00     0.004 A 
ATOM      4  C5  UNL d   1      -2.435   1.647   2.213  0.00  0.00    -0.004 A 
ATOM      5  C6  UNL d   1      -1.198   1.040   1.972  0.00  0.00    -0.075 A 
ATOM      6  C7  UNL d   1       0.044   1.518   2.666  0.00  0.00     0.076 C 
ATOM      7  C8  UNL d   1      -1.128  -0.034   1.075  0.00  0.00     0.001 A 
ENDROOT
BRANCH   1   8
ATOM      8  C1  UNL d   1      -2.185  -1.656  -0.547  0.00  0.00     0.053 C 
ATOM      9  C   UNL d   1      -1.455  -2.848   0.051  0.00  0.00     0.018 C 
ENDBRANCH   1   8
TORSDOF 1
ENDMDL
