MODEL 1
REMARK minimizedAffinity 5.87962151
REMARK minimizedRMSD -1
REMARK  1 active torsions:
REMARK  status: ('A' for Active; 'I' for Inactive)
REMARK    1  A    between atoms: C1_2  and  C2_3 
ROOT
ATOM      1  C2  UNL d   1      -0.527   1.157   1.670  0.00  0.00    -0.073 A 
ATOM      2  C3  UNL d   1       0.742   1.538   2.120  0.00  0.00    -0.002 A 
ATOM      3  C4  UNL d   1       0.898   2.129   3.374  0.00  0.00     0.004 A 
ATOM      4  C5  UNL d   1      -0.211   2.339   4.194  0.00  0.00    -0.004 A 
ATOM      5  C6  UNL d   1      -1.486   1.954   3.767  0.00  0.00    -0.075 A 
ATOM      6  C7  UNL d   1      -2.689   2.175   4.636  0.00  0.00     0.076 C 
ATOM      7  C8  UNL d   1      -1.635   1.364   2.505  0.00  0.00     0.001 A 
ENDROOT
BRANCH   1   8
ATOM      8  C1  UNL d   1      -0.699   0.513   0.319  0.00  0.00     0.053 C 
ATOM      9  C   UNL d   1      -2.135   0.075   0.075  0.00  0.00     0.018 C 
ENDBRANCH   1   8
TORSDOF 1
ENDMDL
