MODEL 1
REMARK minimizedAffinity 5.40199995
REMARK minimizedRMSD -1
REMARK  1 active torsions:
REMARK  status: ('A' for Active; 'I' for Inactive)
REMARK    1  A    between atoms: C1_2  and  C2_3 
ROOT
ATOM      1  C2  UNL d   1      -0.369   1.112   2.263  0.00  0.00    -0.073 A 
ATOM      2  C3  UNL d   1      -0.097   0.473   1.048  0.00  0.00    -0.002 A 
ATOM      3  C4  UNL d   1      -1.130   0.193   0.153  0.00  0.00     0.004 A 
ATOM      4  C5  UNL d   1      -2.442   0.553   0.459  0.00  0.00    -0.004 A 
ATOM      5  C6  UNL d   1      -2.732   1.202   1.663  0.00  0.00    -0.075 A 
ATOM      6  C7  UNL d   1      -4.139   1.594   2.009  0.00  0.00     0.076 C 
ATOM      7  C8  UNL d   1      -1.690   1.478   2.559  0.00  0.00     0.001 A 
ENDROOT
BRANCH   1   8
ATOM      8  C1  UNL d   1       0.744   1.423   3.231  0.00  0.00     0.053 C 
ATOM      9  C   UNL d   1       0.701   2.868   3.703  0.00  0.00     0.018 C 
ENDBRANCH   1   8
TORSDOF 1
ENDMDL
