MODEL 1
REMARK minimizedAffinity 2.00703859
REMARK minimizedRMSD -1
REMARK  1 active torsions:
REMARK  status: ('A' for Active; 'I' for Inactive)
REMARK    1  A    between atoms: C1_2  and  C2_3 
ROOT
ATOM      1  C2  UNL d   1      -2.133   0.089   1.131  0.00  0.00    -0.073 A 
ATOM      2  C3  UNL d   1      -3.259   0.651   1.744  0.00  0.00    -0.002 A 
ATOM      3  C4  UNL d   1      -3.111   1.610   2.747  0.00  0.00     0.004 A 
ATOM      4  C5  UNL d   1      -1.838   2.021   3.142  0.00  0.00    -0.004 A 
ATOM      5  C6  UNL d   1      -0.701   1.481   2.533  0.00  0.00    -0.075 A 
ATOM      6  C7  UNL d   1       0.675   1.911   2.948  0.00  0.00     0.076 C 
ATOM      7  C8  UNL d   1      -0.858   0.516   1.528  0.00  0.00     0.001 A 
ENDROOT
BRANCH   1   8
ATOM      8  C1  UNL d   1      -2.289  -0.942   0.043  0.00  0.00     0.053 C 
ATOM      9  C   UNL d   1      -2.959  -2.209   0.549  0.00  0.00     0.018 C 
ENDBRANCH   1   8
TORSDOF 1
ENDMDL
