MODEL 1
REMARK minimizedAffinity 10.5975075
REMARK minimizedRMSD -1
REMARK  1 active torsions:
REMARK  status: ('A' for Active; 'I' for Inactive)
REMARK    1  A    between atoms: C1_2  and  C2_3 
ROOT
ATOM      1  C2  UNL d   1      -1.178   0.795   1.487  0.00  0.00    -0.073 A 
ATOM      2  C3  UNL d   1      -0.558  -0.457   1.559  0.00  0.00    -0.002 A 
ATOM      3  C4  UNL d   1       0.745  -0.571   2.047  0.00  0.00     0.004 A 
ATOM      4  C5  UNL d   1       1.437   0.562   2.474  0.00  0.00    -0.004 A 
ATOM      5  C6  UNL d   1       0.829   1.821   2.421  0.00  0.00    -0.075 A 
ATOM      6  C7  UNL d   1       1.560   3.050   2.875  0.00  0.00     0.076 C 
ATOM      7  C8  UNL d   1      -0.478   1.928   1.928  0.00  0.00     0.001 A 
ENDROOT
BRANCH   1   8
ATOM      8  C1  UNL d   1      -2.587   0.923   0.967  0.00  0.00     0.053 C 
ATOM      9  C   UNL d   1      -3.492   1.653   1.947  0.00  0.00     0.018 C 
ENDBRANCH   1   8
TORSDOF 1
ENDMDL
