MODEL 1
REMARK minimizedAffinity 10.4442186
REMARK minimizedRMSD -1
REMARK  1 active torsions:
REMARK  status: ('A' for Active; 'I' for Inactive)
REMARK    1  A    between atoms: C1_2  and  C2_3 
ROOT
ATOM      1  C2  UNL d   1      -1.005   1.783   2.757  0.00  0.00    -0.073 A 
ATOM      2  C3  UNL d   1      -2.191   1.713   2.018  0.00  0.00    -0.002 A 
ATOM      3  C4  UNL d   1      -2.280   0.876   0.905  0.00  0.00     0.004 A 
ATOM      4  C5  UNL d   1      -1.188   0.096   0.524  0.00  0.00    -0.004 A 
ATOM      5  C6  UNL d   1       0.002   0.143   1.257  0.00  0.00    -0.075 A 
ATOM      6  C7  UNL d   1       1.187  -0.688   0.859  0.00  0.00     0.076 C 
ATOM      7  C8  UNL d   1       0.085   0.988   2.372  0.00  0.00     0.001 A 
ENDROOT
BRANCH   1   8
ATOM      8  C1  UNL d   1      -0.906   2.680   3.963  0.00  0.00     0.053 C 
ATOM      9  C   UNL d   1       0.537   2.995   4.323  0.00  0.00     0.018 C 
ENDBRANCH   1   8
TORSDOF 1
ENDMDL
