MODEL 1
REMARK minimizedAffinity 5.66098118
REMARK minimizedRMSD -1
REMARK  1 active torsions:
REMARK  status: ('A' for Active; 'I' for Inactive)
REMARK    1  A    between atoms: C1_2  and  C2_3 
ROOT
ATOM      1  C2  UNL d   1      -0.519   0.337   1.522  0.00  0.00    -0.077 A 
ATOM      2  C3  UNL d   1       0.512  -0.123   2.352  0.00  0.00     0.002 A 
ATOM      3  C4  UNL d   1       0.222  -0.899   3.476  0.00  0.00     0.002 A 
ATOM      4  C5  UNL d   1      -1.099  -1.225   3.777  0.00  0.00    -0.004 A 
ATOM      5  C6  UNL d   1      -2.132  -0.770   2.959  0.00  0.00     0.002 A 
ATOM      6  C7  UNL d   1      -1.844   0.007   1.836  0.00  0.00     0.002 A 
ENDROOT
BRANCH   1   7
ATOM      7  C1  UNL d   1      -0.204   1.133   0.283  0.00  0.00     0.055 C 
ATOM      8  C   UNL d   1      -0.931   0.576  -0.932  0.00  0.00     0.019 C 
ENDBRANCH   1   7
TORSDOF 1
ENDMDL
