MODEL 1
REMARK minimizedAffinity 5.16723347
REMARK minimizedRMSD -1
REMARK  1 active torsions:
REMARK  status: ('A' for Active; 'I' for Inactive)
REMARK    1  A    between atoms: C1_2  and  C2_3 
ROOT
ATOM      1  C2  UNL d   1      -1.403   0.273   2.241  0.00  0.00    -0.077 A 
ATOM      2  C3  UNL d   1      -1.533   0.002   0.872  0.00  0.00     0.002 A 
ATOM      3  C4  UNL d   1      -2.795  -0.028   0.275  0.00  0.00     0.002 A 
ATOM      4  C5  UNL d   1      -3.935   0.215   1.039  0.00  0.00    -0.004 A 
ATOM      5  C6  UNL d   1      -3.816   0.483   2.402  0.00  0.00     0.002 A 
ATOM      6  C7  UNL d   1      -2.555   0.512   3.000  0.00  0.00     0.002 A 
ENDROOT
BRANCH   1   7
ATOM      7  C1  UNL d   1      -0.039   0.354   2.877  0.00  0.00     0.055 C 
ATOM      8  C   UNL d   1       0.603  -1.021   2.989  0.00  0.00     0.019 C 
ENDBRANCH   1   7
TORSDOF 1
ENDMDL
