MODEL 1
REMARK minimizedAffinity 3.59174109
REMARK minimizedRMSD -1
REMARK  1 active torsions:
REMARK  status: ('A' for Active; 'I' for Inactive)
REMARK    1  A    between atoms: C1_2  and  C2_3 
ROOT
ATOM      1  C2  UNL d   1      -1.744  -0.231   2.177  0.00  0.00    -0.077 A 
ATOM      2  C3  UNL d   1      -1.891  -0.272   0.784  0.00  0.00     0.002 A 
ATOM      3  C4  UNL d   1      -3.095   0.111   0.189  0.00  0.00     0.002 A 
ATOM      4  C5  UNL d   1      -4.158   0.541   0.980  0.00  0.00    -0.004 A 
ATOM      5  C6  UNL d   1      -4.022   0.583   2.367  0.00  0.00     0.002 A 
ATOM      6  C7  UNL d   1      -2.820   0.200   2.963  0.00  0.00     0.002 A 
ENDROOT
BRANCH   1   7
ATOM      7  C1  UNL d   1      -0.430  -0.597   2.817  0.00  0.00     0.055 C 
ATOM      8  C   UNL d   1       0.502   0.603   2.893  0.00  0.00     0.019 C 
ENDBRANCH   1   7
TORSDOF 1
ENDMDL
