MODEL 1
REMARK minimizedAffinity 3.22385001
REMARK minimizedRMSD -1
REMARK  1 active torsions:
REMARK  status: ('A' for Active; 'I' for Inactive)
REMARK    1  A    between atoms: C1_2  and  C2_3 
ROOT
ATOM      1  C2  UNL d   1      -2.447   0.400   0.445  0.00  0.00    -0.077 A 
ATOM      2  C3  UNL d   1      -3.792   0.683   0.722  0.00  0.00     0.002 A 
ATOM      3  C4  UNL d   1      -4.227   0.819   2.042  0.00  0.00     0.002 A 
ATOM      4  C5  UNL d   1      -3.324   0.679   3.093  0.00  0.00    -0.004 A 
ATOM      5  C6  UNL d   1      -1.985   0.396   2.828  0.00  0.00     0.002 A 
ATOM      6  C7  UNL d   1      -1.548   0.259   1.509  0.00  0.00     0.002 A 
ENDROOT
BRANCH   1   7
ATOM      7  C1  UNL d   1      -1.966   0.302  -0.979  0.00  0.00     0.055 C 
ATOM      8  C   UNL d   1      -0.705   1.126  -1.196  0.00  0.00     0.019 C 
ENDBRANCH   1   7
TORSDOF 1
ENDMDL
