MODEL 1
REMARK minimizedAffinity 2.01457906
REMARK minimizedRMSD -1
REMARK  1 active torsions:
REMARK  status: ('A' for Active; 'I' for Inactive)
REMARK    1  A    between atoms: C1_2  and  C2_3 
ROOT
ATOM      1  C2  UNL d   1      -2.497   0.119   2.456  0.00  0.00    -0.077 A 
ATOM      2  C3  UNL d   1      -1.349   0.777   1.993  0.00  0.00     0.002 A 
ATOM      3  C4  UNL d   1      -0.081   0.354   2.397  0.00  0.00     0.002 A 
ATOM      4  C5  UNL d   1       0.051  -0.730   3.263  0.00  0.00    -0.004 A 
ATOM      5  C6  UNL d   1      -1.085  -1.389   3.731  0.00  0.00     0.002 A 
ATOM      6  C7  UNL d   1      -2.353  -0.967   3.329  0.00  0.00     0.002 A 
ENDROOT
BRANCH   1   7
ATOM      7  C1  UNL d   1      -3.863   0.542   1.982  0.00  0.00     0.055 C 
ATOM      8  C   UNL d   1      -4.043   2.049   2.088  0.00  0.00     0.019 C 
ENDBRANCH   1   7
TORSDOF 1
ENDMDL
