MODEL 1
REMARK minimizedAffinity -4.19363976
REMARK minimizedRMSD -1
REMARK  1 active torsions:
REMARK  status: ('A' for Active; 'I' for Inactive)
REMARK    1  A    between atoms: C1_2  and  C2_3 
ROOT
ATOM      1  C2  UNL d   1       0.393   0.564  -0.836  0.00  0.00    -0.077 A 
ATOM      2  C3  UNL d   1      -0.649   0.636   0.099  0.00  0.00     0.002 A 
ATOM      3  C4  UNL d   1      -0.386   0.483   1.462  0.00  0.00     0.002 A 
ATOM      4  C5  UNL d   1       0.917   0.262   1.901  0.00  0.00    -0.004 A 
ATOM      5  C6  UNL d   1       1.960   0.186   0.979  0.00  0.00     0.002 A 
ATOM      6  C7  UNL d   1       1.699   0.337  -0.384  0.00  0.00     0.002 A 
ENDROOT
BRANCH   1   7
ATOM      7  C1  UNL d   1       0.118   0.778  -2.302  0.00  0.00     0.055 C 
ATOM      8  C   UNL d   1       0.765  -0.308  -3.150  0.00  0.00     0.019 C 
ENDBRANCH   1   7
TORSDOF 1
ENDMDL
