MODEL 1
REMARK minimizedAffinity 4.83350229
REMARK minimizedRMSD -1
REMARK  1 active torsions:
REMARK  status: ('A' for Active; 'I' for Inactive)
REMARK    1  A    between atoms: C1_2  and  C2_3 
ROOT
ATOM      1  C2  UNL d   1      -1.266  -0.067   2.484  0.00  0.00    -0.077 A 
ATOM      2  C3  UNL d   1      -0.644  -1.314   2.645  0.00  0.00     0.002 A 
ATOM      3  C4  UNL d   1       0.743  -1.399   2.777  0.00  0.00     0.002 A 
ATOM      4  C5  UNL d   1       1.519  -0.242   2.754  0.00  0.00    -0.004 A 
ATOM      5  C6  UNL d   1       0.910   1.002   2.593  0.00  0.00     0.002 A 
ATOM      6  C7  UNL d   1      -0.476   1.089   2.460  0.00  0.00     0.002 A 
ENDROOT
BRANCH   1   7
ATOM      7  C1  UNL d   1      -2.766   0.030   2.392  0.00  0.00     0.055 C 
ATOM      8  C   UNL d   1      -3.208   1.441   2.028  0.00  0.00     0.019 C 
ENDBRANCH   1   7
TORSDOF 1
ENDMDL
