MODEL 1
REMARK minimizedAffinity 1.71494269
REMARK minimizedRMSD -1
REMARK  1 active torsions:
REMARK  status: ('A' for Active; 'I' for Inactive)
REMARK    1  A    between atoms: C1_2  and  C2_3 
ROOT
ATOM      1  C2  UNL d   1      -0.736   0.638   1.463  0.00  0.00    -0.077 A 
ATOM      2  C3  UNL d   1      -0.126   0.676   0.202  0.00  0.00     0.002 A 
ATOM      3  C4  UNL d   1       1.262   0.583   0.085  0.00  0.00     0.002 A 
ATOM      4  C5  UNL d   1       2.051   0.447   1.226  0.00  0.00    -0.004 A 
ATOM      5  C6  UNL d   1       1.454   0.410   2.485  0.00  0.00     0.002 A 
ATOM      6  C7  UNL d   1       0.067   0.505   2.603  0.00  0.00     0.002 A 
ENDROOT
BRANCH   1   7
ATOM      7  C1  UNL d   1      -2.237   0.689   1.588  0.00  0.00     0.055 C 
ATOM      8  C   UNL d   1      -2.665   1.530   2.782  0.00  0.00     0.019 C 
ENDBRANCH   1   7
TORSDOF 1
ENDMDL
