MODEL 1
REMARK minimizedAffinity -1.73732686
REMARK minimizedRMSD -1
REMARK  1 active torsions:
REMARK  status: ('A' for Active; 'I' for Inactive)
REMARK    1  A    between atoms: C1_2  and  C2_3 
ROOT
ATOM      1  C2  UNL d   1      -0.717   0.749   2.967  0.00  0.00    -0.077 A 
ATOM      2  C3  UNL d   1       0.680   0.790   3.080  0.00  0.00     0.002 A 
ATOM      3  C4  UNL d   1       1.486   0.490   1.981  0.00  0.00     0.002 A 
ATOM      4  C5  UNL d   1       0.906   0.150   0.761  0.00  0.00    -0.004 A 
ATOM      5  C6  UNL d   1      -0.482   0.104   0.639  0.00  0.00     0.002 A 
ATOM      6  C7  UNL d   1      -1.290   0.403   1.737  0.00  0.00     0.002 A 
ENDROOT
BRANCH   1   7
ATOM      7  C1  UNL d   1      -1.589   1.121   4.138  0.00  0.00     0.055 C 
ATOM      8  C   UNL d   1      -2.882   1.779   3.678  0.00  0.00     0.019 C 
ENDBRANCH   1   7
TORSDOF 1
ENDMDL
