MODEL 1
REMARK minimizedAffinity -1.56676531
REMARK minimizedRMSD -1
REMARK  1 active torsions:
REMARK  status: ('A' for Active; 'I' for Inactive)
REMARK    1  A    between atoms: C1_2  and  C2_3 
ROOT
ATOM      1  C2  UNL d   1      -0.405   0.532   0.182  0.00  0.00    -0.077 A 
ATOM      2  C3  UNL d   1       0.930   0.288  -0.169  0.00  0.00     0.002 A 
ATOM      3  C4  UNL d   1       1.905   0.145   0.821  0.00  0.00     0.002 A 
ATOM      4  C5  UNL d   1       1.554   0.240   2.166  0.00  0.00    -0.004 A 
ATOM      5  C6  UNL d   1       0.229   0.485   2.524  0.00  0.00     0.002 A 
ATOM      6  C7  UNL d   1      -0.746   0.630   1.537  0.00  0.00     0.002 A 
ENDROOT
BRANCH   1   7
ATOM      7  C1  UNL d   1      -1.466   0.637  -0.882  0.00  0.00     0.055 C 
ATOM      8  C   UNL d   1      -2.861   0.650  -0.274  0.00  0.00     0.019 C 
ENDBRANCH   1   7
TORSDOF 1
ENDMDL
