MODEL 1
REMARK minimizedAffinity -4.49425602
REMARK minimizedRMSD -1
REMARK  1 active torsions:
REMARK  status: ('A' for Active; 'I' for Inactive)
REMARK    1  A    between atoms: C1_2  and  C2_3 
ROOT
ATOM      1  C2  UNL d   1      -0.636   0.084   0.098  0.00  0.00    -0.077 A 
ATOM      2  C3  UNL d   1      -1.814  -0.272   0.769  0.00  0.00     0.002 A 
ATOM      3  C4  UNL d   1      -1.809  -0.457   2.153  0.00  0.00     0.002 A 
ATOM      4  C5  UNL d   1      -0.631  -0.283   2.877  0.00  0.00    -0.004 A 
ATOM      5  C6  UNL d   1       0.546   0.070   2.218  0.00  0.00     0.002 A 
ATOM      6  C7  UNL d   1       0.543   0.253   0.835  0.00  0.00     0.002 A 
ENDROOT
BRANCH   1   7
ATOM      7  C1  UNL d   1      -0.650   0.332  -1.388  0.00  0.00     0.055 C 
ATOM      8  C   UNL d   1       0.677  -0.054  -2.026  0.00  0.00     0.019 C 
ENDBRANCH   1   7
TORSDOF 1
ENDMDL
