MODEL 1
REMARK minimizedAffinity -1.81192899
REMARK minimizedRMSD -1
REMARK  1 active torsions:
REMARK  status: ('A' for Active; 'I' for Inactive)
REMARK    1  A    between atoms: C1_2  and  C2_3 
ROOT
ATOM      1  C2  UNL d   1       0.079   0.115   2.027  0.00  0.00    -0.077 A 
ATOM      2  C3  UNL d   1       1.315   0.689   1.697  0.00  0.00     0.002 A 
ATOM      3  C4  UNL d   1       1.643   0.940   0.363  0.00  0.00     0.002 A 
ATOM      4  C5  UNL d   1       0.740   0.625  -0.650  0.00  0.00    -0.004 A 
ATOM      5  C6  UNL d   1      -0.491   0.053  -0.332  0.00  0.00     0.002 A 
ATOM      6  C7  UNL d   1      -0.821  -0.200   1.000  0.00  0.00     0.002 A 
ENDROOT
BRANCH   1   7
ATOM      7  C1  UNL d   1      -0.297  -0.111   3.468  0.00  0.00     0.055 C 
ATOM      8  C   UNL d   1      -0.972  -1.462   3.658  0.00  0.00     0.019 C 
ENDBRANCH   1   7
TORSDOF 1
ENDMDL
