MODEL 1
REMARK minimizedAffinity 1.96350479
REMARK minimizedRMSD -1
REMARK  0 active torsions:
REMARK  status: ('A' for Active; 'I' for Inactive)
ROOT
ATOM      1  C   UNL d   1      -3.163   6.000   5.999  0.00  0.00     0.078 C 
ATOM      2  C1  UNL d   1      -3.644   5.551   4.652  0.00  0.00    -0.077 A 
ATOM      3  C2  UNL d   1      -2.788   5.551   3.544  0.00  0.00    -0.001 A 
ATOM      4  C3  UNL d   1      -3.252   5.140   2.293  0.00  0.00     0.003 A 
ATOM      5  C4  UNL d   1      -4.574   4.728   2.138  0.00  0.00    -0.005 A 
ATOM      6  C5  UNL d   1      -5.434   4.727   3.235  0.00  0.00     0.003 A 
ATOM      7  C6  UNL d   1      -4.972   5.137   4.486  0.00  0.00    -0.001 A 
ENDROOT
TORSDOF 0
ENDMDL
