MODEL 1
REMARK minimizedAffinity -1.96561801
REMARK minimizedRMSD -1
REMARK  0 active torsions:
REMARK  status: ('A' for Active; 'I' for Inactive)
ROOT
ATOM      1  C   UNL d   1      -4.715   5.989   5.662  0.00  0.00     0.078 C 
ATOM      2  C1  UNL d   1      -4.276   5.999   4.229  0.00  0.00    -0.077 A 
ATOM      3  C2  UNL d   1      -5.211   5.993   3.187  0.00  0.00    -0.001 A 
ATOM      4  C3  UNL d   1      -4.788   5.992   1.857  0.00  0.00     0.003 A 
ATOM      5  C4  UNL d   1      -3.427   5.995   1.557  0.00  0.00    -0.005 A 
ATOM      6  C5  UNL d   1      -2.488   5.998   2.586  0.00  0.00     0.003 A 
ATOM      7  C6  UNL d   1      -2.910   5.999   3.917  0.00  0.00    -0.001 A 
ENDROOT
TORSDOF 0
ENDMDL
