MODEL 1
REMARK minimizedAffinity -1.35651183
REMARK minimizedRMSD -1
REMARK  0 active torsions:
REMARK  status: ('A' for Active; 'I' for Inactive)
ROOT
ATOM      1  C   UNL d   1      -2.445   6.000   5.950  0.00  0.00     0.078 C 
ATOM      2  C1  UNL d   1      -3.161   5.966   4.632  0.00  0.00    -0.077 A 
ATOM      3  C2  UNL d   1      -2.450   5.970   3.426  0.00  0.00    -0.001 A 
ATOM      4  C3  UNL d   1      -3.130   5.948   2.207  0.00  0.00     0.003 A 
ATOM      5  C4  UNL d   1      -4.523   5.923   2.182  0.00  0.00    -0.005 A 
ATOM      6  C5  UNL d   1      -5.238   5.921   3.378  0.00  0.00     0.003 A 
ATOM      7  C6  UNL d   1      -4.560   5.943   4.598  0.00  0.00    -0.001 A 
ENDROOT
TORSDOF 0
ENDMDL
