MODEL 1
REMARK minimizedAffinity 1.76310873
REMARK minimizedRMSD -1
REMARK  0 active torsions:
REMARK  status: ('A' for Active; 'I' for Inactive)
ROOT
ATOM      1  C   UNL d   1      -3.035   5.989   5.959  0.00  0.00     0.078 C 
ATOM      2  C1  UNL d   1      -3.748   5.983   4.640  0.00  0.00    -0.077 A 
ATOM      3  C2  UNL d   1      -3.036   5.976   3.435  0.00  0.00    -0.001 A 
ATOM      4  C3  UNL d   1      -3.713   5.980   2.214  0.00  0.00     0.003 A 
ATOM      5  C4  UNL d   1      -5.106   5.991   2.188  0.00  0.00    -0.005 A 
ATOM      6  C5  UNL d   1      -5.824   6.000   3.382  0.00  0.00     0.003 A 
ATOM      7  C6  UNL d   1      -5.148   5.996   4.603  0.00  0.00    -0.001 A 
ENDROOT
TORSDOF 0
ENDMDL
