MODEL 1
REMARK minimizedAffinity 0.372070163
REMARK minimizedRMSD -1
REMARK  0 active torsions:
REMARK  status: ('A' for Active; 'I' for Inactive)
ROOT
ATOM      1  C   UNL d   1      -5.952   5.947   1.837  0.00  0.00     0.078 C 
ATOM      2  C1  UNL d   1      -4.707   5.958   2.674  0.00  0.00    -0.077 A 
ATOM      3  C2  UNL d   1      -4.778   5.978   4.072  0.00  0.00    -0.001 A 
ATOM      4  C3  UNL d   1      -3.611   5.999   4.837  0.00  0.00     0.003 A 
ATOM      5  C4  UNL d   1      -2.365   6.000   4.214  0.00  0.00    -0.005 A 
ATOM      6  C5  UNL d   1      -2.285   5.982   2.823  0.00  0.00     0.003 A 
ATOM      7  C6  UNL d   1      -3.451   5.962   2.056  0.00  0.00    -0.001 A 
ENDROOT
TORSDOF 0
ENDMDL
