MODEL 1
REMARK minimizedAffinity -1.64409328
REMARK minimizedRMSD -1
REMARK  0 active torsions:
REMARK  status: ('A' for Active; 'I' for Inactive)
ROOT
ATOM      1  C   UNL d   1      -3.168   5.988   5.639  0.00  0.00     0.078 C 
ATOM      2  C1  UNL d   1      -3.593   6.000   4.201  0.00  0.00    -0.077 A 
ATOM      3  C2  UNL d   1      -4.949   5.997   3.849  0.00  0.00    -0.001 A 
ATOM      4  C3  UNL d   1      -5.329   5.997   2.506  0.00  0.00     0.003 A 
ATOM      5  C4  UNL d   1      -4.361   5.999   1.504  0.00  0.00    -0.005 A 
ATOM      6  C5  UNL d   1      -3.010   6.000   1.844  0.00  0.00     0.003 A 
ATOM      7  C6  UNL d   1      -2.627   5.999   3.187  0.00  0.00    -0.001 A 
ENDROOT
TORSDOF 0
ENDMDL
