MODEL 1
REMARK minimizedAffinity -1.99410129
REMARK minimizedRMSD -1
REMARK  0 active torsions:
REMARK  status: ('A' for Active; 'I' for Inactive)
ROOT
ATOM      1  C   UNL d   1      -3.000   5.991   5.997  0.00  0.00     0.078 C 
ATOM      2  C1  UNL d   1      -3.425   5.960   4.559  0.00  0.00    -0.077 A 
ATOM      3  C2  UNL d   1      -4.778   5.878   4.208  0.00  0.00    -0.001 A 
ATOM      4  C3  UNL d   1      -5.157   5.839   2.865  0.00  0.00     0.003 A 
ATOM      5  C4  UNL d   1      -4.190   5.882   1.863  0.00  0.00    -0.005 A 
ATOM      6  C5  UNL d   1      -2.841   5.961   2.203  0.00  0.00     0.003 A 
ATOM      7  C6  UNL d   1      -2.460   5.999   3.545  0.00  0.00    -0.001 A 
ENDROOT
TORSDOF 0
ENDMDL
