MODEL 1
REMARK minimizedAffinity 5.3026619
REMARK minimizedRMSD -1
REMARK  0 active torsions:
REMARK  status: ('A' for Active; 'I' for Inactive)
ROOT
ATOM      1  C   UNL d   1      -4.503  -0.709   4.682  0.00  0.00     0.078 C 
ATOM      2  C1  UNL d   1      -3.634  -0.622   3.463  0.00  0.00    -0.077 A 
ATOM      3  C2  UNL d   1      -2.969   0.565   3.134  0.00  0.00    -0.001 A 
ATOM      4  C3  UNL d   1      -2.171   0.634   1.991  0.00  0.00     0.003 A 
ATOM      5  C4  UNL d   1      -2.031  -0.481   1.168  0.00  0.00    -0.005 A 
ATOM      6  C5  UNL d   1      -2.690  -1.667   1.486  0.00  0.00     0.003 A 
ATOM      7  C6  UNL d   1      -3.489  -1.737   2.628  0.00  0.00    -0.001 A 
ENDROOT
TORSDOF 0
ENDMDL
