MODEL 1
REMARK minimizedAffinity 1.81983411
REMARK minimizedRMSD -1
REMARK  0 active torsions:
REMARK  status: ('A' for Active; 'I' for Inactive)
ROOT
ATOM      1  C   UNL d   1      -5.873   5.986   2.130  0.00  0.00     0.078 C 
ATOM      2  C1  UNL d   1      -4.670   5.996   3.025  0.00  0.00    -0.077 A 
ATOM      3  C2  UNL d   1      -3.375   5.991   2.493  0.00  0.00    -0.001 A 
ATOM      4  C3  UNL d   1      -2.264   5.991   3.339  0.00  0.00     0.003 A 
ATOM      5  C4  UNL d   1      -2.438   5.995   4.721  0.00  0.00    -0.005 A 
ATOM      6  C5  UNL d   1      -3.723   5.997   5.260  0.00  0.00     0.003 A 
ATOM      7  C6  UNL d   1      -4.834   5.998   4.416  0.00  0.00    -0.001 A 
ENDROOT
TORSDOF 0
ENDMDL
