MODEL 1
REMARK minimizedAffinity 2.18289328
REMARK minimizedRMSD -1
REMARK  0 active torsions:
REMARK  status: ('A' for Active; 'I' for Inactive)
ROOT
ATOM      1  C   UNL d   1      -2.873   5.986   1.598  0.00  0.00     0.078 C 
ATOM      2  C1  UNL d   1      -3.184   5.997   3.065  0.00  0.00    -0.077 A 
ATOM      3  C2  UNL d   1      -2.159   5.992   4.020  0.00  0.00    -0.001 A 
ATOM      4  C3  UNL d   1      -2.464   5.992   5.382  0.00  0.00     0.003 A 
ATOM      5  C4  UNL d   1      -3.792   5.997   5.802  0.00  0.00    -0.005 A 
ATOM      6  C5  UNL d   1      -4.818   6.000   4.860  0.00  0.00     0.003 A 
ATOM      7  C6  UNL d   1      -4.516   5.999   3.497  0.00  0.00    -0.001 A 
ENDROOT
TORSDOF 0
ENDMDL
