MODEL 1
REMARK minimizedAffinity -2.28010082
REMARK minimizedRMSD -1
REMARK  0 active torsions:
REMARK  status: ('A' for Active; 'I' for Inactive)
ROOT
ATOM      1  C   UNL d   1      -2.632   6.000   5.757  0.00  0.00     0.078 C 
ATOM      2  C1  UNL d   1      -3.115   5.991   4.338  0.00  0.00    -0.077 A 
ATOM      3  C2  UNL d   1      -2.212   5.991   3.268  0.00  0.00    -0.001 A 
ATOM      4  C3  UNL d   1      -2.677   5.993   1.952  0.00  0.00     0.003 A 
ATOM      5  C4  UNL d   1      -4.046   5.996   1.693  0.00  0.00    -0.005 A 
ATOM      6  C5  UNL d   1      -4.952   5.999   2.751  0.00  0.00     0.003 A 
ATOM      7  C6  UNL d   1      -4.490   5.997   4.068  0.00  0.00    -0.001 A 
ENDROOT
TORSDOF 0
ENDMDL
