MODEL 1
REMARK minimizedAffinity -0.46983853
REMARK minimizedRMSD -1
REMARK  0 active torsions:
REMARK  status: ('A' for Active; 'I' for Inactive)
ROOT
ATOM      1  C   UNL d   1      -2.601   5.994   1.513  0.00  0.00     0.078 C 
ATOM      2  C1  UNL d   1      -3.339   5.989   2.818  0.00  0.00    -0.077 A 
ATOM      3  C2  UNL d   1      -4.739   5.995   2.855  0.00  0.00    -0.001 A 
ATOM      4  C3  UNL d   1      -5.413   5.999   4.077  0.00  0.00     0.003 A 
ATOM      5  C4  UNL d   1      -4.696   5.999   5.272  0.00  0.00    -0.005 A 
ATOM      6  C5  UNL d   1      -3.303   5.995   5.245  0.00  0.00     0.003 A 
ATOM      7  C6  UNL d   1      -2.627   5.991   4.024  0.00  0.00    -0.001 A 
ENDROOT
TORSDOF 0
ENDMDL
