MODEL 1
REMARK minimizedAffinity -1.65645468
REMARK minimizedRMSD -1
REMARK  0 active torsions:
REMARK  status: ('A' for Active; 'I' for Inactive)
ROOT
ATOM      1  C   UNL d   1      -2.720   6.000   5.991  0.00  0.00     0.078 C 
ATOM      2  C1  UNL d   1      -3.438   5.898   4.679  0.00  0.00    -0.077 A 
ATOM      3  C2  UNL d   1      -2.733   5.715   3.483  0.00  0.00    -0.001 A 
ATOM      4  C3  UNL d   1      -3.414   5.632   2.267  0.00  0.00     0.003 A 
ATOM      5  C4  UNL d   1      -4.803   5.732   2.235  0.00  0.00    -0.005 A 
ATOM      6  C5  UNL d   1      -5.513   5.916   3.420  0.00  0.00     0.003 A 
ATOM      7  C6  UNL d   1      -4.834   6.000   4.636  0.00  0.00    -0.001 A 
ENDROOT
TORSDOF 0
ENDMDL
