MODEL 1
REMARK minimizedAffinity -2.56160402
REMARK minimizedRMSD -1
REMARK  0 active torsions:
REMARK  status: ('A' for Active; 'I' for Inactive)
ROOT
ATOM      1  C   UNL d   1      -5.957   5.838   2.068  0.00  0.00     0.078 C 
ATOM      2  C1  UNL d   1      -4.571   5.847   2.640  0.00  0.00    -0.077 A 
ATOM      3  C2  UNL d   1      -3.449   5.694   1.816  0.00  0.00    -0.001 A 
ATOM      4  C3  UNL d   1      -2.165   5.695   2.364  0.00  0.00     0.003 A 
ATOM      5  C4  UNL d   1      -1.991   5.848   3.738  0.00  0.00    -0.005 A 
ATOM      6  C5  UNL d   1      -3.102   5.999   4.566  0.00  0.00     0.003 A 
ATOM      7  C6  UNL d   1      -4.386   5.998   4.020  0.00  0.00    -0.001 A 
ENDROOT
TORSDOF 0
ENDMDL
