MODEL 1
REMARK minimizedAffinity 0.508270919
REMARK minimizedRMSD -1
REMARK  0 active torsions:
REMARK  status: ('A' for Active; 'I' for Inactive)
ROOT
ATOM      1  C   UNL d   1      -2.651   6.000   5.999  0.00  0.00     0.078 C 
ATOM      2  C1  UNL d   1      -3.323   5.989   4.658  0.00  0.00    -0.077 A 
ATOM      3  C2  UNL d   1      -2.573   5.982   3.476  0.00  0.00    -0.001 A 
ATOM      4  C3  UNL d   1      -3.212   5.982   2.235  0.00  0.00     0.003 A 
ATOM      5  C4  UNL d   1      -4.603   5.989   2.164  0.00  0.00    -0.005 A 
ATOM      6  C5  UNL d   1      -5.358   5.998   3.335  0.00  0.00     0.003 A 
ATOM      7  C6  UNL d   1      -4.721   5.998   4.577  0.00  0.00    -0.001 A 
ENDROOT
TORSDOF 0
ENDMDL
