MODEL 1
REMARK minimizedAffinity -0.440515161
REMARK minimizedRMSD -1
REMARK  0 active torsions:
REMARK  status: ('A' for Active; 'I' for Inactive)
ROOT
ATOM      1  C   UNL d   1      -2.652   5.997   5.996  0.00  0.00     0.078 C 
ATOM      2  C1  UNL d   1      -3.266   5.596   4.688  0.00  0.00    -0.077 A 
ATOM      3  C2  UNL d   1      -2.550   4.831   3.760  0.00  0.00    -0.001 A 
ATOM      4  C3  UNL d   1      -3.130   4.473   2.542  0.00  0.00     0.003 A 
ATOM      5  C4  UNL d   1      -4.429   4.877   2.241  0.00  0.00    -0.005 A 
ATOM      6  C5  UNL d   1      -5.149   5.641   3.157  0.00  0.00     0.003 A 
ATOM      7  C6  UNL d   1      -4.570   6.000   4.376  0.00  0.00    -0.001 A 
ENDROOT
TORSDOF 0
ENDMDL
