MODEL 1
REMARK minimizedAffinity -1.63858593
REMARK minimizedRMSD -1
REMARK  0 active torsions:
REMARK  status: ('A' for Active; 'I' for Inactive)
ROOT
ATOM      1  C   UNL d   1      -2.725   5.978   2.236  0.00  0.00     0.078 C 
ATOM      2  C1  UNL d   1      -3.494   5.989   3.524  0.00  0.00    -0.077 A 
ATOM      3  C2  UNL d   1      -2.833   5.999   4.758  0.00  0.00    -0.001 A 
ATOM      4  C3  UNL d   1      -3.561   6.000   5.949  0.00  0.00     0.003 A 
ATOM      5  C4  UNL d   1      -4.954   5.990   5.917  0.00  0.00    -0.005 A 
ATOM      6  C5  UNL d   1      -5.620   5.978   4.694  0.00  0.00     0.003 A 
ATOM      7  C6  UNL d   1      -4.894   5.977   3.502  0.00  0.00    -0.001 A 
ENDROOT
TORSDOF 0
ENDMDL
