MODEL 1
REMARK minimizedAffinity -2.36043501
REMARK minimizedRMSD -1
REMARK  0 active torsions:
REMARK  status: ('A' for Active; 'I' for Inactive)
ROOT
ATOM      1  C   UNL d   1      -2.241   5.989   1.789  0.00  0.00     0.078 C 
ATOM      2  C1  UNL d   1      -2.881   5.999   3.146  0.00  0.00    -0.077 A 
ATOM      3  C2  UNL d   1      -2.102   5.999   4.310  0.00  0.00    -0.001 A 
ATOM      4  C3  UNL d   1      -2.711   5.998   5.566  0.00  0.00     0.003 A 
ATOM      5  C4  UNL d   1      -4.100   5.998   5.670  0.00  0.00    -0.005 A 
ATOM      6  C5  UNL d   1      -4.883   5.996   4.517  0.00  0.00     0.003 A 
ATOM      7  C6  UNL d   1      -4.276   5.996   3.260  0.00  0.00    -0.001 A 
ENDROOT
TORSDOF 0
ENDMDL
