MODEL 1
REMARK minimizedAffinity 4.69665098
REMARK minimizedRMSD -1
REMARK  0 active torsions:
REMARK  status: ('A' for Active; 'I' for Inactive)
ROOT
ATOM      1  N1  IND d   1       4.480   3.158   3.333  0.00  0.00    -0.196 N 
ATOM      2  C2  IND d   1       3.705   3.001   2.217  0.00  0.00     0.054 A 
ATOM      3  C3  IND d   1       3.636   1.695   1.874  0.00  0.00    -0.031 A 
ATOM      4  C4  IND d   1       4.630  -0.363   3.059  0.00  0.00     0.051 A 
ATOM      5  C5  IND d   1       5.444  -0.720   4.096  0.00  0.00    -0.031 A 
ATOM      6  C6  IND d   1       5.988   0.217   4.951  0.00  0.00     0.015 A 
ATOM      7  C7  IND d   1       5.727   1.550   4.807  0.00  0.00    -0.016 A 
ATOM      8  C8  IND d   1       4.906   1.916   3.750  0.00  0.00    -0.047 A 
ATOM      9  C9  IND d   1       4.385   0.974   2.853  0.00  0.00    -0.096 A 
ATOM     10  HN1 IND d   1       4.669   3.907   3.710  0.00  0.00     0.298 HD
ENDROOT
TORSDOF 0
ENDMDL
