MODEL 1
REMARK minimizedAffinity 8.88817978
REMARK minimizedRMSD -1
REMARK  0 active torsions:
REMARK  status: ('A' for Active; 'I' for Inactive)
ROOT
ATOM      1  N1  IND d   1       5.007   4.039   4.117  0.00  0.00    -0.196 N 
ATOM      2  C2  IND d   1       4.191   4.114   3.023  0.00  0.00     0.054 A 
ATOM      3  C3  IND d   1       3.881   2.874   2.582  0.00  0.00    -0.031 A 
ATOM      4  C4  IND d   1       4.516   0.582   3.567  0.00  0.00     0.051 A 
ATOM      5  C5  IND d   1       5.278   0.002   4.543  0.00  0.00    -0.031 A 
ATOM      6  C6  IND d   1       6.000   0.754   5.447  0.00  0.00     0.015 A 
ATOM      7  C7  IND d   1       5.979   2.120   5.416  0.00  0.00    -0.016 A 
ATOM      8  C8  IND d   1       5.212   2.711   4.422  0.00  0.00    -0.047 A 
ATOM      9  C9  IND d   1       4.511   1.953   3.475  0.00  0.00    -0.096 A 
ATOM     10  HN1 IND d   1       5.336   4.709   4.544  0.00  0.00     0.298 HD
ENDROOT
TORSDOF 0
ENDMDL
