MODEL 1
REMARK minimizedAffinity -3.31646466
REMARK minimizedRMSD -1
REMARK  0 active torsions:
REMARK  status: ('A' for Active; 'I' for Inactive)
ROOT
ATOM      1  N1  IND d   1      -3.309   2.352  -0.718  0.00  0.00    -0.196 N 
ATOM      2  C2  IND d   1      -3.282   3.548  -0.057  0.00  0.00     0.054 A 
ATOM      3  C3  IND d   1      -2.974   3.359   1.246  0.00  0.00    -0.031 A 
ATOM      4  C4  IND d   1      -2.374   1.183   2.484  0.00  0.00     0.051 A 
ATOM      5  C5  IND d   1      -2.300  -0.170   2.310  0.00  0.00    -0.031 A 
ATOM      6  C6  IND d   1      -2.560  -0.764   1.092  0.00  0.00     0.015 A 
ATOM      7  C7  IND d   1      -2.895  -0.021  -0.005  0.00  0.00    -0.016 A 
ATOM      8  C8  IND d   1      -2.979   1.353   0.170  0.00  0.00    -0.047 A 
ATOM      9  C9  IND d   1      -2.758   1.957   1.414  0.00  0.00    -0.096 A 
ATOM     10  HN1 IND d   1      -3.499   2.243  -1.550  0.00  0.00     0.298 HD
ENDROOT
TORSDOF 0
ENDMDL
