MODEL 1
REMARK minimizedAffinity 3.23621964
REMARK minimizedRMSD -1
REMARK  0 active torsions:
REMARK  status: ('A' for Active; 'I' for Inactive)
ROOT
ATOM      1  N1  IND d   1      -0.661   3.957  -0.830  0.00  0.00    -0.196 N 
ATOM      2  C2  IND d   1       0.051   2.822  -1.104  0.00  0.00     0.054 A 
ATOM      3  C3  IND d   1      -0.700   1.725  -0.860  0.00  0.00    -0.031 A 
ATOM      4  C4  IND d   1      -3.156   1.559  -0.103  0.00  0.00     0.051 A 
ATOM      5  C5  IND d   1      -4.210   2.324   0.308  0.00  0.00    -0.031 A 
ATOM      6  C6  IND d   1      -4.135   3.701   0.360  0.00  0.00     0.015 A 
ATOM      7  C7  IND d   1      -3.001   4.367  -0.010  0.00  0.00    -0.016 A 
ATOM      8  C8  IND d   1      -1.926   3.593  -0.422  0.00  0.00    -0.047 A 
ATOM      9  C9  IND d   1      -1.982   2.193  -0.436  0.00  0.00    -0.096 A 
ATOM     10  HN1 IND d   1      -0.369   4.762  -0.900  0.00  0.00     0.298 HD
ENDROOT
TORSDOF 0
ENDMDL
