MODEL 1
REMARK minimizedAffinity 4.75901604
REMARK minimizedRMSD -1
REMARK  0 active torsions:
REMARK  status: ('A' for Active; 'I' for Inactive)
ROOT
ATOM      1  N1  IND d   1      -4.381   1.371  -0.746  0.00  0.00    -0.196 N 
ATOM      2  C2  IND d   1      -4.350   2.736  -0.818  0.00  0.00     0.054 A 
ATOM      3  C3  IND d   1      -3.075   3.181  -0.748  0.00  0.00    -0.031 A 
ATOM      4  C4  IND d   1      -0.880   1.843  -0.615  0.00  0.00     0.051 A 
ATOM      5  C5  IND d   1      -0.401   0.569  -0.488  0.00  0.00    -0.031 A 
ATOM      6  C6  IND d   1      -1.241  -0.525  -0.443  0.00  0.00     0.015 A 
ATOM      7  C7  IND d   1      -2.597  -0.386  -0.534  0.00  0.00    -0.016 A 
ATOM      8  C8  IND d   1      -3.088   0.907  -0.656  0.00  0.00    -0.047 A 
ATOM      9  C9  IND d   1      -2.242   2.024  -0.660  0.00  0.00    -0.096 A 
ATOM     10  HN1 IND d   1      -5.090   0.884  -0.756  0.00  0.00     0.298 HD
ENDROOT
TORSDOF 0
ENDMDL
