MODEL 1
REMARK minimizedAffinity -4.03146791
REMARK minimizedRMSD -1
REMARK  0 active torsions:
REMARK  status: ('A' for Active; 'I' for Inactive)
ROOT
ATOM      1  N1  IND d   1      -2.297   3.111   1.167  0.00  0.00    -0.196 N 
ATOM      2  C2  IND d   1      -2.885   3.558   0.017  0.00  0.00     0.054 A 
ATOM      3  C3  IND d   1      -3.456   2.531  -0.650  0.00  0.00    -0.031 A 
ATOM      4  C4  IND d   1      -3.638   0.050   0.013  0.00  0.00     0.051 A 
ATOM      5  C5  IND d   1      -3.224  -0.845   0.959  0.00  0.00    -0.031 A 
ATOM      6  C6  IND d   1      -2.467  -0.459   2.047  0.00  0.00     0.015 A 
ATOM      7  C7  IND d   1      -2.104   0.844   2.235  0.00  0.00    -0.016 A 
ATOM      8  C8  IND d   1      -2.516   1.755   1.272  0.00  0.00    -0.047 A 
ATOM      9  C9  IND d   1      -3.249   1.362   0.145  0.00  0.00    -0.096 A 
ATOM     10  HN1 IND d   1      -1.864   3.595   1.730  0.00  0.00     0.298 HD
ENDROOT
TORSDOF 0
ENDMDL
