MODEL 1
REMARK minimizedAffinity 2.37736726
REMARK minimizedRMSD -1
REMARK  0 active torsions:
REMARK  status: ('A' for Active; 'I' for Inactive)
ROOT
ATOM      1  N1  IND d   1       4.179   0.649   2.025  0.00  0.00    -0.196 N 
ATOM      2  C2  IND d   1       4.353   0.797   3.373  0.00  0.00     0.054 A 
ATOM      3  C3  IND d   1       3.803  -0.245   4.035  0.00  0.00    -0.031 A 
ATOM      4  C4  IND d   1       2.657  -2.354   3.104  0.00  0.00     0.051 A 
ATOM      5  C5  IND d   1       2.231  -2.922   1.936  0.00  0.00    -0.031 A 
ATOM      6  C6  IND d   1       2.439  -2.317   0.713  0.00  0.00     0.015 A 
ATOM      7  C7  IND d   1       3.094  -1.123   0.611  0.00  0.00    -0.016 A 
ATOM      8  C8  IND d   1       3.522  -0.540   1.796  0.00  0.00    -0.047 A 
ATOM      9  C9  IND d   1       3.276  -1.128   3.043  0.00  0.00    -0.096 A 
ATOM     10  HN1 IND d   1       4.437   1.205   1.422  0.00  0.00     0.298 HD
ENDROOT
TORSDOF 0
ENDMDL
