MODEL 1
REMARK minimizedAffinity -1.28275859
REMARK minimizedRMSD -1
REMARK  0 active torsions:
REMARK  status: ('A' for Active; 'I' for Inactive)
ROOT
ATOM      1  N1  IND d   1      -3.124   2.570   1.389  0.00  0.00    -0.196 N 
ATOM      2  C2  IND d   1      -2.669   2.676   0.104  0.00  0.00     0.054 A 
ATOM      3  C3  IND d   1      -2.066   1.527  -0.277  0.00  0.00    -0.031 A 
ATOM      4  C4  IND d   1      -1.804  -0.687   1.008  0.00  0.00     0.051 A 
ATOM      5  C5  IND d   1      -2.027  -1.256   2.231  0.00  0.00    -0.031 A 
ATOM      6  C6  IND d   1      -2.642  -0.565   3.255  0.00  0.00     0.015 A 
ATOM      7  C7  IND d   1      -3.069   0.722   3.090  0.00  0.00    -0.016 A 
ATOM      8  C8  IND d   1      -2.838   1.305   1.852  0.00  0.00    -0.047 A 
ATOM      9  C9  IND d   1      -2.176   0.623   0.823  0.00  0.00    -0.096 A 
ATOM     10  HN1 IND d   1      -3.522   3.190   1.832  0.00  0.00     0.298 HD
ENDROOT
TORSDOF 0
ENDMDL
