MODEL 1
REMARK minimizedAffinity -1.52114522
REMARK minimizedRMSD -1
REMARK  0 active torsions:
REMARK  status: ('A' for Active; 'I' for Inactive)
ROOT
ATOM      1  N1  IND d   1      -2.536   1.395   3.228  0.00  0.00    -0.196 N 
ATOM      2  C2  IND d   1      -2.455   0.050   2.997  0.00  0.00     0.054 A 
ATOM      3  C3  IND d   1      -2.838  -0.233   1.731  0.00  0.00    -0.031 A 
ATOM      4  C4  IND d   1      -3.539   1.364  -0.162  0.00  0.00     0.051 A 
ATOM      5  C5  IND d   1      -3.801   2.681  -0.419  0.00  0.00    -0.031 A 
ATOM      6  C6  IND d   1      -3.649   3.656   0.545  0.00  0.00     0.015 A 
ATOM      7  C7  IND d   1      -3.216   3.351   1.805  0.00  0.00    -0.016 A 
ATOM      8  C8  IND d   1      -2.956   2.014   2.072  0.00  0.00    -0.047 A 
ATOM      9  C9  IND d   1      -3.149   1.015   1.110  0.00  0.00    -0.096 A 
ATOM     10  HN1 IND d   1      -2.356   1.788   3.971  0.00  0.00     0.298 HD
ENDROOT
TORSDOF 0
ENDMDL
