MODEL 1
REMARK minimizedAffinity 4.04124022
REMARK minimizedRMSD -1
REMARK  0 active torsions:
REMARK  status: ('A' for Active; 'I' for Inactive)
ROOT
ATOM      1  N1  IND d   1       4.084   3.181   2.636  0.00  0.00    -0.196 N 
ATOM      2  C2  IND d   1       3.689   2.607   1.459  0.00  0.00     0.054 A 
ATOM      3  C3  IND d   1       4.115   1.326   1.395  0.00  0.00    -0.031 A 
ATOM      4  C4  IND d   1       5.386  -0.065   3.149  0.00  0.00     0.051 A 
ATOM      5  C5  IND d   1       5.997   0.036   4.367  0.00  0.00    -0.031 A 
ATOM      6  C6  IND d   1       6.000   1.214   5.086  0.00  0.00     0.015 A 
ATOM      7  C7  IND d   1       5.379   2.336   4.617  0.00  0.00    -0.016 A 
ATOM      8  C8  IND d   1       4.763   2.239   3.377  0.00  0.00    -0.047 A 
ATOM      9  C9  IND d   1       4.794   1.059   2.624  0.00  0.00    -0.096 A 
ATOM     10  HN1 IND d   1       3.934   3.994   2.872  0.00  0.00     0.298 HD
ENDROOT
TORSDOF 0
ENDMDL
