MODEL 1
REMARK minimizedAffinity 10.9438791
REMARK minimizedRMSD -1
REMARK  0 active torsions:
REMARK  status: ('A' for Active; 'I' for Inactive)
ROOT
ATOM      1  N1  IND d   1      -3.761   5.986   5.161  0.00  0.00    -0.196 N 
ATOM      2  C2  IND d   1      -4.933   5.932   5.863  0.00  0.00     0.054 A 
ATOM      3  C3  IND d   1      -5.982   5.812   5.018  0.00  0.00    -0.031 A 
ATOM      4  C4  IND d   1      -5.999   5.583   2.454  0.00  0.00     0.051 A 
ATOM      5  C5  IND d   1      -5.174   5.614   1.365  0.00  0.00    -0.031 A 
ATOM      6  C6  IND d   1      -3.809   5.771   1.487  0.00  0.00     0.015 A 
ATOM      7  C7  IND d   1      -3.213   5.892   2.711  0.00  0.00    -0.016 A 
ATOM      8  C8  IND d   1      -4.048   5.868   3.819  0.00  0.00    -0.047 A 
ATOM      9  C9  IND d   1      -5.438   5.752   3.699  0.00  0.00    -0.096 A 
ATOM     10  HN1 IND d   1      -2.976   6.079   5.501  0.00  0.00     0.298 HD
ENDROOT
TORSDOF 0
ENDMDL
