MODEL 1
REMARK minimizedAffinity 2.8257916
REMARK minimizedRMSD -1
REMARK  0 active torsions:
REMARK  status: ('A' for Active; 'I' for Inactive)
ROOT
ATOM      1  N1  IND d   1      -4.560  -0.471   3.505  0.00  0.00    -0.196 N 
ATOM      2  C2  IND d   1      -3.378  -0.887   4.050  0.00  0.00     0.054 A 
ATOM      3  C3  IND d   1      -2.457  -1.086   3.080  0.00  0.00    -0.031 A 
ATOM      4  C4  IND d   1      -2.644  -0.694   0.543  0.00  0.00     0.051 A 
ATOM      5  C5  IND d   1      -3.539  -0.351  -0.432  0.00  0.00    -0.031 A 
ATOM      6  C6  IND d   1      -4.846  -0.022  -0.137  0.00  0.00     0.015 A 
ATOM      7  C7  IND d   1      -5.306  -0.012   1.149  0.00  0.00    -0.016 A 
ATOM      8  C8  IND d   1      -4.401  -0.366   2.140  0.00  0.00    -0.047 A 
ATOM      9  C9  IND d   1      -3.085  -0.742   1.844  0.00  0.00    -0.096 A 
ATOM     10  HN1 IND d   1      -5.282  -0.303   3.941  0.00  0.00     0.298 HD
ENDROOT
TORSDOF 0
ENDMDL
