MODEL 1
REMARK minimizedAffinity -1.22071457
REMARK minimizedRMSD -1
REMARK  0 active torsions:
REMARK  status: ('A' for Active; 'I' for Inactive)
ROOT
ATOM      1  N1  IND d   1       4.870  -0.806   2.516  0.00  0.00    -0.196 N 
ATOM      2  C2  IND d   1       4.628   0.504   2.822  0.00  0.00     0.054 A 
ATOM      3  C3  IND d   1       3.440   0.895   2.309  0.00  0.00    -0.031 A 
ATOM      4  C4  IND d   1       1.684  -0.476   1.020  0.00  0.00     0.051 A 
ATOM      5  C5  IND d   1       1.473  -1.708   0.467  0.00  0.00    -0.031 A 
ATOM      6  C6  IND d   1       2.401  -2.724   0.574  0.00  0.00     0.015 A 
ATOM      7  C7  IND d   1       3.575  -2.548   1.250  0.00  0.00    -0.016 A 
ATOM      8  C8  IND d   1       3.796  -1.296   1.806  0.00  0.00    -0.047 A 
ATOM      9  C9  IND d   1       2.876  -0.249   1.665  0.00  0.00    -0.096 A 
ATOM     10  HN1 IND d   1       5.575  -1.249   2.730  0.00  0.00     0.298 HD
ENDROOT
TORSDOF 0
ENDMDL
