MODEL 1
REMARK minimizedAffinity 2.38049984
REMARK minimizedRMSD -1
REMARK  0 active torsions:
REMARK  status: ('A' for Active; 'I' for Inactive)
ROOT
ATOM      1  N1  IND d   1       5.461   1.293   3.257  0.00  0.00    -0.196 N 
ATOM      2  C2  IND d   1       5.998   1.301   4.514  0.00  0.00     0.054 A 
ATOM      3  C3  IND d   1       5.476   0.297   5.254  0.00  0.00    -0.031 A 
ATOM      4  C4  IND d   1       3.806  -1.540   4.574  0.00  0.00     0.051 A 
ATOM      5  C5  IND d   1       3.008  -1.940   3.539  0.00  0.00    -0.031 A 
ATOM      6  C6  IND d   1       2.988  -1.271   2.332  0.00  0.00     0.015 A 
ATOM      7  C7  IND d   1       3.778  -0.179   2.110  0.00  0.00    -0.016 A 
ATOM      8  C8  IND d   1       4.585   0.235   3.161  0.00  0.00    -0.047 A 
ATOM      9  C9  IND d   1       4.577  -0.415   4.402  0.00  0.00    -0.096 A 
ATOM     10  HN1 IND d   1       5.641   1.855   2.631  0.00  0.00     0.298 HD
ENDROOT
TORSDOF 0
ENDMDL
