MODEL 1
REMARK minimizedAffinity 0.209745809
REMARK minimizedRMSD -1
REMARK  0 active torsions:
REMARK  status: ('A' for Active; 'I' for Inactive)
ROOT
ATOM      1  N1  IND d   1      -3.561  -0.350   4.239  0.00  0.00    -0.196 N 
ATOM      2  C2  IND d   1      -2.217  -0.155   4.398  0.00  0.00     0.054 A 
ATOM      3  C3  IND d   1      -1.570  -0.363   3.229  0.00  0.00    -0.031 A 
ATOM      4  C4  IND d   1      -2.529  -0.930   0.908  0.00  0.00     0.051 A 
ATOM      5  C5  IND d   1      -3.697  -1.243   0.272  0.00  0.00    -0.031 A 
ATOM      6  C6  IND d   1      -4.905  -1.272   0.939  0.00  0.00     0.015 A 
ATOM      7  C7  IND d   1      -4.991  -0.977   2.270  0.00  0.00    -0.016 A 
ATOM      8  C8  IND d   1      -3.805  -0.666   2.921  0.00  0.00    -0.047 A 
ATOM      9  C9  IND d   1      -2.571  -0.676   2.259  0.00  0.00    -0.096 A 
ATOM     10  HN1 IND d   1      -4.154  -0.286   4.859  0.00  0.00     0.298 HD
ENDROOT
TORSDOF 0
ENDMDL
