MODEL 1
REMARK minimizedAffinity -3.60323
REMARK minimizedRMSD -1
REMARK  1 active torsions:
REMARK  status: ('A' for Active; 'I' for Inactive)
REMARK    1  A    between atoms: N_2  and  C1_3 
ROOT
ATOM      1  C1  UNL d   1       0.058   1.017   0.851  0.00  0.00     0.143 A 
ATOM      2  C2  UNL d   1       1.432   0.796   0.999  0.00  0.00    -0.057 A 
ATOM      3  C3  UNL d   1       2.268   1.769   1.560  0.00  0.00     0.033 A 
ATOM      4  C4  UNL d   1       1.747   2.997   1.957  0.00  0.00    -0.042 A 
ATOM      5  C5  UNL d   1       0.389   3.248   1.796  0.00  0.00     0.033 A 
ATOM      6  C6  UNL d   1      -0.441   2.270   1.241  0.00  0.00    -0.057 A 
ENDROOT
BRANCH   1   7
ATOM      7  N   UNL d   1      -0.808   0.128   0.210  0.00  0.00    -0.732 N 
ATOM      8  C   UNL d   1      -0.347  -1.179  -0.206  0.00  0.00     0.284 C 
ATOM      9  H3  UNL d   1      -1.739   0.130   0.621  0.00  0.00     0.395 HD
ENDBRANCH   1   7
TORSDOF 1
ENDMDL
