MODEL 1
REMARK minimizedAffinity -4.47630835
REMARK minimizedRMSD -1
REMARK  1 active torsions:
REMARK  status: ('A' for Active; 'I' for Inactive)
REMARK    1  A    between atoms: N_2  and  C1_3 
ROOT
ATOM      1  C1  UNL d   1       1.816   1.510   0.346  0.00  0.00     0.143 A 
ATOM      2  C2  UNL d   1       1.261   0.295  -0.069  0.00  0.00    -0.057 A 
ATOM      3  C3  UNL d   1       0.098  -0.212   0.522  0.00  0.00     0.033 A 
ATOM      4  C4  UNL d   1      -0.518   0.476   1.562  0.00  0.00    -0.042 A 
ATOM      5  C5  UNL d   1       0.030   1.674   2.008  0.00  0.00     0.033 A 
ATOM      6  C6  UNL d   1       1.188   2.178   1.409  0.00  0.00    -0.057 A 
ENDROOT
BRANCH   1   7
ATOM      7  N   UNL d   1       3.025   2.018  -0.135  0.00  0.00    -0.732 N 
ATOM      8  C   UNL d   1       3.903   1.194  -0.938  0.00  0.00     0.284 C 
ATOM      9  H3  UNL d   1       2.941   2.978  -0.462  0.00  0.00     0.395 HD
ENDBRANCH   1   7
TORSDOF 1
ENDMDL
