MODEL 1
REMARK minimizedAffinity -2.03144741
REMARK minimizedRMSD -1
REMARK  1 active torsions:
REMARK  status: ('A' for Active; 'I' for Inactive)
REMARK    1  A    between atoms: N_2  and  C1_3 
ROOT
ATOM      1  C1  UNL d   1      -0.609  -0.320  -0.202  0.00  0.00     0.143 A 
ATOM      2  C2  UNL d   1      -1.231  -0.047   1.021  0.00  0.00    -0.057 A 
ATOM      3  C3  UNL d   1      -0.793   1.000   1.841  0.00  0.00     0.033 A 
ATOM      4  C4  UNL d   1       0.297   1.777   1.465  0.00  0.00    -0.042 A 
ATOM      5  C5  UNL d   1       0.947   1.508   0.265  0.00  0.00     0.033 A 
ATOM      6  C6  UNL d   1       0.501   0.465  -0.552  0.00  0.00    -0.057 A 
ENDROOT
BRANCH   1   7
ATOM      7  N   UNL d   1      -0.935  -1.408  -1.015  0.00  0.00    -0.732 N 
ATOM      8  C   UNL d   1      -1.709  -1.220  -2.222  0.00  0.00     0.284 C 
ATOM      9  H3  UNL d   1      -0.163  -2.064  -1.113  0.00  0.00     0.395 HD
ENDBRANCH   1   7
TORSDOF 1
ENDMDL
