MODEL 1
REMARK minimizedAffinity -4.91563416
REMARK minimizedRMSD -1
REMARK  1 active torsions:
REMARK  status: ('A' for Active; 'I' for Inactive)
REMARK    1  A    between atoms: N_2  and  C1_3 
ROOT
ATOM      1  C1  UNL d   1       0.494   0.229   0.155  0.00  0.00     0.143 A 
ATOM      2  C2  UNL d   1      -0.207   1.203   0.874  0.00  0.00    -0.057 A 
ATOM      3  C3  UNL d   1       0.451   2.304   1.435  0.00  0.00     0.033 A 
ATOM      4  C4  UNL d   1       1.830   2.436   1.311  0.00  0.00    -0.042 A 
ATOM      5  C5  UNL d   1       2.550   1.467   0.622  0.00  0.00     0.033 A 
ATOM      6  C6  UNL d   1       1.887   0.373   0.058  0.00  0.00    -0.057 A 
ENDROOT
BRANCH   1   7
ATOM      7  N   UNL d   1      -0.088  -0.940  -0.342  0.00  0.00    -0.732 N 
ATOM      8  C   UNL d   1      -0.929  -0.902  -1.519  0.00  0.00     0.284 C 
ATOM      9  H3  UNL d   1       0.548  -1.734  -0.311  0.00  0.00     0.395 HD
ENDBRANCH   1   7
TORSDOF 1
ENDMDL
