MODEL 1
REMARK minimizedAffinity -5.10201025
REMARK minimizedRMSD -1
REMARK  1 active torsions:
REMARK  status: ('A' for Active; 'I' for Inactive)
REMARK    1  A    between atoms: N_2  and  C1_3 
ROOT
ATOM      1  C1  UNL d   1       0.295   0.373   0.263  0.00  0.00     0.143 A 
ATOM      2  C2  UNL d   1      -0.289   1.409   1.000  0.00  0.00    -0.057 A 
ATOM      3  C3  UNL d   1       0.470   2.493   1.456  0.00  0.00     0.033 A 
ATOM      4  C4  UNL d   1       1.838   2.546   1.208  0.00  0.00    -0.042 A 
ATOM      5  C5  UNL d   1       2.444   1.515   0.499  0.00  0.00     0.033 A 
ATOM      6  C6  UNL d   1       1.679   0.438   0.040  0.00  0.00    -0.057 A 
ENDROOT
BRANCH   1   7
ATOM      7  N   UNL d   1      -0.387  -0.780  -0.133  0.00  0.00    -0.732 N 
ATOM      8  C   UNL d   1      -1.123  -0.809  -1.379  0.00  0.00     0.284 C 
ATOM      9  H3  UNL d   1       0.140  -1.628   0.058  0.00  0.00     0.395 HD
ENDBRANCH   1   7
TORSDOF 1
ENDMDL
