MODEL 1
REMARK minimizedAffinity -3.97611117
REMARK minimizedRMSD -1
REMARK  1 active torsions:
REMARK  status: ('A' for Active; 'I' for Inactive)
REMARK    1  A    between atoms: N_2  and  C1_3 
ROOT
ATOM      1  C1  UNL d   1       0.759   0.873   0.453  0.00  0.00     0.143 A 
ATOM      2  C2  UNL d   1       0.845   1.940   1.354  0.00  0.00    -0.057 A 
ATOM      3  C3  UNL d   1       2.051   2.622   1.559  0.00  0.00     0.033 A 
ATOM      4  C4  UNL d   1       3.202   2.229   0.885  0.00  0.00    -0.042 A 
ATOM      5  C5  UNL d   1       3.146   1.155   0.004  0.00  0.00     0.033 A 
ATOM      6  C6  UNL d   1       1.938   0.483  -0.202  0.00  0.00    -0.057 A 
ENDROOT
BRANCH   1   7
ATOM      7  N   UNL d   1      -0.386   0.093   0.278  0.00  0.00    -0.732 N 
ATOM      8  C   UNL d   1      -0.328  -1.145  -0.468  0.00  0.00     0.284 C 
ATOM      9  H3  UNL d   1      -0.955   0.044   1.121  0.00  0.00     0.395 HD
ENDBRANCH   1   7
TORSDOF 1
ENDMDL
