MODEL 1
REMARK minimizedAffinity -2.96794677
REMARK minimizedRMSD -1
REMARK  1 active torsions:
REMARK  status: ('A' for Active; 'I' for Inactive)
REMARK    1  A    between atoms: N_2  and  C1_3 
ROOT
ATOM      1  C1  UNL d   1      -0.305   0.317   0.602  0.00  0.00     0.143 A 
ATOM      2  C2  UNL d   1       0.586   1.023  -0.213  0.00  0.00    -0.057 A 
ATOM      3  C3  UNL d   1       1.498   1.937   0.328  0.00  0.00     0.033 A 
ATOM      4  C4  UNL d   1       1.514   2.184   1.697  0.00  0.00    -0.042 A 
ATOM      5  C5  UNL d   1       0.621   1.512   2.524  0.00  0.00     0.033 A 
ATOM      6  C6  UNL d   1      -0.283   0.595   1.978  0.00  0.00    -0.057 A 
ENDROOT
BRANCH   1   7
ATOM      7  N   UNL d   1      -1.301  -0.532   0.113  0.00  0.00    -0.732 N 
ATOM      8  C   UNL d   1      -1.608  -0.571  -1.301  0.00  0.00     0.284 C 
ATOM      9  H3  UNL d   1      -1.287  -1.446   0.561  0.00  0.00     0.395 HD
ENDBRANCH   1   7
TORSDOF 1
ENDMDL
