MODEL 1
REMARK minimizedAffinity -3.25191689
REMARK minimizedRMSD -1
REMARK  1 active torsions:
REMARK  status: ('A' for Active; 'I' for Inactive)
REMARK    1  A    between atoms: N_2  and  C1_3 
ROOT
ATOM      1  C1  UNL d   1       0.202   1.456   0.862  0.00  0.00     0.143 A 
ATOM      2  C2  UNL d   1       0.790   0.595  -0.071  0.00  0.00    -0.057 A 
ATOM      3  C3  UNL d   1       0.151  -0.582  -0.477  0.00  0.00     0.033 A 
ATOM      4  C4  UNL d   1      -1.080  -0.935   0.066  0.00  0.00    -0.042 A 
ATOM      5  C5  UNL d   1      -1.672  -0.108   1.013  0.00  0.00     0.033 A 
ATOM      6  C6  UNL d   1      -1.032   1.070   1.410  0.00  0.00    -0.057 A 
ENDROOT
BRANCH   1   7
ATOM      7  N   UNL d   1       0.831   2.590   1.380  0.00  0.00    -0.732 N 
ATOM      8  C   UNL d   1       2.252   2.583   1.657  0.00  0.00     0.284 C 
ATOM      9  H3  UNL d   1       0.495   3.450   0.953  0.00  0.00     0.395 HD
ENDBRANCH   1   7
TORSDOF 1
ENDMDL
