MODEL 1
REMARK minimizedAffinity -3.81625056
REMARK minimizedRMSD -1
REMARK  1 active torsions:
REMARK  status: ('A' for Active; 'I' for Inactive)
REMARK    1  A    between atoms: N_2  and  C1_3 
ROOT
ATOM      1  C1  UNL d   1       1.057   0.516   0.080  0.00  0.00     0.143 A 
ATOM      2  C2  UNL d   1       0.184   1.339   0.800  0.00  0.00    -0.057 A 
ATOM      3  C3  UNL d   1       0.656   2.438   1.528  0.00  0.00     0.033 A 
ATOM      4  C4  UNL d   1       2.018   2.717   1.571  0.00  0.00    -0.042 A 
ATOM      5  C5  UNL d   1       2.907   1.899   0.883  0.00  0.00     0.033 A 
ATOM      6  C6  UNL d   1       2.428   0.807   0.153  0.00  0.00    -0.057 A 
ENDROOT
BRANCH   1   7
ATOM      7  N   UNL d   1       0.660  -0.648  -0.582  0.00  0.00    -0.732 N 
ATOM      8  C   UNL d   1      -0.621  -1.259  -0.296  0.00  0.00     0.284 C 
ATOM      9  H3  UNL d   1       0.902  -0.635  -1.570  0.00  0.00     0.395 HD
ENDBRANCH   1   7
TORSDOF 1
ENDMDL
