MODEL 1
REMARK minimizedAffinity -5.50460434
REMARK minimizedRMSD -1
REMARK  1 active torsions:
REMARK  status: ('A' for Active; 'I' for Inactive)
REMARK    1  A    between atoms: N_2  and  C1_3 
ROOT
ATOM      1  C1  UNL d   1       0.855   0.960   0.181  0.00  0.00     0.143 A 
ATOM      2  C2  UNL d   1       2.187   0.598  -0.049  0.00  0.00    -0.057 A 
ATOM      3  C3  UNL d   1       3.244   1.412   0.377  0.00  0.00     0.033 A 
ATOM      4  C4  UNL d   1       2.987   2.620   1.016  0.00  0.00    -0.042 A 
ATOM      5  C5  UNL d   1       1.670   3.012   1.233  0.00  0.00     0.033 A 
ATOM      6  C6  UNL d   1       0.619   2.192   0.812  0.00  0.00    -0.057 A 
ENDROOT
BRANCH   1   7
ATOM      7  N   UNL d   1      -0.240   0.242  -0.304  0.00  0.00    -0.732 N 
ATOM      8  C   UNL d   1      -0.224  -1.205  -0.322  0.00  0.00     0.284 C 
ATOM      9  H3  UNL d   1      -1.128   0.645  -0.013  0.00  0.00     0.395 HD
ENDBRANCH   1   7
TORSDOF 1
ENDMDL
