MODEL 1
REMARK minimizedAffinity -4.38483906
REMARK minimizedRMSD -1
REMARK  1 active torsions:
REMARK  status: ('A' for Active; 'I' for Inactive)
REMARK    1  A    between atoms: N_2  and  C1_3 
ROOT
ATOM      1  C1  UNL d   1       0.073  -0.254   0.023  0.00  0.00     0.143 A 
ATOM      2  C2  UNL d   1       1.103   0.686  -0.089  0.00  0.00    -0.057 A 
ATOM      3  C3  UNL d   1       1.151   1.812   0.743  0.00  0.00     0.033 A 
ATOM      4  C4  UNL d   1       0.151   2.032   1.684  0.00  0.00    -0.042 A 
ATOM      5  C5  UNL d   1      -0.895   1.123   1.795  0.00  0.00     0.033 A 
ATOM      6  C6  UNL d   1      -0.934  -0.002   0.967  0.00  0.00    -0.057 A 
ENDROOT
BRANCH   1   7
ATOM      7  N   UNL d   1      -0.084  -1.342  -0.841  0.00  0.00    -0.732 N 
ATOM      8  C   UNL d   1      -1.285  -1.485  -1.635  0.00  0.00     0.284 C 
ATOM      9  H3  UNL d   1       0.774  -1.569  -1.339  0.00  0.00     0.395 HD
ENDBRANCH   1   7
TORSDOF 1
ENDMDL
