MODEL 1
REMARK minimizedAffinity -4.82893419
REMARK minimizedRMSD -1
REMARK  1 active torsions:
REMARK  status: ('A' for Active; 'I' for Inactive)
REMARK    1  A    between atoms: N_2  and  C1_3 
ROOT
ATOM      1  C1  UNL d   1      -0.247  -0.730   0.157  0.00  0.00     0.143 A 
ATOM      2  C2  UNL d   1       0.591   0.353  -0.128  0.00  0.00    -0.057 A 
ATOM      3  C3  UNL d   1       0.529   1.536   0.619  0.00  0.00     0.033 A 
ATOM      4  C4  UNL d   1      -0.396   1.666   1.650  0.00  0.00    -0.042 A 
ATOM      5  C5  UNL d   1      -1.255   0.611   1.935  0.00  0.00     0.033 A 
ATOM      6  C6  UNL d   1      -1.184  -0.569   1.190  0.00  0.00    -0.057 A 
ENDROOT
BRANCH   1   7
ATOM      7  N   UNL d   1      -0.301  -1.895  -0.612  0.00  0.00    -0.732 N 
ATOM      8  C   UNL d   1      -1.222  -2.004  -1.722  0.00  0.00     0.284 C 
ATOM      9  H3  UNL d   1       0.622  -2.281  -0.799  0.00  0.00     0.395 HD
ENDBRANCH   1   7
TORSDOF 1
ENDMDL
