MODEL 1
REMARK minimizedAffinity -3.7270906
REMARK minimizedRMSD -1
REMARK  1 active torsions:
REMARK  status: ('A' for Active; 'I' for Inactive)
REMARK    1  A    between atoms: N_2  and  C1_3 
ROOT
ATOM      1  C1  UNL d   1       0.219   0.141   0.185  0.00  0.00     0.143 A 
ATOM      2  C2  UNL d   1      -0.296   0.737   1.342  0.00  0.00    -0.057 A 
ATOM      3  C3  UNL d   1       0.261   1.910   1.864  0.00  0.00     0.033 A 
ATOM      4  C4  UNL d   1       1.367   2.493   1.254  0.00  0.00    -0.042 A 
ATOM      5  C5  UNL d   1       1.911   1.905   0.118  0.00  0.00     0.033 A 
ATOM      6  C6  UNL d   1       1.345   0.737  -0.403  0.00  0.00    -0.057 A 
ENDROOT
BRANCH   1   7
ATOM      7  N   UNL d   1      -0.230  -1.079  -0.327  0.00  0.00    -0.732 N 
ATOM      8  C   UNL d   1      -1.193  -1.116  -1.406  0.00  0.00     0.284 C 
ATOM      9  H3  UNL d   1       0.519  -1.762  -0.414  0.00  0.00     0.395 HD
ENDBRANCH   1   7
TORSDOF 1
ENDMDL
