MODEL 1
REMARK minimizedAffinity -1.01544499
REMARK minimizedRMSD -1
REMARK  1 active torsions:
REMARK  status: ('A' for Active; 'I' for Inactive)
REMARK    1  A    between atoms: N_2  and  C1_3 
ROOT
ATOM      1  C1  UNL d   1      -0.993  -1.322  -1.480  0.00  0.00     0.143 A 
ATOM      2  C2  UNL d   1      -1.950  -2.245  -1.044  0.00  0.00    -0.057 A 
ATOM      3  C3  UNL d   1      -2.931  -2.739  -1.912  0.00  0.00     0.033 A 
ATOM      4  C4  UNL d   1      -2.991  -2.295  -3.229  0.00  0.00    -0.042 A 
ATOM      5  C5  UNL d   1      -2.065  -1.360  -3.678  0.00  0.00     0.033 A 
ATOM      6  C6  UNL d   1      -1.084  -0.875  -2.808  0.00  0.00    -0.057 A 
ENDROOT
BRANCH   1   7
ATOM      7  N   UNL d   1      -0.053  -0.720  -0.640  0.00  0.00    -0.732 N 
ATOM      8  C   UNL d   1      -0.459   0.287   0.317  0.00  0.00     0.284 C 
ATOM      9  H3  UNL d   1       0.629  -1.384  -0.281  0.00  0.00     0.395 HD
ENDBRANCH   1   7
TORSDOF 1
ENDMDL
