MODEL 1
REMARK minimizedAffinity -5.2717495
REMARK minimizedRMSD -1
REMARK  1 active torsions:
REMARK  status: ('A' for Active; 'I' for Inactive)
REMARK    1  A    between atoms: N_2  and  C1_3 
ROOT
ATOM      1  C1  UNL d   1       0.243   0.159  -0.031  0.00  0.00     0.143 A 
ATOM      2  C2  UNL d   1      -0.523   0.901   0.874  0.00  0.00    -0.057 A 
ATOM      3  C3  UNL d   1      -0.005   2.040   1.501  0.00  0.00     0.033 A 
ATOM      4  C4  UNL d   1       1.304   2.442   1.256  0.00  0.00    -0.042 A 
ATOM      5  C5  UNL d   1       2.093   1.705   0.379  0.00  0.00     0.033 A 
ATOM      6  C6  UNL d   1       1.567   0.572  -0.249  0.00  0.00    -0.057 A 
ENDROOT
BRANCH   1   7
ATOM      7  N   UNL d   1      -0.182  -1.039  -0.612  0.00  0.00    -0.732 N 
ATOM      8  C   UNL d   1      -1.250  -1.046  -1.588  0.00  0.00     0.284 C 
ATOM      9  H3  UNL d   1       0.594  -1.657  -0.839  0.00  0.00     0.395 HD
ENDBRANCH   1   7
TORSDOF 1
ENDMDL
