MODEL 1
REMARK minimizedAffinity -5.33137894
REMARK minimizedRMSD -1
REMARK  1 active torsions:
REMARK  status: ('A' for Active; 'I' for Inactive)
REMARK    1  A    between atoms: N_2  and  C1_3 
ROOT
ATOM      1  C1  UNL d   1       0.795   0.263   0.492  0.00  0.00     0.143 A 
ATOM      2  C2  UNL d   1       0.118   0.961   1.498  0.00  0.00    -0.057 A 
ATOM      3  C3  UNL d   1       0.583   2.197   1.964  0.00  0.00     0.033 A 
ATOM      4  C4  UNL d   1       1.754   2.744   1.450  0.00  0.00    -0.042 A 
ATOM      5  C5  UNL d   1       2.457   2.056   0.468  0.00  0.00     0.033 A 
ATOM      6  C6  UNL d   1       1.984   0.826   0.002  0.00  0.00    -0.057 A 
ENDROOT
BRANCH   1   7
ATOM      7  N   UNL d   1       0.437  -1.015   0.056  0.00  0.00    -0.732 N 
ATOM      8  C   UNL d   1      -0.681  -1.200  -0.844  0.00  0.00     0.284 C 
ATOM      9  H3  UNL d   1       1.246  -1.591  -0.162  0.00  0.00     0.395 HD
ENDBRANCH   1   7
TORSDOF 1
ENDMDL
