MODEL 1
REMARK minimizedAffinity 0.397065103
REMARK minimizedRMSD -1
REMARK  1 active torsions:
REMARK  status: ('A' for Active; 'I' for Inactive)
REMARK    1  A    between atoms: N_2  and  C1_3 
ROOT
ATOM      1  C1  UNL d   1       3.472   3.949   5.492  0.00  0.00     0.143 A 
ATOM      2  C2  UNL d   1       2.241   3.330   5.248  0.00  0.00    -0.057 A 
ATOM      3  C3  UNL d   1       2.081   1.947   5.398  0.00  0.00     0.033 A 
ATOM      4  C4  UNL d   1       3.161   1.152   5.766  0.00  0.00    -0.042 A 
ATOM      5  C5  UNL d   1       4.400   1.742   5.989  0.00  0.00     0.033 A 
ATOM      6  C6  UNL d   1       4.552   3.124   5.845  0.00  0.00    -0.057 A 
ENDROOT
BRANCH   1   7
ATOM      7  N   UNL d   1       3.719   5.305   5.265  0.00  0.00    -0.732 N 
ATOM      8  C   UNL d   1       4.768   5.993   5.986  0.00  0.00     0.284 C 
ATOM      9  H3  UNL d   1       3.662   5.551   4.280  0.00  0.00     0.395 HD
ENDBRANCH   1   7
TORSDOF 1
ENDMDL
