MODEL 1
REMARK minimizedAffinity -1.31520236
REMARK minimizedRMSD -1
REMARK  1 active torsions:
REMARK  status: ('A' for Active; 'I' for Inactive)
REMARK    1  A    between atoms: N_2  and  C1_3 
ROOT
ATOM      1  C1  UNL d   1       3.842   2.917   5.123  0.00  0.00     0.143 A 
ATOM      2  C2  UNL d   1       5.109   3.002   4.537  0.00  0.00    -0.057 A 
ATOM      3  C3  UNL d   1       5.909   4.140   4.699  0.00  0.00     0.033 A 
ATOM      4  C4  UNL d   1       5.442   5.228   5.429  0.00  0.00    -0.042 A 
ATOM      5  C5  UNL d   1       4.175   5.176   6.000  0.00  0.00     0.033 A 
ATOM      6  C6  UNL d   1       3.384   4.034   5.840  0.00  0.00    -0.057 A 
ENDROOT
BRANCH   1   7
ATOM      7  N   UNL d   1       2.959   1.854   4.917  0.00  0.00    -0.732 N 
ATOM      8  C   UNL d   1       2.621   0.956   6.000  0.00  0.00     0.284 C 
ATOM      9  H3  UNL d   1       2.169   2.114   4.330  0.00  0.00     0.395 HD
ENDBRANCH   1   7
TORSDOF 1
ENDMDL
