MODEL 1
REMARK minimizedAffinity -3.41262293
REMARK minimizedRMSD -1
REMARK  1 active torsions:
REMARK  status: ('A' for Active; 'I' for Inactive)
REMARK    1  A    between atoms: N_2  and  C1_3 
ROOT
ATOM      1  C1  UNL d   1       4.137   3.839   4.416  0.00  0.00     0.143 A 
ATOM      2  C2  UNL d   1       4.125   5.238   4.449  0.00  0.00    -0.057 A 
ATOM      3  C3  UNL d   1       5.049   5.953   5.220  0.00  0.00     0.033 A 
ATOM      4  C4  UNL d   1       5.986   5.279   5.997  0.00  0.00    -0.042 A 
ATOM      5  C5  UNL d   1       5.999   3.889   5.999  0.00  0.00     0.033 A 
ATOM      6  C6  UNL d   1       5.078   3.180   5.222  0.00  0.00    -0.057 A 
ENDROOT
BRANCH   1   7
ATOM      7  N   UNL d   1       3.182   3.069   3.746  0.00  0.00    -0.732 N 
ATOM      8  C   UNL d   1       2.712   1.823   4.312  0.00  0.00     0.284 C 
ATOM      9  H3  UNL d   1       2.450   3.638   3.327  0.00  0.00     0.395 HD
ENDBRANCH   1   7
TORSDOF 1
ENDMDL
