MODEL 1
REMARK minimizedAffinity -3.96942496
REMARK minimizedRMSD -1
REMARK  1 active torsions:
REMARK  status: ('A' for Active; 'I' for Inactive)
REMARK    1  A    between atoms: N_2  and  C1_3 
ROOT
ATOM      1  C1  UNL d   1       3.634   5.022   4.251  0.00  0.00     0.143 A 
ATOM      2  C2  UNL d   1       4.787   5.242   5.012  0.00  0.00    -0.057 A 
ATOM      3  C3  UNL d   1       5.292   4.254   5.867  0.00  0.00     0.033 A 
ATOM      4  C4  UNL d   1       4.634   3.036   5.997  0.00  0.00    -0.042 A 
ATOM      5  C5  UNL d   1       3.473   2.804   5.269  0.00  0.00     0.033 A 
ATOM      6  C6  UNL d   1       2.977   3.792   4.412  0.00  0.00    -0.057 A 
ENDROOT
BRANCH   1   7
ATOM      7  N   UNL d   1       3.027   5.999   3.459  0.00  0.00    -0.732 N 
ATOM      8  C   UNL d   1       1.604   5.956   3.196  0.00  0.00     0.284 C 
ATOM      9  H3  UNL d   1       3.387   6.931   3.648  0.00  0.00     0.395 HD
ENDBRANCH   1   7
TORSDOF 1
ENDMDL
