MODEL 1
REMARK minimizedAffinity -4.44215631
REMARK minimizedRMSD -1
REMARK  1 active torsions:
REMARK  status: ('A' for Active; 'I' for Inactive)
REMARK    1  A    between atoms: N_2  and  C1_3 
ROOT
ATOM      1  C1  UNL d   1       2.228   4.467   4.082  0.00  0.00     0.143 A 
ATOM      2  C2  UNL d   1       1.580   4.022   5.239  0.00  0.00    -0.057 A 
ATOM      3  C3  UNL d   1       2.085   2.953   5.990  0.00  0.00     0.033 A 
ATOM      4  C4  UNL d   1       3.236   2.290   5.579  0.00  0.00    -0.042 A 
ATOM      5  C5  UNL d   1       3.884   2.699   4.418  0.00  0.00     0.033 A 
ATOM      6  C6  UNL d   1       3.378   3.771   3.677  0.00  0.00    -0.057 A 
ENDROOT
BRANCH   1   7
ATOM      7  N   UNL d   1       1.722   5.459   3.240  0.00  0.00    -0.732 N 
ATOM      8  C   UNL d   1       0.615   5.178   2.352  0.00  0.00     0.284 C 
ATOM      9  H3  UNL d   1       1.668   6.367   3.697  0.00  0.00     0.395 HD
ENDBRANCH   1   7
TORSDOF 1
ENDMDL
