MODEL 1
REMARK minimizedAffinity -3.56385303
REMARK minimizedRMSD -1
REMARK  1 active torsions:
REMARK  status: ('A' for Active; 'I' for Inactive)
REMARK    1  A    between atoms: N_2  and  C1_3 
ROOT
ATOM      1  C1  UNL d   1       3.762   3.124   4.856  0.00  0.00     0.143 A 
ATOM      2  C2  UNL d   1       3.023   3.825   5.815  0.00  0.00    -0.057 A 
ATOM      3  C3  UNL d   1       2.417   5.050   5.511  0.00  0.00     0.033 A 
ATOM      4  C4  UNL d   1       2.565   5.611   4.247  0.00  0.00    -0.042 A 
ATOM      5  C5  UNL d   1       3.316   4.944   3.286  0.00  0.00     0.033 A 
ATOM      6  C6  UNL d   1       3.913   3.718   3.594  0.00  0.00    -0.057 A 
ENDROOT
BRANCH   1   7
ATOM      7  N   UNL d   1       4.471   1.950   5.126  0.00  0.00    -0.732 N 
ATOM      8  C   UNL d   1       3.881   0.902   5.931  0.00  0.00     0.284 C 
ATOM      9  H3  UNL d   1       4.986   1.613   4.316  0.00  0.00     0.395 HD
ENDBRANCH   1   7
TORSDOF 1
ENDMDL
