MODEL 1
REMARK minimizedAffinity -2.96354389
REMARK minimizedRMSD -1
REMARK  1 active torsions:
REMARK  status: ('A' for Active; 'I' for Inactive)
REMARK    1  A    between atoms: N_2  and  C1_3 
ROOT
ATOM      1  C1  UNL d   1       2.164   4.942   5.816  0.00  0.00     0.143 A 
ATOM      2  C2  UNL d   1       2.642   3.651   5.569  0.00  0.00    -0.057 A 
ATOM      3  C3  UNL d   1       3.994   3.417   5.292  0.00  0.00     0.033 A 
ATOM      4  C4  UNL d   1       4.890   4.479   5.228  0.00  0.00    -0.042 A 
ATOM      5  C5  UNL d   1       4.433   5.774   5.445  0.00  0.00     0.033 A 
ATOM      6  C6  UNL d   1       3.083   6.000   5.728  0.00  0.00    -0.057 A 
ENDROOT
BRANCH   1   7
ATOM      7  N   UNL d   1       0.814   5.250   6.000  0.00  0.00    -0.732 N 
ATOM      8  C   UNL d   1       0.002   5.698   4.889  0.00  0.00     0.284 C 
ATOM      9  H3  UNL d   1       0.346   4.591   6.618  0.00  0.00     0.395 HD
ENDBRANCH   1   7
TORSDOF 1
ENDMDL
