MODEL 1
REMARK minimizedAffinity 1.92848873
REMARK minimizedRMSD -1
REMARK  1 active torsions:
REMARK  status: ('A' for Active; 'I' for Inactive)
REMARK    1  A    between atoms: N_2  and  C1_3 
ROOT
ATOM      1  C1  UNL d   1       3.890   2.894   5.244  0.00  0.00     0.143 A 
ATOM      2  C2  UNL d   1       3.873   2.932   3.845  0.00  0.00    -0.057 A 
ATOM      3  C3  UNL d   1       4.318   4.059   3.144  0.00  0.00     0.033 A 
ATOM      4  C4  UNL d   1       4.762   5.183   3.833  0.00  0.00    -0.042 A 
ATOM      5  C5  UNL d   1       4.764   5.177   5.223  0.00  0.00     0.033 A 
ATOM      6  C6  UNL d   1       4.324   4.046   5.917  0.00  0.00    -0.057 A 
ENDROOT
BRANCH   1   7
ATOM      7  N   UNL d   1       3.369   1.841   6.000  0.00  0.00    -0.732 N 
ATOM      8  C   UNL d   1       2.622   0.776   5.364  0.00  0.00     0.284 C 
ATOM      9  H3  UNL d   1       4.013   1.524   6.720  0.00  0.00     0.395 HD
ENDBRANCH   1   7
TORSDOF 1
ENDMDL
