MODEL 1
REMARK minimizedAffinity 0.641593575
REMARK minimizedRMSD -1
REMARK  1 active torsions:
REMARK  status: ('A' for Active; 'I' for Inactive)
REMARK    1  A    between atoms: N_2  and  C1_3 
ROOT
ATOM      1  C1  UNL d   1       2.518   4.468   5.451  0.00  0.00     0.143 A 
ATOM      2  C2  UNL d   1       2.624   3.153   4.984  0.00  0.00    -0.057 A 
ATOM      3  C3  UNL d   1       3.843   2.643   4.522  0.00  0.00     0.033 A 
ATOM      4  C4  UNL d   1       4.975   3.450   4.493  0.00  0.00    -0.042 A 
ATOM      5  C5  UNL d   1       4.888   4.768   4.929  0.00  0.00     0.033 A 
ATOM      6  C6  UNL d   1       3.669   5.269   5.395  0.00  0.00    -0.057 A 
ENDROOT
BRANCH   1   7
ATOM      7  N   UNL d   1       1.312   5.064   5.830  0.00  0.00    -0.732 N 
ATOM      8  C   UNL d   1       0.518   5.797   4.868  0.00  0.00     0.284 C 
ATOM      9  H3  UNL d   1       0.768   4.475   6.456  0.00  0.00     0.395 HD
ENDBRANCH   1   7
TORSDOF 1
ENDMDL
