MODEL 1
REMARK minimizedAffinity -3.64251113
REMARK minimizedRMSD -1
REMARK  0 active torsions:
REMARK  status: ('A' for Active; 'I' for Inactive)
ROOT
ATOM      1  C4' PXY d   1       3.506  -1.392   1.109  0.00  0.00     0.077 C 
ATOM      2  C1' PXY d   1      -1.602   0.849  -0.407  0.00  0.00     0.077 C 
ATOM      3  C1  PXY d   1      -0.257   0.273  -0.010  0.00  0.00    -0.082 A 
ATOM      4  C2  PXY d   1      -0.007  -1.009  -0.220  0.00  0.00     0.003 A 
ATOM      5  C3  PXY d   1       1.192  -1.553   0.161  0.00  0.00     0.003 A 
ATOM      6  C4  PXY d   1       2.166  -0.766   0.716  0.00  0.00    -0.082 A 
ATOM      7  C5  PXY d   1       1.922   0.546   0.924  0.00  0.00     0.003 A 
ATOM      8  C6  PXY d   1       0.683   1.070   0.568  0.00  0.00     0.003 A 
ENDROOT
TORSDOF 0
ENDMDL
