MODEL 1
REMARK minimizedAffinity -3.17970347
REMARK minimizedRMSD -1
REMARK  0 active torsions:
REMARK  status: ('A' for Active; 'I' for Inactive)
ROOT
ATOM      1  C4' PXY d   1       2.976  -1.387   1.495  0.00  0.00     0.077 C 
ATOM      2  C1' PXY d   1      -1.479   1.397  -0.917  0.00  0.00     0.077 C 
ATOM      3  C1  PXY d   1      -0.317   0.656  -0.286  0.00  0.00    -0.082 A 
ATOM      4  C2  PXY d   1       0.469   1.282   0.575  0.00  0.00     0.003 A 
ATOM      5  C3  PXY d   1       1.544   0.636   1.130  0.00  0.00     0.003 A 
ATOM      6  C4  PXY d   1       1.785  -0.680   0.841  0.00  0.00    -0.082 A 
ATOM      7  C5  PXY d   1       0.982  -1.329  -0.028  0.00  0.00     0.003 A 
ATOM      8  C6  PXY d   1      -0.079  -0.644  -0.612  0.00  0.00     0.003 A 
ENDROOT
TORSDOF 0
ENDMDL
