MODEL 1
REMARK minimizedAffinity -1.95377743
REMARK minimizedRMSD -1
REMARK  0 active torsions:
REMARK  status: ('A' for Active; 'I' for Inactive)
ROOT
ATOM      1  C4' PXY d   1      -0.391  -2.702  -1.822  0.00  0.00     0.077 C 
ATOM      2  C1' PXY d   1       1.975   1.320   1.590  0.00  0.00     0.077 C 
ATOM      3  C1  PXY d   1       1.366   0.261   0.693  0.00  0.00    -0.082 A 
ATOM      4  C2  PXY d   1       0.174   0.464   0.156  0.00  0.00     0.003 A 
ATOM      5  C3  PXY d   1      -0.405  -0.497  -0.632  0.00  0.00     0.003 A 
ATOM      6  C4  PXY d   1       0.266  -1.656  -0.917  0.00  0.00    -0.082 A 
ATOM      7  C5  PXY d   1       1.488  -1.866  -0.382  0.00  0.00     0.003 A 
ATOM      8  C6  PXY d   1       2.040  -0.896   0.449  0.00  0.00     0.003 A 
ENDROOT
TORSDOF 0
ENDMDL
