MODEL 1
REMARK minimizedAffinity -1.80008006
REMARK minimizedRMSD -1
REMARK  0 active torsions:
REMARK  status: ('A' for Active; 'I' for Inactive)
ROOT
ATOM      1  C4' PXY d   1       2.162   1.657   1.113  0.00  0.00     0.077 C 
ATOM      2  C1' PXY d   1      -0.040  -3.294  -0.901  0.00  0.00     0.077 C 
ATOM      3  C1  PXY d   1       0.530  -1.989  -0.382  0.00  0.00    -0.082 A 
ATOM      4  C2  PXY d   1       1.706  -1.985   0.224  0.00  0.00     0.003 A 
ATOM      5  C3  PXY d   1       2.222  -0.818   0.729  0.00  0.00     0.003 A 
ATOM      6  C4  PXY d   1       1.551   0.364   0.564  0.00  0.00    -0.082 A 
ATOM      7  C5  PXY d   1       0.356   0.369  -0.063  0.00  0.00     0.003 A 
ATOM      8  C6  PXY d   1      -0.170  -0.832  -0.531  0.00  0.00     0.003 A 
ENDROOT
TORSDOF 0
ENDMDL
