MODEL 1
REMARK minimizedAffinity -3.25143886
REMARK minimizedRMSD -1
REMARK  0 active torsions:
REMARK  status: ('A' for Active; 'I' for Inactive)
ROOT
ATOM      1  C4' PXY d   1       2.769   2.205   1.533  0.00  0.00     0.077 C 
ATOM      2  C1' PXY d   1       0.784  -2.723  -0.745  0.00  0.00     0.077 C 
ATOM      3  C1  PXY d   1       1.301  -1.424  -0.159  0.00  0.00    -0.082 A 
ATOM      4  C2  PXY d   1       2.231  -1.455   0.782  0.00  0.00     0.003 A 
ATOM      5  C3  PXY d   1       2.686  -0.292   1.346  0.00  0.00     0.003 A 
ATOM      6  C4  PXY d   1       2.224   0.919   0.905  0.00  0.00    -0.082 A 
ATOM      7  C5  PXY d   1       1.284   0.960  -0.062  0.00  0.00     0.003 A 
ATOM      8  C6  PXY d   1       0.804  -0.234  -0.593  0.00  0.00     0.003 A 
ENDROOT
TORSDOF 0
ENDMDL
