MODEL 1
REMARK minimizedAffinity -2.72979593
REMARK minimizedRMSD -1
REMARK  0 active torsions:
REMARK  status: ('A' for Active; 'I' for Inactive)
ROOT
ATOM      1  C4' PXY d   1       2.511  -0.935  -0.290  0.00  0.00     0.077 C 
ATOM      2  C1' PXY d   1      -2.332   2.078   0.649  0.00  0.00     0.077 C 
ATOM      3  C1  PXY d   1      -1.055   1.299   0.401  0.00  0.00    -0.082 A 
ATOM      4  C2  PXY d   1      -1.125   0.046  -0.018  0.00  0.00     0.003 A 
ATOM      5  C3  PXY d   1       0.019  -0.683  -0.217  0.00  0.00     0.003 A 
ATOM      6  C4  PXY d   1       1.248  -0.108  -0.036  0.00  0.00    -0.082 A 
ATOM      7  C5  PXY d   1       1.328   1.174   0.381  0.00  0.00     0.003 A 
ATOM      8  C6  PXY d   1       0.154   1.884   0.617  0.00  0.00     0.003 A 
ENDROOT
TORSDOF 0
ENDMDL
