MODEL 1
REMARK minimizedAffinity 6.47739458
REMARK minimizedRMSD -1
REMARK  2 active torsions:
REMARK  status: ('A' for Active; 'I' for Inactive)
REMARK    1  A    between atoms: C1_2  and  C2_3 
REMARK    2  A    between atoms: C2_3  and  C3_4 
ROOT
ATOM      1  C3  UNL d   1       3.813   0.255   0.538  0.00  0.00    -0.075 A 
ATOM      2  C4  UNL d   1       3.003  -0.274  -0.478  0.00  0.00     0.002 A 
ATOM      3  C5  UNL d   1       3.224   0.070  -1.811  0.00  0.00     0.002 A 
ATOM      4  C6  UNL d   1       4.249   0.953  -2.146  0.00  0.00    -0.004 A 
ATOM      5  C7  UNL d   1       5.050   1.497  -1.144  0.00  0.00     0.002 A 
ATOM      6  C8  UNL d   1       4.833   1.151   0.191  0.00  0.00     0.002 A 
ENDROOT
BRANCH   1   7
ATOM      7  C2  UNL d   1       3.598  -0.136   1.980  0.00  0.00     0.056 C 
BRANCH   7   8
ATOM      8  C1  UNL d   1       4.480  -1.298   2.450  0.00  0.00     0.007 C 
ATOM      9  C   UNL d   1       5.427  -0.914   3.580  0.00  0.00     0.009 C 
ENDBRANCH   7   8
ENDBRANCH   1   7
TORSDOF 2
ENDMDL
