MODEL 1
REMARK minimizedAffinity -0.623443484
REMARK minimizedRMSD -1
REMARK  2 active torsions:
REMARK  status: ('A' for Active; 'I' for Inactive)
REMARK    1  A    between atoms: C1_2  and  C2_3 
REMARK    2  A    between atoms: C2_3  and  C3_4 
ROOT
ATOM      1  C3  UNL d   1       4.813   2.033  -1.837  0.00  0.00    -0.075 A 
ATOM      2  C4  UNL d   1       3.791   1.226  -2.356  0.00  0.00     0.002 A 
ATOM      3  C5  UNL d   1       3.025   0.421  -1.512  0.00  0.00     0.002 A 
ATOM      4  C6  UNL d   1       3.278   0.406  -0.142  0.00  0.00    -0.004 A 
ATOM      5  C7  UNL d   1       4.302   1.191   0.383  0.00  0.00     0.002 A 
ATOM      6  C8  UNL d   1       5.067   2.000  -0.459  0.00  0.00     0.002 A 
ENDROOT
BRANCH   1   7
ATOM      7  C2  UNL d   1       5.626   2.928  -2.742  0.00  0.00     0.056 C 
BRANCH   7   8
ATOM      8  C1  UNL d   1       4.962   4.276  -3.046  0.00  0.00     0.007 C 
ATOM      9  C   UNL d   1       5.590   5.439  -2.290  0.00  0.00     0.009 C 
ENDBRANCH   7   8
ENDBRANCH   1   7
TORSDOF 2
ENDMDL
