MODEL 1
REMARK minimizedAffinity -0.512422681
REMARK minimizedRMSD -1
REMARK  2 active torsions:
REMARK  status: ('A' for Active; 'I' for Inactive)
REMARK    1  A    between atoms: C1_2  and  C2_3 
REMARK    2  A    between atoms: C2_3  and  C3_4 
ROOT
ATOM      1  C3  UNL d   1       3.864   1.390  -1.762  0.00  0.00    -0.075 A 
ATOM      2  C4  UNL d   1       2.701   0.610  -1.835  0.00  0.00     0.002 A 
ATOM      3  C5  UNL d   1       2.027   0.232  -0.673  0.00  0.00     0.002 A 
ATOM      4  C6  UNL d   1       2.511   0.621   0.574  0.00  0.00    -0.004 A 
ATOM      5  C7  UNL d   1       3.675   1.382   0.659  0.00  0.00     0.002 A 
ATOM      6  C8  UNL d   1       4.349   1.765  -0.502  0.00  0.00     0.002 A 
ENDROOT
BRANCH   1   7
ATOM      7  C2  UNL d   1       4.581   1.826  -3.017  0.00  0.00     0.056 C 
BRANCH   7   8
ATOM      8  C1  UNL d   1       5.703   2.841  -2.773  0.00  0.00     0.007 C 
ATOM      9  C   UNL d   1       5.471   4.173  -3.475  0.00  0.00     0.009 C 
ENDBRANCH   7   8
ENDBRANCH   1   7
TORSDOF 2
ENDMDL
