MODEL 1
REMARK minimizedAffinity 7.62468433
REMARK minimizedRMSD -1
REMARK  2 active torsions:
REMARK  status: ('A' for Active; 'I' for Inactive)
REMARK    1  A    between atoms: C1_2  and  C2_3 
REMARK    2  A    between atoms: C2_3  and  C3_4 
ROOT
ATOM      1  C3  UNL d   1       3.423  -0.524   3.609  0.00  0.00    -0.075 A 
ATOM      2  C4  UNL d   1       4.691  -1.125   3.624  0.00  0.00     0.002 A 
ATOM      3  C5  UNL d   1       5.411  -1.229   4.814  0.00  0.00     0.002 A 
ATOM      4  C6  UNL d   1       4.880  -0.727   6.000  0.00  0.00    -0.004 A 
ATOM      5  C7  UNL d   1       3.629  -0.114   5.994  0.00  0.00     0.002 A 
ATOM      6  C8  UNL d   1       2.904  -0.012   4.805  0.00  0.00     0.002 A 
ENDROOT
BRANCH   1   7
ATOM      7  C2  UNL d   1       2.626  -0.434   2.329  0.00  0.00     0.056 C 
BRANCH   7   8
ATOM      8  C1  UNL d   1       2.997   0.761   1.446  0.00  0.00     0.007 C 
ATOM      9  C   UNL d   1       2.294   0.751   0.096  0.00  0.00     0.009 C 
ENDBRANCH   7   8
ENDBRANCH   1   7
TORSDOF 2
ENDMDL
