MODEL 1
REMARK minimizedAffinity 4.67153502
REMARK minimizedRMSD -1
REMARK  2 active torsions:
REMARK  status: ('A' for Active; 'I' for Inactive)
REMARK    1  A    between atoms: C1_2  and  C2_3 
REMARK    2  A    between atoms: C2_3  and  C3_4 
ROOT
ATOM      1  C3  UNL d   1       4.490   1.459  -1.896  0.00  0.00    -0.075 A 
ATOM      2  C4  UNL d   1       4.710   1.721  -0.536  0.00  0.00     0.002 A 
ATOM      3  C5  UNL d   1       3.939   1.090   0.440  0.00  0.00     0.002 A 
ATOM      4  C6  UNL d   1       2.934   0.199   0.070  0.00  0.00    -0.004 A 
ATOM      5  C7  UNL d   1       2.696  -0.056  -1.279  0.00  0.00     0.002 A 
ATOM      6  C8  UNL d   1       3.469   0.571  -2.258  0.00  0.00     0.002 A 
ENDROOT
BRANCH   1   7
ATOM      7  C2  UNL d   1       5.341   2.117  -2.957  0.00  0.00     0.056 C 
BRANCH   7   8
ATOM      8  C1  UNL d   1       5.980   3.437  -2.514  0.00  0.00     0.007 C 
ATOM      9  C   UNL d   1       5.318   4.661  -3.130  0.00  0.00     0.009 C 
ENDBRANCH   7   8
ENDBRANCH   1   7
TORSDOF 2
ENDMDL
