MODEL 1
REMARK minimizedAffinity 1.54830432
REMARK minimizedRMSD -1
REMARK  2 active torsions:
REMARK  status: ('A' for Active; 'I' for Inactive)
REMARK    1  A    between atoms: C1_2  and  C2_3 
REMARK    2  A    between atoms: C2_3  and  C3_4 
ROOT
ATOM      1  C3  UNL d   1       4.438   0.899  -0.612  0.00  0.00    -0.075 A 
ATOM      2  C4  UNL d   1       5.432   1.668  -1.235  0.00  0.00     0.002 A 
ATOM      3  C5  UNL d   1       5.571   1.658  -2.623  0.00  0.00     0.002 A 
ATOM      4  C6  UNL d   1       4.726   0.873  -3.404  0.00  0.00    -0.004 A 
ATOM      5  C7  UNL d   1       3.745   0.092  -2.796  0.00  0.00     0.002 A 
ATOM      6  C8  UNL d   1       3.602   0.104  -1.407  0.00  0.00     0.002 A 
ENDROOT
BRANCH   1   7
ATOM      7  C2  UNL d   1       4.264   0.929   0.887  0.00  0.00     0.056 C 
BRANCH   7   8
ATOM      8  C1  UNL d   1       3.395   2.086   1.392  0.00  0.00     0.007 C 
ATOM      9  C   UNL d   1       4.205   3.298   1.831  0.00  0.00     0.009 C 
ENDBRANCH   7   8
ENDBRANCH   1   7
TORSDOF 2
ENDMDL
