MODEL 1
REMARK minimizedAffinity 6.42763615
REMARK minimizedRMSD -1
REMARK  2 active torsions:
REMARK  status: ('A' for Active; 'I' for Inactive)
REMARK    1  A    between atoms: C1_2  and  C2_3 
REMARK    2  A    between atoms: C2_3  and  C3_4 
ROOT
ATOM      1  C3  UNL d   1       4.924   1.805  -2.046  0.00  0.00    -0.075 A 
ATOM      2  C4  UNL d   1       3.917   1.099  -2.719  0.00  0.00     0.002 A 
ATOM      3  C5  UNL d   1       3.007   0.314  -2.010  0.00  0.00     0.002 A 
ATOM      4  C6  UNL d   1       3.098   0.217  -0.623  0.00  0.00    -0.004 A 
ATOM      5  C7  UNL d   1       4.105   0.901   0.054  0.00  0.00     0.002 A 
ATOM      6  C8  UNL d   1       5.014   1.690  -0.652  0.00  0.00     0.002 A 
ENDROOT
BRANCH   1   7
ATOM      7  C2  UNL d   1       5.894   2.679  -2.804  0.00  0.00     0.056 C 
BRANCH   7   8
ATOM      8  C1  UNL d   1       5.253   3.919  -3.437  0.00  0.00     0.007 C 
ATOM      9  C   UNL d   1       5.732   5.225  -2.819  0.00  0.00     0.009 C 
ENDBRANCH   7   8
ENDBRANCH   1   7
TORSDOF 2
ENDMDL
