MODEL 1
REMARK minimizedAffinity 7.58101702
REMARK minimizedRMSD -1
REMARK  2 active torsions:
REMARK  status: ('A' for Active; 'I' for Inactive)
REMARK    1  A    between atoms: C1_2  and  C2_3 
REMARK    2  A    between atoms: C2_3  and  C3_4 
ROOT
ATOM      1  C3  UNL d   1       3.936   1.046  -1.811  0.00  0.00    -0.075 A 
ATOM      2  C4  UNL d   1       4.504   1.426  -0.587  0.00  0.00     0.002 A 
ATOM      3  C5  UNL d   1       3.912   1.044   0.617  0.00  0.00     0.002 A 
ATOM      4  C6  UNL d   1       2.742   0.288   0.613  0.00  0.00    -0.004 A 
ATOM      5  C7  UNL d   1       2.160  -0.081  -0.598  0.00  0.00     0.002 A 
ATOM      6  C8  UNL d   1       2.752   0.296  -1.804  0.00  0.00     0.002 A 
ENDROOT
BRANCH   1   7
ATOM      7  C2  UNL d   1       4.588   1.431  -3.118  0.00  0.00     0.056 C 
BRANCH   7   8
ATOM      8  C1  UNL d   1       5.970   2.074  -2.960  0.00  0.00     0.007 C 
ATOM      9  C   UNL d   1       5.999   3.542  -3.361  0.00  0.00     0.009 C 
ENDBRANCH   7   8
ENDBRANCH   1   7
TORSDOF 2
ENDMDL
