MODEL 1
REMARK minimizedAffinity 3.41846704
REMARK minimizedRMSD -1
REMARK  2 active torsions:
REMARK  status: ('A' for Active; 'I' for Inactive)
REMARK    1  A    between atoms: C1_2  and  C2_3 
REMARK    2  A    between atoms: C2_3  and  C3_4 
ROOT
ATOM      1  C3  UNL d   1       1.861  -1.470  -2.688  0.00  0.00    -0.075 A 
ATOM      2  C4  UNL d   1       1.927  -0.616  -1.577  0.00  0.00     0.002 A 
ATOM      3  C5  UNL d   1       2.733   0.522  -1.605  0.00  0.00     0.002 A 
ATOM      4  C6  UNL d   1       3.490   0.816  -2.738  0.00  0.00    -0.004 A 
ATOM      5  C7  UNL d   1       3.445  -0.035  -3.841  0.00  0.00     0.002 A 
ATOM      6  C8  UNL d   1       2.636  -1.172  -3.817  0.00  0.00     0.002 A 
ENDROOT
BRANCH   1   7
ATOM      7  C2  UNL d   1       0.968  -2.688  -2.674  0.00  0.00     0.056 C 
BRANCH   7   8
ATOM      8  C1  UNL d   1      -0.519  -2.373  -2.871  0.00  0.00     0.007 C 
ATOM      9  C   UNL d   1      -1.334  -2.501  -1.591  0.00  0.00     0.009 C 
ENDBRANCH   7   8
ENDBRANCH   1   7
TORSDOF 2
ENDMDL
