MODEL 1
REMARK minimizedAffinity -2.96092176
REMARK minimizedRMSD -1
REMARK  2 active torsions:
REMARK  status: ('A' for Active; 'I' for Inactive)
REMARK    1  A    between atoms: C1_2  and  C2_3 
REMARK    2  A    between atoms: C2_3  and  C3_4 
ROOT
ATOM      1  C3  UNL d   1      -3.395   0.595  -4.121  0.00  0.00    -0.075 A 
ATOM      2  C4  UNL d   1      -4.576  -0.070  -3.758  0.00  0.00     0.002 A 
ATOM      3  C5  UNL d   1      -5.737   0.083  -4.516  0.00  0.00     0.002 A 
ATOM      4  C6  UNL d   1      -5.735   0.908  -5.639  0.00  0.00    -0.004 A 
ATOM      5  C7  UNL d   1      -4.573   1.586  -5.999  0.00  0.00     0.002 A 
ATOM      6  C8  UNL d   1      -3.409   1.432  -5.245  0.00  0.00     0.002 A 
ENDROOT
BRANCH   1   7
ATOM      7  C2  UNL d   1      -2.128   0.411  -3.321  0.00  0.00     0.056 C 
BRANCH   7   8
ATOM      8  C1  UNL d   1      -2.035  -0.939  -2.601  0.00  0.00     0.007 C 
ATOM      9  C   UNL d   1      -1.452  -0.832  -1.199  0.00  0.00     0.009 C 
ENDBRANCH   7   8
ENDBRANCH   1   7
TORSDOF 2
ENDMDL
