MODEL 1
REMARK minimizedAffinity -1.27052438
REMARK minimizedRMSD -1
REMARK  0 active torsions:
REMARK  status: ('A' for Active; 'I' for Inactive)
ROOT
ATOM      1  C   UNL d   1      -1.439   1.889   0.458  0.00  0.00     0.020 A 
ATOM      2  C1  UNL d   1      -0.262   2.519   0.858  0.00  0.00     0.020 A 
ATOM      3  C2  UNL d   1       0.920   1.783   0.973  0.00  0.00     0.034 A 
ATOM      4  C3  UNL d   1       0.926   0.413   0.687  0.00  0.00     0.017 A 
ATOM      5  C4  UNL d   1      -0.256  -0.219   0.285  0.00  0.00     0.017 A 
ATOM      6  C5  UNL d   1      -1.436   0.523   0.172  0.00  0.00     0.034 A 
ATOM      7 Cl   UNL d   1      -0.326  -1.905  -0.085  0.00  0.00    -0.070 Cl
ATOM      8 Cl1  UNL d   1       2.423  -0.434   0.850  0.00  0.00    -0.070 Cl
ENDROOT
TORSDOF 0
ENDMDL
