MODEL 1
REMARK minimizedAffinity -3.64342165
REMARK minimizedRMSD -1
REMARK  0 active torsions:
REMARK  status: ('A' for Active; 'I' for Inactive)
ROOT
ATOM      1  C   UNL d   1      -1.258   0.030   0.814  0.00  0.00     0.020 A 
ATOM      2  C1  UNL d   1      -0.228  -0.898   0.669  0.00  0.00     0.020 A 
ATOM      3  C2  UNL d   1       1.046  -0.473   0.287  0.00  0.00     0.034 A 
ATOM      4  C3  UNL d   1       1.293   0.884   0.049  0.00  0.00     0.017 A 
ATOM      5  C4  UNL d   1       0.258   1.815   0.194  0.00  0.00     0.017 A 
ATOM      6  C5  UNL d   1      -1.016   1.384   0.577  0.00  0.00     0.034 A 
ATOM      7 Cl   UNL d   1       0.486   3.506  -0.083  0.00  0.00    -0.070 Cl
ATOM      8 Cl1  UNL d   1       2.893   1.339  -0.420  0.00  0.00    -0.070 Cl
ENDROOT
TORSDOF 0
ENDMDL
