MODEL 1
REMARK minimizedAffinity -5.14695883
REMARK minimizedRMSD -1
REMARK  0 active torsions:
REMARK  status: ('A' for Active; 'I' for Inactive)
ROOT
ATOM      1  C   UNL d   1       0.190   3.075   0.156  0.00  0.00     0.020 A 
ATOM      2  C1  UNL d   1       1.210   2.330  -0.435  0.00  0.00     0.020 A 
ATOM      3  C2  UNL d   1       1.124   0.937  -0.476  0.00  0.00     0.034 A 
ATOM      4  C3  UNL d   1       0.015   0.284   0.074  0.00  0.00     0.017 A 
ATOM      5  C4  UNL d   1      -1.008   1.032   0.668  0.00  0.00     0.017 A 
ATOM      6  C5  UNL d   1      -0.917   2.427   0.706  0.00  0.00     0.034 A 
ATOM      7 Cl   UNL d   1      -2.407   0.297   1.368  0.00  0.00    -0.070 Cl
ATOM      8 Cl1  UNL d   1      -0.026  -1.441  -0.012  0.00  0.00    -0.070 Cl
ENDROOT
TORSDOF 0
ENDMDL
