MODEL 1
REMARK minimizedAffinity -2.8538599
REMARK minimizedRMSD -1
REMARK  0 active torsions:
REMARK  status: ('A' for Active; 'I' for Inactive)
ROOT
ATOM      1  C   UNL d   1      -0.400  -3.999  -2.096  0.00  0.00     0.020 A 
ATOM      2  C1  UNL d   1      -1.160  -3.030  -2.749  0.00  0.00     0.020 A 
ATOM      3  C2  UNL d   1      -1.146  -1.709  -2.295  0.00  0.00     0.034 A 
ATOM      4  C3  UNL d   1      -0.371  -1.355  -1.185  0.00  0.00     0.017 A 
ATOM      5  C4  UNL d   1       0.391  -2.329  -0.530  0.00  0.00     0.017 A 
ATOM      6  C5  UNL d   1       0.374  -3.650  -0.989  0.00  0.00     0.034 A 
ATOM      7 Cl   UNL d   1       1.372  -1.968   0.846  0.00  0.00    -0.070 Cl
ATOM      8 Cl1  UNL d   1      -0.401   0.297  -0.678  0.00  0.00    -0.070 Cl
ENDROOT
TORSDOF 0
ENDMDL
