MODEL 1
REMARK minimizedAffinity -0.437738746
REMARK minimizedRMSD -1
REMARK  0 active torsions:
REMARK  status: ('A' for Active; 'I' for Inactive)
ROOT
ATOM      1  C   UNL d   1       0.277  -1.224  -0.178  0.00  0.00     0.020 A 
ATOM      2  C1  UNL d   1      -0.875  -0.440  -0.118  0.00  0.00     0.020 A 
ATOM      3  C2  UNL d   1      -0.772   0.953  -0.114  0.00  0.00     0.034 A 
ATOM      4  C3  UNL d   1       0.485   1.566  -0.169  0.00  0.00     0.017 A 
ATOM      5  C4  UNL d   1       1.641   0.778  -0.228  0.00  0.00     0.017 A 
ATOM      6  C5  UNL d   1       1.532  -0.616  -0.233  0.00  0.00     0.034 A 
ATOM      7 Cl   UNL d   1       3.226   1.462  -0.298  0.00  0.00    -0.070 Cl
ATOM      8 Cl1  UNL d   1       0.538   3.293  -0.160  0.00  0.00    -0.070 Cl
ENDROOT
TORSDOF 0
ENDMDL
