MODEL 1
REMARK minimizedAffinity -4.4557271
REMARK minimizedRMSD -1
REMARK  0 active torsions:
REMARK  status: ('A' for Active; 'I' for Inactive)
ROOT
ATOM      1  C   UNL d   1      -0.832  -0.776   0.571  0.00  0.00     0.020 A 
ATOM      2  C1  UNL d   1      -1.743   0.279   0.549  0.00  0.00     0.020 A 
ATOM      3  C2  UNL d   1      -1.285   1.595   0.464  0.00  0.00     0.034 A 
ATOM      4  C3  UNL d   1       0.087   1.860   0.400  0.00  0.00     0.017 A 
ATOM      5  C4  UNL d   1       1.001   0.800   0.422  0.00  0.00     0.017 A 
ATOM      6  C5  UNL d   1       0.537  -0.516   0.508  0.00  0.00     0.034 A 
ATOM      7 Cl   UNL d   1       2.710   1.048   0.347  0.00  0.00    -0.070 Cl
ATOM      8 Cl1  UNL d   1       0.583   3.512   0.295  0.00  0.00    -0.070 Cl
ENDROOT
TORSDOF 0
ENDMDL
