MODEL 1
REMARK minimizedAffinity 0.100233167
REMARK minimizedRMSD -1
REMARK  0 active torsions:
REMARK  status: ('A' for Active; 'I' for Inactive)
ROOT
ATOM      1  C   UNL d   1      -0.433  -1.484  -0.006  0.00  0.00     0.020 A 
ATOM      2  C1  UNL d   1      -1.530  -0.742   0.430  0.00  0.00     0.020 A 
ATOM      3  C2  UNL d   1      -1.386   0.618   0.711  0.00  0.00     0.034 A 
ATOM      4  C3  UNL d   1      -0.142   1.241   0.558  0.00  0.00     0.017 A 
ATOM      5  C4  UNL d   1       0.959   0.495   0.120  0.00  0.00     0.017 A 
ATOM      6  C5  UNL d   1       0.809  -0.867  -0.160  0.00  0.00     0.034 A 
ATOM      7 Cl   UNL d   1       2.526   1.193  -0.094  0.00  0.00    -0.070 Cl
ATOM      8 Cl1  UNL d   1      -0.036   2.926   0.923  0.00  0.00    -0.070 Cl
ENDROOT
TORSDOF 0
ENDMDL
