MODEL 1
REMARK minimizedAffinity -5.24685001
REMARK minimizedRMSD -1
REMARK  0 active torsions:
REMARK  status: ('A' for Active; 'I' for Inactive)
ROOT
ATOM      1  C   UNL d   1       0.490   3.195   0.084  0.00  0.00     0.020 A 
ATOM      2  C1  UNL d   1       1.815   3.304   0.502  0.00  0.00     0.020 A 
ATOM      3  C2  UNL d   1       2.557   2.154   0.779  0.00  0.00     0.034 A 
ATOM      4  C3  UNL d   1       1.974   0.889   0.639  0.00  0.00     0.017 A 
ATOM      5  C4  UNL d   1       0.643   0.781   0.220  0.00  0.00     0.017 A 
ATOM      6  C5  UNL d   1      -0.095   1.935  -0.056  0.00  0.00     0.034 A 
ATOM      7 Cl   UNL d   1      -0.145  -0.745   0.024  0.00  0.00    -0.070 Cl
ATOM      8 Cl1  UNL d   1       2.951  -0.490   0.999  0.00  0.00    -0.070 Cl
ENDROOT
TORSDOF 0
ENDMDL
