MODEL 1
REMARK minimizedAffinity -5.3897028
REMARK minimizedRMSD -1
REMARK  0 active torsions:
REMARK  status: ('A' for Active; 'I' for Inactive)
ROOT
ATOM      1  C   UNL d   1       2.129   2.969   0.743  0.00  0.00     0.020 A 
ATOM      2  C1  UNL d   1       2.826   1.774   0.912  0.00  0.00     0.020 A 
ATOM      3  C2  UNL d   1       2.156   0.553   0.798  0.00  0.00     0.034 A 
ATOM      4  C3  UNL d   1       0.786   0.526   0.514  0.00  0.00     0.017 A 
ATOM      5  C4  UNL d   1       0.088   1.727   0.344  0.00  0.00     0.017 A 
ATOM      6  C5  UNL d   1       0.763   2.946   0.460  0.00  0.00     0.034 A 
ATOM      7 Cl   UNL d   1      -1.604   1.774  -0.008  0.00  0.00    -0.070 Cl
ATOM      8 Cl1  UNL d   1       0.023  -1.019   0.386  0.00  0.00    -0.070 Cl
ENDROOT
TORSDOF 0
ENDMDL
