MODEL 1
REMARK minimizedAffinity -1.07703364
REMARK minimizedRMSD -1
REMARK  0 active torsions:
REMARK  status: ('A' for Active; 'I' for Inactive)
ROOT
ATOM      1  C   UNL d   1       2.215   2.779   0.215  0.00  0.00     0.020 A 
ATOM      2  C1  UNL d   1       2.214   1.497  -0.334  0.00  0.00     0.020 A 
ATOM      3  C2  UNL d   1       1.162   0.621  -0.059  0.00  0.00     0.034 A 
ATOM      4  C3  UNL d   1       0.106   1.025   0.766  0.00  0.00     0.017 A 
ATOM      5  C4  UNL d   1       0.108   2.312   1.316  0.00  0.00     0.017 A 
ATOM      6  C5  UNL d   1       1.163   3.185   1.037  0.00  0.00     0.034 A 
ATOM      7 Cl   UNL d   1      -1.160   2.883   2.343  0.00  0.00    -0.070 Cl
ATOM      8 Cl1  UNL d   1      -1.162  -0.111   1.063  0.00  0.00    -0.070 Cl
ENDROOT
TORSDOF 0
ENDMDL
