MODEL 1
REMARK minimizedAffinity -4.2267518
REMARK minimizedRMSD -1
REMARK  0 active torsions:
REMARK  status: ('A' for Active; 'I' for Inactive)
ROOT
ATOM      1  C   UNL d   1      -1.929   1.576   0.718  0.00  0.00     0.020 A 
ATOM      2  C1  UNL d   1      -1.120   2.696   0.533  0.00  0.00     0.020 A 
ATOM      3  C2  UNL d   1       0.215   2.539   0.156  0.00  0.00     0.034 A 
ATOM      4  C3  UNL d   1       0.746   1.258  -0.037  0.00  0.00     0.017 A 
ATOM      5  C4  UNL d   1      -0.067   0.134   0.149  0.00  0.00     0.017 A 
ATOM      6  C5  UNL d   1      -1.404   0.297   0.527  0.00  0.00     0.034 A 
ATOM      7 Cl   UNL d   1       0.516  -1.478  -0.070  0.00  0.00    -0.070 Cl
ATOM      8 Cl1  UNL d   1       2.405   1.137  -0.503  0.00  0.00    -0.070 Cl
ENDROOT
TORSDOF 0
ENDMDL
