MODEL 1
REMARK minimizedAffinity -3.54300237
REMARK minimizedRMSD -1
REMARK  0 active torsions:
REMARK  status: ('A' for Active; 'I' for Inactive)
ROOT
ATOM      1  C   UNL d   1      -0.466   3.175   0.408  0.00  0.00     0.020 A 
ATOM      2  C1  UNL d   1       0.497   2.671  -0.466  0.00  0.00     0.020 A 
ATOM      3  C2  UNL d   1       0.610   1.293  -0.660  0.00  0.00     0.034 A 
ATOM      4  C3  UNL d   1      -0.241   0.414   0.019  0.00  0.00     0.017 A 
ATOM      5  C4  UNL d   1      -1.207   0.921   0.896  0.00  0.00     0.017 A 
ATOM      6  C5  UNL d   1      -1.316   2.302   1.087  0.00  0.00     0.034 A 
ATOM      7 Cl   UNL d   1      -2.293  -0.101   1.770  0.00  0.00    -0.070 Cl
ATOM      8 Cl1  UNL d   1      -0.046  -1.278  -0.270  0.00  0.00    -0.070 Cl
ENDROOT
TORSDOF 0
ENDMDL
