MODEL 1
REMARK minimizedAffinity -3.21421862
REMARK minimizedRMSD -1
REMARK  0 active torsions:
REMARK  status: ('A' for Active; 'I' for Inactive)
ROOT
ATOM      1  C   UNL d   1       0.394   3.170  -0.077  0.00  0.00     0.020 A 
ATOM      2  C1  UNL d   1       1.603   2.530  -0.350  0.00  0.00     0.020 A 
ATOM      3  C2  UNL d   1       1.714   1.148  -0.188  0.00  0.00     0.034 A 
ATOM      4  C3  UNL d   1       0.614   0.400   0.248  0.00  0.00     0.017 A 
ATOM      5  C4  UNL d   1      -0.599   1.042   0.522  0.00  0.00     0.017 A 
ATOM      6  C5  UNL d   1      -0.704   2.427   0.358  0.00  0.00     0.034 A 
ATOM      7 Cl   UNL d   1      -1.999   0.187   1.063  0.00  0.00    -0.070 Cl
ATOM      8 Cl1  UNL d   1       0.822  -1.306   0.425  0.00  0.00    -0.070 Cl
ENDROOT
TORSDOF 0
ENDMDL
