MODEL 1
REMARK minimizedAffinity -1.09133327
REMARK minimizedRMSD -1
REMARK  0 active torsions:
REMARK  status: ('A' for Active; 'I' for Inactive)
ROOT
ATOM      1  C   UNL d   1       1.354   2.554  -0.649  0.00  0.00     0.020 A 
ATOM      2  C1  UNL d   1       0.952   1.365  -1.256  0.00  0.00     0.020 A 
ATOM      3  C2  UNL d   1      -0.088   0.615  -0.703  0.00  0.00     0.034 A 
ATOM      4  C3  UNL d   1      -0.730   1.053   0.461  0.00  0.00     0.017 A 
ATOM      5  C4  UNL d   1      -0.326   2.247   1.070  0.00  0.00     0.017 A 
ATOM      6  C5  UNL d   1       0.716   2.994   0.512  0.00  0.00     0.034 A 
ATOM      7 Cl   UNL d   1      -1.070   2.852   2.508  0.00  0.00    -0.070 Cl
ATOM      8 Cl1  UNL d   1      -2.008   0.076   1.091  0.00  0.00    -0.070 Cl
ENDROOT
TORSDOF 0
ENDMDL
