MODEL 1
REMARK minimizedAffinity -2.32959485
REMARK minimizedRMSD -1
REMARK  1 active torsions:
REMARK  status: ('A' for Active; 'I' for Inactive)
REMARK    1  A    between atoms: C1_2  and  C2_3 
ROOT
ATOM      1  C2  UNL d   1       1.072  -0.027   0.058  0.00  0.00    -0.077 A 
ATOM      2  C3  UNL d   1      -0.250   0.278  -0.298  0.00  0.00     0.002 A 
ATOM      3  C4  UNL d   1      -1.311  -0.457   0.233  0.00  0.00     0.002 A 
ATOM      4  C5  UNL d   1      -1.063  -1.498   1.125  0.00  0.00    -0.004 A 
ATOM      5  C6  UNL d   1       0.248  -1.810   1.484  0.00  0.00     0.002 A 
ATOM      6  C7  UNL d   1       1.310  -1.077   0.953  0.00  0.00     0.002 A 
ENDROOT
BRANCH   1   7
ATOM      7  C1  UNL d   1       2.215   0.797  -0.476  0.00  0.00     0.055 C 
ATOM      8  C   UNL d   1       2.173   2.219   0.065  0.00  0.00     0.019 C 
ENDBRANCH   1   7
TORSDOF 1
ENDMDL
