MODEL 1
REMARK minimizedAffinity -1.72669482
REMARK minimizedRMSD -1
REMARK  1 active torsions:
REMARK  status: ('A' for Active; 'I' for Inactive)
REMARK    1  A    between atoms: C1_2  and  C2_3 
ROOT
ATOM      1  C2  UNL d   1       3.577   3.743   0.510  0.00  0.00    -0.077 A 
ATOM      2  C3  UNL d   1       3.206   4.268   1.756  0.00  0.00     0.002 A 
ATOM      3  C4  UNL d   1       2.669   3.436   2.741  0.00  0.00     0.002 A 
ATOM      4  C5  UNL d   1       2.503   2.076   2.492  0.00  0.00    -0.004 A 
ATOM      5  C6  UNL d   1       2.866   1.545   1.255  0.00  0.00     0.002 A 
ATOM      6  C7  UNL d   1       3.402   2.374   0.269  0.00  0.00     0.002 A 
ENDROOT
BRANCH   1   7
ATOM      7  C1  UNL d   1       4.202   4.629  -0.536  0.00  0.00     0.055 C 
ATOM      8  C   UNL d   1       4.999   3.816  -1.546  0.00  0.00     0.019 C 
ENDBRANCH   1   7
TORSDOF 1
ENDMDL
