MODEL 1
REMARK minimizedAffinity -3.51701832
REMARK minimizedRMSD -1
REMARK  1 active torsions:
REMARK  status: ('A' for Active; 'I' for Inactive)
REMARK    1  A    between atoms: C1_2  and  C2_3 
ROOT
ATOM      1  C2  UNL d   1       2.179   1.263   0.433  0.00  0.00    -0.077 A 
ATOM      2  C3  UNL d   1       2.247   1.568   1.799  0.00  0.00     0.002 A 
ATOM      3  C4  UNL d   1       2.807   2.774   2.227  0.00  0.00     0.002 A 
ATOM      4  C5  UNL d   1       3.299   3.685   1.294  0.00  0.00    -0.004 A 
ATOM      5  C6  UNL d   1       3.239   3.389  -0.067  0.00  0.00     0.002 A 
ATOM      6  C7  UNL d   1       2.680   2.184  -0.496  0.00  0.00     0.002 A 
ENDROOT
BRANCH   1   7
ATOM      7  C1  UNL d   1       1.531  -0.015  -0.033  0.00  0.00     0.055 C 
ATOM      8  C   UNL d   1       0.864  -0.749   1.121  0.00  0.00     0.019 C 
ENDBRANCH   1   7
TORSDOF 1
ENDMDL
