MODEL 1
REMARK minimizedAffinity -4.02626896
REMARK minimizedRMSD -1
REMARK  1 active torsions:
REMARK  status: ('A' for Active; 'I' for Inactive)
REMARK    1  A    between atoms: C1_2  and  C2_3 
ROOT
ATOM      1  C2  UNL d   1       2.603   1.330   0.092  0.00  0.00    -0.077 A 
ATOM      2  C3  UNL d   1       2.106   1.486   1.394  0.00  0.00     0.002 A 
ATOM      3  C4  UNL d   1       2.370   2.651   2.116  0.00  0.00     0.002 A 
ATOM      4  C5  UNL d   1       3.129   3.670   1.545  0.00  0.00    -0.004 A 
ATOM      5  C6  UNL d   1       3.630   3.524   0.252  0.00  0.00     0.002 A 
ATOM      6  C7  UNL d   1       3.367   2.360  -0.472  0.00  0.00     0.002 A 
ENDROOT
BRANCH   1   7
ATOM      7  C1  UNL d   1       2.277   0.096  -0.707  0.00  0.00     0.055 C 
ATOM      8  C   UNL d   1       3.426  -0.286  -1.629  0.00  0.00     0.019 C 
ENDBRANCH   1   7
TORSDOF 1
ENDMDL
