MODEL 1
REMARK minimizedAffinity -4.89493227
REMARK minimizedRMSD -1
REMARK  1 active torsions:
REMARK  status: ('A' for Active; 'I' for Inactive)
REMARK    1  A    between atoms: C1_2  and  C2_3 
ROOT
ATOM      1  C2  UNL d   1       2.736  -0.114  -1.397  0.00  0.00    -0.077 A 
ATOM      2  C3  UNL d   1       3.479   1.066  -1.251  0.00  0.00     0.002 A 
ATOM      3  C4  UNL d   1       3.340   1.850  -0.104  0.00  0.00     0.002 A 
ATOM      4  C5  UNL d   1       2.462   1.462   0.905  0.00  0.00    -0.004 A 
ATOM      5  C6  UNL d   1       1.717   0.292   0.768  0.00  0.00     0.002 A 
ATOM      6  C7  UNL d   1       1.854  -0.493  -0.378  0.00  0.00     0.002 A 
ENDROOT
BRANCH   1   7
ATOM      7  C1  UNL d   1       2.921  -0.987  -2.611  0.00  0.00     0.055 C 
ATOM      8  C   UNL d   1       2.209  -0.407  -3.824  0.00  0.00     0.019 C 
ENDBRANCH   1   7
TORSDOF 1
ENDMDL
