MODEL 1
REMARK minimizedAffinity -3.69183373
REMARK minimizedRMSD -1
REMARK  1 active torsions:
REMARK  status: ('A' for Active; 'I' for Inactive)
REMARK    1  A    between atoms: C1_2  and  C2_3 
ROOT
ATOM      1  C2  UNL d   1      -1.014  -0.674   0.424  0.00  0.00    -0.077 A 
ATOM      2  C3  UNL d   1      -0.011   0.098  -0.179  0.00  0.00     0.002 A 
ATOM      3  C4  UNL d   1       1.313  -0.002   0.253  0.00  0.00     0.002 A 
ATOM      4  C5  UNL d   1       1.647  -0.876   1.286  0.00  0.00    -0.004 A 
ATOM      5  C6  UNL d   1       0.656  -1.647   1.893  0.00  0.00     0.002 A 
ATOM      6  C7  UNL d   1      -0.668  -1.547   1.463  0.00  0.00     0.002 A 
ENDROOT
BRANCH   1   7
ATOM      7  C1  UNL d   1      -2.434  -0.604  -0.074  0.00  0.00     0.055 C 
ATOM      8  C   UNL d   1      -2.566  -1.217  -1.460  0.00  0.00     0.019 C 
ENDBRANCH   1   7
TORSDOF 1
ENDMDL
