MODEL 1
REMARK minimizedAffinity -2.58055258
REMARK minimizedRMSD -1
REMARK  1 active torsions:
REMARK  status: ('A' for Active; 'I' for Inactive)
REMARK    1  A    between atoms: C1_2  and  C2_3 
ROOT
ATOM      1  C2  UNL d   1      -1.455  -0.611   0.010  0.00  0.00    -0.077 A 
ATOM      2  C3  UNL d   1      -0.490   0.229  -0.562  0.00  0.00     0.002 A 
ATOM      3  C4  UNL d   1       0.754   0.396   0.051  0.00  0.00     0.002 A 
ATOM      4  C5  UNL d   1       1.044  -0.278   1.235  0.00  0.00    -0.004 A 
ATOM      5  C6  UNL d   1       0.090  -1.114   1.813  0.00  0.00     0.002 A 
ATOM      6  C7  UNL d   1      -1.154  -1.281   1.203  0.00  0.00     0.002 A 
ENDROOT
BRANCH   1   7
ATOM      7  C1  UNL d   1      -2.778  -0.831  -0.676  0.00  0.00     0.055 C 
ATOM      8  C   UNL d   1      -2.593  -1.465  -2.046  0.00  0.00     0.019 C 
ENDBRANCH   1   7
TORSDOF 1
ENDMDL
