MODEL 1
REMARK minimizedAffinity -4.52741194
REMARK minimizedRMSD -1
REMARK  1 active torsions:
REMARK  status: ('A' for Active; 'I' for Inactive)
REMARK    1  A    between atoms: C1_2  and  C2_3 
ROOT
ATOM      1  C2  UNL d   1       3.223   1.317   3.019  0.00  0.00    -0.077 A 
ATOM      2  C3  UNL d   1       3.239   2.675   2.672  0.00  0.00     0.002 A 
ATOM      3  C4  UNL d   1       2.521   3.130   1.564  0.00  0.00     0.002 A 
ATOM      4  C5  UNL d   1       1.778   2.234   0.798  0.00  0.00    -0.004 A 
ATOM      5  C6  UNL d   1       1.757   0.881   1.134  0.00  0.00     0.002 A 
ATOM      6  C7  UNL d   1       2.476   0.425   2.240  0.00  0.00     0.002 A 
ENDROOT
BRANCH   1   7
ATOM      7  C1  UNL d   1       3.958   0.832   4.241  0.00  0.00     0.055 C 
ATOM      8  C   UNL d   1       5.441   1.165   4.164  0.00  0.00     0.019 C 
ENDBRANCH   1   7
TORSDOF 1
ENDMDL
