MODEL 1
REMARK minimizedAffinity -1.63026226
REMARK minimizedRMSD -1
REMARK  1 active torsions:
REMARK  status: ('A' for Active; 'I' for Inactive)
REMARK    1  A    between atoms: C1_2  and  C2_3 
ROOT
ATOM      1  C2  UNL d   1       1.059   0.160   0.982  0.00  0.00    -0.077 A 
ATOM      2  C3  UNL d   1      -0.239   0.547   0.617  0.00  0.00     0.002 A 
ATOM      3  C4  UNL d   1      -1.338  -0.226   0.996  0.00  0.00     0.002 A 
ATOM      4  C5  UNL d   1      -1.153  -1.387   1.743  0.00  0.00    -0.004 A 
ATOM      5  C6  UNL d   1       0.134  -1.781   2.109  0.00  0.00     0.002 A 
ATOM      6  C7  UNL d   1       1.235  -1.011   1.730  0.00  0.00     0.002 A 
ENDROOT
BRANCH   1   7
ATOM      7  C1  UNL d   1       2.242   1.018   0.617  0.00  0.00     0.055 C 
ATOM      8  C   UNL d   1       2.494   2.089   1.668  0.00  0.00     0.019 C 
ENDBRANCH   1   7
TORSDOF 1
ENDMDL
