MODEL 1
REMARK minimizedAffinity -0.279074371
REMARK minimizedRMSD -1
REMARK  1 active torsions:
REMARK  status: ('A' for Active; 'I' for Inactive)
REMARK    1  A    between atoms: C1_2  and  C2_3 
ROOT
ATOM      1  C2  UNL d   1       0.932   0.449   0.872  0.00  0.00    -0.077 A 
ATOM      2  C3  UNL d   1      -0.282   0.766   0.246  0.00  0.00     0.002 A 
ATOM      3  C4  UNL d   1      -1.342  -0.142   0.262  0.00  0.00     0.002 A 
ATOM      4  C5  UNL d   1      -1.201  -1.370   0.904  0.00  0.00    -0.004 A 
ATOM      5  C6  UNL d   1       0.003  -1.695   1.528  0.00  0.00     0.002 A 
ATOM      6  C7  UNL d   1       1.065  -0.789   1.513  0.00  0.00     0.002 A 
ENDROOT
BRANCH   1   7
ATOM      7  C1  UNL d   1       2.060   1.447   0.899  0.00  0.00     0.055 C 
ATOM      8  C   UNL d   1       2.180   2.110   2.264  0.00  0.00     0.019 C 
ENDBRANCH   1   7
TORSDOF 1
ENDMDL
