MODEL 1
REMARK minimizedAffinity -5.70128727
REMARK minimizedRMSD -1
REMARK  1 active torsions:
REMARK  status: ('A' for Active; 'I' for Inactive)
REMARK    1  A    between atoms: C1_2  and  C2_3 
ROOT
ATOM      1  C2  UNL d   1      -0.481  -0.118  -0.152  0.00  0.00    -0.077 A 
ATOM      2  C3  UNL d   1      -1.164  -0.738   0.904  0.00  0.00     0.002 A 
ATOM      3  C4  UNL d   1      -2.331  -1.465   0.661  0.00  0.00     0.002 A 
ATOM      4  C5  UNL d   1      -2.823  -1.582  -0.638  0.00  0.00    -0.004 A 
ATOM      5  C6  UNL d   1      -2.153  -0.968  -1.695  0.00  0.00     0.002 A 
ATOM      6  C7  UNL d   1      -0.987  -0.240  -1.453  0.00  0.00     0.002 A 
ENDROOT
BRANCH   1   7
ATOM      7  C1  UNL d   1       0.804   0.625   0.101  0.00  0.00     0.055 C 
ATOM      8  C   UNL d   1       1.977  -0.043  -0.602  0.00  0.00     0.019 C 
ENDBRANCH   1   7
TORSDOF 1
ENDMDL
