MODEL 1
REMARK minimizedAffinity -0.808853686
REMARK minimizedRMSD -1
REMARK  1 active torsions:
REMARK  status: ('A' for Active; 'I' for Inactive)
REMARK    1  A    between atoms: C1_2  and  C2_3 
ROOT
ATOM      1  C2  UNL d   1       1.621  -0.267  -2.117  0.00  0.00    -0.077 A 
ATOM      2  C3  UNL d   1       2.159  -0.125  -0.831  0.00  0.00     0.002 A 
ATOM      3  C4  UNL d   1       1.328   0.164   0.254  0.00  0.00     0.002 A 
ATOM      4  C5  UNL d   1      -0.044   0.309   0.063  0.00  0.00    -0.004 A 
ATOM      5  C6  UNL d   1      -0.588   0.172  -1.213  0.00  0.00     0.002 A 
ATOM      6  C7  UNL d   1       0.240  -0.116  -2.298  0.00  0.00     0.002 A 
ENDROOT
BRANCH   1   7
ATOM      7  C1  UNL d   1       2.508  -0.627  -3.280  0.00  0.00     0.055 C 
ATOM      8  C   UNL d   1       1.850  -0.281  -4.608  0.00  0.00     0.019 C 
ENDBRANCH   1   7
TORSDOF 1
ENDMDL
