MODEL 1
REMARK minimizedAffinity -3.16353464
REMARK minimizedRMSD -1
REMARK  0 active torsions:
REMARK  status: ('A' for Active; 'I' for Inactive)
ROOT
ATOM      1  C4' PXY d   1       2.421   1.498   1.414  0.00  0.00     0.077 C 
ATOM      2  C1' PXY d   1      -3.301   2.312   1.497  0.00  0.00     0.077 C 
ATOM      3  C1  PXY d   1      -1.801   2.099   1.462  0.00  0.00    -0.082 A 
ATOM      4  C2  PXY d   1      -1.206   1.467   2.461  0.00  0.00     0.003 A 
ATOM      5  C3  PXY d   1       0.154   1.295   2.461  0.00  0.00     0.003 A 
ATOM      6  C4  PXY d   1       0.907   1.726   1.402  0.00  0.00    -0.082 A 
ATOM      7  C5  PXY d   1       0.307   2.363   0.374  0.00  0.00     0.003 A 
ATOM      8  C6  PXY d   1      -1.070   2.564   0.413  0.00  0.00     0.003 A 
ENDROOT
TORSDOF 0
ENDMDL
