MODEL 1
REMARK minimizedAffinity 8.02070236
REMARK minimizedRMSD -1
REMARK  0 active torsions:
REMARK  status: ('A' for Active; 'I' for Inactive)
ROOT
ATOM      1  C4' PXY d   1      -3.057   2.651   1.520  0.00  0.00     0.077 C 
ATOM      2  C1' PXY d   1       2.704   2.466   1.080  0.00  0.00     0.077 C 
ATOM      3  C1  PXY d   1       1.194   2.504   1.203  0.00  0.00    -0.082 A 
ATOM      4  C2  PXY d   1       0.477   3.120   0.277  0.00  0.00     0.003 A 
ATOM      5  C3  PXY d   1      -0.887   3.191   0.389  0.00  0.00     0.003 A 
ATOM      6  C4  PXY d   1      -1.530   2.580   1.432  0.00  0.00    -0.082 A 
ATOM      7  C5  PXY d   1      -0.806   1.940   2.376  0.00  0.00     0.003 A 
ATOM      8  C6  PXY d   1       0.581   1.915   2.265  0.00  0.00     0.003 A 
ENDROOT
TORSDOF 0
ENDMDL
