MODEL 1
REMARK minimizedAffinity 4.09754801
REMARK minimizedRMSD -1
REMARK  0 active torsions:
REMARK  status: ('A' for Active; 'I' for Inactive)
ROOT
ATOM      1  C4' PXY d   1      -1.458  -4.021  -1.360  0.00  0.00     0.077 C 
ATOM      2  C1' PXY d   1       3.012  -0.607  -0.027  0.00  0.00     0.077 C 
ATOM      3  C1  PXY d   1       1.844  -1.511  -0.367  0.00  0.00    -0.082 A 
ATOM      4  C2  PXY d   1       1.282  -1.432  -1.563  0.00  0.00     0.003 A 
ATOM      5  C3  PXY d   1       0.204  -2.220  -1.876  0.00  0.00     0.003 A 
ATOM      6  C4  PXY d   1      -0.270  -3.135  -0.975  0.00  0.00    -0.082 A 
ATOM      7  C5  PXY d   1       0.304  -3.229   0.243  0.00  0.00     0.003 A 
ATOM      8  C6  PXY d   1       1.371  -2.392   0.556  0.00  0.00     0.003 A 
ENDROOT
TORSDOF 0
ENDMDL
