MODEL 1
REMARK minimizedAffinity 3.08500695
REMARK minimizedRMSD -1
REMARK  0 active torsions:
REMARK  status: ('A' for Active; 'I' for Inactive)
ROOT
ATOM      1  C4' PXY d   1      -0.383   3.034  -0.780  0.00  0.00     0.077 C 
ATOM      2  C1' PXY d   1       3.378   1.811   3.435  0.00  0.00     0.077 C 
ATOM      3  C1  PXY d   1       2.401   2.134   2.321  0.00  0.00    -0.082 A 
ATOM      4  C2  PXY d   1       1.187   2.564   2.621  0.00  0.00     0.003 A 
ATOM      5  C3  PXY d   1       0.280   2.830   1.627  0.00  0.00     0.003 A 
ATOM      6  C4  PXY d   1       0.639   2.705   0.311  0.00  0.00    -0.082 A 
ATOM      7  C5  PXY d   1       1.880   2.277  -0.003  0.00  0.00     0.003 A 
ATOM      8  C6  PXY d   1       2.771   1.973   1.022  0.00  0.00     0.003 A 
ENDROOT
TORSDOF 0
ENDMDL
