MODEL 1
REMARK minimizedAffinity 1.00950408
REMARK minimizedRMSD -1
REMARK  0 active torsions:
REMARK  status: ('A' for Active; 'I' for Inactive)
ROOT
ATOM      1  C4' PXY d   1      -3.389   1.237  -5.527  0.00  0.00     0.077 C 
ATOM      2  C1' PXY d   1      -5.734   0.441  -0.303  0.00  0.00     0.077 C 
ATOM      3  C1  PXY d   1      -5.130   0.654  -1.677  0.00  0.00    -0.082 A 
ATOM      4  C2  PXY d   1      -4.089  -0.069  -2.054  0.00  0.00     0.003 A 
ATOM      5  C3  PXY d   1      -3.511   0.133  -3.281  0.00  0.00     0.003 A 
ATOM      6  C4  PXY d   1      -4.037   1.049  -4.152  0.00  0.00    -0.082 A 
ATOM      7  C5  PXY d   1      -5.106   1.784  -3.779  0.00  0.00     0.003 A 
ATOM      8  C6  PXY d   1      -5.653   1.592  -2.514  0.00  0.00     0.003 A 
ENDROOT
TORSDOF 0
ENDMDL
