MODEL 1
REMARK minimizedAffinity 4.51745749
REMARK minimizedRMSD -1
REMARK  0 active torsions:
REMARK  status: ('A' for Active; 'I' for Inactive)
ROOT
ATOM      1  C4' PXY d   1      -3.546   2.985   2.265  0.00  0.00     0.077 C 
ATOM      2  C1' PXY d   1       2.041   2.151   1.038  0.00  0.00     0.077 C 
ATOM      3  C1  PXY d   1       0.575   2.358   1.365  0.00  0.00    -0.082 A 
ATOM      4  C2  PXY d   1      -0.142   3.209   0.649  0.00  0.00     0.003 A 
ATOM      5  C3  PXY d   1      -1.460   3.432   0.951  0.00  0.00     0.003 A 
ATOM      6  C4  PXY d   1      -2.066   2.737   1.964  0.00  0.00    -0.082 A 
ATOM      7  C5  PXY d   1      -1.344   1.859   2.693  0.00  0.00     0.003 A 
ATOM      8  C6  PXY d   1       0.004   1.678   2.396  0.00  0.00     0.003 A 
ENDROOT
TORSDOF 0
ENDMDL
