MODEL 1
REMARK minimizedAffinity 5.94080448
REMARK minimizedRMSD -1
REMARK  0 active torsions:
REMARK  status: ('A' for Active; 'I' for Inactive)
ROOT
ATOM      1  C4' PXY d   1      -3.045   3.399   2.619  0.00  0.00     0.077 C 
ATOM      2  C1' PXY d   1       2.062   1.759   0.464  0.00  0.00     0.077 C 
ATOM      3  C1  PXY d   1       0.723   2.179   1.037  0.00  0.00    -0.082 A 
ATOM      4  C2  PXY d   1      -0.089   2.935   0.316  0.00  0.00     0.003 A 
ATOM      5  C3  PXY d   1      -1.290   3.350   0.832  0.00  0.00     0.003 A 
ATOM      6  C4  PXY d   1      -1.687   2.943   2.077  0.00  0.00    -0.082 A 
ATOM      7  C5  PXY d   1      -0.869   2.163   2.815  0.00  0.00     0.003 A 
ATOM      8  C6  PXY d   1       0.364   1.786   2.289  0.00  0.00     0.003 A 
ENDROOT
TORSDOF 0
ENDMDL
