MODEL 1
REMARK minimizedAffinity 2.04148579
REMARK minimizedRMSD -1
REMARK  0 active torsions:
REMARK  status: ('A' for Active; 'I' for Inactive)
ROOT
ATOM      1  C4' PXY d   1       1.582   1.505   0.008  0.00  0.00     0.077 C 
ATOM      2  C1' PXY d   1       0.866  -4.165  -0.862  0.00  0.00     0.077 C 
ATOM      3  C1  PXY d   1       1.062  -2.680  -0.624  0.00  0.00    -0.082 A 
ATOM      4  C2  PXY d   1       0.133  -1.826  -1.020  0.00  0.00     0.003 A 
ATOM      5  C3  PXY d   1       0.308  -0.478  -0.841  0.00  0.00     0.003 A 
ATOM      6  C4  PXY d   1       1.423  -0.003  -0.203  0.00  0.00    -0.082 A 
ATOM      7  C5  PXY d   1       2.370  -0.869   0.214  0.00  0.00     0.003 A 
ATOM      8  C6  PXY d   1       2.192  -2.231  -0.014  0.00  0.00     0.003 A 
ENDROOT
TORSDOF 0
ENDMDL
