MODEL 1
REMARK minimizedAffinity 5.77493429
REMARK minimizedRMSD -1
REMARK  0 active torsions:
REMARK  status: ('A' for Active; 'I' for Inactive)
ROOT
ATOM      1  C4' PXY d   1       2.277   2.268   0.313  0.00  0.00     0.077 C 
ATOM      2  C1' PXY d   1       1.200  -3.348  -0.534  0.00  0.00     0.077 C 
ATOM      3  C1  PXY d   1       1.494  -1.878  -0.306  0.00  0.00    -0.082 A 
ATOM      4  C2  PXY d   1       0.494  -1.015  -0.229  0.00  0.00     0.003 A 
ATOM      5  C3  PXY d   1       0.743   0.322  -0.056  0.00  0.00     0.003 A 
ATOM      6  C4  PXY d   1       2.027   0.774   0.094  0.00  0.00    -0.082 A 
ATOM      7  C5  PXY d   1       3.052  -0.102   0.027  0.00  0.00     0.003 A 
ATOM      8  C6  PXY d   1       2.780  -1.449  -0.191  0.00  0.00     0.003 A 
ENDROOT
TORSDOF 0
ENDMDL
