MODEL 1
REMARK minimizedAffinity 4.33222151
REMARK minimizedRMSD -1
REMARK  0 active torsions:
REMARK  status: ('A' for Active; 'I' for Inactive)
ROOT
ATOM      1  C4' PXY d   1       2.724  -0.807  -0.461  0.00  0.00     0.077 C 
ATOM      2  C1' PXY d   1      -1.281   2.502   2.074  0.00  0.00     0.077 C 
ATOM      3  C1  PXY d   1      -0.237   1.636   1.398  0.00  0.00    -0.082 A 
ATOM      4  C2  PXY d   1       0.431   0.742   2.108  0.00  0.00     0.003 A 
ATOM      5  C3  PXY d   1       1.401  -0.027   1.519  0.00  0.00     0.003 A 
ATOM      6  C4  PXY d   1       1.654   0.083   0.178  0.00  0.00    -0.082 A 
ATOM      7  C5  PXY d   1       0.969   0.986  -0.556  0.00  0.00     0.003 A 
ATOM      8  C6  PXY d   1       0.017   1.786   0.069  0.00  0.00     0.003 A 
ENDROOT
TORSDOF 0
ENDMDL
