MODEL 1
REMARK minimizedAffinity 4.34838057
REMARK minimizedRMSD -1
REMARK  0 active torsions:
REMARK  status: ('A' for Active; 'I' for Inactive)
ROOT
ATOM      1  C4' PXY d   1       1.588   2.015   1.685  0.00  0.00     0.077 C 
ATOM      2  C1' PXY d   1      -4.102   2.738   0.970  0.00  0.00     0.077 C 
ATOM      3  C1  PXY d   1      -2.609   2.543   1.146  0.00  0.00    -0.082 A 
ATOM      4  C2  PXY d   1      -2.096   2.482   2.364  0.00  0.00     0.003 A 
ATOM      5  C3  PXY d   1      -0.744   2.338   2.541  0.00  0.00     0.003 A 
ATOM      6  C4  PXY d   1       0.085   2.202   1.460  0.00  0.00    -0.082 A 
ATOM      7  C5  PXY d   1      -0.432   2.252   0.214  0.00  0.00     0.003 A 
ATOM      8  C6  PXY d   1      -1.802   2.440   0.056  0.00  0.00     0.003 A 
ENDROOT
TORSDOF 0
ENDMDL
