MODEL 1
REMARK minimizedAffinity 7.47033358
REMARK minimizedRMSD -1
REMARK  0 active torsions:
REMARK  status: ('A' for Active; 'I' for Inactive)
ROOT
ATOM      1  C4' PXY d   1      -3.789   1.206   1.068  0.00  0.00     0.077 C 
ATOM      2  C1' PXY d   1       1.591   2.606   2.653  0.00  0.00     0.077 C 
ATOM      3  C1  PXY d   1       0.180   2.249   2.230  0.00  0.00    -0.082 A 
ATOM      4  C2  PXY d   1      -0.560   1.475   3.006  0.00  0.00     0.003 A 
ATOM      5  C3  PXY d   1      -1.827   1.116   2.624  0.00  0.00     0.003 A 
ATOM      6  C4  PXY d   1      -2.362   1.599   1.459  0.00  0.00    -0.082 A 
ATOM      7  C5  PXY d   1      -1.617   2.399   0.667  0.00  0.00     0.003 A 
ATOM      8  C6  PXY d   1      -0.319   2.717   1.053  0.00  0.00     0.003 A 
ENDROOT
TORSDOF 0
ENDMDL
