MODEL 1
REMARK minimizedAffinity 3.81682348
REMARK minimizedRMSD -1
REMARK  0 active torsions:
REMARK  status: ('A' for Active; 'I' for Inactive)
ROOT
ATOM      1  C4' PXY d   1       5.998   2.616  -1.879  0.00  0.00     0.077 C 
ATOM      2  C1' PXY d   1       2.508  -1.678  -0.209  0.00  0.00     0.077 C 
ATOM      3  C1  PXY d   1       3.424  -0.548  -0.634  0.00  0.00    -0.082 A 
ATOM      4  C2  PXY d   1       3.400  -0.123  -1.887  0.00  0.00     0.003 A 
ATOM      5  C3  PXY d   1       4.244   0.877  -2.297  0.00  0.00     0.003 A 
ATOM      6  C4  PXY d   1       5.084   1.484  -1.402  0.00  0.00    -0.082 A 
ATOM      7  C5  PXY d   1       5.107   1.063  -0.120  0.00  0.00     0.003 A 
ATOM      8  C6  PXY d   1       4.271   0.019   0.266  0.00  0.00     0.003 A 
ENDROOT
TORSDOF 0
ENDMDL
