MODEL 1
REMARK minimizedAffinity 2.19848228
REMARK minimizedRMSD -1
REMARK  0 active torsions:
REMARK  status: ('A' for Active; 'I' for Inactive)
ROOT
ATOM      1  O1  BZF d   1       4.779  -0.410   3.476  0.00  0.00    -0.204 OA
ATOM      2  C2  BZF d   1       4.232   0.020   4.669  0.00  0.00     0.174 A 
ATOM      3  C3  BZF d   1       3.080   0.686   4.455  0.00  0.00    -0.012 A 
ATOM      4  C3A BZF d   1       2.847   0.592   3.046  0.00  0.00    -0.107 A 
ATOM      5  C4  BZF d   1       1.853   1.043   2.226  0.00  0.00     0.055 A 
ATOM      6  C5  BZF d   1       1.962   0.847   0.886  0.00  0.00    -0.016 A 
ATOM      7  C6  BZF d   1       3.052   0.209   0.332  0.00  0.00     0.022 A 
ATOM      8  C7  BZF d   1       4.061  -0.261   1.105  0.00  0.00     0.029 A 
ATOM      9  C7A BZF d   1       3.938  -0.093   2.463  0.00  0.00     0.058 A 
ENDROOT
TORSDOF 0
ENDMDL
