MODEL 1
REMARK minimizedAffinity 5.57378864
REMARK minimizedRMSD -1
REMARK  0 active torsions:
REMARK  status: ('A' for Active; 'I' for Inactive)
ROOT
ATOM      1  O1  BZF d   1       2.653   0.747   4.442  0.00  0.00    -0.204 OA
ATOM      2  C2  BZF d   1       3.930   0.463   4.886  0.00  0.00     0.174 A 
ATOM      3  C3  BZF d   1       4.746   0.181   3.850  0.00  0.00    -0.012 A 
ATOM      4  C3A BZF d   1       3.950   0.386   2.678  0.00  0.00    -0.107 A 
ATOM      5  C4  BZF d   1       4.205   0.281   1.341  0.00  0.00     0.055 A 
ATOM      6  C5  BZF d   1       3.191   0.479   0.458  0.00  0.00    -0.016 A 
ATOM      7  C6  BZF d   1       1.911   0.777   0.878  0.00  0.00     0.022 A 
ATOM      8  C7  BZF d   1       1.611   0.897   2.194  0.00  0.00     0.029 A 
ATOM      9  C7A BZF d   1       2.641   0.730   3.087  0.00  0.00     0.058 A 
ENDROOT
TORSDOF 0
ENDMDL
