MODEL 1
REMARK minimizedAffinity -1.62454474
REMARK minimizedRMSD -1
REMARK  0 active torsions:
REMARK  status: ('A' for Active; 'I' for Inactive)
ROOT
ATOM      1  O1  BZF d   1      -0.888   5.949  -2.155  0.00  0.00    -0.204 OA
ATOM      2  C2  BZF d   1      -0.967   5.939  -0.776  0.00  0.00     0.174 A 
ATOM      3  C3  BZF d   1      -2.251   5.997  -0.369  0.00  0.00    -0.012 A 
ATOM      4  C3A BZF d   1      -3.028   5.952  -1.570  0.00  0.00    -0.107 A 
ATOM      5  C4  BZF d   1      -4.371   5.961  -1.820  0.00  0.00     0.055 A 
ATOM      6  C5  BZF d   1      -4.803   5.982  -3.108  0.00  0.00    -0.016 A 
ATOM      7  C6  BZF d   1      -3.921   6.000  -4.169  0.00  0.00     0.022 A 
ATOM      8  C7  BZF d   1      -2.580   5.987  -3.971  0.00  0.00     0.029 A 
ATOM      9  C7A BZF d   1      -2.141   5.933  -2.671  0.00  0.00     0.058 A 
ENDROOT
TORSDOF 0
ENDMDL
