MODEL 1
REMARK minimizedAffinity 1.80505538
REMARK minimizedRMSD -1
REMARK  0 active torsions:
REMARK  status: ('A' for Active; 'I' for Inactive)
ROOT
ATOM      1  O1  BZF d   1       1.510   1.932  -1.609  0.00  0.00    -0.204 OA
ATOM      2  C2  BZF d   1       1.448   3.280  -1.312  0.00  0.00     0.174 A 
ATOM      3  C3  BZF d   1       0.806   3.482  -0.143  0.00  0.00    -0.012 A 
ATOM      4  C3A BZF d   1       0.526   2.174   0.364  0.00  0.00    -0.107 A 
ATOM      5  C4  BZF d   1      -0.081   1.716   1.499  0.00  0.00     0.055 A 
ATOM      6  C5  BZF d   1      -0.261   0.379   1.659  0.00  0.00    -0.016 A 
ATOM      7  C6  BZF d   1       0.149  -0.528   0.704  0.00  0.00     0.022 A 
ATOM      8  C7  BZF d   1       0.760  -0.123  -0.436  0.00  0.00     0.029 A 
ATOM      9  C7A BZF d   1       0.973   1.226  -0.586  0.00  0.00     0.058 A 
ENDROOT
TORSDOF 0
ENDMDL
