MODEL 1
REMARK minimizedAffinity 0.109112523
REMARK minimizedRMSD -1
REMARK  0 active torsions:
REMARK  status: ('A' for Active; 'I' for Inactive)
ROOT
ATOM      1  O1  BZF d   1       2.081   5.562  -3.852  0.00  0.00    -0.204 OA
ATOM      2  C2  BZF d   1       2.741   5.156  -4.996  0.00  0.00     0.174 A 
ATOM      3  C3  BZF d   1       1.867   4.928  -5.997  0.00  0.00    -0.012 A 
ATOM      4  C3A BZF d   1       0.588   5.298  -5.472  0.00  0.00    -0.107 A 
ATOM      5  C4  BZF d   1      -0.673   5.311  -5.995  0.00  0.00     0.055 A 
ATOM      6  C5  BZF d   1      -1.716   5.659  -5.196  0.00  0.00    -0.016 A 
ATOM      7  C6  BZF d   1      -1.534   5.994  -3.870  0.00  0.00     0.022 A 
ATOM      8  C7  BZF d   1      -0.301   6.000  -3.308  0.00  0.00     0.029 A 
ATOM      9  C7A BZF d   1       0.758   5.681  -4.122  0.00  0.00     0.058 A 
ENDROOT
TORSDOF 0
ENDMDL
