MODEL 1
REMARK minimizedAffinity -1.0651381
REMARK minimizedRMSD -1
REMARK  0 active torsions:
REMARK  status: ('A' for Active; 'I' for Inactive)
ROOT
ATOM      1  O1  BZF d   1      -1.033   0.604   1.742  0.00  0.00    -0.204 OA
ATOM      2  C2  BZF d   1      -1.521  -0.656   1.453  0.00  0.00     0.174 A 
ATOM      3  C3  BZF d   1      -0.837  -1.211   0.433  0.00  0.00    -0.012 A 
ATOM      4  C3A BZF d   1       0.199  -0.275   0.120  0.00  0.00    -0.107 A 
ATOM      5  C4  BZF d   1       1.214  -0.268  -0.794  0.00  0.00     0.055 A 
ATOM      6  C5  BZF d   1       2.008   0.831  -0.890  0.00  0.00    -0.016 A 
ATOM      7  C6  BZF d   1       1.813   1.940  -0.094  0.00  0.00     0.022 A 
ATOM      8  C7  BZF d   1       0.823   1.977   0.831  0.00  0.00     0.029 A 
ATOM      9  C7A BZF d   1       0.040   0.856   0.954  0.00  0.00     0.058 A 
ENDROOT
TORSDOF 0
ENDMDL
