MODEL 1
REMARK minimizedAffinity 4.75628471
REMARK minimizedRMSD -1
REMARK  0 active torsions:
REMARK  status: ('A' for Active; 'I' for Inactive)
ROOT
ATOM      1  O1  BZF d   1      -4.662   5.958  -0.834  0.00  0.00    -0.204 OA
ATOM      2  C2  BZF d   1      -3.892   5.955   0.314  0.00  0.00     0.174 A 
ATOM      3  C3  BZF d   1      -2.579   5.915   0.009  0.00  0.00    -0.012 A 
ATOM      4  C3A BZF d   1      -2.522   5.984  -1.419  0.00  0.00    -0.107 A 
ATOM      5  C4  BZF d   1      -1.494   6.000  -2.318  0.00  0.00     0.055 A 
ATOM      6  C5  BZF d   1      -1.778   5.999  -3.647  0.00  0.00    -0.016 A 
ATOM      7  C6  BZF d   1      -3.077   5.977  -4.111  0.00  0.00     0.022 A 
ATOM      8  C7  BZF d   1      -4.130   5.966  -3.258  0.00  0.00     0.029 A 
ATOM      9  C7A BZF d   1      -3.846   6.000  -1.915  0.00  0.00     0.058 A 
ENDROOT
TORSDOF 0
ENDMDL
