MODEL 1
REMARK minimizedAffinity 8.18470669
REMARK minimizedRMSD -1
REMARK  0 active torsions:
REMARK  status: ('A' for Active; 'I' for Inactive)
ROOT
ATOM      1  O1  BZF d   1      -0.169  -1.940   0.740  0.00  0.00    -0.204 OA
ATOM      2  C2  BZF d   1      -1.106  -1.790   1.744  0.00  0.00     0.174 A 
ATOM      3  C3  BZF d   1      -1.047  -0.550   2.271  0.00  0.00    -0.012 A 
ATOM      4  C3A BZF d   1      -0.071   0.146   1.489  0.00  0.00    -0.107 A 
ATOM      5  C4  BZF d   1       0.419   1.420   1.516  0.00  0.00     0.055 A 
ATOM      6  C5  BZF d   1       1.420   1.761   0.662  0.00  0.00    -0.016 A 
ATOM      7  C6  BZF d   1       1.956   0.853  -0.227  0.00  0.00     0.022 A 
ATOM      8  C7  BZF d   1       1.499  -0.421  -0.294  0.00  0.00     0.029 A 
ATOM      9  C7A BZF d   1       0.466  -0.760   0.545  0.00  0.00     0.058 A 
ENDROOT
TORSDOF 0
ENDMDL
