MODEL 1
REMARK minimizedAffinity -1.65494585
REMARK minimizedRMSD -1
REMARK  0 active torsions:
REMARK  status: ('A' for Active; 'I' for Inactive)
ROOT
ATOM      1  O1  BZF d   1      -5.968   5.985  -3.430  0.00  0.00    -0.204 OA
ATOM      2  C2  BZF d   1      -5.855   5.968  -4.806  0.00  0.00     0.174 A 
ATOM      3  C3  BZF d   1      -4.560   5.999  -5.180  0.00  0.00    -0.012 A 
ATOM      4  C3A BZF d   1      -3.814   5.945  -3.960  0.00  0.00    -0.107 A 
ATOM      5  C4  BZF d   1      -2.479   5.929  -3.676  0.00  0.00     0.055 A 
ATOM      6  C5  BZF d   1      -2.080   5.947  -2.377  0.00  0.00    -0.016 A 
ATOM      7  C6  BZF d   1      -2.988   5.987  -1.339  0.00  0.00     0.022 A 
ATOM      8  C7  BZF d   1      -4.323   5.999  -1.571  0.00  0.00     0.029 A 
ATOM      9  C7A BZF d   1      -4.730   5.947  -2.882  0.00  0.00     0.058 A 
ENDROOT
TORSDOF 0
ENDMDL
