MODEL 1
REMARK minimizedAffinity 8.02044201
REMARK minimizedRMSD -1
REMARK  0 active torsions:
REMARK  status: ('A' for Active; 'I' for Inactive)
ROOT
ATOM      1  O1  BZF d   1       0.007  -0.946   0.325  0.00  0.00    -0.204 OA
ATOM      2  C2  BZF d   1      -0.240  -0.486   1.604  0.00  0.00     0.174 A 
ATOM      3  C3  BZF d   1       0.256   0.757   1.770  0.00  0.00    -0.012 A 
ATOM      4  C3A BZF d   1       0.768   1.131   0.487  0.00  0.00    -0.107 A 
ATOM      5  C4  BZF d   1       1.372   2.259   0.010  0.00  0.00     0.055 A 
ATOM      6  C5  BZF d   1       1.819   2.277  -1.273  0.00  0.00    -0.016 A 
ATOM      7  C6  BZF d   1       1.683   1.184  -2.105  0.00  0.00     0.022 A 
ATOM      8  C7  BZF d   1       1.086   0.045  -1.678  0.00  0.00     0.029 A 
ATOM      9  C7A BZF d   1       0.604   0.035  -0.392  0.00  0.00     0.058 A 
ENDROOT
TORSDOF 0
ENDMDL
