MODEL 1
REMARK minimizedAffinity -2.31325054
REMARK minimizedRMSD -1
REMARK  0 active torsions:
REMARK  status: ('A' for Active; 'I' for Inactive)
ROOT
ATOM      1  O1  BZF d   1       1.003  -1.524   0.135  0.00  0.00    -0.204 OA
ATOM      2  C2  BZF d   1      -0.322  -1.581   0.519  0.00  0.00     0.174 A 
ATOM      3  C3  BZF d   1      -0.786  -0.352   0.826  0.00  0.00    -0.012 A 
ATOM      4  C3A BZF d   1       0.293   0.541   0.531  0.00  0.00    -0.107 A 
ATOM      5  C4  BZF d   1       0.439   1.896   0.613  0.00  0.00     0.055 A 
ATOM      6  C5  BZF d   1       1.645   2.449   0.320  0.00  0.00    -0.016 A 
ATOM      7  C6  BZF d   1       2.726   1.678  -0.054  0.00  0.00     0.022 A 
ATOM      8  C7  BZF d   1       2.628   0.330  -0.154  0.00  0.00     0.029 A 
ATOM      9  C7A BZF d   1       1.402  -0.229   0.110  0.00  0.00     0.058 A 
ENDROOT
TORSDOF 0
ENDMDL
