MODEL 1
REMARK minimizedAffinity 1.60574222
REMARK minimizedRMSD -1
REMARK  0 active torsions:
REMARK  status: ('A' for Active; 'I' for Inactive)
ROOT
ATOM      1  O1  BZF d   1       0.641   3.110   2.266  0.00  0.00    -0.204 OA
ATOM      2  C2  BZF d   1       1.545   3.463   1.283  0.00  0.00     0.174 A 
ATOM      3  C3  BZF d   1       1.710   2.456   0.401  0.00  0.00    -0.012 A 
ATOM      4  C3A BZF d   1       0.785   1.444   0.809  0.00  0.00    -0.107 A 
ATOM      5  C4  BZF d   1       0.468   0.209   0.318  0.00  0.00     0.055 A 
ATOM      6  C5  BZF d   1      -0.428  -0.559   0.992  0.00  0.00    -0.016 A 
ATOM      7  C6  BZF d   1      -1.019  -0.128   2.161  0.00  0.00     0.022 A 
ATOM      8  C7  BZF d   1      -0.740   1.091   2.684  0.00  0.00     0.029 A 
ATOM      9  C7A BZF d   1       0.139   1.883   1.987  0.00  0.00     0.058 A 
ENDROOT
TORSDOF 0
ENDMDL
