MODEL 1
REMARK minimizedAffinity 5.93833447
REMARK minimizedRMSD -1
REMARK  0 active torsions:
REMARK  status: ('A' for Active; 'I' for Inactive)
ROOT
ATOM      1  O1  BZF d   1       0.358   2.030   3.105  0.00  0.00    -0.204 OA
ATOM      2  C2  BZF d   1      -0.303   0.855   3.406  0.00  0.00     0.174 A 
ATOM      3  C3  BZF d   1      -0.458   0.097   2.301  0.00  0.00    -0.012 A 
ATOM      4  C3A BZF d   1       0.225   0.804   1.261  0.00  0.00    -0.107 A 
ATOM      5  C4  BZF d   1       0.438   0.549  -0.063  0.00  0.00     0.055 A 
ATOM      6  C5  BZF d   1       1.082   1.478  -0.819  0.00  0.00    -0.016 A 
ATOM      7  C6  BZF d   1       1.521   2.671  -0.284  0.00  0.00     0.022 A 
ATOM      8  C7  BZF d   1       1.337   2.966   1.026  0.00  0.00     0.029 A 
ATOM      9  C7A BZF d   1       0.716   2.016   1.799  0.00  0.00     0.058 A 
ENDROOT
TORSDOF 0
ENDMDL
