MODEL 1
REMARK minimizedAffinity 2.06916142
REMARK minimizedRMSD -1
REMARK  0 active torsions:
REMARK  status: ('A' for Active; 'I' for Inactive)
ROOT
ATOM      1  O1  BZF d   1      -5.132   5.947  -2.297  0.00  0.00    -0.204 OA
ATOM      2  C2  BZF d   1      -4.669   5.940  -3.598  0.00  0.00     0.174 A 
ATOM      3  C3  BZF d   1      -3.322   6.000  -3.626  0.00  0.00    -0.012 A 
ATOM      4  C3A BZF d   1      -2.914   5.955  -2.256  0.00  0.00    -0.107 A 
ATOM      5  C4  BZF d   1      -1.696   5.965  -1.638  0.00  0.00     0.055 A 
ATOM      6  C5  BZF d   1      -1.645   5.984  -0.280  0.00  0.00    -0.016 A 
ATOM      7  C6  BZF d   1      -2.790   6.000   0.490  0.00  0.00     0.022 A 
ATOM      8  C7  BZF d   1      -4.020   5.985  -0.078  0.00  0.00     0.029 A 
ATOM      9  C7A BZF d   1      -4.075   5.932  -1.449  0.00  0.00     0.058 A 
ENDROOT
TORSDOF 0
ENDMDL
