MODEL 1
REMARK minimizedAffinity 2.71009421
REMARK minimizedRMSD -1
REMARK  0 active torsions:
REMARK  status: ('A' for Active; 'I' for Inactive)
ROOT
ATOM      1  O1  BZF d   1       2.253   4.296  -4.354  0.00  0.00    -0.204 OA
ATOM      2  C2  BZF d   1       1.485   5.164  -5.106  0.00  0.00     0.174 A 
ATOM      3  C3  BZF d   1       2.268   5.999  -5.820  0.00  0.00    -0.012 A 
ATOM      4  C3A BZF d   1       3.608   5.570  -5.564  0.00  0.00    -0.107 A 
ATOM      5  C4  BZF d   1       4.830   5.996  -5.999  0.00  0.00     0.055 A 
ATOM      6  C5  BZF d   1       5.951   5.409  -5.502  0.00  0.00    -0.016 A 
ATOM      7  C6  BZF d   1       5.886   4.398  -4.566  0.00  0.00     0.022 A 
ATOM      8  C7  BZF d   1       4.697   3.938  -4.107  0.00  0.00     0.029 A 
ATOM      9  C7A BZF d   1       3.562   4.507  -4.632  0.00  0.00     0.058 A 
ENDROOT
TORSDOF 0
ENDMDL
