MODEL 1
REMARK minimizedAffinity 0.689205825
REMARK minimizedRMSD -1
REMARK  0 active torsions:
REMARK  status: ('A' for Active; 'I' for Inactive)
ROOT
ATOM      1  O1  BZF d   1       0.543   0.968  -0.570  0.00  0.00    -0.204 OA
ATOM      2  C2  BZF d   1       1.528   1.927  -0.438  0.00  0.00     0.174 A 
ATOM      3  C3  BZF d   1       1.499   2.476   0.793  0.00  0.00    -0.012 A 
ATOM      4  C3A BZF d   1       0.487   1.755   1.503  0.00  0.00    -0.107 A 
ATOM      5  C4  BZF d   1       0.002   1.827   2.778  0.00  0.00     0.055 A 
ATOM      6  C5  BZF d   1      -1.039   1.030   3.135  0.00  0.00    -0.016 A 
ATOM      7  C6  BZF d   1      -1.621   0.153   2.242  0.00  0.00     0.022 A 
ATOM      8  C7  BZF d   1      -1.171   0.043   0.969  0.00  0.00     0.029 A 
ATOM      9  C7A BZF d   1      -0.098   0.824   0.615  0.00  0.00     0.058 A 
ENDROOT
TORSDOF 0
ENDMDL
