MODEL 1
REMARK minimizedAffinity 7.87770367
REMARK minimizedRMSD -1
REMARK  0 active torsions:
REMARK  status: ('A' for Active; 'I' for Inactive)
ROOT
ATOM      1  O1  BZF d   1      -0.190  -0.652   0.719  0.00  0.00    -0.204 OA
ATOM      2  C2  BZF d   1      -1.036  -0.174   1.701  0.00  0.00     0.174 A 
ATOM      3  C3  BZF d   1      -0.922   1.165   1.821  0.00  0.00    -0.012 A 
ATOM      4  C3A BZF d   1      -0.010   1.558   0.791  0.00  0.00    -0.107 A 
ATOM      5  C4  BZF d   1       0.492   2.764   0.392  0.00  0.00     0.055 A 
ATOM      6  C5  BZF d   1       1.419   2.798  -0.601  0.00  0.00    -0.016 A 
ATOM      7  C6  BZF d   1       1.870   1.646  -1.213  0.00  0.00     0.022 A 
ATOM      8  C7  BZF d   1       1.398   0.427  -0.854  0.00  0.00     0.029 A 
ATOM      9  C7A BZF d   1       0.437   0.393   0.126  0.00  0.00     0.058 A 
ENDROOT
TORSDOF 0
ENDMDL
