MODEL 1
REMARK minimizedAffinity 7.5439539
REMARK minimizedRMSD -1
REMARK  0 active torsions:
REMARK  status: ('A' for Active; 'I' for Inactive)
ROOT
ATOM      1  O1  BZF d   1       4.165  -0.087   0.943  0.00  0.00    -0.204 OA
ATOM      2  C2  BZF d   1       4.949   0.402  -0.084  0.00  0.00     0.174 A 
ATOM      3  C3  BZF d   1       4.192   1.030  -1.007  0.00  0.00    -0.012 A 
ATOM      4  C3A BZF d   1       2.862   1.008  -0.481  0.00  0.00    -0.107 A 
ATOM      5  C4  BZF d   1       1.666   1.489  -0.931  0.00  0.00     0.055 A 
ATOM      6  C5  BZF d   1       0.540   1.236  -0.214  0.00  0.00    -0.016 A 
ATOM      7  C6  BZF d   1       0.572   0.502   0.954  0.00  0.00     0.022 A 
ATOM      8  C7  BZF d   1       1.736   0.009   1.443  0.00  0.00     0.029 A 
ATOM      9  C7A BZF d   1       2.880   0.291   0.738  0.00  0.00     0.058 A 
ENDROOT
TORSDOF 0
ENDMDL
