MODEL 1
REMARK minimizedAffinity -1.8178308
REMARK minimizedRMSD -1
REMARK  0 active torsions:
REMARK  status: ('A' for Active; 'I' for Inactive)
ROOT
ATOM      1  C   UNL d   1      -0.736   2.178   0.377  0.00  0.00     0.023 A 
ATOM      2  C1  UNL d   1      -0.608   1.128   1.286  0.00  0.00     0.003 A 
ATOM      3  C2  UNL d   1      -0.274  -0.151   0.834  0.00  0.00     0.048 A 
ATOM      4  C3  UNL d   1      -0.069  -0.372  -0.527  0.00  0.00     0.023 A 
ATOM      5  C4  UNL d   1      -0.195   0.676  -1.440  0.00  0.00     0.048 A 
ATOM      6  C5  UNL d   1      -0.530   1.953  -0.984  0.00  0.00     0.003 A 
ATOM      7  I   UNL d   1       0.428  -2.274  -1.201  0.00  0.00    -0.146 I 
ENDROOT
TORSDOF 0
ENDMDL
