MODEL 1
REMARK minimizedAffinity -4.47043228
REMARK minimizedRMSD -1
REMARK  0 active torsions:
REMARK  status: ('A' for Active; 'I' for Inactive)
ROOT
ATOM      1  C   UNL d   1      -0.825   1.930   1.959  0.00  0.00     0.023 A 
ATOM      2  C1  UNL d   1       0.176   0.991   2.209  0.00  0.00     0.003 A 
ATOM      3  C2  UNL d   1       0.460   0.004   1.263  0.00  0.00     0.048 A 
ATOM      4  C3  UNL d   1      -0.260  -0.038   0.070  0.00  0.00     0.023 A 
ATOM      5  C4  UNL d   1      -1.262   0.900  -0.185  0.00  0.00     0.048 A 
ATOM      6  C5  UNL d   1      -1.543   1.885   0.764  0.00  0.00     0.003 A 
ATOM      7  I   UNL d   1       0.161  -1.507  -1.340  0.00  0.00    -0.146 I 
ENDROOT
TORSDOF 0
ENDMDL
