MODEL 1
REMARK minimizedAffinity -4.68469238
REMARK minimizedRMSD -1
REMARK  0 active torsions:
REMARK  status: ('A' for Active; 'I' for Inactive)
ROOT
ATOM      1  C   UNL d   1      -1.345   1.515   0.642  0.00  0.00     0.023 A 
ATOM      2  C1  UNL d   1      -0.817   1.730   1.915  0.00  0.00     0.003 A 
ATOM      3  C2  UNL d   1       0.351   1.074   2.308  0.00  0.00     0.048 A 
ATOM      4  C3  UNL d   1       0.987   0.204   1.422  0.00  0.00     0.023 A 
ATOM      5  C4  UNL d   1       0.463  -0.013   0.147  0.00  0.00     0.048 A 
ATOM      6  C5  UNL d   1      -0.705   0.645  -0.241  0.00  0.00     0.003 A 
ATOM      7  I   UNL d   1       2.726  -0.773   2.004  0.00  0.00    -0.146 I 
ENDROOT
TORSDOF 0
ENDMDL
