MODEL 1
REMARK minimizedAffinity -3.74536896
REMARK minimizedRMSD -1
REMARK  0 active torsions:
REMARK  status: ('A' for Active; 'I' for Inactive)
ROOT
ATOM      1  C   UNL d   1      -1.024   2.689   1.542  0.00  0.00     0.023 A 
ATOM      2  C1  UNL d   1      -0.466   1.597   2.206  0.00  0.00     0.003 A 
ATOM      3  C2  UNL d   1      -0.054   0.475   1.484  0.00  0.00     0.048 A 
ATOM      4  C3  UNL d   1      -0.201   0.453   0.097  0.00  0.00     0.023 A 
ATOM      5  C4  UNL d   1      -0.758   1.544  -0.572  0.00  0.00     0.048 A 
ATOM      6  C5  UNL d   1      -1.170   2.663   0.155  0.00  0.00     0.003 A 
ATOM      7  I   UNL d   1       0.412  -1.215  -0.980  0.00  0.00    -0.146 I 
ENDROOT
TORSDOF 0
ENDMDL
