MODEL 1
REMARK minimizedAffinity -3.58111858
REMARK minimizedRMSD -1
REMARK  0 active torsions:
REMARK  status: ('A' for Active; 'I' for Inactive)
ROOT
ATOM      1  C   UNL d   1      -1.025   3.327   2.066  0.00  0.00     0.023 A 
ATOM      2  C1  UNL d   1       0.314   2.953   2.176  0.00  0.00     0.003 A 
ATOM      3  C2  UNL d   1       0.794   1.854   1.461  0.00  0.00     0.048 A 
ATOM      4  C3  UNL d   1      -0.070   1.134   0.637  0.00  0.00     0.023 A 
ATOM      5  C4  UNL d   1      -1.411   1.505   0.523  0.00  0.00     0.048 A 
ATOM      6  C5  UNL d   1      -1.886   2.604   1.240  0.00  0.00     0.003 A 
ATOM      7  I   UNL d   1       0.643  -0.502  -0.428  0.00  0.00    -0.146 I 
ENDROOT
TORSDOF 0
ENDMDL
