MODEL 1
REMARK minimizedAffinity -1.19365966
REMARK minimizedRMSD -1
REMARK  0 active torsions:
REMARK  status: ('A' for Active; 'I' for Inactive)
ROOT
ATOM      1  C   UNL d   1      -1.389   1.815  -1.329  0.00  0.00     0.023 A 
ATOM      2  C1  UNL d   1      -0.120   1.458  -1.784  0.00  0.00     0.003 A 
ATOM      3  C2  UNL d   1       0.778   0.820  -0.925  0.00  0.00     0.048 A 
ATOM      4  C3  UNL d   1       0.399   0.543   0.388  0.00  0.00     0.023 A 
ATOM      5  C4  UNL d   1      -0.870   0.897   0.848  0.00  0.00     0.048 A 
ATOM      6  C5  UNL d   1      -1.763   1.535  -0.014  0.00  0.00     0.003 A 
ATOM      7  I   UNL d   1       1.734  -0.406   1.669  0.00  0.00    -0.146 I 
ENDROOT
TORSDOF 0
ENDMDL
