MODEL 1
REMARK minimizedAffinity -3.07174587
REMARK minimizedRMSD -1
REMARK  0 active torsions:
REMARK  status: ('A' for Active; 'I' for Inactive)
ROOT
ATOM      1  C   UNL d   1       0.775  -1.437  -0.623  0.00  0.00     0.023 A 
ATOM      2  C1  UNL d   1       0.014  -0.527  -1.356  0.00  0.00     0.003 A 
ATOM      3  C2  UNL d   1      -0.574   0.568  -0.718  0.00  0.00     0.048 A 
ATOM      4  C3  UNL d   1      -0.394   0.746   0.653  0.00  0.00     0.023 A 
ATOM      5  C4  UNL d   1       0.368  -0.161   1.391  0.00  0.00     0.048 A 
ATOM      6  C5  UNL d   1       0.952  -1.255   0.748  0.00  0.00     0.003 A 
ATOM      7  I   UNL d   1      -1.267   2.375   1.605  0.00  0.00    -0.146 I 
ENDROOT
TORSDOF 0
ENDMDL
