MODEL 1
REMARK minimizedAffinity -4.00896358
REMARK minimizedRMSD -1
REMARK  0 active torsions:
REMARK  status: ('A' for Active; 'I' for Inactive)
ROOT
ATOM      1  C   UNL d   1       0.837  -0.521  -1.488  0.00  0.00     0.023 A 
ATOM      2  C1  UNL d   1       0.148   0.603  -1.943  0.00  0.00     0.003 A 
ATOM      3  C2  UNL d   1      -0.424   1.491  -1.030  0.00  0.00     0.048 A 
ATOM      4  C3  UNL d   1      -0.303   1.249   0.338  0.00  0.00     0.023 A 
ATOM      5  C4  UNL d   1       0.386   0.126   0.799  0.00  0.00     0.048 A 
ATOM      6  C5  UNL d   1       0.956  -0.759  -0.119  0.00  0.00     0.003 A 
ATOM      7  I   UNL d   1      -1.154   2.568   1.700  0.00  0.00    -0.146 I 
ENDROOT
TORSDOF 0
ENDMDL
