MODEL 1
REMARK minimizedAffinity -3.68870354
REMARK minimizedRMSD -1
REMARK  0 active torsions:
REMARK  status: ('A' for Active; 'I' for Inactive)
ROOT
ATOM      1  C   UNL d   1      -0.846   2.679   1.333  0.00  0.00     0.023 A 
ATOM      2  C1  UNL d   1      -1.442   2.278   0.137  0.00  0.00     0.003 A 
ATOM      3  C2  UNL d   1      -1.162   1.018  -0.395  0.00  0.00     0.048 A 
ATOM      4  C3  UNL d   1      -0.287   0.163   0.274  0.00  0.00     0.023 A 
ATOM      5  C4  UNL d   1       0.311   0.560   1.472  0.00  0.00     0.048 A 
ATOM      6  C5  UNL d   1       0.029   1.821   2.000  0.00  0.00     0.003 A 
ATOM      7  I   UNL d   1       0.131  -1.713  -0.516  0.00  0.00    -0.146 I 
ENDROOT
TORSDOF 0
ENDMDL
