MODEL 1
REMARK minimizedAffinity 7.40033627
REMARK minimizedRMSD -1
REMARK  0 active torsions:
REMARK  status: ('A' for Active; 'I' for Inactive)
ROOT
ATOM      1  C   UNL d   1       1.860  -1.014   2.241  0.00  0.00     0.020 A 
ATOM      2  C1  UNL d   1       1.162  -1.690   1.241  0.00  0.00     0.020 A 
ATOM      3  C2  UNL d   1       0.179  -1.026   0.505  0.00  0.00     0.034 A 
ATOM      4  C3  UNL d   1      -0.109   0.318   0.767  0.00  0.00     0.017 A 
ATOM      5  C4  UNL d   1       0.592   0.996   1.771  0.00  0.00     0.017 A 
ATOM      6  C5  UNL d   1       1.575   0.326   2.505  0.00  0.00     0.034 A 
ATOM      7 Cl   UNL d   1       0.292   2.655   2.153  0.00  0.00    -0.070 Cl
ATOM      8 Cl1  UNL d   1      -1.338   1.077  -0.182  0.00  0.00    -0.070 Cl
ENDROOT
TORSDOF 0
ENDMDL
