MODEL 1
REMARK minimizedAffinity -2.89344144
REMARK minimizedRMSD -1
REMARK  0 active torsions:
REMARK  status: ('A' for Active; 'I' for Inactive)
ROOT
ATOM      1  C   UNL d   1       0.371   0.547   2.387  0.00  0.00     0.020 A 
ATOM      2  C1  UNL d   1       0.784  -0.463   1.519  0.00  0.00     0.020 A 
ATOM      3  C2  UNL d   1       0.981  -0.182   0.165  0.00  0.00     0.034 A 
ATOM      4  C3  UNL d   1       0.764   1.111  -0.324  0.00  0.00     0.017 A 
ATOM      5  C4  UNL d   1       0.349   2.124   0.548  0.00  0.00     0.017 A 
ATOM      6  C5  UNL d   1       0.154   1.837   1.902  0.00  0.00     0.034 A 
ATOM      7 Cl   UNL d   1       0.062   3.744   0.018  0.00  0.00    -0.070 Cl
ATOM      8 Cl1  UNL d   1       1.028   1.386  -2.010  0.00  0.00    -0.070 Cl
ENDROOT
TORSDOF 0
ENDMDL
