MODEL 1
REMARK minimizedAffinity 5.22858763
REMARK minimizedRMSD -1
REMARK  0 active torsions:
REMARK  status: ('A' for Active; 'I' for Inactive)
ROOT
ATOM      1  C   UNL d   1       0.899   3.360   2.129  0.00  0.00     0.020 A 
ATOM      2  C1  UNL d   1       1.009   2.636   3.315  0.00  0.00     0.020 A 
ATOM      3  C2  UNL d   1       0.731   1.267   3.326  0.00  0.00     0.034 A 
ATOM      4  C3  UNL d   1       0.341   0.619   2.149  0.00  0.00     0.017 A 
ATOM      5  C4  UNL d   1       0.230   1.347   0.959  0.00  0.00     0.017 A 
ATOM      6  C5  UNL d   1       0.510   2.717   0.953  0.00  0.00     0.034 A 
ATOM      7 Cl   UNL d   1      -0.246   0.616  -0.534  0.00  0.00    -0.070 Cl
ATOM      8 Cl1  UNL d   1       0.013  -1.075   2.236  0.00  0.00    -0.070 Cl
ENDROOT
TORSDOF 0
ENDMDL
