MODEL 1
REMARK minimizedAffinity 0.752179503
REMARK minimizedRMSD -1
REMARK  0 active torsions:
REMARK  status: ('A' for Active; 'I' for Inactive)
ROOT
ATOM      1  C   UNL d   1       1.726  -0.192   0.589  0.00  0.00     0.020 A 
ATOM      2  C1  UNL d   1       0.502   0.017   1.221  0.00  0.00     0.020 A 
ATOM      3  C2  UNL d   1       0.346  -0.311   2.569  0.00  0.00     0.034 A 
ATOM      4  C3  UNL d   1       1.418  -0.852   3.289  0.00  0.00     0.017 A 
ATOM      5  C4  UNL d   1       2.647  -1.062   2.654  0.00  0.00     0.017 A 
ATOM      6  C5  UNL d   1       2.797  -0.730   1.304  0.00  0.00     0.034 A 
ATOM      7 Cl   UNL d   1       4.015  -1.724   3.477  0.00  0.00    -0.070 Cl
ATOM      8 Cl1  UNL d   1       1.155  -1.235   4.954  0.00  0.00    -0.070 Cl
ENDROOT
TORSDOF 0
ENDMDL
