MODEL 1
REMARK minimizedAffinity -3.37442923
REMARK minimizedRMSD -1
REMARK  0 active torsions:
REMARK  status: ('A' for Active; 'I' for Inactive)
ROOT
ATOM      1  C   UNL d   1       0.326   3.394   2.252  0.00  0.00     0.020 A 
ATOM      2  C1  UNL d   1       0.081   3.660   0.906  0.00  0.00     0.020 A 
ATOM      3  C2  UNL d   1       0.256   2.655  -0.048  0.00  0.00     0.034 A 
ATOM      4  C3  UNL d   1       0.677   1.379   0.344  0.00  0.00     0.017 A 
ATOM      5  C4  UNL d   1       0.923   1.113   1.696  0.00  0.00     0.017 A 
ATOM      6  C5  UNL d   1       0.745   2.123   2.646  0.00  0.00     0.034 A 
ATOM      7 Cl   UNL d   1       1.444  -0.437   2.255  0.00  0.00    -0.070 Cl
ATOM      8 Cl1  UNL d   1       0.873   0.184  -0.889  0.00  0.00    -0.070 Cl
ENDROOT
TORSDOF 0
ENDMDL
