MODEL 1
REMARK minimizedAffinity 0.396809548
REMARK minimizedRMSD -1
REMARK  0 active torsions:
REMARK  status: ('A' for Active; 'I' for Inactive)
ROOT
ATOM      1  C   UNL d   1       0.836   4.851   0.113  0.00  0.00     0.020 A 
ATOM      2  C1  UNL d   1       0.277   3.650  -0.321  0.00  0.00     0.020 A 
ATOM      3  C2  UNL d   1       0.454   2.486   0.429  0.00  0.00     0.034 A 
ATOM      4  C3  UNL d   1       1.192   2.520   1.617  0.00  0.00     0.017 A 
ATOM      5  C4  UNL d   1       1.753   3.725   2.053  0.00  0.00     0.017 A 
ATOM      6  C5  UNL d   1       1.573   4.889   1.298  0.00  0.00     0.034 A 
ATOM      7 Cl   UNL d   1       2.677   3.846   3.509  0.00  0.00    -0.070 Cl
ATOM      8 Cl1  UNL d   1       1.371   1.042   2.494  0.00  0.00    -0.070 Cl
ENDROOT
TORSDOF 0
ENDMDL
