MODEL 1
REMARK minimizedAffinity -2.39839125
REMARK minimizedRMSD -1
REMARK  1 active torsions:
REMARK  status: ('A' for Active; 'I' for Inactive)
REMARK    1  A    between atoms: C1_2  and  C2_3 
ROOT
ATOM      1  C2  UNL d   1      -0.055  -0.779   1.013  0.00  0.00    -0.081 A 
ATOM      2  C3  UNL d   1       0.314  -0.018  -0.103  0.00  0.00     0.006 A 
ATOM      3  C4  UNL d   1       0.788  -0.642  -1.259  0.00  0.00     0.002 A 
ATOM      4  C5  UNL d   1       0.893  -2.036  -1.322  0.00  0.00    -0.080 A 
ATOM      5  C6  UNL d   1       1.372  -2.720  -2.568  0.00  0.00     0.076 C 
ATOM      6  C7  UNL d   1       0.540  -2.795  -0.200  0.00  0.00     0.002 A 
ATOM      7  C8  UNL d   1       0.067  -2.171   0.956  0.00  0.00     0.006 A 
ENDROOT
BRANCH   1   8
ATOM      8  C1  UNL d   1      -0.628  -0.113   2.239  0.00  0.00     0.054 C 
ATOM      9  C   UNL d   1      -2.085   0.273   2.029  0.00  0.00     0.018 C 
ENDBRANCH   1   8
TORSDOF 1
ENDMDL
