MODEL 1
REMARK minimizedAffinity -1.94993579
REMARK minimizedRMSD -1
REMARK  1 active torsions:
REMARK  status: ('A' for Active; 'I' for Inactive)
REMARK    1  A    between atoms: C1_2  and  C2_3 
ROOT
ATOM      1  C2  UNL d   1      -0.369  -1.214   0.128  0.00  0.00    -0.081 A 
ATOM      2  C3  UNL d   1       0.948  -0.806  -0.115  0.00  0.00     0.006 A 
ATOM      3  C4  UNL d   1       1.315   0.532   0.044  0.00  0.00     0.002 A 
ATOM      4  C5  UNL d   1       0.375   1.482   0.457  0.00  0.00    -0.080 A 
ATOM      5  C6  UNL d   1       0.763   2.916   0.662  0.00  0.00     0.076 C 
ATOM      6  C7  UNL d   1      -0.945   1.077   0.684  0.00  0.00     0.002 A 
ATOM      7  C8  UNL d   1      -1.313  -0.260   0.524  0.00  0.00     0.006 A 
ENDROOT
BRANCH   1   8
ATOM      8  C1  UNL d   1      -0.753  -2.668   0.020  0.00  0.00     0.054 C 
ATOM      9  C   UNL d   1       0.444  -3.530  -0.354  0.00  0.00     0.018 C 
ENDBRANCH   1   8
TORSDOF 1
ENDMDL
