MODEL 1
REMARK minimizedAffinity -3.0071485
REMARK minimizedRMSD -1
REMARK  1 active torsions:
REMARK  status: ('A' for Active; 'I' for Inactive)
REMARK    1  A    between atoms: C1_2  and  C2_3 
ROOT
ATOM      1  C2  UNL d   1       0.640   1.416   0.172  0.00  0.00    -0.081 A 
ATOM      2  C3  UNL d   1       0.000   0.672  -0.826  0.00  0.00     0.006 A 
ATOM      3  C4  UNL d   1      -0.235  -0.694  -0.650  0.00  0.00     0.002 A 
ATOM      4  C5  UNL d   1       0.158  -1.335   0.530  0.00  0.00    -0.080 A 
ATOM      5  C6  UNL d   1      -0.115  -2.794   0.744  0.00  0.00     0.076 C 
ATOM      6  C7  UNL d   1       0.814  -0.595   1.520  0.00  0.00     0.002 A 
ATOM      7  C8  UNL d   1       1.050   0.770   1.343  0.00  0.00     0.006 A 
ENDROOT
BRANCH   1   8
ATOM      8  C1  UNL d   1       0.837   2.902   0.012  0.00  0.00     0.054 C 
ATOM      9  C   UNL d   1       2.051   3.387   0.791  0.00  0.00     0.018 C 
ENDBRANCH   1   8
TORSDOF 1
ENDMDL
