MODEL 1
REMARK minimizedAffinity -2.48521352
REMARK minimizedRMSD -1
REMARK  1 active torsions:
REMARK  status: ('A' for Active; 'I' for Inactive)
REMARK    1  A    between atoms: C1_2  and  C2_3 
ROOT
ATOM      1  C2  UNL d   1       0.235   1.261   0.071  0.00  0.00    -0.081 A 
ATOM      2  C3  UNL d   1      -0.454   0.685   1.145  0.00  0.00     0.006 A 
ATOM      3  C4  UNL d   1      -0.524  -0.704   1.278  0.00  0.00     0.002 A 
ATOM      4  C5  UNL d   1       0.101  -1.539   0.345  0.00  0.00    -0.080 A 
ATOM      5  C6  UNL d   1       0.060  -3.031   0.493  0.00  0.00     0.076 C 
ATOM      6  C7  UNL d   1       0.776  -0.963  -0.737  0.00  0.00     0.002 A 
ATOM      7  C8  UNL d   1       0.845   0.426  -0.871  0.00  0.00     0.006 A 
ENDROOT
BRANCH   1   8
ATOM      8  C1  UNL d   1       0.367   2.759  -0.039  0.00  0.00     0.054 C 
ATOM      9  C   UNL d   1       1.479   3.284   0.858  0.00  0.00     0.018 C 
ENDBRANCH   1   8
TORSDOF 1
ENDMDL
