MODEL 1
REMARK minimizedAffinity -1.93859577
REMARK minimizedRMSD -1
REMARK  1 active torsions:
REMARK  status: ('A' for Active; 'I' for Inactive)
REMARK    1  A    between atoms: C1_2  and  C2_3 
ROOT
ATOM      1  C2  UNL d   1      -0.089  -0.232  -0.273  0.00  0.00    -0.081 A 
ATOM      2  C3  UNL d   1      -0.135   0.054  -1.643  0.00  0.00     0.006 A 
ATOM      3  C4  UNL d   1       0.657  -0.663  -2.543  0.00  0.00     0.002 A 
ATOM      4  C5  UNL d   1       1.502  -1.682  -2.089  0.00  0.00    -0.080 A 
ATOM      5  C6  UNL d   1       2.335  -2.479  -3.048  0.00  0.00     0.076 C 
ATOM      6  C7  UNL d   1       1.561  -1.956  -0.719  0.00  0.00     0.002 A 
ATOM      7  C8  UNL d   1       0.769  -1.239   0.182  0.00  0.00     0.006 A 
ENDROOT
BRANCH   1   8
ATOM      8  C1  UNL d   1      -0.990   0.495   0.693  0.00  0.00     0.054 C 
ATOM      9  C   UNL d   1      -1.935  -0.466   1.399  0.00  0.00     0.018 C 
ENDBRANCH   1   8
TORSDOF 1
ENDMDL
