MODEL 1
REMARK minimizedAffinity -3.11301351
REMARK minimizedRMSD -1
REMARK  1 active torsions:
REMARK  status: ('A' for Active; 'I' for Inactive)
REMARK    1  A    between atoms: C1_2  and  C2_3 
ROOT
ATOM      1  C2  UNL d   1       0.068   0.808  -0.865  0.00  0.00    -0.081 A 
ATOM      2  C3  UNL d   1      -0.467   0.270   0.312  0.00  0.00     0.006 A 
ATOM      3  C4  UNL d   1      -0.526  -1.114   0.495  0.00  0.00     0.002 A 
ATOM      4  C5  UNL d   1      -0.046  -1.981  -0.492  0.00  0.00    -0.080 A 
ATOM      5  C6  UNL d   1      -0.076  -3.468  -0.295  0.00  0.00     0.076 C 
ATOM      6  C7  UNL d   1       0.472  -1.444  -1.675  0.00  0.00     0.002 A 
ATOM      7  C8  UNL d   1       0.531  -0.061  -1.859  0.00  0.00     0.006 A 
ENDROOT
BRANCH   1   8
ATOM      8  C1  UNL d   1       0.193   2.300  -1.038  0.00  0.00     0.054 C 
ATOM      9  C   UNL d   1       0.621   2.973   0.258  0.00  0.00     0.018 C 
ENDBRANCH   1   8
TORSDOF 1
ENDMDL
