MODEL 1
REMARK minimizedAffinity -4.9221468
REMARK minimizedRMSD -1
REMARK  1 active torsions:
REMARK  status: ('A' for Active; 'I' for Inactive)
REMARK    1  A    between atoms: C1_2  and  C2_3 
ROOT
ATOM      1  C2  UNL d   1       0.145   1.719   0.076  0.00  0.00    -0.081 A 
ATOM      2  C3  UNL d   1      -0.444   1.018  -0.983  0.00  0.00     0.006 A 
ATOM      3  C4  UNL d   1      -0.612  -0.367  -0.909  0.00  0.00     0.002 A 
ATOM      4  C5  UNL d   1      -0.200  -1.072   0.227  0.00  0.00    -0.080 A 
ATOM      5  C6  UNL d   1      -0.401  -2.554   0.332  0.00  0.00     0.076 C 
ATOM      6  C7  UNL d   1       0.405  -0.374   1.278  0.00  0.00     0.002 A 
ATOM      7  C8  UNL d   1       0.574   1.011   1.204  0.00  0.00     0.006 A 
ENDROOT
BRANCH   1   8
ATOM      8  C1  UNL d   1       0.268   3.221   0.026  0.00  0.00     0.054 C 
ATOM      9  C   UNL d   1       1.507   3.700   0.770  0.00  0.00     0.018 C 
ENDBRANCH   1   8
TORSDOF 1
ENDMDL
