MODEL 1
REMARK minimizedAffinity -3.22407269
REMARK minimizedRMSD -1
REMARK  1 active torsions:
REMARK  status: ('A' for Active; 'I' for Inactive)
REMARK    1  A    between atoms: C1_2  and  C2_3 
ROOT
ATOM      1  C2  UNL d   1       1.202   1.234  -0.192  0.00  0.00    -0.081 A 
ATOM      2  C3  UNL d   1      -0.090   1.100  -0.715  0.00  0.00     0.006 A 
ATOM      3  C4  UNL d   1      -0.823  -0.070  -0.501  0.00  0.00     0.002 A 
ATOM      4  C5  UNL d   1      -0.280  -1.121   0.246  0.00  0.00    -0.080 A 
ATOM      5  C6  UNL d   1      -1.068  -2.370   0.509  0.00  0.00     0.076 C 
ATOM      6  C7  UNL d   1       1.017  -0.994   0.754  0.00  0.00     0.002 A 
ATOM      7  C8  UNL d   1       1.751   0.175   0.539  0.00  0.00     0.006 A 
ENDROOT
BRANCH   1   8
ATOM      8  C1  UNL d   1       1.970   2.519  -0.367  0.00  0.00     0.054 C 
ATOM      9  C   UNL d   1       1.557   3.555   0.669  0.00  0.00     0.018 C 
ENDBRANCH   1   8
TORSDOF 1
ENDMDL
