MODEL 1
REMARK minimizedAffinity -5.0645752
REMARK minimizedRMSD -1
REMARK  1 active torsions:
REMARK  status: ('A' for Active; 'I' for Inactive)
REMARK    1  A    between atoms: C1_2  and  C2_3 
ROOT
ATOM      1  C2  UNL d   1      -0.280  -0.163  -0.821  0.00  0.00    -0.081 A 
ATOM      2  C3  UNL d   1      -0.199  -0.946   0.336  0.00  0.00     0.006 A 
ATOM      3  C4  UNL d   1       0.047  -2.318   0.247  0.00  0.00     0.002 A 
ATOM      4  C5  UNL d   1       0.223  -2.928  -1.000  0.00  0.00    -0.080 A 
ATOM      5  C6  UNL d   1       0.518  -4.395  -1.109  0.00  0.00     0.076 C 
ATOM      6  C7  UNL d   1       0.124  -2.148  -2.158  0.00  0.00     0.002 A 
ATOM      7  C8  UNL d   1      -0.122  -0.777  -2.069  0.00  0.00     0.006 A 
ENDROOT
BRANCH   1   8
ATOM      8  C1  UNL d   1      -0.481   1.328  -0.725  0.00  0.00     0.054 C 
ATOM      9  C   UNL d   1       0.744   2.015  -0.139  0.00  0.00     0.018 C 
ENDBRANCH   1   8
TORSDOF 1
ENDMDL
