MODEL 1
REMARK minimizedAffinity -4.76197624
REMARK minimizedRMSD -1
REMARK  1 active torsions:
REMARK  status: ('A' for Active; 'I' for Inactive)
REMARK    1  A    between atoms: C1_2  and  C2_3 
ROOT
ATOM      1  C2  UNL d   1       0.071   0.852   0.049  0.00  0.00    -0.081 A 
ATOM      2  C3  UNL d   1      -0.173  -0.161   0.984  0.00  0.00     0.006 A 
ATOM      3  C4  UNL d   1      -0.238  -1.497   0.579  0.00  0.00     0.002 A 
ATOM      4  C5  UNL d   1      -0.054  -1.841  -0.764  0.00  0.00    -0.080 A 
ATOM      5  C6  UNL d   1      -0.092  -3.274  -1.207  0.00  0.00     0.076 C 
ATOM      6  C7  UNL d   1       0.172  -0.827  -1.700  0.00  0.00     0.002 A 
ATOM      7  C8  UNL d   1       0.237   0.508  -1.297  0.00  0.00     0.006 A 
ENDROOT
BRANCH   1   8
ATOM      8  C1  UNL d   1       0.207   2.287   0.492  0.00  0.00     0.054 C 
ATOM      9  C   UNL d   1       1.602   2.824   0.209  0.00  0.00     0.018 C 
ENDBRANCH   1   8
TORSDOF 1
ENDMDL
