MODEL 1
REMARK minimizedAffinity -0.706384957
REMARK minimizedRMSD -1
REMARK  1 active torsions:
REMARK  status: ('A' for Active; 'I' for Inactive)
REMARK    1  A    between atoms: C1_2  and  C2_3 
ROOT
ATOM      1  C2  UNL d   1      -0.169  -1.462   0.258  0.00  0.00    -0.081 A 
ATOM      2  C3  UNL d   1       1.218  -1.383   0.081  0.00  0.00     0.006 A 
ATOM      3  C4  UNL d   1       1.846  -0.141  -0.041  0.00  0.00     0.002 A 
ATOM      4  C5  UNL d   1       1.100   1.041   0.019  0.00  0.00    -0.080 A 
ATOM      5  C6  UNL d   1       1.767   2.381  -0.080  0.00  0.00     0.076 C 
ATOM      6  C7  UNL d   1      -0.287   0.961   0.178  0.00  0.00     0.002 A 
ATOM      7  C8  UNL d   1      -0.916  -0.280   0.300  0.00  0.00     0.006 A 
ENDROOT
BRANCH   1   8
ATOM      8  C1  UNL d   1      -0.842  -2.797   0.455  0.00  0.00     0.054 C 
ATOM      9  C   UNL d   1       0.161  -3.939   0.374  0.00  0.00     0.018 C 
ENDBRANCH   1   8
TORSDOF 1
ENDMDL
