MODEL 1
REMARK minimizedAffinity -5.65263891
REMARK minimizedRMSD -1
REMARK  1 active torsions:
REMARK  status: ('A' for Active; 'I' for Inactive)
REMARK    1  A    between atoms: C1_2  and  C2_3 
ROOT
ATOM      1  C2  UNL d   1       0.087   1.599   0.228  0.00  0.00    -0.081 A 
ATOM      2  C3  UNL d   1      -0.801   1.172   1.223  0.00  0.00     0.006 A 
ATOM      3  C4  UNL d   1      -1.091  -0.186   1.378  0.00  0.00     0.002 A 
ATOM      4  C5  UNL d   1      -0.492  -1.139   0.548  0.00  0.00    -0.080 A 
ATOM      5  C6  UNL d   1      -0.772  -2.602   0.724  0.00  0.00     0.076 C 
ATOM      6  C7  UNL d   1       0.382  -0.711  -0.457  0.00  0.00     0.002 A 
ATOM      7  C8  UNL d   1       0.672   0.646  -0.613  0.00  0.00     0.006 A 
ENDROOT
BRANCH   1   8
ATOM      8  C1  UNL d   1       0.452   3.056   0.100  0.00  0.00     0.054 C 
ATOM      9  C   UNL d   1       1.949   3.269   0.273  0.00  0.00     0.018 C 
ENDBRANCH   1   8
TORSDOF 1
ENDMDL
