MODEL 1
REMARK minimizedAffinity -4.998456
REMARK minimizedRMSD -1
REMARK  1 active torsions:
REMARK  status: ('A' for Active; 'I' for Inactive)
REMARK    1  A    between atoms: C1_2  and  C2_3 
ROOT
ATOM      1  C2  UNL d   1      -0.542   0.050   0.801  0.00  0.00    -0.081 A 
ATOM      2  C3  UNL d   1      -1.288  -0.961   1.418  0.00  0.00     0.006 A 
ATOM      3  C4  UNL d   1      -1.001  -2.306   1.169  0.00  0.00     0.002 A 
ATOM      4  C5  UNL d   1       0.040  -2.661   0.305  0.00  0.00    -0.080 A 
ATOM      5  C6  UNL d   1       0.378  -4.100   0.052  0.00  0.00     0.076 C 
ATOM      6  C7  UNL d   1       0.774  -1.650  -0.326  0.00  0.00     0.002 A 
ATOM      7  C8  UNL d   1       0.487  -0.306  -0.077  0.00  0.00     0.006 A 
ENDROOT
BRANCH   1   8
ATOM      8  C1  UNL d   1      -0.807   1.500   1.118  0.00  0.00     0.054 C 
ATOM      9  C   UNL d   1      -0.006   2.420   0.208  0.00  0.00     0.018 C 
ENDBRANCH   1   8
TORSDOF 1
ENDMDL
