MODEL 1
REMARK minimizedAffinity -5.04158449
REMARK minimizedRMSD -1
REMARK  1 active torsions:
REMARK  status: ('A' for Active; 'I' for Inactive)
REMARK    1  A    between atoms: C1_2  and  C2_3 
ROOT
ATOM      1  C2  UNL d   1       0.192  -1.419  -0.527  0.00  0.00    -0.073 A 
ATOM      2  C3  UNL d   1       0.556  -1.511   0.821  0.00  0.00    -0.002 A 
ATOM      3  C4  UNL d   1       0.485  -0.389   1.648  0.00  0.00     0.004 A 
ATOM      4  C5  UNL d   1       0.044   0.832   1.139  0.00  0.00    -0.004 A 
ATOM      5  C6  UNL d   1      -0.335   0.941  -0.203  0.00  0.00    -0.075 A 
ATOM      6  C7  UNL d   1      -0.810   2.248  -0.767  0.00  0.00     0.076 C 
ATOM      7  C8  UNL d   1      -0.259  -0.189  -1.028  0.00  0.00     0.001 A 
ENDROOT
BRANCH   1   8
ATOM      8  C1  UNL d   1       0.261  -2.629  -1.423  0.00  0.00     0.053 C 
ATOM      9  C   UNL d   1      -0.845  -3.627  -1.118  0.00  0.00     0.018 C 
ENDBRANCH   1   8
TORSDOF 1
ENDMDL
