MODEL 1
REMARK minimizedAffinity -1.09956598
REMARK minimizedRMSD -1
REMARK  1 active torsions:
REMARK  status: ('A' for Active; 'I' for Inactive)
REMARK    1  A    between atoms: C1_2  and  C2_3 
ROOT
ATOM      1  C2  UNL d   1       0.078   1.319   1.287  0.00  0.00    -0.073 A 
ATOM      2  C3  UNL d   1       0.528   0.042   1.640  0.00  0.00    -0.002 A 
ATOM      3  C4  UNL d   1       0.752  -0.923   0.656  0.00  0.00     0.004 A 
ATOM      4  C5  UNL d   1       0.535  -0.619  -0.687  0.00  0.00    -0.004 A 
ATOM      5  C6  UNL d   1       0.096   0.656  -1.060  0.00  0.00    -0.075 A 
ATOM      6  C7  UNL d   1      -0.145   0.998  -2.501  0.00  0.00     0.076 C 
ATOM      7  C8  UNL d   1      -0.129   1.618  -0.067  0.00  0.00     0.001 A 
ENDROOT
BRANCH   1   8
ATOM      8  C1  UNL d   1      -0.159   2.366   2.345  0.00  0.00     0.053 C 
ATOM      9  C   UNL d   1      -1.163   3.415   1.894  0.00  0.00     0.018 C 
ENDBRANCH   1   8
TORSDOF 1
ENDMDL
