MODEL 1
REMARK minimizedAffinity -2.84671974
REMARK minimizedRMSD -1
REMARK  1 active torsions:
REMARK  status: ('A' for Active; 'I' for Inactive)
REMARK    1  A    between atoms: C1_2  and  C2_3 
ROOT
ATOM      1  C2  UNL d   1       0.015   0.266   0.871  0.00  0.00    -0.073 A 
ATOM      2  C3  UNL d   1      -1.340   0.611   0.929  0.00  0.00    -0.002 A 
ATOM      3  C4  UNL d   1      -1.743   1.780   1.576  0.00  0.00     0.004 A 
ATOM      4  C5  UNL d   1      -0.797   2.619   2.164  0.00  0.00    -0.004 A 
ATOM      5  C6  UNL d   1       0.563   2.298   2.107  0.00  0.00    -0.075 A 
ATOM      6  C7  UNL d   1       1.593   3.189   2.736  0.00  0.00     0.076 C 
ATOM      7  C8  UNL d   1       0.960   1.121   1.458  0.00  0.00     0.001 A 
ENDROOT
BRANCH   1   8
ATOM      8  C1  UNL d   1       0.456  -0.992   0.169  0.00  0.00     0.053 C 
ATOM      9  C   UNL d   1      -0.664  -1.607  -0.655  0.00  0.00     0.018 C 
ENDBRANCH   1   8
TORSDOF 1
ENDMDL
