MODEL 1
REMARK minimizedAffinity -1.65052009
REMARK minimizedRMSD -1
REMARK  1 active torsions:
REMARK  status: ('A' for Active; 'I' for Inactive)
REMARK    1  A    between atoms: C1_2  and  C2_3 
ROOT
ATOM      1  C2  UNL d   1       0.497   0.618   1.506  0.00  0.00    -0.073 A 
ATOM      2  C3  UNL d   1      -0.723   1.259   1.266  0.00  0.00    -0.002 A 
ATOM      3  C4  UNL d   1      -0.882   2.611   1.575  0.00  0.00     0.004 A 
ATOM      4  C5  UNL d   1       0.178   3.336   2.119  0.00  0.00    -0.004 A 
ATOM      5  C6  UNL d   1       1.409   2.716   2.355  0.00  0.00    -0.075 A 
ATOM      6  C7  UNL d   1       2.558   3.481   2.942  0.00  0.00     0.076 C 
ATOM      7  C8  UNL d   1       1.560   1.358   2.045  0.00  0.00     0.001 A 
ENDROOT
BRANCH   1   8
ATOM      8  C1  UNL d   1       0.676  -0.839   1.168  0.00  0.00     0.053 C 
ATOM      9  C   UNL d   1       0.598  -1.091  -0.330  0.00  0.00     0.018 C 
ENDBRANCH   1   8
TORSDOF 1
ENDMDL
