MODEL 1
REMARK minimizedAffinity -2.85600638
REMARK minimizedRMSD -1
REMARK  1 active torsions:
REMARK  status: ('A' for Active; 'I' for Inactive)
REMARK    1  A    between atoms: C1_2  and  C2_3 
ROOT
ATOM      1  C2  UNL d   1      -0.360  -1.019  -0.413  0.00  0.00    -0.073 A 
ATOM      2  C3  UNL d   1       0.860  -1.145   0.261  0.00  0.00    -0.002 A 
ATOM      3  C4  UNL d   1       1.222  -0.219   1.240  0.00  0.00     0.004 A 
ATOM      4  C5  UNL d   1       0.368   0.836   1.560  0.00  0.00    -0.004 A 
ATOM      5  C6  UNL d   1      -0.861   0.972   0.905  0.00  0.00    -0.075 A 
ATOM      6  C7  UNL d   1      -1.790   2.102   1.236  0.00  0.00     0.076 C 
ATOM      7  C8  UNL d   1      -1.216   0.040  -0.079  0.00  0.00     0.001 A 
ENDROOT
BRANCH   1   8
ATOM      8  C1  UNL d   1      -0.759  -2.020  -1.467  0.00  0.00     0.053 C 
ATOM      9  C   UNL d   1      -1.282  -3.311  -0.858  0.00  0.00     0.018 C 
ENDBRANCH   1   8
TORSDOF 1
ENDMDL
