MODEL 1
REMARK minimizedAffinity 0.0236550141
REMARK minimizedRMSD -1
REMARK  0 active torsions:
REMARK  status: ('A' for Active; 'I' for Inactive)
ROOT
ATOM      1  C   UNL d   1       1.625   0.760  -2.914  0.00  0.00     0.020 A 
ATOM      2  C1  UNL d   1       0.501   0.129  -3.445  0.00  0.00     0.020 A 
ATOM      3  C2  UNL d   1      -0.505  -0.337  -2.596  0.00  0.00     0.034 A 
ATOM      4  C3  UNL d   1      -0.390  -0.171  -1.211  0.00  0.00     0.017 A 
ATOM      5  C4  UNL d   1       0.739   0.463  -0.679  0.00  0.00     0.017 A 
ATOM      6  C5  UNL d   1       1.743   0.927  -1.534  0.00  0.00     0.034 A 
ATOM      7 Cl   UNL d   1       0.952   0.704   1.019  0.00  0.00    -0.070 Cl
ATOM      8 Cl1  UNL d   1      -1.672  -0.771  -0.220  0.00  0.00    -0.070 Cl
ENDROOT
TORSDOF 0
ENDMDL
