MODEL 1
REMARK minimizedAffinity -2.4010334
REMARK minimizedRMSD -1
REMARK  0 active torsions:
REMARK  status: ('A' for Active; 'I' for Inactive)
ROOT
ATOM      1  C   UNL d   1      -1.156  -0.153  -1.201  0.00  0.00     0.020 A 
ATOM      2  C1  UNL d   1       0.108  -0.678  -1.466  0.00  0.00     0.020 A 
ATOM      3  C2  UNL d   1       1.094  -0.658  -0.477  0.00  0.00     0.034 A 
ATOM      4  C3  UNL d   1       0.817  -0.113   0.782  0.00  0.00     0.017 A 
ATOM      5  C4  UNL d   1      -0.453   0.413   1.047  0.00  0.00     0.017 A 
ATOM      6  C5  UNL d   1      -1.436   0.391   0.053  0.00  0.00     0.034 A 
ATOM      7 Cl   UNL d   1      -0.869   1.103   2.576  0.00  0.00    -0.070 Cl
ATOM      8 Cl1  UNL d   1       2.083  -0.123   1.958  0.00  0.00    -0.070 Cl
ENDROOT
TORSDOF 0
ENDMDL
