MODEL 1
REMARK minimizedAffinity -1.67387414
REMARK minimizedRMSD -1
REMARK  0 active torsions:
REMARK  status: ('A' for Active; 'I' for Inactive)
ROOT
ATOM      1  C   UNL d   1       0.457  -0.715  -1.424  0.00  0.00     0.020 A 
ATOM      2  C1  UNL d   1       1.107  -0.469  -0.216  0.00  0.00     0.020 A 
ATOM      3  C2  UNL d   1       0.383  -0.003   0.884  0.00  0.00     0.034 A 
ATOM      4  C3  UNL d   1      -0.994   0.219   0.777  0.00  0.00     0.017 A 
ATOM      5  C4  UNL d   1      -1.646  -0.028  -0.437  0.00  0.00     0.017 A 
ATOM      6  C5  UNL d   1      -0.916  -0.495  -1.535  0.00  0.00     0.034 A 
ATOM      7 Cl   UNL d   1      -3.343   0.222  -0.646  0.00  0.00    -0.070 Cl
ATOM      8 Cl1  UNL d   1      -1.827   0.796   2.177  0.00  0.00    -0.070 Cl
ENDROOT
TORSDOF 0
ENDMDL
