MODEL 1
REMARK minimizedAffinity -3.53490543
REMARK minimizedRMSD -1
REMARK  0 active torsions:
REMARK  status: ('A' for Active; 'I' for Inactive)
ROOT
ATOM      1  C   UNL d   1      -2.167   0.830   0.927  0.00  0.00     0.020 A 
ATOM      2  C1  UNL d   1      -1.681   1.220   2.175  0.00  0.00     0.020 A 
ATOM      3  C2  UNL d   1      -0.361   0.935   2.530  0.00  0.00     0.034 A 
ATOM      4  C3  UNL d   1       0.478   0.257   1.638  0.00  0.00     0.017 A 
ATOM      5  C4  UNL d   1      -0.011  -0.134   0.386  0.00  0.00     0.017 A 
ATOM      6  C5  UNL d   1      -1.333   0.154   0.035  0.00  0.00     0.034 A 
ATOM      7 Cl   UNL d   1       0.964  -0.974  -0.768  0.00  0.00    -0.070 Cl
ATOM      8 Cl1  UNL d   1       2.099  -0.062   2.144  0.00  0.00    -0.070 Cl
ENDROOT
TORSDOF 0
ENDMDL
