MODEL 1
REMARK minimizedAffinity -0.746032298
REMARK minimizedRMSD -1
REMARK  0 active torsions:
REMARK  status: ('A' for Active; 'I' for Inactive)
ROOT
ATOM      1  C   UNL d   1      -1.028  -1.095  -0.122  0.00  0.00     0.020 A 
ATOM      2  C1  UNL d   1      -2.092  -0.604   0.634  0.00  0.00     0.020 A 
ATOM      3  C2  UNL d   1      -1.892   0.466   1.509  0.00  0.00     0.034 A 
ATOM      4  C3  UNL d   1      -0.625   1.049   1.630  0.00  0.00     0.017 A 
ATOM      5  C4  UNL d   1       0.442   0.556   0.870  0.00  0.00     0.017 A 
ATOM      6  C5  UNL d   1       0.236  -0.516  -0.004  0.00  0.00     0.034 A 
ATOM      7 Cl   UNL d   1       2.033   1.223   0.965  0.00  0.00    -0.070 Cl
ATOM      8 Cl1  UNL d   1      -0.450   2.370   2.730  0.00  0.00    -0.070 Cl
ENDROOT
TORSDOF 0
ENDMDL
