MODEL 1
REMARK minimizedAffinity -0.886379004
REMARK minimizedRMSD -1
REMARK  0 active torsions:
REMARK  status: ('A' for Active; 'I' for Inactive)
ROOT
ATOM      1  C   UNL d   1      -1.287  -0.125  -0.775  0.00  0.00     0.020 A 
ATOM      2  C1  UNL d   1      -0.029  -0.683  -1.002  0.00  0.00     0.020 A 
ATOM      3  C2  UNL d   1       0.998  -0.490  -0.075  0.00  0.00     0.034 A 
ATOM      4  C3  UNL d   1       0.768   0.263   1.083  0.00  0.00     0.017 A 
ATOM      5  C4  UNL d   1      -0.494   0.822   1.310  0.00  0.00     0.017 A 
ATOM      6  C5  UNL d   1      -1.519   0.625   0.378  0.00  0.00     0.034 A 
ATOM      7 Cl   UNL d   1      -0.853   1.762   2.715  0.00  0.00    -0.070 Cl
ATOM      8 Cl1  UNL d   1       2.084   0.460   2.186  0.00  0.00    -0.070 Cl
ENDROOT
TORSDOF 0
ENDMDL
