MODEL 1
REMARK minimizedAffinity -3.32678533
REMARK minimizedRMSD -1
REMARK  0 active torsions:
REMARK  status: ('A' for Active; 'I' for Inactive)
ROOT
ATOM      1  C   UNL d   1      -0.648   1.044   2.193  0.00  0.00     0.020 A 
ATOM      2  C1  UNL d   1       0.658   0.881   1.733  0.00  0.00     0.020 A 
ATOM      3  C2  UNL d   1       0.894   0.231   0.519  0.00  0.00     0.034 A 
ATOM      4  C3  UNL d   1      -0.177  -0.257  -0.238  0.00  0.00     0.017 A 
ATOM      5  C4  UNL d   1      -1.488  -0.092   0.225  0.00  0.00     0.017 A 
ATOM      6  C5  UNL d   1      -1.719   0.559   1.441  0.00  0.00     0.034 A 
ATOM      7 Cl   UNL d   1      -2.861  -0.667  -0.653  0.00  0.00    -0.070 Cl
ATOM      8 Cl1  UNL d   1       0.188  -1.049  -1.729  0.00  0.00    -0.070 Cl
ENDROOT
TORSDOF 0
ENDMDL
