MODEL 1
REMARK minimizedAffinity -5.15829849
REMARK minimizedRMSD -1
REMARK  0 active torsions:
REMARK  status: ('A' for Active; 'I' for Inactive)
ROOT
ATOM      1  C   UNL d   1      -1.296  -0.031  -0.948  0.00  0.00     0.020 A 
ATOM      2  C1  UNL d   1      -0.038  -0.492  -1.332  0.00  0.00     0.020 A 
ATOM      3  C2  UNL d   1       1.030  -0.440  -0.433  0.00  0.00     0.034 A 
ATOM      4  C3  UNL d   1       0.840   0.073   0.855  0.00  0.00     0.017 A 
ATOM      5  C4  UNL d   1      -0.424   0.535   1.240  0.00  0.00     0.017 A 
ATOM      6  C5  UNL d   1      -1.489   0.481   0.336  0.00  0.00     0.034 A 
ATOM      7 Cl   UNL d   1      -0.735   1.182   2.813  0.00  0.00    -0.070 Cl
ATOM      8 Cl1  UNL d   1       2.204   0.107   1.915  0.00  0.00    -0.070 Cl
ENDROOT
TORSDOF 0
ENDMDL
