MODEL 1
REMARK minimizedAffinity -4.10009289
REMARK minimizedRMSD -1
REMARK  0 active torsions:
REMARK  status: ('A' for Active; 'I' for Inactive)
ROOT
ATOM      1  C   UNL d   1       0.763   0.785   1.682  0.00  0.00     0.020 A 
ATOM      2  C1  UNL d   1      -0.551   1.025   2.081  0.00  0.00     0.020 A 
ATOM      3  C2  UNL d   1      -1.612   0.646   1.256  0.00  0.00     0.034 A 
ATOM      4  C3  UNL d   1      -1.361   0.025   0.027  0.00  0.00     0.017 A 
ATOM      5  C4  UNL d   1      -0.041  -0.215  -0.373  0.00  0.00     0.017 A 
ATOM      6  C5  UNL d   1       1.017   0.166   0.457  0.00  0.00     0.034 A 
ATOM      7 Cl   UNL d   1       0.348  -0.977  -1.875  0.00  0.00    -0.070 Cl
ATOM      8 Cl1  UNL d   1      -2.721  -0.417  -0.943  0.00  0.00    -0.070 Cl
ENDROOT
TORSDOF 0
ENDMDL
