MODEL 1
REMARK minimizedAffinity 1.87685716
REMARK minimizedRMSD -1
REMARK  0 active torsions:
REMARK  status: ('A' for Active; 'I' for Inactive)
ROOT
ATOM      1  N1  IND d   1       4.776   5.992  -4.405  0.00  0.00    -0.196 N 
ATOM      2  C2  IND d   1       6.000   5.877  -3.806  0.00  0.00     0.054 A 
ATOM      3  C3  IND d   1       5.880   5.271  -2.604  0.00  0.00    -0.031 A 
ATOM      4  C4  IND d   1       3.788   4.294  -1.465  0.00  0.00     0.051 A 
ATOM      5  C5  IND d   1       2.433   4.192  -1.608  0.00  0.00    -0.031 A 
ATOM      6  C6  IND d   1       1.776   4.692  -2.714  0.00  0.00     0.015 A 
ATOM      7  C7  IND d   1       2.455   5.306  -3.728  0.00  0.00    -0.016 A 
ATOM      8  C8  IND d   1       3.831   5.418  -3.583  0.00  0.00    -0.047 A 
ATOM      9  C9  IND d   1       4.497   4.950  -2.444  0.00  0.00    -0.096 A 
ATOM     10  HN1 IND d   1       4.623   6.361  -5.166  0.00  0.00     0.298 HD
ENDROOT
TORSDOF 0
ENDMDL
