MODEL 1
REMARK minimizedAffinity 1.65542006
REMARK minimizedRMSD -1
REMARK  0 active torsions:
REMARK  status: ('A' for Active; 'I' for Inactive)
ROOT
ATOM      1  N1  IND d   1       2.348   4.147  -2.778  0.00  0.00    -0.196 N 
ATOM      2  C2  IND d   1       1.997   4.463  -1.495  0.00  0.00     0.054 A 
ATOM      3  C3  IND d   1       2.984   5.167  -0.897  0.00  0.00    -0.031 A 
ATOM      4  C4  IND d   1       5.218   6.000  -1.868  0.00  0.00     0.051 A 
ATOM      5  C5  IND d   1       6.000   5.928  -2.986  0.00  0.00    -0.031 A 
ATOM      6  C6  IND d   1       5.595   5.248  -4.117  0.00  0.00     0.015 A 
ATOM      7  C7  IND d   1       4.383   4.620  -4.174  0.00  0.00    -0.016 A 
ATOM      8  C8  IND d   1       3.589   4.685  -3.038  0.00  0.00    -0.047 A 
ATOM      9  C9  IND d   1       4.013   5.338  -1.873  0.00  0.00    -0.096 A 
ATOM     10  HN1 IND d   1       1.874   3.689  -3.329  0.00  0.00     0.298 HD
ENDROOT
TORSDOF 0
ENDMDL
