MODEL 1
REMARK minimizedAffinity 0.129089743
REMARK minimizedRMSD -1
REMARK  0 active torsions:
REMARK  status: ('A' for Active; 'I' for Inactive)
ROOT
ATOM      1  N1  IND d   1       4.477   4.935  -1.792  0.00  0.00    -0.196 N 
ATOM      2  C2  IND d   1       3.383   4.116  -1.801  0.00  0.00     0.054 A 
ATOM      3  C3  IND d   1       3.019   3.830  -3.072  0.00  0.00    -0.031 A 
ATOM      4  C4  IND d   1       4.139   4.515  -5.286  0.00  0.00     0.051 A 
ATOM      5  C5  IND d   1       5.145   5.291  -5.790  0.00  0.00    -0.031 A 
ATOM      6  C6  IND d   1       6.000   5.999  -4.970  0.00  0.00     0.015 A 
ATOM      7  C7  IND d   1       5.886   5.949  -3.609  0.00  0.00    -0.016 A 
ATOM      8  C8  IND d   1       4.860   5.169  -3.095  0.00  0.00    -0.047 A 
ATOM      9  C9  IND d   1       3.964   4.481  -3.923  0.00  0.00    -0.096 A 
ATOM     10  HN1 IND d   1       4.862   5.251  -1.091  0.00  0.00     0.298 HD
ENDROOT
TORSDOF 0
ENDMDL
