MODEL 1
REMARK minimizedAffinity -0.540347755
REMARK minimizedRMSD -1
REMARK  0 active torsions:
REMARK  status: ('A' for Active; 'I' for Inactive)
ROOT
ATOM      1  N1  IND d   1       3.906   4.099  -4.513  0.00  0.00    -0.196 N 
ATOM      2  C2  IND d   1       5.029   4.193  -5.288  0.00  0.00     0.054 A 
ATOM      3  C3  IND d   1       6.000   4.864  -4.630  0.00  0.00    -0.031 A 
ATOM      4  C4  IND d   1       6.000   5.810  -2.235  0.00  0.00     0.051 A 
ATOM      5  C5  IND d   1       5.188   6.000  -1.152  0.00  0.00    -0.031 A 
ATOM      6  C6  IND d   1       3.882   5.555  -1.133  0.00  0.00     0.015 A 
ATOM      7  C7  IND d   1       3.340   4.890  -2.196  0.00  0.00    -0.016 A 
ATOM      8  C8  IND d   1       4.159   4.701  -3.300  0.00  0.00    -0.047 A 
ATOM      9  C9  IND d   1       5.472   5.188  -3.342  0.00  0.00    -0.096 A 
ATOM     10  HN1 IND d   1       3.167   3.727  -4.745  0.00  0.00     0.298 HD
ENDROOT
TORSDOF 0
ENDMDL
