MODEL 1
REMARK minimizedAffinity 5.20081472
REMARK minimizedRMSD -1
REMARK  0 active torsions:
REMARK  status: ('A' for Active; 'I' for Inactive)
ROOT
ATOM      1  N1  IND d   1       3.342   4.496  -1.033  0.00  0.00    -0.196 N 
ATOM      2  C2  IND d   1       2.337   3.734  -1.560  0.00  0.00     0.054 A 
ATOM      3  C3  IND d   1       2.499   3.599  -2.895  0.00  0.00    -0.031 A 
ATOM      4  C4  IND d   1       4.397   4.459  -4.407  0.00  0.00     0.051 A 
ATOM      5  C5  IND d   1       5.522   5.235  -4.387  0.00  0.00    -0.031 A 
ATOM      6  C6  IND d   1       5.989   5.814  -3.225  0.00  0.00     0.015 A 
ATOM      7  C7  IND d   1       5.351   5.628  -2.031  0.00  0.00    -0.016 A 
ATOM      8  C8  IND d   1       4.204   4.846  -2.048  0.00  0.00    -0.047 A 
ATOM      9  C9  IND d   1       3.703   4.291  -3.232  0.00  0.00    -0.096 A 
ATOM     10  HN1 IND d   1       3.421   4.719  -0.207  0.00  0.00     0.298 HD
ENDROOT
TORSDOF 0
ENDMDL
