MODEL 1
REMARK minimizedAffinity -2.20182681
REMARK minimizedRMSD -1
REMARK  0 active torsions:
REMARK  status: ('A' for Active; 'I' for Inactive)
ROOT
ATOM      1  N1  IND d   1       4.213   3.407  -5.071  0.00  0.00    -0.196 N 
ATOM      2  C2  IND d   1       5.179   3.684  -5.997  0.00  0.00     0.054 A 
ATOM      3  C3  IND d   1       5.999   4.659  -5.544  0.00  0.00    -0.031 A 
ATOM      4  C4  IND d   1       6.000   5.871  -3.272  0.00  0.00     0.051 A 
ATOM      5  C5  IND d   1       5.287   5.984  -2.112  0.00  0.00    -0.031 A 
ATOM      6  C6  IND d   1       4.158   5.227  -1.872  0.00  0.00     0.015 A 
ATOM      7  C7  IND d   1       3.705   4.316  -2.784  0.00  0.00    -0.016 A 
ATOM      8  C8  IND d   1       4.422   4.203  -3.966  0.00  0.00    -0.047 A 
ATOM      9  C9  IND d   1       5.544   4.999  -4.233  0.00  0.00    -0.096 A 
ATOM     10  HN1 IND d   1       3.580   2.832  -5.163  0.00  0.00     0.298 HD
ENDROOT
TORSDOF 0
ENDMDL
