MODEL 1
REMARK minimizedAffinity 0.425208092
REMARK minimizedRMSD -1
REMARK  0 active torsions:
REMARK  status: ('A' for Active; 'I' for Inactive)
ROOT
ATOM      1  N1  IND d   1       3.742   4.191  -0.762  0.00  0.00    -0.196 N 
ATOM      2  C2  IND d   1       2.524   3.760  -1.209  0.00  0.00     0.054 A 
ATOM      3  C3  IND d   1       2.347   4.110  -2.503  0.00  0.00    -0.031 A 
ATOM      4  C4  IND d   1       3.965   5.304  -4.110  0.00  0.00     0.051 A 
ATOM      5  C5  IND d   1       5.183   5.924  -4.150  0.00  0.00    -0.031 A 
ATOM      6  C6  IND d   1       6.000   5.997  -3.040  0.00  0.00     0.015 A 
ATOM      7  C7  IND d   1       5.633   5.441  -1.847  0.00  0.00    -0.016 A 
ATOM      8  C8  IND d   1       4.394   4.816  -1.802  0.00  0.00    -0.047 A 
ATOM      9  C9  IND d   1       3.543   4.776  -2.913  0.00  0.00    -0.096 A 
ATOM     10  HN1 IND d   1       4.049   4.090   0.035  0.00  0.00     0.298 HD
ENDROOT
TORSDOF 0
ENDMDL
