MODEL 1
REMARK minimizedAffinity -2.59885883
REMARK minimizedRMSD -1
REMARK  0 active torsions:
REMARK  status: ('A' for Active; 'I' for Inactive)
ROOT
ATOM      1  N1  IND d   1       4.297   4.473  -5.488  0.00  0.00    -0.196 N 
ATOM      2  C2  IND d   1       5.367   5.194  -5.939  0.00  0.00     0.054 A 
ATOM      3  C3  IND d   1       5.993   5.803  -4.907  0.00  0.00    -0.031 A 
ATOM      4  C4  IND d   1       5.493   5.672  -2.385  0.00  0.00     0.051 A 
ATOM      5  C5  IND d   1       4.591   5.167  -1.490  0.00  0.00    -0.031 A 
ATOM      6  C6  IND d   1       3.526   4.387  -1.890  0.00  0.00     0.015 A 
ATOM      7  C7  IND d   1       3.328   4.072  -3.205  0.00  0.00    -0.016 A 
ATOM      8  C8  IND d   1       4.237   4.589  -4.117  0.00  0.00    -0.047 A 
ATOM      9  C9  IND d   1       5.296   5.417  -3.721  0.00  0.00    -0.096 A 
ATOM     10  HN1 IND d   1       3.753   4.023  -5.979  0.00  0.00     0.298 HD
ENDROOT
TORSDOF 0
ENDMDL
