MODEL 1
REMARK minimizedAffinity 1.29707837
REMARK minimizedRMSD -1
REMARK  0 active torsions:
REMARK  status: ('A' for Active; 'I' for Inactive)
ROOT
ATOM      1  N1  IND d   1       4.014   5.184  -1.603  0.00  0.00    -0.196 N 
ATOM      2  C2  IND d   1       5.054   6.000  -1.254  0.00  0.00     0.054 A 
ATOM      3  C3  IND d   1       5.999   5.997  -2.221  0.00  0.00    -0.031 A 
ATOM      4  C4  IND d   1       6.000   4.808  -4.504  0.00  0.00     0.051 A 
ATOM      5  C5  IND d   1       5.283   3.920  -5.256  0.00  0.00    -0.031 A 
ATOM      6  C6  IND d   1       4.081   3.400  -4.822  0.00  0.00     0.015 A 
ATOM      7  C7  IND d   1       3.543   3.759  -3.618  0.00  0.00    -0.016 A 
ATOM      8  C8  IND d   1       4.272   4.654  -2.848  0.00  0.00    -0.047 A 
ATOM      9  C9  IND d   1       5.513   5.153  -3.265  0.00  0.00    -0.096 A 
ATOM     10  HN1 IND d   1       3.317   5.028  -1.125  0.00  0.00     0.298 HD
ENDROOT
TORSDOF 0
ENDMDL
