MODEL 1
REMARK minimizedAffinity 5.24711609
REMARK minimizedRMSD -1
REMARK  0 active torsions:
REMARK  status: ('A' for Active; 'I' for Inactive)
ROOT
ATOM      1  N1  IND d   1       4.928   5.222  -5.301  0.00  0.00    -0.196 N 
ATOM      2  C2  IND d   1       5.999   4.494  -4.864  0.00  0.00     0.054 A 
ATOM      3  C3  IND d   1       5.839   4.155  -3.566  0.00  0.00    -0.031 A 
ATOM      4  C4  IND d   1       3.852   4.601  -1.991  0.00  0.00     0.051 A 
ATOM      5  C5  IND d   1       2.656   5.259  -1.927  0.00  0.00    -0.031 A 
ATOM      6  C6  IND d   1       2.144   5.950  -3.006  0.00  0.00     0.015 A 
ATOM      7  C7  IND d   1       2.807   5.999  -4.199  0.00  0.00    -0.016 A 
ATOM      8  C8  IND d   1       4.026   5.338  -4.267  0.00  0.00    -0.047 A 
ATOM      9  C9  IND d   1       4.570   4.671  -3.162  0.00  0.00    -0.096 A 
ATOM     10  HN1 IND d   1       4.834   5.552  -6.089  0.00  0.00     0.298 HD
ENDROOT
TORSDOF 0
ENDMDL
