MODEL 1
REMARK minimizedAffinity -0.336350262
REMARK minimizedRMSD -1
REMARK  0 active torsions:
REMARK  status: ('A' for Active; 'I' for Inactive)
ROOT
ATOM      1  N1  IND d   1       3.954   3.822  -5.684  0.00  0.00    -0.196 N 
ATOM      2  C2  IND d   1       5.024   3.019  -5.964  0.00  0.00     0.054 A 
ATOM      3  C3  IND d   1       5.995   3.188  -5.038  0.00  0.00    -0.031 A 
ATOM      4  C4  IND d   1       5.998   4.655  -2.922  0.00  0.00     0.051 A 
ATOM      5  C5  IND d   1       5.258   5.595  -2.262  0.00  0.00    -0.031 A 
ATOM      6  C6  IND d   1       4.020   5.999  -2.717  0.00  0.00     0.015 A 
ATOM      7  C7  IND d   1       3.467   5.466  -3.847  0.00  0.00    -0.016 A 
ATOM      8  C8  IND d   1       4.219   4.516  -4.524  0.00  0.00    -0.047 A 
ATOM      9  C9  IND d   1       5.495   4.134  -4.091  0.00  0.00    -0.096 A 
ATOM     10  HN1 IND d   1       3.237   3.883  -6.154  0.00  0.00     0.298 HD
ENDROOT
TORSDOF 0
ENDMDL
