MODEL 1
REMARK minimizedAffinity 8.32048321
REMARK minimizedRMSD -1
REMARK  0 active torsions:
REMARK  status: ('A' for Active; 'I' for Inactive)
ROOT
ATOM      1  N1  IND d   1       2.172   5.001  -2.534  0.00  0.00    -0.196 N 
ATOM      2  C2  IND d   1       2.313   4.757  -1.196  0.00  0.00     0.054 A 
ATOM      3  C3  IND d   1       3.602   4.923  -0.822  0.00  0.00    -0.031 A 
ATOM      4  C4  IND d   1       5.624   5.693  -2.216  0.00  0.00     0.051 A 
ATOM      5  C5  IND d   1       5.997   5.999  -3.495  0.00  0.00    -0.031 A 
ATOM      6  C6  IND d   1       5.095   5.991  -4.539  0.00  0.00     0.015 A 
ATOM      7  C7  IND d   1       3.778   5.686  -4.341  0.00  0.00    -0.016 A 
ATOM      8  C8  IND d   1       3.397   5.367  -3.045  0.00  0.00    -0.047 A 
ATOM      9  C9  IND d   1       4.317   5.333  -1.988  0.00  0.00    -0.096 A 
ATOM     10  HN1 IND d   1       1.440   4.937  -2.981  0.00  0.00     0.298 HD
ENDROOT
TORSDOF 0
ENDMDL
