MODEL 1
REMARK minimizedAffinity 9.67547607
REMARK minimizedRMSD -1
REMARK  0 active torsions:
REMARK  status: ('A' for Active; 'I' for Inactive)
ROOT
ATOM      1  N1  IND d   1       6.000   4.992  -1.540  0.00  0.00    -0.196 N 
ATOM      2  C2  IND d   1       5.173   6.000  -1.129  0.00  0.00     0.054 A 
ATOM      3  C3  IND d   1       4.031   5.997  -1.853  0.00  0.00    -0.031 A 
ATOM      4  C4  IND d   1       3.267   4.368  -3.694  0.00  0.00     0.051 A 
ATOM      5  C5  IND d   1       3.697   3.306  -4.439  0.00  0.00    -0.031 A 
ATOM      6  C6  IND d   1       4.941   2.739  -4.251  0.00  0.00     0.015 A 
ATOM      7  C7  IND d   1       5.800   3.208  -3.298  0.00  0.00    -0.016 A 
ATOM      8  C8  IND d   1       5.370   4.290  -2.544  0.00  0.00    -0.047 A 
ATOM      9  C9  IND d   1       4.125   4.896  -2.759  0.00  0.00    -0.096 A 
ATOM     10  HN1 IND d   1       6.782   4.825  -1.225  0.00  0.00     0.298 HD
ENDROOT
TORSDOF 0
ENDMDL
