MODEL 1
REMARK minimizedAffinity -0.259452581
REMARK minimizedRMSD -1
REMARK  0 active torsions:
REMARK  status: ('A' for Active; 'I' for Inactive)
ROOT
ATOM      1  C1  DEN d   1      -4.626   5.364  -5.840  0.00  0.00     0.130 A 
ATOM      2  C2  DEN d   1      -5.999   4.895  -5.998  0.00  0.00    -0.031 A 
ATOM      3  C3  DEN d   1      -6.000   3.425  -5.851  0.00  0.00     0.027 A 
ATOM      4  C4  DEN d   1      -4.017   1.840  -5.393  0.00  0.00     0.027 A 
ATOM      5  C5  DEN d   1      -2.656   1.774  -5.194  0.00  0.00    -0.003 A 
ATOM      6  C6  DEN d   1      -1.857   2.886  -5.231  0.00  0.00     0.001 A 
ATOM      7  C7  DEN d   1      -2.420   4.119  -5.426  0.00  0.00     0.017 A 
ATOM      8  C8  DEN d   1      -3.791   4.194  -5.635  0.00  0.00    -0.094 A 
ATOM      9  C9  DEN d   1      -4.583   3.059  -5.582  0.00  0.00    -0.072 A 
ENDROOT
TORSDOF 0
ENDMDL
