MODEL 1
REMARK minimizedAffinity -1.15006256
REMARK minimizedRMSD -1
REMARK  0 active torsions:
REMARK  status: ('A' for Active; 'I' for Inactive)
ROOT
ATOM      1  C1  DEN d   1      -1.877   4.495  -5.713  0.00  0.00     0.130 A 
ATOM      2  C2  DEN d   1      -1.474   3.117  -5.446  0.00  0.00    -0.031 A 
ATOM      3  C3  DEN d   1      -2.696   2.293  -5.359  0.00  0.00     0.027 A 
ATOM      4  C4  DEN d   1      -5.160   3.012  -5.616  0.00  0.00     0.027 A 
ATOM      5  C5  DEN d   1      -6.000   4.080  -5.839  0.00  0.00    -0.003 A 
ATOM      6  C6  DEN d   1      -5.530   5.357  -6.000  0.00  0.00     0.001 A 
ATOM      7  C7  DEN d   1      -4.181   5.591  -5.986  0.00  0.00     0.017 A 
ATOM      8  C8  DEN d   1      -3.328   4.520  -5.754  0.00  0.00    -0.094 A 
ATOM      9  C9  DEN d   1      -3.821   3.234  -5.606  0.00  0.00    -0.072 A 
ENDROOT
TORSDOF 0
ENDMDL
