MODEL 1
REMARK minimizedAffinity -1.65823221
REMARK minimizedRMSD -1
REMARK  0 active torsions:
REMARK  status: ('A' for Active; 'I' for Inactive)
ROOT
ATOM      1  C1  DEN d   1       0.777  -0.536  -2.433  0.00  0.00     0.130 A 
ATOM      2  C2  DEN d   1       1.946   0.262  -2.792  0.00  0.00    -0.031 A 
ATOM      3  C3  DEN d   1       2.329   1.066  -1.614  0.00  0.00     0.027 A 
ATOM      4  C4  DEN d   1       1.233   1.149   0.720  0.00  0.00     0.027 A 
ATOM      5  C5  DEN d   1       0.208   0.657   1.497  0.00  0.00    -0.003 A 
ATOM      6  C6  DEN d   1      -0.713  -0.233   1.012  0.00  0.00     0.001 A 
ATOM      7  C7  DEN d   1      -0.600  -0.695  -0.273  0.00  0.00     0.017 A 
ATOM      8  C8  DEN d   1       0.428  -0.198  -1.065  0.00  0.00    -0.094 A 
ATOM      9  C9  DEN d   1       1.356   0.692  -0.552  0.00  0.00    -0.072 A 
ENDROOT
TORSDOF 0
ENDMDL
