MODEL 1
REMARK minimizedAffinity 0.738496721
REMARK minimizedRMSD -1
REMARK  0 active torsions:
REMARK  status: ('A' for Active; 'I' for Inactive)
ROOT
ATOM      1  C1  DEN d   1       2.788   2.265   2.188  0.00  0.00     0.130 A 
ATOM      2  C2  DEN d   1       2.242   1.883   3.488  0.00  0.00    -0.031 A 
ATOM      3  C3  DEN d   1       1.031   1.072   3.253  0.00  0.00     0.027 A 
ATOM      4  C4  DEN d   1      -0.045   0.372   1.016  0.00  0.00     0.027 A 
ATOM      5  C5  DEN d   1       0.052   0.467  -0.355  0.00  0.00    -0.003 A 
ATOM      6  C6  DEN d   1       1.040   1.191  -0.968  0.00  0.00     0.001 A 
ATOM      7  C7  DEN d   1       1.998   1.811  -0.210  0.00  0.00     0.017 A 
ATOM      8  C8  DEN d   1       1.902   1.725   1.173  0.00  0.00    -0.094 A 
ATOM      9  C9  DEN d   1       0.903   0.979   1.774  0.00  0.00    -0.072 A 
ENDROOT
TORSDOF 0
ENDMDL
