MODEL 1
REMARK minimizedAffinity -1.58142638
REMARK minimizedRMSD -1
REMARK  0 active torsions:
REMARK  status: ('A' for Active; 'I' for Inactive)
ROOT
ATOM      1  C1  DEN d   1      -4.608   2.712   3.679  0.00  0.00     0.130 A 
ATOM      2  C2  DEN d   1      -3.344   2.816   4.403  0.00  0.00    -0.031 A 
ATOM      3  C3  DEN d   1      -2.383   1.883   3.782  0.00  0.00     0.027 A 
ATOM      4  C4  DEN d   1      -2.726   0.298   1.776  0.00  0.00     0.027 A 
ATOM      5  C5  DEN d   1      -3.633  -0.150   0.842  0.00  0.00    -0.003 A 
ATOM      6  C6  DEN d   1      -4.928   0.296   0.809  0.00  0.00     0.001 A 
ATOM      7  C7  DEN d   1      -5.339   1.251   1.700  0.00  0.00     0.017 A 
ATOM      8  C8  DEN d   1      -4.432   1.702   2.650  0.00  0.00    -0.094 A 
ATOM      9  C9  DEN d   1      -3.124   1.248   2.659  0.00  0.00    -0.072 A 
ENDROOT
TORSDOF 0
ENDMDL
