MODEL 1
REMARK minimizedAffinity -4.73430252
REMARK minimizedRMSD -1
REMARK  0 active torsions:
REMARK  status: ('A' for Active; 'I' for Inactive)
ROOT
ATOM      1  C1  DEN d   1      -0.222   0.758   1.164  0.00  0.00     0.130 A 
ATOM      2  C2  DEN d   1      -1.273  -0.208   1.470  0.00  0.00    -0.031 A 
ATOM      3  C3  DEN d   1      -1.287  -1.222   0.396  0.00  0.00     0.027 A 
ATOM      4  C4  DEN d   1       0.212  -1.391  -1.696  0.00  0.00     0.027 A 
ATOM      5  C5  DEN d   1       1.240  -0.794  -2.391  0.00  0.00    -0.003 A 
ATOM      6  C6  DEN d   1       1.826   0.371  -1.972  0.00  0.00     0.001 A 
ATOM      7  C7  DEN d   1       1.417   0.952  -0.801  0.00  0.00     0.017 A 
ATOM      8  C8  DEN d   1       0.376   0.360  -0.098  0.00  0.00    -0.094 A 
ATOM      9  C9  DEN d   1      -0.195  -0.824  -0.532  0.00  0.00    -0.072 A 
ENDROOT
TORSDOF 0
ENDMDL
