MODEL 1
REMARK minimizedAffinity -4.08910656
REMARK minimizedRMSD -1
REMARK  0 active torsions:
REMARK  status: ('A' for Active; 'I' for Inactive)
ROOT
ATOM      1  C1  DEN d   1       0.392   1.126  -2.113  0.00  0.00     0.130 A 
ATOM      2  C2  DEN d   1       1.356   0.607  -3.079  0.00  0.00    -0.031 A 
ATOM      3  C3  DEN d   1       1.744  -0.752  -2.651  0.00  0.00     0.027 A 
ATOM      4  C4  DEN d   1       0.947  -2.097  -0.599  0.00  0.00     0.027 A 
ATOM      5  C5  DEN d   1       0.141  -2.069   0.517  0.00  0.00    -0.003 A 
ATOM      6  C6  DEN d   1      -0.606  -0.970   0.851  0.00  0.00     0.001 A 
ATOM      7  C7  DEN d   1      -0.597   0.130   0.035  0.00  0.00     0.017 A 
ATOM      8  C8  DEN d   1       0.219   0.112  -1.088  0.00  0.00    -0.094 A 
ATOM      9  C9  DEN d   1       0.957  -1.013  -1.415  0.00  0.00    -0.072 A 
ENDROOT
TORSDOF 0
ENDMDL
