MODEL 1
REMARK minimizedAffinity -0.791978598
REMARK minimizedRMSD -1
REMARK  0 active torsions:
REMARK  status: ('A' for Active; 'I' for Inactive)
ROOT
ATOM      1  C1  DEN d   1       1.960   1.623  -1.882  0.00  0.00     0.130 A 
ATOM      2  C2  DEN d   1       3.137   0.819  -1.565  0.00  0.00    -0.031 A 
ATOM      3  C3  DEN d   1       2.696  -0.341  -0.765  0.00  0.00     0.027 A 
ATOM      4  C4  DEN d   1       0.316  -0.970   0.005  0.00  0.00     0.027 A 
ATOM      5  C5  DEN d   1      -1.007  -0.587  -0.011  0.00  0.00    -0.003 A 
ATOM      6  C6  DEN d   1      -1.426   0.567  -0.618  0.00  0.00     0.001 A 
ATOM      7  C7  DEN d   1      -0.519   1.357  -1.274  0.00  0.00     0.017 A 
ATOM      8  C8  DEN d   1       0.818   0.981  -1.255  0.00  0.00    -0.094 A 
ATOM      9  C9  DEN d   1       1.220  -0.195  -0.646  0.00  0.00    -0.072 A 
ENDROOT
TORSDOF 0
ENDMDL
