MODEL 1
REMARK minimizedAffinity -4.82263327
REMARK minimizedRMSD -1
REMARK  0 active torsions:
REMARK  status: ('A' for Active; 'I' for Inactive)
ROOT
ATOM      1  C1  DEN d   1       1.072   1.332  -1.255  0.00  0.00     0.130 A 
ATOM      2  C2  DEN d   1       1.755   0.877  -2.463  0.00  0.00    -0.031 A 
ATOM      3  C3  DEN d   1       1.688  -0.598  -2.496  0.00  0.00     0.027 A 
ATOM      4  C4  DEN d   1       0.595  -2.211  -0.807  0.00  0.00     0.027 A 
ATOM      5  C5  DEN d   1      -0.096  -2.293   0.382  0.00  0.00    -0.003 A 
ATOM      6  C6  DEN d   1      -0.413  -1.183   1.120  0.00  0.00     0.001 A 
ATOM      7  C7  DEN d   1      -0.078   0.061   0.653  0.00  0.00     0.017 A 
ATOM      8  C8  DEN d   1       0.624   0.150  -0.541  0.00  0.00    -0.094 A 
ATOM      9  C9  DEN d   1       0.925  -0.983  -1.278  0.00  0.00    -0.072 A 
ENDROOT
TORSDOF 0
ENDMDL
