MODEL 1
REMARK minimizedAffinity -4.03306389
REMARK minimizedRMSD -1
REMARK  0 active torsions:
REMARK  status: ('A' for Active; 'I' for Inactive)
ROOT
ATOM      1  C1  DEN d   1      -0.483  -0.209   0.877  0.00  0.00     0.130 A 
ATOM      2  C2  DEN d   1       0.046   0.946   1.597  0.00  0.00    -0.031 A 
ATOM      3  C3  DEN d   1       1.024   1.622   0.721  0.00  0.00     0.027 A 
ATOM      4  C4  DEN d   1       1.763   0.998  -1.670  0.00  0.00     0.027 A 
ATOM      5  C5  DEN d   1       1.601   0.093  -2.695  0.00  0.00    -0.003 A 
ATOM      6  C6  DEN d   1       0.765  -0.987  -2.589  0.00  0.00     0.001 A 
ATOM      7  C7  DEN d   1       0.025  -1.164  -1.450  0.00  0.00     0.017 A 
ATOM      8  C8  DEN d   1       0.189  -0.259  -0.410  0.00  0.00    -0.094 A 
ATOM      9  C9  DEN d   1       1.030   0.833  -0.540  0.00  0.00    -0.072 A 
ENDROOT
TORSDOF 0
ENDMDL
