MODEL 1
REMARK minimizedAffinity -1.61308718
REMARK minimizedRMSD -1
REMARK  0 active torsions:
REMARK  status: ('A' for Active; 'I' for Inactive)
ROOT
ATOM      1  C1  DEN d   1       2.398   2.586   2.177  0.00  0.00     0.130 A 
ATOM      2  C2  DEN d   1       1.998   2.187   3.524  0.00  0.00    -0.031 A 
ATOM      3  C3  DEN d   1       1.018   1.089   3.402  0.00  0.00     0.027 A 
ATOM      4  C4  DEN d   1       0.091  -0.030   1.272  0.00  0.00     0.027 A 
ATOM      5  C5  DEN d   1       0.126  -0.024  -0.105  0.00  0.00    -0.003 A 
ATOM      6  C6  DEN d   1       0.888   0.867  -0.813  0.00  0.00     0.001 A 
ATOM      7  C7  DEN d   1       1.683   1.761  -0.144  0.00  0.00     0.017 A 
ATOM      8  C8  DEN d   1       1.647   1.766   1.244  0.00  0.00    -0.094 A 
ATOM      9  C9  DEN d   1       0.879   0.849   1.941  0.00  0.00    -0.072 A 
ENDROOT
TORSDOF 0
ENDMDL
