MODEL 1
REMARK minimizedAffinity -5.24313545
REMARK minimizedRMSD -1
REMARK  0 active torsions:
REMARK  status: ('A' for Active; 'I' for Inactive)
ROOT
ATOM      1  C1  DEN d   1      -3.493   1.876   2.890  0.00  0.00     0.130 A 
ATOM      2  C2  DEN d   1      -4.335   1.260   1.868  0.00  0.00    -0.031 A 
ATOM      3  C3  DEN d   1      -3.531   0.238   1.168  0.00  0.00     0.027 A 
ATOM      4  C4  DEN d   1      -1.078  -0.450   1.568  0.00  0.00     0.027 A 
ATOM      5  C5  DEN d   1       0.049  -0.202   2.320  0.00  0.00    -0.003 A 
ATOM      6  C6  DEN d   1       0.085   0.771   3.283  0.00  0.00     0.001 A 
ATOM      7  C7  DEN d   1      -1.042   1.502   3.552  0.00  0.00     0.017 A 
ATOM      8  C8  DEN d   1      -2.180   1.263   2.793  0.00  0.00    -0.094 A 
ATOM      9  C9  DEN d   1      -2.200   0.266   1.832  0.00  0.00    -0.072 A 
ENDROOT
TORSDOF 0
ENDMDL
