MODEL 1
REMARK minimizedAffinity 0.523194969
REMARK minimizedRMSD -1
REMARK  0 active torsions:
REMARK  status: ('A' for Active; 'I' for Inactive)
ROOT
ATOM      1  C1  DEN d   1      -2.872  -3.862  -3.625  0.00  0.00     0.130 A 
ATOM      2  C2  DEN d   1      -2.299  -4.415  -4.849  0.00  0.00    -0.031 A 
ATOM      3  C3  DEN d   1      -3.001  -3.806  -5.997  0.00  0.00     0.027 A 
ATOM      4  C4  DEN d   1      -4.907  -2.067  -5.997  0.00  0.00     0.027 A 
ATOM      5  C5  DEN d   1      -5.734  -1.309  -5.199  0.00  0.00    -0.003 A 
ATOM      6  C6  DEN d   1      -5.690  -1.374  -3.832  0.00  0.00     0.001 A 
ATOM      7  C7  DEN d   1      -4.768  -2.181  -3.220  0.00  0.00     0.017 A 
ATOM      8  C8  DEN d   1      -3.935  -2.954  -4.018  0.00  0.00    -0.094 A 
ATOM      9  C9  DEN d   1      -3.987  -2.866  -5.398  0.00  0.00    -0.072 A 
ENDROOT
TORSDOF 0
ENDMDL
