MODEL 1
REMARK minimizedAffinity -5.80996132
REMARK minimizedRMSD -1
REMARK  3 active torsions:
REMARK  status: ('A' for Active; 'I' for Inactive)
REMARK    1  A    between atoms: C3'_2  and  C2'_3 
REMARK    2  A    between atoms: C2'_3  and  C1'_4 
REMARK    3  A    between atoms: C1'_4  and  C1_5 
ROOT
ATOM      1  C1  N4B d   1      -0.125   0.359   0.942  0.00  0.00    -0.075 A 
ATOM      2  C2  N4B d   1      -0.876   1.096   1.885  0.00  0.00     0.002 A 
ATOM      3  C3  N4B d   1      -0.403   1.256   3.165  0.00  0.00     0.002 A 
ATOM      4  C4  N4B d   1       0.803   0.676   3.528  0.00  0.00    -0.004 A 
ATOM      5  C5  N4B d   1       1.534  -0.013   2.604  0.00  0.00     0.002 A 
ATOM      6  C6  N4B d   1       1.073  -0.178   1.314  0.00  0.00     0.002 A 
ENDROOT
BRANCH   1   7
ATOM      7  C1' N4B d   1      -0.642   0.085  -0.444  0.00  0.00     0.057 C 
BRANCH   7   8
ATOM      8  C2' N4B d   1       0.462  -0.571  -1.268  0.00  0.00     0.009 C 
BRANCH   8   9
ATOM      9  C3' N4B d   1       0.393  -0.170  -2.732  0.00  0.00     0.004 C 
ATOM     10  C4' N4B d   1       1.464   0.807  -3.117  0.00  0.00     0.003 C 
ENDBRANCH   8   9
ENDBRANCH   7   8
ENDBRANCH   1   7
TORSDOF 3
ENDMDL
