MODEL 1
REMARK minimizedAffinity -5.19614935
REMARK minimizedRMSD -1
REMARK  3 active torsions:
REMARK  status: ('A' for Active; 'I' for Inactive)
REMARK    1  A    between atoms: C3'_2  and  C2'_3 
REMARK    2  A    between atoms: C2'_3  and  C1'_4 
REMARK    3  A    between atoms: C1'_4  and  C1_5 
ROOT
ATOM      1  C1  N4B d   1      -0.264   0.452   0.853  0.00  0.00    -0.075 A 
ATOM      2  C2  N4B d   1      -1.227   0.937   1.765  0.00  0.00     0.002 A 
ATOM      3  C3  N4B d   1      -0.925   1.021   3.102  0.00  0.00     0.002 A 
ATOM      4  C4  N4B d   1       0.321   0.609   3.551  0.00  0.00    -0.004 A 
ATOM      5  C5  N4B d   1       1.254   0.166   2.660  0.00  0.00     0.002 A 
ATOM      6  C6  N4B d   1       0.966   0.080   1.313  0.00  0.00     0.002 A 
ENDROOT
BRANCH   1   7
ATOM      7  C1' N4B d   1      -0.578   0.261  -0.606  0.00  0.00     0.057 C 
BRANCH   7   8
ATOM      8  C2' N4B d   1       0.691  -0.164  -1.340  0.00  0.00     0.009 C 
BRANCH   8   9
ATOM      9  C3' N4B d   1       0.535  -0.067  -2.848  0.00  0.00     0.004 C 
ATOM     10  C4' N4B d   1       1.433   0.966  -3.459  0.00  0.00     0.003 C 
ENDBRANCH   8   9
ENDBRANCH   7   8
ENDBRANCH   1   7
TORSDOF 3
ENDMDL
