MODEL 1
REMARK minimizedAffinity -4.899014
REMARK minimizedRMSD -1
REMARK  3 active torsions:
REMARK  status: ('A' for Active; 'I' for Inactive)
REMARK    1  A    between atoms: C3'_2  and  C2'_3 
REMARK    2  A    between atoms: C2'_3  and  C1'_4 
REMARK    3  A    between atoms: C1'_4  and  C1_5 
ROOT
ATOM      1  C1  N4B d   1      -0.127  -0.004  -0.149  0.00  0.00    -0.075 A 
ATOM      2  C2  N4B d   1      -1.464  -0.073   0.299  0.00  0.00     0.002 A 
ATOM      3  C3  N4B d   1      -1.830   0.552   1.466  0.00  0.00     0.002 A 
ATOM      4  C4  N4B d   1      -0.877   1.231   2.209  0.00  0.00    -0.004 A 
ATOM      5  C5  N4B d   1       0.408   1.314   1.757  0.00  0.00     0.002 A 
ATOM      6  C6  N4B d   1       0.789   0.695   0.583  0.00  0.00     0.002 A 
ENDROOT
BRANCH   1   7
ATOM      7  C1' N4B d   1       0.340  -0.742  -1.373  0.00  0.00     0.057 C 
BRANCH   7   8
ATOM      8  C2' N4B d   1       1.377   0.105  -2.104  0.00  0.00     0.009 C 
BRANCH   8   9
ATOM      9  C3' N4B d   1       1.177   0.074  -3.610  0.00  0.00     0.004 C 
ATOM     10  C4' N4B d   1       0.839   1.420  -4.179  0.00  0.00     0.003 C 
ENDBRANCH   8   9
ENDBRANCH   7   8
ENDBRANCH   1   7
TORSDOF 3
ENDMDL
