MODEL 1
REMARK minimizedAffinity -0.602658629
REMARK minimizedRMSD -1
REMARK  3 active torsions:
REMARK  status: ('A' for Active; 'I' for Inactive)
REMARK    1  A    between atoms: C3'_2  and  C2'_3 
REMARK    2  A    between atoms: C2'_3  and  C1'_4 
REMARK    3  A    between atoms: C1'_4  and  C1_5 
ROOT
ATOM      1  C1  N4B d   1      -0.220  -0.513  -1.167  0.00  0.00    -0.075 A 
ATOM      2  C2  N4B d   1       0.878  -0.388  -0.288  0.00  0.00     0.002 A 
ATOM      3  C3  N4B d   1       0.666  -0.106   1.039  0.00  0.00     0.002 A 
ATOM      4  C4  N4B d   1      -0.629   0.072   1.504  0.00  0.00    -0.004 A 
ATOM      5  C5  N4B d   1      -1.685  -0.076   0.653  0.00  0.00     0.002 A 
ATOM      6  C6  N4B d   1      -1.486  -0.363  -0.682  0.00  0.00     0.002 A 
ENDROOT
BRANCH   1   7
ATOM      7  C1' N4B d   1      -0.033  -0.735  -2.643  0.00  0.00     0.057 C 
BRANCH   7   8
ATOM      8  C2' N4B d   1      -0.211   0.591  -3.376  0.00  0.00     0.009 C 
BRANCH   8   9
ATOM      9  C3' N4B d   1       1.012   0.952  -4.202  0.00  0.00     0.004 C 
ATOM     10  C4' N4B d   1       2.184   1.357  -3.359  0.00  0.00     0.003 C 
ENDBRANCH   8   9
ENDBRANCH   7   8
ENDBRANCH   1   7
TORSDOF 3
ENDMDL
