MODEL 1
REMARK minimizedAffinity 21.5431385
REMARK minimizedRMSD -1
REMARK  0 active torsions:
REMARK  status: ('A' for Active; 'I' for Inactive)
ROOT
ATOM      1  C   UNL d   1      -1.052   3.838  -2.528  0.00  0.00     0.124 A 
ATOM      2  C1  UNL d   1      -2.309   3.337  -2.838  0.00  0.00     0.062 A 
ATOM      3  C2  UNL d   1      -2.871   2.329  -2.061  0.00  0.00     0.162 A 
ATOM      4  C3  UNL d   1      -2.177   1.814  -0.966  0.00  0.00    -0.034 A 
ATOM      5  C4  UNL d   1      -0.913   2.322  -0.662  0.00  0.00     0.162 A 
ATOM      6  C5  UNL d   1      -0.355   3.330  -1.441  0.00  0.00     0.062 A 
ATOM      7  F   UNL d   1       0.859   3.812  -1.141  0.00  0.00    -0.097 F 
ATOM      8  F1  UNL d   1      -0.218   1.850   0.384  0.00  0.00    -0.096 F 
ATOM      9  I   UNL d   1      -3.014   0.305   0.198  0.00  0.00    -0.060 I 
ATOM     10  F2  UNL d   1      -4.088   1.864  -2.383  0.00  0.00    -0.096 F 
ATOM     11  F3  UNL d   1      -2.984   3.826  -3.888  0.00  0.00    -0.097 F 
ATOM     12  F4  UNL d   1      -0.513   4.808  -3.278  0.00  0.00    -0.092 F 
ENDROOT
TORSDOF 0
ENDMDL
