MODEL 1
REMARK minimizedAffinity 16.3827972
REMARK minimizedRMSD -1
REMARK  0 active torsions:
REMARK  status: ('A' for Active; 'I' for Inactive)
ROOT
ATOM      1  C   UNL d   1       0.409   1.490   3.050  0.00  0.00     0.124 A 
ATOM      2  C1  UNL d   1       1.423   2.107   2.330  0.00  0.00     0.062 A 
ATOM      3  C2  UNL d   1       1.158   2.659   1.080  0.00  0.00     0.162 A 
ATOM      4  C3  UNL d   1      -0.127   2.597   0.541  0.00  0.00    -0.034 A 
ATOM      5  C4  UNL d   1      -1.141   1.974   1.270  0.00  0.00     0.162 A 
ATOM      6  C5  UNL d   1      -0.872   1.424   2.519  0.00  0.00     0.062 A 
ATOM      7  F   UNL d   1      -1.853   0.828   3.213  0.00  0.00    -0.097 F 
ATOM      8  F1  UNL d   1      -2.388   1.896   0.782  0.00  0.00    -0.096 F 
ATOM      9  I   UNL d   1      -0.527   3.420  -1.328  0.00  0.00    -0.060 I 
ATOM     10  F2  UNL d   1       2.157   3.249   0.407  0.00  0.00    -0.096 F 
ATOM     11  F3  UNL d   1       2.661   2.171   2.840  0.00  0.00    -0.097 F 
ATOM     12  F4  UNL d   1       0.667   0.959   4.252  0.00  0.00    -0.092 F 
ENDROOT
TORSDOF 0
ENDMDL
