MODEL 1
REMARK minimizedAffinity 17.5644169
REMARK minimizedRMSD -1
REMARK  0 active torsions:
REMARK  status: ('A' for Active; 'I' for Inactive)
ROOT
ATOM      1  C   UNL d   1       2.599  -2.121  -0.126  0.00  0.00     0.124 A 
ATOM      2  C1  UNL d   1       3.947  -1.979  -0.428  0.00  0.00     0.062 A 
ATOM      3  C2  UNL d   1       4.699  -3.085  -0.814  0.00  0.00     0.162 A 
ATOM      4  C3  UNL d   1       4.105  -4.344  -0.901  0.00  0.00    -0.034 A 
ATOM      5  C4  UNL d   1       2.749  -4.480  -0.595  0.00  0.00     0.162 A 
ATOM      6  C5  UNL d   1       2.002  -3.371  -0.210  0.00  0.00     0.062 A 
ATOM      7  F   UNL d   1       0.701  -3.511   0.082  0.00  0.00    -0.097 F 
ATOM      8  F1  UNL d   1       2.147  -5.676  -0.668  0.00  0.00    -0.096 F 
ATOM      9  I   UNL d   1       5.226  -6.000  -1.477  0.00  0.00    -0.060 I 
ATOM     10  F2  UNL d   1       5.998  -2.917  -1.099  0.00  0.00    -0.096 F 
ATOM     11  F3  UNL d   1       4.526  -0.772  -0.347  0.00  0.00    -0.097 F 
ATOM     12  F4  UNL d   1       1.879  -1.056   0.246  0.00  0.00    -0.092 F 
ENDROOT
TORSDOF 0
ENDMDL
