MODEL 1
REMARK minimizedAffinity 20.7843285
REMARK minimizedRMSD -1
REMARK  0 active torsions:
REMARK  status: ('A' for Active; 'I' for Inactive)
ROOT
ATOM      1  C   UNL d   1      -4.944   0.376   2.383  0.00  0.00     0.124 A 
ATOM      2  C1  UNL d   1      -5.475   0.638   3.639  0.00  0.00     0.062 A 
ATOM      3  C2  UNL d   1      -5.466  -0.347   4.622  0.00  0.00     0.162 A 
ATOM      4  C3  UNL d   1      -4.922  -1.604   4.354  0.00  0.00    -0.034 A 
ATOM      5  C4  UNL d   1      -4.391  -1.860   3.089  0.00  0.00     0.162 A 
ATOM      6  C5  UNL d   1      -4.402  -0.872   2.110  0.00  0.00     0.062 A 
ATOM      7  F   UNL d   1      -3.888  -1.126   0.897  0.00  0.00    -0.097 F 
ATOM      8  F1  UNL d   1      -3.860  -3.057   2.798  0.00  0.00    -0.096 F 
ATOM      9  I   UNL d   1      -4.906  -3.080   5.822  0.00  0.00    -0.060 I 
ATOM     10  F2  UNL d   1      -5.986  -0.067   5.826  0.00  0.00    -0.096 F 
ATOM     11  F3  UNL d   1      -6.000   1.842   3.905  0.00  0.00    -0.097 F 
ATOM     12  F4  UNL d   1      -4.955   1.326   1.439  0.00  0.00    -0.092 F 
ENDROOT
TORSDOF 0
ENDMDL
