MODEL 1
REMARK minimizedAffinity 24.3363876
REMARK minimizedRMSD -1
REMARK  0 active torsions:
REMARK  status: ('A' for Active; 'I' for Inactive)
ROOT
ATOM      1  C   UNL d   1       1.509  -3.015  -0.223  0.00  0.00     0.124 A 
ATOM      2  C1  UNL d   1       2.623  -2.282   0.162  0.00  0.00     0.062 A 
ATOM      3  C2  UNL d   1       3.901  -2.798  -0.032  0.00  0.00     0.162 A 
ATOM      4  C3  UNL d   1       4.072  -4.054  -0.614  0.00  0.00    -0.034 A 
ATOM      5  C4  UNL d   1       2.947  -4.786  -0.997  0.00  0.00     0.162 A 
ATOM      6  C5  UNL d   1       1.672  -4.266  -0.802  0.00  0.00     0.062 A 
ATOM      7  F   UNL d   1       0.596  -4.976  -1.174  0.00  0.00    -0.097 F 
ATOM      8  F1  UNL d   1       3.076  -5.997  -1.560  0.00  0.00    -0.096 F 
ATOM      9  I   UNL d   1       5.982  -4.829  -0.905  0.00  0.00    -0.060 I 
ATOM     10  F2  UNL d   1       4.959  -2.068   0.350  0.00  0.00    -0.096 F 
ATOM     11  F3  UNL d   1       2.468  -1.074   0.722  0.00  0.00    -0.097 F 
ATOM     12  F4  UNL d   1       0.280  -2.517  -0.034  0.00  0.00    -0.092 F 
ENDROOT
TORSDOF 0
ENDMDL
