MODEL 1
REMARK minimizedAffinity 3.24101663
REMARK minimizedRMSD -1
REMARK  1 active torsions:
REMARK  status: ('A' for Active; 'I' for Inactive)
REMARK    1  A    between atoms: N_2  and  C1_3 
ROOT
ATOM      1  C1  UNL d   1       0.231   0.256   3.779  0.00  0.00     0.143 A 
ATOM      2  C2  UNL d   1      -0.655   1.340   3.772  0.00  0.00    -0.057 A 
ATOM      3  C3  UNL d   1      -0.618   2.301   2.754  0.00  0.00     0.033 A 
ATOM      4  C4  UNL d   1       0.327   2.210   1.737  0.00  0.00    -0.042 A 
ATOM      5  C5  UNL d   1       1.233   1.155   1.738  0.00  0.00     0.033 A 
ATOM      6  C6  UNL d   1       1.187   0.195   2.753  0.00  0.00    -0.057 A 
ENDROOT
BRANCH   1   7
ATOM      7  N   UNL d   1       0.309  -0.677   4.815  0.00  0.00    -0.732 N 
ATOM      8  C   UNL d   1       1.582  -1.249   5.197  0.00  0.00     0.284 C 
ATOM      9  H3  UNL d   1      -0.291  -0.436   5.601  0.00  0.00     0.395 HD
ENDBRANCH   1   7
TORSDOF 1
ENDMDL
