MODEL 1
REMARK minimizedAffinity 4.40108442
REMARK minimizedRMSD -1
REMARK  1 active torsions:
REMARK  status: ('A' for Active; 'I' for Inactive)
REMARK    1  A    between atoms: N_2  and  C1_3 
ROOT
ATOM      1  C1  UNL d   1      -1.966   2.475  -2.490  0.00  0.00     0.143 A 
ATOM      2  C2  UNL d   1      -2.882   1.653  -1.825  0.00  0.00    -0.057 A 
ATOM      3  C3  UNL d   1      -4.184   2.088  -1.552  0.00  0.00     0.033 A 
ATOM      4  C4  UNL d   1      -4.586   3.370  -1.914  0.00  0.00    -0.042 A 
ATOM      5  C5  UNL d   1      -3.684   4.214  -2.554  0.00  0.00     0.033 A 
ATOM      6  C6  UNL d   1      -2.387   3.770  -2.830  0.00  0.00    -0.057 A 
ENDROOT
BRANCH   1   7
ATOM      7  N   UNL d   1      -0.628   2.136  -2.702  0.00  0.00    -0.732 N 
ATOM      8  C   UNL d   1      -0.268   0.818  -3.178  0.00  0.00     0.284 C 
ATOM      9  H3  UNL d   1      -0.099   2.892  -3.132  0.00  0.00     0.395 HD
ENDBRANCH   1   7
TORSDOF 1
ENDMDL
