MODEL 1
REMARK minimizedAffinity 4.30443811
REMARK minimizedRMSD -1
REMARK  1 active torsions:
REMARK  status: ('A' for Active; 'I' for Inactive)
REMARK    1  A    between atoms: N_2  and  C1_3 
ROOT
ATOM      1  C1  UNL d   1      -2.162   3.779   1.265  0.00  0.00     0.143 A 
ATOM      2  C2  UNL d   1      -2.269   3.126   2.497  0.00  0.00    -0.057 A 
ATOM      3  C3  UNL d   1      -1.572   1.939   2.753  0.00  0.00     0.033 A 
ATOM      4  C4  UNL d   1      -0.775   1.367   1.767  0.00  0.00    -0.042 A 
ATOM      5  C5  UNL d   1      -0.672   1.986   0.526  0.00  0.00     0.033 A 
ATOM      6  C6  UNL d   1      -1.366   3.174   0.279  0.00  0.00    -0.057 A 
ENDROOT
BRANCH   1   7
ATOM      7  N   UNL d   1      -2.906   4.908   0.916  0.00  0.00    -0.732 N 
ATOM      8  C   UNL d   1      -3.603   5.673   1.927  0.00  0.00     0.284 C 
ATOM      9  H3  UNL d   1      -2.442   5.477   0.211  0.00  0.00     0.395 HD
ENDBRANCH   1   7
TORSDOF 1
ENDMDL
