MODEL 1
REMARK minimizedAffinity 4.00076914
REMARK minimizedRMSD -1
REMARK  1 active torsions:
REMARK  status: ('A' for Active; 'I' for Inactive)
REMARK    1  A    between atoms: N_2  and  C1_3 
ROOT
ATOM      1  C1  UNL d   1      -0.878   0.687  -1.540  0.00  0.00     0.143 A 
ATOM      2  C2  UNL d   1      -2.256   0.732  -1.304  0.00  0.00    -0.057 A 
ATOM      3  C3  UNL d   1      -3.149  -0.024  -2.072  0.00  0.00     0.033 A 
ATOM      4  C4  UNL d   1      -2.680  -0.820  -3.112  0.00  0.00    -0.042 A 
ATOM      5  C5  UNL d   1      -1.317  -0.861  -3.381  0.00  0.00     0.033 A 
ATOM      6  C6  UNL d   1      -0.429  -0.108  -2.606  0.00  0.00    -0.057 A 
ENDROOT
BRANCH   1   7
ATOM      7  N   UNL d   1       0.052   1.491  -0.876  0.00  0.00    -0.732 N 
ATOM      8  C   UNL d   1      -0.367   2.703  -0.206  0.00  0.00     0.284 C 
ATOM      9  H3  UNL d   1       0.737   0.946  -0.358  0.00  0.00     0.395 HD
ENDBRANCH   1   7
TORSDOF 1
ENDMDL
