MODEL 1
REMARK minimizedAffinity 8.02505302
REMARK minimizedRMSD -1
REMARK  1 active torsions:
REMARK  status: ('A' for Active; 'I' for Inactive)
REMARK    1  A    between atoms: N_2  and  C1_3 
ROOT
ATOM      1  C1  UNL d   1       0.497   0.635   1.849  0.00  0.00     0.143 A 
ATOM      2  C2  UNL d   1      -0.230   1.115   0.754  0.00  0.00    -0.057 A 
ATOM      3  C3  UNL d   1       0.132   0.787  -0.558  0.00  0.00     0.033 A 
ATOM      4  C4  UNL d   1       1.248  -0.007  -0.801  0.00  0.00    -0.042 A 
ATOM      5  C5  UNL d   1       2.000  -0.475   0.271  0.00  0.00     0.033 A 
ATOM      6  C6  UNL d   1       1.630  -0.149   1.579  0.00  0.00    -0.057 A 
ENDROOT
BRANCH   1   7
ATOM      7  N   UNL d   1       0.247   1.006   3.172  0.00  0.00    -0.732 N 
ATOM      8  C   UNL d   1       0.498   0.082   4.257  0.00  0.00     0.284 C 
ATOM      9  H3  UNL d   1       0.531   1.963   3.367  0.00  0.00     0.395 HD
ENDBRANCH   1   7
TORSDOF 1
ENDMDL
