MODEL 1
REMARK minimizedAffinity -2.58881974
REMARK minimizedRMSD -1
REMARK  1 active torsions:
REMARK  status: ('A' for Active; 'I' for Inactive)
REMARK    1  A    between atoms: N_2  and  C1_3 
ROOT
ATOM      1  C1  UNL d   1       0.654   0.994  -0.618  0.00  0.00     0.143 A 
ATOM      2  C2  UNL d   1       0.752   0.043   0.403  0.00  0.00    -0.057 A 
ATOM      3  C3  UNL d   1       0.710   0.418   1.752  0.00  0.00     0.033 A 
ATOM      4  C4  UNL d   1       0.597   1.759   2.104  0.00  0.00    -0.042 A 
ATOM      5  C5  UNL d   1       0.523   2.724   1.105  0.00  0.00     0.033 A 
ATOM      6  C6  UNL d   1       0.559   2.342  -0.239  0.00  0.00    -0.057 A 
ENDROOT
BRANCH   1   7
ATOM      7  N   UNL d   1       0.789   0.694  -1.976  0.00  0.00    -0.732 N 
ATOM      8  C   UNL d   1      -0.328   0.162  -2.727  0.00  0.00     0.284 C 
ATOM      9  H3  UNL d   1       1.330   1.395  -2.476  0.00  0.00     0.395 HD
ENDBRANCH   1   7
TORSDOF 1
ENDMDL
