MODEL 1
REMARK minimizedAffinity 22.1275291
REMARK minimizedRMSD -1
REMARK  0 active torsions:
REMARK  status: ('A' for Active; 'I' for Inactive)
ROOT
ATOM      1  C   UNL d   1       3.695  -3.710  -4.676  0.00  0.00     0.124 A 
ATOM      2  C1  UNL d   1       4.477  -2.686  -4.162  0.00  0.00     0.062 A 
ATOM      3  C2  UNL d   1       4.981  -2.771  -2.868  0.00  0.00     0.162 A 
ATOM      4  C3  UNL d   1       4.704  -3.887  -2.077  0.00  0.00    -0.034 A 
ATOM      5  C4  UNL d   1       3.915  -4.913  -2.600  0.00  0.00     0.162 A 
ATOM      6  C5  UNL d   1       3.414  -4.823  -3.895  0.00  0.00     0.062 A 
ATOM      7  F   UNL d   1       2.658  -5.814  -4.390  0.00  0.00    -0.097 F 
ATOM      8  F1  UNL d   1       3.629  -6.000  -1.868  0.00  0.00    -0.096 F 
ATOM      9  I   UNL d   1       5.454  -4.019  -0.140  0.00  0.00    -0.060 I 
ATOM     10  F2  UNL d   1       5.734  -1.767  -2.397  0.00  0.00    -0.096 F 
ATOM     11  F3  UNL d   1       4.749  -1.610  -4.915  0.00  0.00    -0.097 F 
ATOM     12  F4  UNL d   1       3.211  -3.625  -5.922  0.00  0.00    -0.092 F 
ENDROOT
TORSDOF 0
ENDMDL
