MODEL 1
REMARK minimizedAffinity 15.5551853
REMARK minimizedRMSD -1
REMARK  0 active torsions:
REMARK  status: ('A' for Active; 'I' for Inactive)
ROOT
ATOM      1  C   UNL d   1      -0.769   2.325   1.993  0.00  0.00     0.124 A 
ATOM      2  C1  UNL d   1      -0.041   1.198   1.640  0.00  0.00     0.062 A 
ATOM      3  C2  UNL d   1       0.443   1.054   0.343  0.00  0.00     0.162 A 
ATOM      4  C3  UNL d   1       0.202   2.042  -0.611  0.00  0.00    -0.034 A 
ATOM      5  C4  UNL d   1      -0.532   3.174  -0.249  0.00  0.00     0.162 A 
ATOM      6  C5  UNL d   1      -1.014   3.312   1.048  0.00  0.00     0.062 A 
ATOM      7  F   UNL d   1      -1.717   4.403   1.387  0.00  0.00    -0.097 F 
ATOM      8  F1  UNL d   1      -0.782   4.143  -1.142  0.00  0.00    -0.096 F 
ATOM      9  I   UNL d   1       0.925   1.832  -2.551  0.00  0.00    -0.060 I 
ATOM     10  F2  UNL d   1       1.144  -0.046   0.031  0.00  0.00    -0.096 F 
ATOM     11  F3  UNL d   1       0.195   0.242   2.551  0.00  0.00    -0.097 F 
ATOM     12  F4  UNL d   1      -1.235   2.460   3.241  0.00  0.00    -0.092 F 
ENDROOT
TORSDOF 0
ENDMDL
