MODEL 1
REMARK minimizedAffinity 11.9544392
REMARK minimizedRMSD -1
REMARK  0 active torsions:
REMARK  status: ('A' for Active; 'I' for Inactive)
ROOT
ATOM      1  C   UNL d   1      -0.033   0.615  -3.398  0.00  0.00     0.124 A 
ATOM      2  C1  UNL d   1       0.601   1.547  -2.587  0.00  0.00     0.062 A 
ATOM      3  C2  UNL d   1       0.021   1.937  -1.384  0.00  0.00     0.162 A 
ATOM      4  C3  UNL d   1      -1.201   1.395  -0.983  0.00  0.00    -0.034 A 
ATOM      5  C4  UNL d   1      -1.832   0.460  -1.805  0.00  0.00     0.162 A 
ATOM      6  C5  UNL d   1      -1.248   0.073  -3.006  0.00  0.00     0.062 A 
ATOM      7  F   UNL d   1      -1.862  -0.827  -3.789  0.00  0.00    -0.097 F 
ATOM      8  F1  UNL d   1      -3.007  -0.081  -1.450  0.00  0.00    -0.096 F 
ATOM      9  I   UNL d   1      -2.071   1.976   0.816  0.00  0.00    -0.060 I 
ATOM     10  F2  UNL d   1       0.656   2.839  -0.620  0.00  0.00    -0.096 F 
ATOM     11  F3  UNL d   1       1.775   2.073  -2.964  0.00  0.00    -0.097 F 
ATOM     12  F4  UNL d   1       0.527   0.243  -4.556  0.00  0.00    -0.092 F 
ENDROOT
TORSDOF 0
ENDMDL
