MODEL 1
REMARK minimizedAffinity 9.41599369
REMARK minimizedRMSD -1
REMARK  0 active torsions:
REMARK  status: ('A' for Active; 'I' for Inactive)
ROOT
ATOM      1  C   UNL d   1       0.091   0.344  -3.512  0.00  0.00     0.124 A 
ATOM      2  C1  UNL d   1       0.758   1.421  -2.946  0.00  0.00     0.062 A 
ATOM      3  C2  UNL d   1       0.340   1.939  -1.724  0.00  0.00     0.162 A 
ATOM      4  C3  UNL d   1      -0.750   1.379  -1.058  0.00  0.00    -0.034 A 
ATOM      5  C4  UNL d   1      -1.417   0.296  -1.634  0.00  0.00     0.162 A 
ATOM      6  C5  UNL d   1      -0.996  -0.218  -2.856  0.00  0.00     0.062 A 
ATOM      7  F   UNL d   1      -1.641  -1.258  -3.401  0.00  0.00    -0.097 F 
ATOM      8  F1  UNL d   1      -2.469  -0.266  -1.021  0.00  0.00    -0.096 F 
ATOM      9  I   UNL d   1      -1.378   2.151   0.771  0.00  0.00    -0.060 I 
ATOM     10  F2  UNL d   1       1.004   2.981  -1.200  0.00  0.00    -0.096 F 
ATOM     11  F3  UNL d   1       1.807   1.966  -3.579  0.00  0.00    -0.097 F 
ATOM     12  F4  UNL d   1       0.494  -0.152  -4.689  0.00  0.00    -0.092 F 
ENDROOT
TORSDOF 0
ENDMDL
