MODEL 1
REMARK minimizedAffinity 24.7364655
REMARK minimizedRMSD -1
REMARK  0 active torsions:
REMARK  status: ('A' for Active; 'I' for Inactive)
ROOT
ATOM      1  C   UNL d   1       3.149  -4.308  -1.887  0.00  0.00     0.124 A 
ATOM      2  C1  UNL d   1       3.838  -4.276  -3.092  0.00  0.00     0.062 A 
ATOM      3  C2  UNL d   1       3.179  -3.928  -4.267  0.00  0.00     0.162 A 
ATOM      4  C3  UNL d   1       1.821  -3.608  -4.243  0.00  0.00    -0.034 A 
ATOM      5  C4  UNL d   1       1.134  -3.644  -3.028  0.00  0.00     0.162 A 
ATOM      6  C5  UNL d   1       1.798  -3.992  -1.857  0.00  0.00     0.062 A 
ATOM      7  F   UNL d   1       1.131  -4.023  -0.694  0.00  0.00    -0.097 F 
ATOM      8  F1  UNL d   1      -0.172  -3.343  -2.970  0.00  0.00    -0.096 F 
ATOM      9  I   UNL d   1       0.831  -3.088  -5.998  0.00  0.00    -0.060 I 
ATOM     10  F2  UNL d   1       3.870  -3.905  -5.416  0.00  0.00    -0.096 F 
ATOM     11  F3  UNL d   1       5.144  -4.581  -3.124  0.00  0.00    -0.097 F 
ATOM     12  F4  UNL d   1       3.786  -4.644  -0.758  0.00  0.00    -0.092 F 
ENDROOT
TORSDOF 0
ENDMDL
