MODEL 1
REMARK minimizedAffinity 14.5778227
REMARK minimizedRMSD -1
REMARK  0 active torsions:
REMARK  status: ('A' for Active; 'I' for Inactive)
ROOT
ATOM      1  C   UNL d   1      -0.970   2.709  -0.275  0.00  0.00     0.124 A 
ATOM      2  C1  UNL d   1       0.287   3.133   0.134  0.00  0.00     0.062 A 
ATOM      3  C2  UNL d   1       0.698   2.937   1.449  0.00  0.00     0.162 A 
ATOM      4  C3  UNL d   1      -0.148   2.311   2.365  0.00  0.00    -0.034 A 
ATOM      5  C4  UNL d   1      -1.411   1.888   1.947  0.00  0.00     0.162 A 
ATOM      6  C5  UNL d   1      -1.817   2.087   0.631  0.00  0.00     0.062 A 
ATOM      7  F   UNL d   1      -3.032   1.677   0.238  0.00  0.00    -0.097 F 
ATOM      8  F1  UNL d   1      -2.249   1.284   2.801  0.00  0.00    -0.096 F 
ATOM      9  I   UNL d   1       0.463   2.015   4.333  0.00  0.00    -0.060 I 
ATOM     10  F2  UNL d   1       1.918   3.357   1.817  0.00  0.00    -0.096 F 
ATOM     11  F3  UNL d   1       1.107   3.735  -0.739  0.00  0.00    -0.097 F 
ATOM     12  F4  UNL d   1      -1.364   2.901  -1.541  0.00  0.00    -0.092 F 
ENDROOT
TORSDOF 0
ENDMDL
