MODEL 1
REMARK minimizedAffinity 12.4622612
REMARK minimizedRMSD -1
REMARK  0 active torsions:
REMARK  status: ('A' for Active; 'I' for Inactive)
ROOT
ATOM      1  C   UNL d   1      -0.963   3.131  -2.761  0.00  0.00     0.124 A 
ATOM      2  C1  UNL d   1      -1.787   2.075  -2.397  0.00  0.00     0.062 A 
ATOM      3  C2  UNL d   1      -1.697   1.524  -1.122  0.00  0.00     0.162 A 
ATOM      4  C3  UNL d   1      -0.779   2.028  -0.201  0.00  0.00    -0.034 A 
ATOM      5  C4  UNL d   1       0.047   3.090  -0.574  0.00  0.00     0.162 A 
ATOM      6  C5  UNL d   1      -0.047   3.637  -1.849  0.00  0.00     0.062 A 
ATOM      7  F   UNL d   1       0.750   4.658  -2.199  0.00  0.00    -0.097 F 
ATOM      8  F1  UNL d   1       0.940   3.599   0.287  0.00  0.00    -0.096 F 
ATOM      9  I   UNL d   1      -0.641   1.206   1.706  0.00  0.00    -0.060 I 
ATOM     10  F2  UNL d   1      -2.505   0.504  -0.798  0.00  0.00    -0.096 F 
ATOM     11  F3  UNL d   1      -2.672   1.584  -3.276  0.00  0.00    -0.097 F 
ATOM     12  F4  UNL d   1      -1.051   3.659  -3.988  0.00  0.00    -0.092 F 
ENDROOT
TORSDOF 0
ENDMDL
