MODEL 1
REMARK minimizedAffinity 14.9293299
REMARK minimizedRMSD -1
REMARK  0 active torsions:
REMARK  status: ('A' for Active; 'I' for Inactive)
ROOT
ATOM      1  C   UNL d   1      -0.581   4.686  -1.068  0.00  0.00     0.124 A 
ATOM      2  C1  UNL d   1      -1.715   4.898  -0.296  0.00  0.00     0.062 A 
ATOM      3  C2  UNL d   1      -2.060   3.994   0.705  0.00  0.00     0.162 A 
ATOM      4  C3  UNL d   1      -1.268   2.870   0.941  0.00  0.00    -0.034 A 
ATOM      5  C4  UNL d   1      -0.129   2.663   0.160  0.00  0.00     0.162 A 
ATOM      6  C5  UNL d   1       0.211   3.569  -0.839  0.00  0.00     0.062 A 
ATOM      7  F   UNL d   1       1.307   3.363  -1.583  0.00  0.00    -0.097 F 
ATOM      8  F1  UNL d   1       0.654   1.593   0.361  0.00  0.00    -0.096 F 
ATOM      9  I   UNL d   1      -1.780   1.517   2.437  0.00  0.00    -0.060 I 
ATOM     10  F2  UNL d   1      -3.161   4.224   1.435  0.00  0.00    -0.096 F 
ATOM     11  F3  UNL d   1      -2.482   5.975  -0.516  0.00  0.00    -0.097 F 
ATOM     12  F4  UNL d   1      -0.252   5.557  -2.031  0.00  0.00    -0.092 F 
ENDROOT
TORSDOF 0
ENDMDL
