MODEL 1
REMARK minimizedAffinity 16.6443558
REMARK minimizedRMSD -1
REMARK  0 active torsions:
REMARK  status: ('A' for Active; 'I' for Inactive)
ROOT
ATOM      1  C   UNL d   1       1.471  -4.125  -1.492  0.00  0.00     0.124 A 
ATOM      2  C1  UNL d   1       1.645  -3.187  -0.484  0.00  0.00     0.062 A 
ATOM      3  C2  UNL d   1       2.806  -3.191   0.283  0.00  0.00     0.162 A 
ATOM      4  C3  UNL d   1       3.804  -4.136   0.044  0.00  0.00    -0.034 A 
ATOM      5  C4  UNL d   1       3.621  -5.077  -0.971  0.00  0.00     0.162 A 
ATOM      6  C5  UNL d   1       2.459  -5.069  -1.734  0.00  0.00     0.062 A 
ATOM      7  F   UNL d   1       2.292  -5.976  -2.708  0.00  0.00    -0.097 F 
ATOM      8  F1  UNL d   1       4.560  -6.000  -1.227  0.00  0.00    -0.096 F 
ATOM      9  I   UNL d   1       5.542  -4.145   1.189  0.00  0.00    -0.060 I 
ATOM     10  F2  UNL d   1       2.948  -2.272   1.250  0.00  0.00    -0.096 F 
ATOM     11  F3  UNL d   1       0.691  -2.275  -0.248  0.00  0.00    -0.097 F 
ATOM     12  F4  UNL d   1       0.352  -4.120  -2.228  0.00  0.00    -0.092 F 
ENDROOT
TORSDOF 0
ENDMDL
