MODEL 1
REMARK minimizedAffinity 16.6451988
REMARK minimizedRMSD -1
REMARK  0 active torsions:
REMARK  status: ('A' for Active; 'I' for Inactive)
ROOT
ATOM      1  C   UNL d   1      -0.699   4.924  -0.393  0.00  0.00     0.124 A 
ATOM      2  C1  UNL d   1       0.125   3.808  -0.396  0.00  0.00     0.062 A 
ATOM      3  C2  UNL d   1      -0.208   2.688   0.361  0.00  0.00     0.162 A 
ATOM      4  C3  UNL d   1      -1.374   2.679   1.128  0.00  0.00    -0.034 A 
ATOM      5  C4  UNL d   1      -2.198   3.806   1.127  0.00  0.00     0.162 A 
ATOM      6  C5  UNL d   1      -1.860   4.922   0.368  0.00  0.00     0.062 A 
ATOM      7  F   UNL d   1      -2.658   6.000   0.373  0.00  0.00    -0.097 F 
ATOM      8  F1  UNL d   1      -3.325   3.831   1.852  0.00  0.00    -0.096 F 
ATOM      9  I   UNL d   1      -1.876   1.008   2.261  0.00  0.00    -0.060 I 
ATOM     10  F2  UNL d   1       0.607   1.624   0.339  0.00  0.00    -0.096 F 
ATOM     11  F3  UNL d   1       1.248   3.807  -1.130  0.00  0.00    -0.097 F 
ATOM     12  F4  UNL d   1      -0.375   6.000  -1.121  0.00  0.00    -0.092 F 
ENDROOT
TORSDOF 0
ENDMDL
