MODEL 1
REMARK minimizedAffinity 29.9086418
REMARK minimizedRMSD -1
REMARK  0 active torsions:
REMARK  status: ('A' for Active; 'I' for Inactive)
ROOT
ATOM      1  C   UNL d   1       3.279  -3.305   0.770  0.00  0.00     0.124 A 
ATOM      2  C1  UNL d   1       2.012  -3.092   0.245  0.00  0.00     0.062 A 
ATOM      3  C2  UNL d   1       1.559  -3.859  -0.824  0.00  0.00     0.162 A 
ATOM      4  C3  UNL d   1       2.374  -4.848  -1.375  0.00  0.00    -0.034 A 
ATOM      5  C4  UNL d   1       3.648  -5.056  -0.842  0.00  0.00     0.162 A 
ATOM      6  C5  UNL d   1       4.096  -4.287   0.226  0.00  0.00     0.062 A 
ATOM      7  F   UNL d   1       5.320  -4.494   0.732  0.00  0.00    -0.097 F 
ATOM      8  F1  UNL d   1       4.457  -5.998  -1.348  0.00  0.00    -0.096 F 
ATOM      9  I   UNL d   1       1.701  -5.998  -2.974  0.00  0.00    -0.060 I 
ATOM     10  F2  UNL d   1       0.331  -3.632  -1.311  0.00  0.00    -0.096 F 
ATOM     11  F3  UNL d   1       1.222  -2.144   0.769  0.00  0.00    -0.097 F 
ATOM     12  F4  UNL d   1       3.713  -2.565   1.799  0.00  0.00    -0.092 F 
ENDROOT
TORSDOF 0
ENDMDL
