MODEL 1
REMARK minimizedAffinity 24.5967827
REMARK minimizedRMSD -1
REMARK  0 active torsions:
REMARK  status: ('A' for Active; 'I' for Inactive)
ROOT
ATOM      1  C   UNL d   1       0.773   3.143  -0.128  0.00  0.00     0.124 A 
ATOM      2  C1  UNL d   1       0.661   3.513  -1.461  0.00  0.00     0.062 A 
ATOM      3  C2  UNL d   1      -0.379   3.015  -2.241  0.00  0.00     0.162 A 
ATOM      4  C3  UNL d   1      -1.316   2.142  -1.688  0.00  0.00    -0.034 A 
ATOM      5  C4  UNL d   1      -1.197   1.774  -0.347  0.00  0.00     0.162 A 
ATOM      6  C5  UNL d   1      -0.155   2.274   0.428  0.00  0.00     0.062 A 
ATOM      7  F   UNL d   1      -0.049   1.916   1.716  0.00  0.00    -0.097 F 
ATOM      8  F1  UNL d   1      -2.081   0.937   0.215  0.00  0.00    -0.096 F 
ATOM      9  I   UNL d   1      -2.873   1.395  -2.851  0.00  0.00    -0.060 I 
ATOM     10  F2  UNL d   1      -0.463   3.389  -3.526  0.00  0.00    -0.096 F 
ATOM     11  F3  UNL d   1       1.558   4.351  -2.000  0.00  0.00    -0.097 F 
ATOM     12  F4  UNL d   1       1.775   3.623   0.620  0.00  0.00    -0.092 F 
ENDROOT
TORSDOF 0
ENDMDL
