MODEL 1
REMARK minimizedAffinity 18.1319427
REMARK minimizedRMSD -1
REMARK  0 active torsions:
REMARK  status: ('A' for Active; 'I' for Inactive)
ROOT
ATOM      1  C   UNL d   1      -0.372   3.591  -2.198  0.00  0.00     0.124 A 
ATOM      2  C1  UNL d   1       0.643   3.974  -1.332  0.00  0.00     0.062 A 
ATOM      3  C2  UNL d   1       0.830   3.296  -0.130  0.00  0.00     0.162 A 
ATOM      4  C3  UNL d   1       0.001   2.228   0.212  0.00  0.00    -0.034 A 
ATOM      5  C4  UNL d   1      -1.018   1.849  -0.664  0.00  0.00     0.162 A 
ATOM      6  C5  UNL d   1      -1.201   2.529  -1.864  0.00  0.00     0.062 A 
ATOM      7  F   UNL d   1      -2.182   2.158  -2.700  0.00  0.00    -0.097 F 
ATOM      8  F1  UNL d   1      -1.833   0.827  -0.366  0.00  0.00    -0.096 F 
ATOM      9  I   UNL d   1       0.277   1.213   2.008  0.00  0.00    -0.060 I 
ATOM     10  F2  UNL d   1       1.818   3.688   0.688  0.00  0.00    -0.096 F 
ATOM     11  F3  UNL d   1       1.444   4.999  -1.652  0.00  0.00    -0.097 F 
ATOM     12  F4  UNL d   1      -0.551   4.245  -3.353  0.00  0.00    -0.092 F 
ENDROOT
TORSDOF 0
ENDMDL
