MODEL 1
REMARK minimizedAffinity 33.0720711
REMARK minimizedRMSD -1
REMARK  0 active torsions:
REMARK  status: ('A' for Active; 'I' for Inactive)
ROOT
ATOM      1  C   UNL d   1      -4.636   4.300   0.689  0.00  0.00     0.124 A 
ATOM      2  C1  UNL d   1      -4.831   4.976  -0.507  0.00  0.00     0.062 A 
ATOM      3  C2  UNL d   1      -4.133   4.594  -1.649  0.00  0.00     0.162 A 
ATOM      4  C3  UNL d   1      -3.232   3.530  -1.600  0.00  0.00    -0.034 A 
ATOM      5  C4  UNL d   1      -3.040   2.855  -0.393  0.00  0.00     0.162 A 
ATOM      6  C5  UNL d   1      -3.741   3.241   0.745  0.00  0.00     0.062 A 
ATOM      7  F   UNL d   1      -3.551   2.587   1.900  0.00  0.00    -0.097 F 
ATOM      8  F1  UNL d   1      -2.182   1.828  -0.311  0.00  0.00    -0.096 F 
ATOM      9  I   UNL d   1      -2.186   2.956  -3.305  0.00  0.00    -0.060 I 
ATOM     10  F2  UNL d   1      -4.341   5.265  -2.791  0.00  0.00    -0.096 F 
ATOM     11  F3  UNL d   1      -5.695   6.000  -0.564  0.00  0.00    -0.097 F 
ATOM     12  F4  UNL d   1      -5.309   4.670   1.787  0.00  0.00    -0.092 F 
ENDROOT
TORSDOF 0
ENDMDL
