MODEL 1
REMARK minimizedAffinity 10.7334414
REMARK minimizedRMSD -1
REMARK  0 active torsions:
REMARK  status: ('A' for Active; 'I' for Inactive)
ROOT
ATOM      1  C   UNL d   1       0.941   2.981   0.350  0.00  0.00     0.124 A 
ATOM      2  C1  UNL d   1       0.025   2.332  -0.466  0.00  0.00     0.062 A 
ATOM      3  C2  UNL d   1      -1.144   1.805   0.076  0.00  0.00     0.162 A 
ATOM      4  C3  UNL d   1      -1.404   1.927   1.441  0.00  0.00    -0.034 A 
ATOM      5  C4  UNL d   1      -0.477   2.581   2.255  0.00  0.00     0.162 A 
ATOM      6  C5  UNL d   1       0.689   3.105   1.709  0.00  0.00     0.062 A 
ATOM      7  F   UNL d   1       1.574   3.732   2.498  0.00  0.00    -0.097 F 
ATOM      8  F1  UNL d   1      -0.696   2.715   3.571  0.00  0.00    -0.096 F 
ATOM      9  I   UNL d   1      -3.151   1.141   2.255  0.00  0.00    -0.060 I 
ATOM     10  F2  UNL d   1      -2.012   1.183  -0.736  0.00  0.00    -0.096 F 
ATOM     11  F3  UNL d   1       0.266   2.210  -1.779  0.00  0.00    -0.097 F 
ATOM     12  F4  UNL d   1       2.066   3.486  -0.174  0.00  0.00    -0.092 F 
ENDROOT
TORSDOF 0
ENDMDL
