MODEL 1
REMARK minimizedAffinity 32.9329033
REMARK minimizedRMSD -1
REMARK  0 active torsions:
REMARK  status: ('A' for Active; 'I' for Inactive)
ROOT
ATOM      1  C   UNL d   1       3.934  -1.754   2.064  0.00  0.00     0.124 A 
ATOM      2  C1  UNL d   1       4.972  -2.674   2.126  0.00  0.00     0.062 A 
ATOM      3  C2  UNL d   1       4.956  -3.803   1.313  0.00  0.00     0.162 A 
ATOM      4  C3  UNL d   1       3.899  -4.019   0.428  0.00  0.00    -0.034 A 
ATOM      5  C4  UNL d   1       2.858  -3.090   0.372  0.00  0.00     0.162 A 
ATOM      6  C5  UNL d   1       2.878  -1.963   1.187  0.00  0.00     0.062 A 
ATOM      7  F   UNL d   1       1.875  -1.076   1.125  0.00  0.00    -0.097 F 
ATOM      8  F1  UNL d   1       1.827  -3.267  -0.467  0.00  0.00    -0.096 F 
ATOM      9  I   UNL d   1       3.872  -5.706  -0.790  0.00  0.00    -0.060 I 
ATOM     10  F2  UNL d   1       5.972  -4.675   1.394  0.00  0.00    -0.096 F 
ATOM     11  F3  UNL d   1       5.992  -2.474   2.973  0.00  0.00    -0.097 F 
ATOM     12  F4  UNL d   1       3.951  -0.669   2.848  0.00  0.00    -0.092 F 
ENDROOT
TORSDOF 0
ENDMDL
