MODEL 1
REMARK minimizedAffinity 23.4997406
REMARK minimizedRMSD -1
REMARK  0 active torsions:
REMARK  status: ('A' for Active; 'I' for Inactive)
ROOT
ATOM      1  C   UNL d   1      -0.394   3.922  -2.497  0.00  0.00     0.124 A 
ATOM      2  C1  UNL d   1       0.609   4.276  -1.606  0.00  0.00     0.062 A 
ATOM      3  C2  UNL d   1       0.810   3.533  -0.447  0.00  0.00     0.162 A 
ATOM      4  C3  UNL d   1       0.007   2.426  -0.172  0.00  0.00    -0.034 A 
ATOM      5  C4  UNL d   1      -1.001   2.076  -1.073  0.00  0.00     0.162 A 
ATOM      6  C5  UNL d   1      -1.198   2.823  -2.230  0.00  0.00     0.062 A 
ATOM      7  F   UNL d   1      -2.168   2.479  -3.091  0.00  0.00    -0.097 F 
ATOM      8  F1  UNL d   1      -1.792   1.018  -0.841  0.00  0.00    -0.096 F 
ATOM      9  I   UNL d   1       0.304   1.311   1.560  0.00  0.00    -0.060 I 
ATOM     10  F2  UNL d   1       1.787   3.898   0.397  0.00  0.00    -0.096 F 
ATOM     11  F3  UNL d   1       1.387   5.339  -1.861  0.00  0.00    -0.097 F 
ATOM     12  F4  UNL d   1      -0.586   4.640  -3.611  0.00  0.00    -0.092 F 
ENDROOT
TORSDOF 0
ENDMDL
