MODEL 1
REMARK minimizedAffinity -2.63792348
REMARK minimizedRMSD -1
REMARK  0 active torsions:
REMARK  status: ('A' for Active; 'I' for Inactive)
ROOT
ATOM      1  C   UNL d   1      -0.435   2.763  -0.588  0.00  0.00     0.124 A 
ATOM      2  C1  UNL d   1      -1.174   1.776   0.051  0.00  0.00     0.062 A 
ATOM      3  C2  UNL d   1      -1.128   1.655   1.437  0.00  0.00     0.162 A 
ATOM      4  C3  UNL d   1      -0.342   2.523   2.194  0.00  0.00    -0.034 A 
ATOM      5  C4  UNL d   1       0.399   3.512   1.544  0.00  0.00     0.162 A 
ATOM      6  C5  UNL d   1       0.350   3.629   0.159  0.00  0.00     0.062 A 
ATOM      7  F   UNL d   1       1.065   4.583  -0.457  0.00  0.00    -0.097 F 
ATOM      8  F1  UNL d   1       1.166   4.364   2.241  0.00  0.00    -0.096 F 
ATOM      9  I   UNL d   1      -0.271   2.345   4.266  0.00  0.00    -0.060 I 
ATOM     10  F2  UNL d   1      -1.852   0.693   2.028  0.00  0.00    -0.096 F 
ATOM     11  F3  UNL d   1      -1.932   0.937  -0.669  0.00  0.00    -0.097 F 
ATOM     12  F4  UNL d   1      -0.480   2.876  -1.922  0.00  0.00    -0.092 F 
ENDROOT
TORSDOF 0
ENDMDL
