MODEL 1
REMARK minimizedAffinity 16.2640896
REMARK minimizedRMSD -1
REMARK  0 active torsions:
REMARK  status: ('A' for Active; 'I' for Inactive)
ROOT
ATOM      1  C   UNL d   1      -2.182   1.771  -2.304  0.00  0.00     0.124 A 
ATOM      2  C1  UNL d   1      -1.378   2.676  -2.983  0.00  0.00     0.062 A 
ATOM      3  C2  UNL d   1      -0.390   3.382  -2.304  0.00  0.00     0.162 A 
ATOM      4  C3  UNL d   1      -0.199   3.185  -0.936  0.00  0.00    -0.034 A 
ATOM      5  C4  UNL d   1      -1.012   2.274  -0.259  0.00  0.00     0.162 A 
ATOM      6  C5  UNL d   1      -1.998   1.571  -0.943  0.00  0.00     0.062 A 
ATOM      7  F   UNL d   1      -2.774   0.697  -0.284  0.00  0.00    -0.097 F 
ATOM      8  F1  UNL d   1      -0.855   2.061   1.056  0.00  0.00    -0.096 F 
ATOM      9  I   UNL d   1       1.278   4.239   0.084  0.00  0.00    -0.060 I 
ATOM     10  F2  UNL d   1       0.373   4.250  -2.986  0.00  0.00    -0.096 F 
ATOM     11  F3  UNL d   1      -1.554   2.871  -4.298  0.00  0.00    -0.097 F 
ATOM     12  F4  UNL d   1      -3.133   1.094  -2.960  0.00  0.00    -0.092 F 
ENDROOT
TORSDOF 0
ENDMDL
