MODEL 1
REMARK minimizedAffinity -6.20367098
REMARK minimizedRMSD -1
REMARK  3 active torsions:
REMARK  status: ('A' for Active; 'I' for Inactive)
REMARK    1  A    between atoms: C3'_2  and  C2'_3 
REMARK    2  A    between atoms: C2'_3  and  C1'_4 
REMARK    3  A    between atoms: C1'_4  and  C1_5 
ROOT
ATOM      1  C1  N4B d   1      -0.162  -1.015   0.172  0.00  0.00    -0.075 A 
ATOM      2  C2  N4B d   1      -0.400  -1.795   1.326  0.00  0.00     0.002 A 
ATOM      3  C3  N4B d   1      -1.325  -2.808   1.291  0.00  0.00     0.002 A 
ATOM      4  C4  N4B d   1      -2.037  -3.048   0.124  0.00  0.00    -0.004 A 
ATOM      5  C5  N4B d   1      -1.783  -2.307  -0.993  0.00  0.00     0.002 A 
ATOM      6  C6  N4B d   1      -0.853  -1.287  -0.973  0.00  0.00     0.002 A 
ENDROOT
BRANCH   1   7
ATOM      7  C1' N4B d   1       0.778   0.159   0.187  0.00  0.00     0.057 C 
BRANCH   7   8
ATOM      8  C2' N4B d   1       0.056   1.386  -0.362  0.00  0.00     0.009 C 
BRANCH   8   9
ATOM      9  C3' N4B d   1       0.828   2.040  -1.495  0.00  0.00     0.004 C 
ATOM     10  C4' N4B d   1      -0.067   2.633  -2.541  0.00  0.00     0.003 C 
ENDBRANCH   8   9
ENDBRANCH   7   8
ENDBRANCH   1   7
TORSDOF 3
ENDMDL
