MODEL 1
REMARK minimizedAffinity -2.28486753
REMARK minimizedRMSD -1
REMARK  3 active torsions:
REMARK  status: ('A' for Active; 'I' for Inactive)
REMARK    1  A    between atoms: C3'_2  and  C2'_3 
REMARK    2  A    between atoms: C2'_3  and  C1'_4 
REMARK    3  A    between atoms: C1'_4  and  C1_5 
ROOT
ATOM      1  C1  N4B d   1      -0.151  -0.864   0.349  0.00  0.00    -0.075 A 
ATOM      2  C2  N4B d   1      -1.504  -0.483   0.218  0.00  0.00     0.002 A 
ATOM      3  C3  N4B d   1      -2.469  -1.105   0.972  0.00  0.00     0.002 A 
ATOM      4  C4  N4B d   1      -2.107  -2.119   1.846  0.00  0.00    -0.004 A 
ATOM      5  C5  N4B d   1      -0.795  -2.464   1.986  0.00  0.00     0.002 A 
ATOM      6  C6  N4B d   1       0.186  -1.845   1.237  0.00  0.00     0.002 A 
ENDROOT
BRANCH   1   7
ATOM      7  C1' N4B d   1       0.928  -0.273  -0.517  0.00  0.00     0.057 C 
BRANCH   7   8
ATOM      8  C2' N4B d   1       0.593   1.187  -0.807  0.00  0.00     0.009 C 
BRANCH   8   9
ATOM      9  C3' N4B d   1       1.375   1.725  -1.993  0.00  0.00     0.004 C 
ATOM     10  C4' N4B d   1       0.520   1.929  -3.208  0.00  0.00     0.003 C 
ENDBRANCH   8   9
ENDBRANCH   7   8
ENDBRANCH   1   7
TORSDOF 3
ENDMDL
