MODEL 1
REMARK minimizedAffinity -4.49482059
REMARK minimizedRMSD -1
REMARK  3 active torsions:
REMARK  status: ('A' for Active; 'I' for Inactive)
REMARK    1  A    between atoms: C3'_2  and  C2'_3 
REMARK    2  A    between atoms: C2'_3  and  C1'_4 
REMARK    3  A    between atoms: C1'_4  and  C1_5 
ROOT
ATOM      1  C1  N4B d   1      -0.095  -0.435  -0.084  0.00  0.00    -0.075 A 
ATOM      2  C2  N4B d   1      -1.321  -1.028  -0.455  0.00  0.00     0.002 A 
ATOM      3  C3  N4B d   1      -1.683  -2.244   0.073  0.00  0.00     0.002 A 
ATOM      4  C4  N4B d   1      -0.829  -2.890   0.954  0.00  0.00    -0.004 A 
ATOM      5  C5  N4B d   1       0.342  -2.298   1.327  0.00  0.00     0.002 A 
ATOM      6  C6  N4B d   1       0.716  -1.075   0.807  0.00  0.00     0.002 A 
ENDROOT
BRANCH   1   7
ATOM      7  C1' N4B d   1       0.383   0.852  -0.700  0.00  0.00     0.057 C 
BRANCH   7   8
ATOM      8  C2' N4B d   1      -0.400   1.113  -1.984  0.00  0.00     0.009 C 
BRANCH   8   9
ATOM      9  C3' N4B d   1       0.454   1.791  -3.042  0.00  0.00     0.004 C 
ATOM     10  C4' N4B d   1       1.673   0.994  -3.402  0.00  0.00     0.003 C 
ENDBRANCH   8   9
ENDBRANCH   7   8
ENDBRANCH   1   7
TORSDOF 3
ENDMDL
