MODEL 1
REMARK minimizedAffinity -6.70648003
REMARK minimizedRMSD -1
REMARK  3 active torsions:
REMARK  status: ('A' for Active; 'I' for Inactive)
REMARK    1  A    between atoms: C3'_2  and  C2'_3 
REMARK    2  A    between atoms: C2'_3  and  C1'_4 
REMARK    3  A    between atoms: C1'_4  and  C1_5 
ROOT
ATOM      1  C1  N4B d   1      -0.550   0.043   0.256  0.00  0.00    -0.075 A 
ATOM      2  C2  N4B d   1       0.456  -0.947   0.220  0.00  0.00     0.002 A 
ATOM      3  C3  N4B d   1       0.166  -2.235   0.599  0.00  0.00     0.002 A 
ATOM      4  C4  N4B d   1      -1.112  -2.551   1.033  0.00  0.00    -0.004 A 
ATOM      5  C5  N4B d   1      -2.085  -1.595   1.041  0.00  0.00     0.002 A 
ATOM      6  C6  N4B d   1      -1.809  -0.297   0.659  0.00  0.00     0.002 A 
ENDROOT
BRANCH   1   7
ATOM      7  C1' N4B d   1      -0.260   1.483  -0.066  0.00  0.00     0.057 C 
BRANCH   7   8
ATOM      8  C2' N4B d   1       0.808   1.547  -1.155  0.00  0.00     0.009 C 
BRANCH   8   9
ATOM      9  C3' N4B d   1       0.272   2.153  -2.441  0.00  0.00     0.004 C 
ATOM     10  C4' N4B d   1       1.168   1.903  -3.617  0.00  0.00     0.003 C 
ENDBRANCH   8   9
ENDBRANCH   7   8
ENDBRANCH   1   7
TORSDOF 3
ENDMDL
