MODEL 1
REMARK minimizedAffinity -1.81624913
REMARK minimizedRMSD -1
REMARK  3 active torsions:
REMARK  status: ('A' for Active; 'I' for Inactive)
REMARK    1  A    between atoms: C3'_2  and  C2'_3 
REMARK    2  A    between atoms: C2'_3  and  C1'_4 
REMARK    3  A    between atoms: C1'_4  and  C1_5 
ROOT
ATOM      1  C1  N4B d   1       0.664  -0.142  -0.094  0.00  0.00    -0.075 A 
ATOM      2  C2  N4B d   1      -0.629   0.099   0.421  0.00  0.00     0.002 A 
ATOM      3  C3  N4B d   1      -1.232  -0.836   1.227  0.00  0.00     0.002 A 
ATOM      4  C4  N4B d   1      -0.572  -2.021   1.515  0.00  0.00    -0.004 A 
ATOM      5  C5  N4B d   1       0.687  -2.235   1.034  0.00  0.00     0.002 A 
ATOM      6  C6  N4B d   1       1.306  -1.303   0.226  0.00  0.00     0.002 A 
ENDROOT
BRANCH   1   7
ATOM      7  C1' N4B d   1       1.328   0.811  -1.049  0.00  0.00     0.057 C 
BRANCH   7   8
ATOM      8  C2' N4B d   1       0.287   1.349  -2.026  0.00  0.00     0.009 C 
BRANCH   8   9
ATOM      9  C3' N4B d   1       0.916   2.196  -3.118  0.00  0.00     0.004 C 
ATOM     10  C4' N4B d   1       2.065   1.511  -3.795  0.00  0.00     0.003 C 
ENDBRANCH   8   9
ENDBRANCH   7   8
ENDBRANCH   1   7
TORSDOF 3
ENDMDL
