MODEL 1
REMARK minimizedAffinity 0.696291804
REMARK minimizedRMSD -1
REMARK  3 active torsions:
REMARK  status: ('A' for Active; 'I' for Inactive)
REMARK    1  A    between atoms: C3'_2  and  C2'_3 
REMARK    2  A    between atoms: C2'_3  and  C1'_4 
REMARK    3  A    between atoms: C1'_4  and  C1_5 
ROOT
ATOM      1  C1  N4B d   1       2.553   2.016  -3.803  0.00  0.00    -0.075 A 
ATOM      2  C2  N4B d   1       1.659   1.378  -2.915  0.00  0.00     0.002 A 
ATOM      3  C3  N4B d   1       0.334   1.739  -2.897  0.00  0.00     0.002 A 
ATOM      4  C4  N4B d   1      -0.114   2.743  -3.741  0.00  0.00    -0.004 A 
ATOM      5  C5  N4B d   1       0.750   3.337  -4.614  0.00  0.00     0.002 A 
ATOM      6  C6  N4B d   1       2.083   2.982  -4.645  0.00  0.00     0.002 A 
ENDROOT
BRANCH   1   7
ATOM      7  C1' N4B d   1       4.027   1.716  -3.798  0.00  0.00     0.057 C 
BRANCH   7   8
ATOM      8  C2' N4B d   1       4.671   2.390  -2.591  0.00  0.00     0.009 C 
BRANCH   8   9
ATOM      9  C3' N4B d   1       5.991   3.052  -2.947  0.00  0.00     0.004 C 
ATOM     10  C4' N4B d   1       5.988   4.529  -2.688  0.00  0.00     0.003 C 
ENDBRANCH   8   9
ENDBRANCH   7   8
ENDBRANCH   1   7
TORSDOF 3
ENDMDL
