MODEL 1
REMARK minimizedAffinity -1.65833783
REMARK minimizedRMSD -1
REMARK  3 active torsions:
REMARK  status: ('A' for Active; 'I' for Inactive)
REMARK    1  A    between atoms: C3'_2  and  C2'_3 
REMARK    2  A    between atoms: C2'_3  and  C1'_4 
REMARK    3  A    between atoms: C1'_4  and  C1_5 
ROOT
ATOM      1  C1  N4B d   1      -0.726  -1.093   0.422  0.00  0.00    -0.075 A 
ATOM      2  C2  N4B d   1      -1.355   0.171   0.439  0.00  0.00     0.002 A 
ATOM      3  C3  N4B d   1      -0.643   1.296   0.103  0.00  0.00     0.002 A 
ATOM      4  C4  N4B d   1       0.698   1.185  -0.234  0.00  0.00    -0.004 A 
ATOM      5  C5  N4B d   1       1.291  -0.043  -0.273  0.00  0.00     0.002 A 
ATOM      6  C6  N4B d   1       0.587  -1.183   0.058  0.00  0.00     0.002 A 
ENDROOT
BRANCH   1   7
ATOM      7  C1' N4B d   1      -1.439  -2.342   0.864  0.00  0.00     0.057 C 
BRANCH   7   8
ATOM      8  C2' N4B d   1      -0.619  -3.029   1.952  0.00  0.00     0.009 C 
BRANCH   8   9
ATOM      9  C3' N4B d   1      -1.142  -2.713   3.343  0.00  0.00     0.004 C 
ATOM     10  C4' N4B d   1      -0.054  -2.656   4.374  0.00  0.00     0.003 C 
ENDBRANCH   8   9
ENDBRANCH   7   8
ENDBRANCH   1   7
TORSDOF 3
ENDMDL
