MODEL 1
REMARK minimizedAffinity -5.09014797
REMARK minimizedRMSD -1
REMARK  3 active torsions:
REMARK  status: ('A' for Active; 'I' for Inactive)
REMARK    1  A    between atoms: C3'_2  and  C2'_3 
REMARK    2  A    between atoms: C2'_3  and  C1'_4 
REMARK    3  A    between atoms: C1'_4  and  C1_5 
ROOT
ATOM      1  C1  N4B d   1      -0.500  -0.305   0.888  0.00  0.00    -0.075 A 
ATOM      2  C2  N4B d   1      -1.717  -0.096   1.572  0.00  0.00     0.002 A 
ATOM      3  C3  N4B d   1      -2.561  -1.153   1.809  0.00  0.00     0.002 A 
ATOM      4  C4  N4B d   1      -2.220  -2.418   1.357  0.00  0.00    -0.004 A 
ATOM      5  C5  N4B d   1      -1.030  -2.616   0.719  0.00  0.00     0.002 A 
ATOM      6  C6  N4B d   1      -0.170  -1.564   0.477  0.00  0.00     0.002 A 
ENDROOT
BRANCH   1   7
ATOM      7  C1' N4B d   1       0.416   0.834   0.530  0.00  0.00     0.057 C 
BRANCH   7   8
ATOM      8  C2' N4B d   1       0.576   0.891  -0.986  0.00  0.00     0.009 C 
BRANCH   8   9
ATOM      9  C3' N4B d   1       1.752   1.758  -1.401  0.00  0.00     0.004 C 
ATOM     10  C4' N4B d   1       1.861   1.915  -2.889  0.00  0.00     0.003 C 
ENDBRANCH   8   9
ENDBRANCH   7   8
ENDBRANCH   1   7
TORSDOF 3
ENDMDL
