MODEL 1
REMARK minimizedAffinity 3.96012783
REMARK minimizedRMSD -1
REMARK  3 active torsions:
REMARK  status: ('A' for Active; 'I' for Inactive)
REMARK    1  A    between atoms: C3'_2  and  C2'_3 
REMARK    2  A    between atoms: C2'_3  and  C1'_4 
REMARK    3  A    between atoms: C1'_4  and  C1_5 
ROOT
ATOM      1  C1  N4B d   1      -4.423  -2.544  -5.156  0.00  0.00    -0.075 A 
ATOM      2  C2  N4B d   1      -5.227  -1.535  -5.731  0.00  0.00     0.002 A 
ATOM      3  C3  N4B d   1      -5.983  -0.718  -4.927  0.00  0.00     0.002 A 
ATOM      4  C4  N4B d   1      -5.966  -0.903  -3.553  0.00  0.00    -0.004 A 
ATOM      5  C5  N4B d   1      -5.168  -1.863  -3.003  0.00  0.00     0.002 A 
ATOM      6  C6  N4B d   1      -4.400  -2.689  -3.799  0.00  0.00     0.002 A 
ENDROOT
BRANCH   1   7
ATOM      7  C1' N4B d   1      -3.646  -3.517  -6.000  0.00  0.00     0.057 C 
BRANCH   7   8
ATOM      8  C2' N4B d   1      -3.133  -4.649  -5.115  0.00  0.00     0.009 C 
BRANCH   8   9
ATOM      9  C3' N4B d   1      -2.282  -5.638  -5.893  0.00  0.00     0.004 C 
ATOM     10  C4' N4B d   1      -0.838  -5.235  -5.959  0.00  0.00     0.003 C 
ENDBRANCH   8   9
ENDBRANCH   7   8
ENDBRANCH   1   7
TORSDOF 3
ENDMDL
