MODEL 1
REMARK minimizedAffinity -0.369041473
REMARK minimizedRMSD -1
REMARK  1 active torsions:
REMARK  status: ('A' for Active; 'I' for Inactive)
REMARK    1  A    between atoms: C3_4  and  O_7 
ROOT
ATOM      1  C   UNL d   1       1.900   0.700   2.082  0.00  0.00    -0.033 A 
ATOM      2  C1  UNL d   1       0.793   1.452   1.685  0.00  0.00     0.039 A 
ATOM      3  C2  UNL d   1       0.210   1.233   0.436  0.00  0.00    -0.080 A 
ATOM      4  C3  UNL d   1       0.742   0.260  -0.405  0.00  0.00     0.150 A 
ATOM      5  C4  UNL d   1       1.842  -0.495  -0.015  0.00  0.00    -0.007 A 
ATOM      6  C5  UNL d   1       2.424  -0.275   1.233  0.00  0.00     0.039 A 
ENDROOT
BRANCH   4   7
ATOM      7  O   UNL d   1       0.209   0.014  -1.636  0.00  0.00    -0.526 OA
ATOM      8  H5  UNL d   1      -0.527   0.630  -1.782  0.00  0.00     0.418 HD
ENDBRANCH   4   7
TORSDOF 1
ENDMDL
