MODEL 1
REMARK minimizedAffinity -5.07524109
REMARK minimizedRMSD -1
REMARK  1 active torsions:
REMARK  status: ('A' for Active; 'I' for Inactive)
REMARK    1  A    between atoms: C3_4  and  O_7 
ROOT
ATOM      1  C   UNL d   1      -0.442   0.594   2.723  0.00  0.00    -0.033 A 
ATOM      2  C1  UNL d   1      -1.448   0.050   1.921  0.00  0.00     0.039 A 
ATOM      3  C2  UNL d   1      -1.187  -0.261   0.586  0.00  0.00    -0.080 A 
ATOM      4  C3  UNL d   1       0.082  -0.024   0.064  0.00  0.00     0.150 A 
ATOM      5  C4  UNL d   1       1.090   0.514   0.858  0.00  0.00    -0.007 A 
ATOM      6  C5  UNL d   1       0.827   0.824   2.192  0.00  0.00     0.039 A 
ENDROOT
BRANCH   4   7
ATOM      7  O   UNL d   1       0.382  -0.307  -1.235  0.00  0.00    -0.526 OA
ATOM      8  H5  UNL d   1      -0.418  -0.646  -1.669  0.00  0.00     0.418 HD
ENDBRANCH   4   7
TORSDOF 1
ENDMDL
