MODEL 1
REMARK minimizedAffinity -3.50067449
REMARK minimizedRMSD -1
REMARK  1 active torsions:
REMARK  status: ('A' for Active; 'I' for Inactive)
REMARK    1  A    between atoms: C3_4  and  O_7 
ROOT
ATOM      1  C   UNL d   1      -0.818   0.027  -0.110  0.00  0.00    -0.033 A 
ATOM      2  C1  UNL d   1       0.533   0.126   0.228  0.00  0.00     0.039 A 
ATOM      3  C2  UNL d   1       0.905   0.527   1.512  0.00  0.00    -0.080 A 
ATOM      4  C3  UNL d   1      -0.081   0.825   2.448  0.00  0.00     0.150 A 
ATOM      5  C4  UNL d   1      -1.429   0.725   2.119  0.00  0.00    -0.007 A 
ATOM      6  C5  UNL d   1      -1.799   0.325   0.836  0.00  0.00     0.039 A 
ENDROOT
BRANCH   4   7
ATOM      7  O   UNL d   1       0.234   1.226   3.713  0.00  0.00    -0.526 OA
ATOM      8  H5  UNL d   1       1.202   1.277   3.787  0.00  0.00     0.418 HD
ENDBRANCH   4   7
TORSDOF 1
ENDMDL
