MODEL 1
REMARK minimizedAffinity 4.40249777
REMARK minimizedRMSD -1
REMARK  1 active torsions:
REMARK  status: ('A' for Active; 'I' for Inactive)
REMARK    1  A    between atoms: C3_4  and  O_7 
ROOT
ATOM      1  C   UNL d   1       1.075  -1.414   2.772  0.00  0.00    -0.033 A 
ATOM      2  C1  UNL d   1      -0.305  -1.376   2.564  0.00  0.00     0.039 A 
ATOM      3  C2  UNL d   1      -0.979  -0.154   2.560  0.00  0.00    -0.080 A 
ATOM      4  C3  UNL d   1      -0.262   1.022   2.764  0.00  0.00     0.150 A 
ATOM      5  C4  UNL d   1       1.114   0.992   2.968  0.00  0.00    -0.007 A 
ATOM      6  C5  UNL d   1       1.785  -0.230   2.972  0.00  0.00     0.039 A 
ENDROOT
BRANCH   4   7
ATOM      7  O   UNL d   1      -0.877   2.239   2.774  0.00  0.00    -0.526 OA
ATOM      8  H5  UNL d   1      -1.831   2.103   2.649  0.00  0.00     0.418 HD
ENDBRANCH   4   7
TORSDOF 1
ENDMDL
