MODEL 1
REMARK minimizedAffinity 0.115990929
REMARK minimizedRMSD -1
REMARK  1 active torsions:
REMARK  status: ('A' for Active; 'I' for Inactive)
REMARK    1  A    between atoms: C3_4  and  O_7 
ROOT
ATOM      1  C   UNL d   1      -2.508   0.066   2.914  0.00  0.00    -0.033 A 
ATOM      2  C1  UNL d   1      -1.505   0.712   2.187  0.00  0.00     0.039 A 
ATOM      3  C2  UNL d   1      -0.190   0.245   2.242  0.00  0.00    -0.080 A 
ATOM      4  C3  UNL d   1       0.108  -0.866   3.026  0.00  0.00     0.150 A 
ATOM      5  C4  UNL d   1      -0.886  -1.516   3.749  0.00  0.00    -0.007 A 
ATOM      6  C5  UNL d   1      -2.198  -1.048   3.694  0.00  0.00     0.039 A 
ENDROOT
BRANCH   4   7
ATOM      7  O   UNL d   1       1.378  -1.355   3.115  0.00  0.00    -0.526 OA
ATOM      8  H5  UNL d   1       1.964  -0.789   2.585  0.00  0.00     0.418 HD
ENDBRANCH   4   7
TORSDOF 1
ENDMDL
