MODEL 1
REMARK minimizedAffinity -3.80361938
REMARK minimizedRMSD -1
REMARK  1 active torsions:
REMARK  status: ('A' for Active; 'I' for Inactive)
REMARK    1  A    between atoms: C3_4  and  O_7 
ROOT
ATOM      1  C   UNL d   1      -1.286  -0.762  -0.497  0.00  0.00    -0.033 A 
ATOM      2  C1  UNL d   1      -0.808  -1.765  -1.343  0.00  0.00     0.039 A 
ATOM      3  C2  UNL d   1       0.515  -2.197  -1.237  0.00  0.00    -0.080 A 
ATOM      4  C3  UNL d   1       1.349  -1.619  -0.284  0.00  0.00     0.150 A 
ATOM      5  C4  UNL d   1       0.878  -0.622   0.564  0.00  0.00    -0.007 A 
ATOM      6  C5  UNL d   1      -0.444  -0.191   0.457  0.00  0.00     0.039 A 
ENDROOT
BRANCH   4   7
ATOM      7  O   UNL d   1       2.649  -2.004  -0.146  0.00  0.00    -0.526 OA
ATOM      8  H5  UNL d   1       2.842  -2.680  -0.818  0.00  0.00     0.418 HD
ENDBRANCH   4   7
TORSDOF 1
ENDMDL
