MODEL 1
REMARK minimizedAffinity 2.40739727
REMARK minimizedRMSD -1
REMARK  1 active torsions:
REMARK  status: ('A' for Active; 'I' for Inactive)
REMARK    1  A    between atoms: C3_4  and  O_7 
ROOT
ATOM      1  C   UNL d   1      -2.005  -1.642  -5.976  0.00  0.00    -0.033 A 
ATOM      2  C1  UNL d   1      -3.044  -2.574  -5.998  0.00  0.00     0.039 A 
ATOM      3  C2  UNL d   1      -2.759  -3.940  -6.000  0.00  0.00    -0.080 A 
ATOM      4  C3  UNL d   1      -1.432  -4.361  -5.978  0.00  0.00     0.150 A 
ATOM      5  C4  UNL d   1      -0.392  -3.438  -5.952  0.00  0.00    -0.007 A 
ATOM      6  C5  UNL d   1      -0.678  -2.074  -5.951  0.00  0.00     0.039 A 
ENDROOT
BRANCH   4   7
ATOM      7  O   UNL d   1      -1.104  -5.685  -5.983  0.00  0.00    -0.526 OA
ATOM      8  H5  UNL d   1      -1.924  -6.204  -6.032  0.00  0.00     0.418 HD
ENDBRANCH   4   7
TORSDOF 1
ENDMDL
