MODEL 1
REMARK minimizedAffinity -3.03592491
REMARK minimizedRMSD -1
REMARK  1 active torsions:
REMARK  status: ('A' for Active; 'I' for Inactive)
REMARK    1  A    between atoms: C3_4  and  O_7 
ROOT
ATOM      1  C   UNL d   1      -0.018  -0.877   3.877  0.00  0.00    -0.033 A 
ATOM      2  C1  UNL d   1      -0.600  -2.007   4.455  0.00  0.00     0.039 A 
ATOM      3  C2  UNL d   1      -1.963  -2.258   4.284  0.00  0.00    -0.080 A 
ATOM      4  C3  UNL d   1      -2.731  -1.373   3.533  0.00  0.00     0.150 A 
ATOM      5  C4  UNL d   1      -2.158  -0.247   2.952  0.00  0.00    -0.007 A 
ATOM      6  C5  UNL d   1      -0.797   0.002   3.124  0.00  0.00     0.039 A 
ENDROOT
BRANCH   4   7
ATOM      7  O   UNL d   1      -4.066  -1.573   3.343  0.00  0.00    -0.526 OA
ATOM      8  H5  UNL d   1      -4.330  -2.374   3.827  0.00  0.00     0.418 HD
ENDBRANCH   4   7
TORSDOF 1
ENDMDL
