MODEL 1
REMARK minimizedAffinity -3.8974793
REMARK minimizedRMSD -1
REMARK  0 active torsions:
REMARK  status: ('A' for Active; 'I' for Inactive)
ROOT
ATOM      1  C   UNL d   1       1.063   5.311   4.658  0.00  0.00    -0.002 A 
ATOM      2  C1  UNL d   1       1.579   5.971   5.765  0.00  0.00     0.010 A 
ATOM      3  C2  UNL d   1       2.955   6.000   5.997  0.00  0.00     0.041 A 
ATOM      4  C3  UNL d   1       3.814   5.351   5.088  0.00  0.00    -0.075 A 
ATOM      5  S   UNL d   1       5.533   5.256   5.168  0.00  0.00     0.015 SA
ATOM      6  C4  UNL d   1       5.624   4.339   3.734  0.00  0.00     0.022 A 
ATOM      7  C5  UNL d   1       4.382   4.101   3.194  0.00  0.00     0.026 A 
ATOM      8  C6  UNL d   1       3.318   4.681   3.965  0.00  0.00    -0.082 A 
ATOM      9  C7  UNL d   1       1.918   4.668   3.759  0.00  0.00     0.045 A 
ENDROOT
TORSDOF 0
ENDMDL
