MODEL 1
REMARK minimizedAffinity 10.8899107
REMARK minimizedRMSD -1
REMARK  0 active torsions:
REMARK  status: ('A' for Active; 'I' for Inactive)
ROOT
ATOM      1  C   UNL d   1       2.569   1.850   0.350  0.00  0.00    -0.002 A 
ATOM      2  C1  UNL d   1       1.592   2.071  -0.610  0.00  0.00     0.010 A 
ATOM      3  C2  UNL d   1       1.131   1.021  -1.407  0.00  0.00     0.041 A 
ATOM      4  C3  UNL d   1       1.671  -0.266  -1.220  0.00  0.00    -0.075 A 
ATOM      5  S   UNL d   1       1.258  -1.703  -2.079  0.00  0.00     0.015 SA
ATOM      6  C4  UNL d   1       2.367  -2.643  -1.190  0.00  0.00     0.022 A 
ATOM      7  C5  UNL d   1       3.045  -1.895  -0.257  0.00  0.00     0.026 A 
ATOM      8  C6  UNL d   1       2.655  -0.513  -0.258  0.00  0.00    -0.082 A 
ATOM      9  C7  UNL d   1       3.103   0.572   0.534  0.00  0.00     0.045 A 
ENDROOT
TORSDOF 0
ENDMDL
