MODEL 1
REMARK minimizedAffinity 16.2923031
REMARK minimizedRMSD -1
REMARK  0 active torsions:
REMARK  status: ('A' for Active; 'I' for Inactive)
ROOT
ATOM      1  C   UNL d   1      -0.478   1.439   0.912  0.00  0.00    -0.002 A 
ATOM      2  C1  UNL d   1      -0.212   2.361  -0.090  0.00  0.00     0.010 A 
ATOM      3  C2  UNL d   1       0.972   2.288  -0.827  0.00  0.00     0.041 A 
ATOM      4  C3  UNL d   1       1.892   1.261  -0.538  0.00  0.00    -0.075 A 
ATOM      5  S   UNL d   1       3.406   0.974  -1.311  0.00  0.00     0.015 SA
ATOM      6  C4  UNL d   1       3.735  -0.380  -0.330  0.00  0.00     0.022 A 
ATOM      7  C5  UNL d   1       2.726  -0.622   0.571  0.00  0.00     0.026 A 
ATOM      8  C6  UNL d   1       1.646   0.319   0.465  0.00  0.00    -0.082 A 
ATOM      9  C7  UNL d   1       0.438   0.421   1.195  0.00  0.00     0.045 A 
ENDROOT
TORSDOF 0
ENDMDL
