MODEL 1
REMARK minimizedAffinity 9.74733543
REMARK minimizedRMSD -1
REMARK  0 active torsions:
REMARK  status: ('A' for Active; 'I' for Inactive)
ROOT
ATOM      1  C   UNL d   1      -4.071   1.562   1.600  0.00  0.00    -0.002 A 
ATOM      2  C1  UNL d   1      -4.770   0.873   0.619  0.00  0.00     0.010 A 
ATOM      3  C2  UNL d   1      -4.131   0.461  -0.552  0.00  0.00     0.041 A 
ATOM      4  C3  UNL d   1      -2.763   0.754  -0.721  0.00  0.00    -0.075 A 
ATOM      5  S   UNL d   1      -1.772   0.347  -2.072  0.00  0.00     0.015 SA
ATOM      6  C4  UNL d   1      -0.397   1.077  -1.378  0.00  0.00     0.022 A 
ATOM      7  C5  UNL d   1      -0.670   1.623  -0.147  0.00  0.00     0.026 A 
ATOM      8  C6  UNL d   1      -2.038   1.446   0.253  0.00  0.00    -0.082 A 
ATOM      9  C7  UNL d   1      -2.715   1.851   1.428  0.00  0.00     0.045 A 
ENDROOT
TORSDOF 0
ENDMDL
