MODEL 1
REMARK minimizedAffinity -4.96112919
REMARK minimizedRMSD -1
REMARK  0 active torsions:
REMARK  status: ('A' for Active; 'I' for Inactive)
ROOT
ATOM      1  C   UNL d   1       2.860   2.106   5.763  0.00  0.00    -0.002 A 
ATOM      2  C1  UNL d   1       3.797   2.621   4.879  0.00  0.00     0.010 A 
ATOM      3  C2  UNL d   1       3.558   3.824   4.212  0.00  0.00     0.041 A 
ATOM      4  C3  UNL d   1       2.351   4.509   4.453  0.00  0.00    -0.075 A 
ATOM      5  S   UNL d   1       1.843   6.000   3.751  0.00  0.00     0.015 SA
ATOM      6  C4  UNL d   1       0.371   5.989   4.609  0.00  0.00     0.022 A 
ATOM      7  C5  UNL d   1       0.253   4.882   5.416  0.00  0.00     0.026 A 
ATOM      8  C6  UNL d   1       1.392   4.011   5.340  0.00  0.00    -0.082 A 
ATOM      9  C7  UNL d   1       1.663   2.788   5.999  0.00  0.00     0.045 A 
ENDROOT
TORSDOF 0
ENDMDL
