MODEL 1
REMARK minimizedAffinity 12.8063879
REMARK minimizedRMSD -1
REMARK  0 active torsions:
REMARK  status: ('A' for Active; 'I' for Inactive)
ROOT
ATOM      1  C   UNL d   1       6.000   1.691  -0.425  0.00  0.00    -0.002 A 
ATOM      2  C1  UNL d   1       5.473   1.510  -1.696  0.00  0.00     0.010 A 
ATOM      3  C2  UNL d   1       4.118   1.217  -1.868  0.00  0.00     0.041 A 
ATOM      4  C3  UNL d   1       3.294   1.111  -0.731  0.00  0.00    -0.075 A 
ATOM      5  S   UNL d   1       1.606   0.761  -0.699  0.00  0.00     0.015 SA
ATOM      6  C4  UNL d   1       1.545   0.844   1.002  0.00  0.00     0.022 A 
ATOM      7  C5  UNL d   1       2.773   1.131   1.549  0.00  0.00     0.026 A 
ATOM      8  C6  UNL d   1       3.802   1.290   0.559  0.00  0.00    -0.082 A 
ATOM      9  C7  UNL d   1       5.179   1.585   0.701  0.00  0.00     0.045 A 
ENDROOT
TORSDOF 0
ENDMDL
