MODEL 1
REMARK minimizedAffinity -4.70489931
REMARK minimizedRMSD -1
REMARK  0 active torsions:
REMARK  status: ('A' for Active; 'I' for Inactive)
ROOT
ATOM      1  C   UNL d   1       4.246   2.999   5.230  0.00  0.00    -0.002 A 
ATOM      2  C1  UNL d   1       3.255   2.401   5.995  0.00  0.00     0.010 A 
ATOM      3  C2  UNL d   1       1.956   2.913   6.000  0.00  0.00     0.041 A 
ATOM      4  C3  UNL d   1       1.666   4.046   5.214  0.00  0.00    -0.075 A 
ATOM      5  S   UNL d   1       0.147   4.846   5.063  0.00  0.00     0.015 SA
ATOM      6  C4  UNL d   1       0.777   6.000   3.979  0.00  0.00     0.022 A 
ATOM      7  C5  UNL d   1       2.113   5.795   3.727  0.00  0.00     0.026 A 
ATOM      8  C6  UNL d   1       2.648   4.665   4.435  0.00  0.00    -0.082 A 
ATOM      9  C7  UNL d   1       3.955   4.123   4.451  0.00  0.00     0.045 A 
ENDROOT
TORSDOF 0
ENDMDL
