MODEL 1
REMARK minimizedAffinity 9.28123283
REMARK minimizedRMSD -1
REMARK  0 active torsions:
REMARK  status: ('A' for Active; 'I' for Inactive)
ROOT
ATOM      1  C   UNL d   1       3.420   1.241   5.928  0.00  0.00    -0.002 A 
ATOM      2  C1  UNL d   1       4.799   1.388   5.976  0.00  0.00     0.010 A 
ATOM      3  C2  UNL d   1       5.378   2.658   5.998  0.00  0.00     0.041 A 
ATOM      4  C3  UNL d   1       4.540   3.790   5.973  0.00  0.00    -0.075 A 
ATOM      5  S   UNL d   1       5.026   5.444   5.995  0.00  0.00     0.015 SA
ATOM      6  C4  UNL d   1       3.414   5.995   5.942  0.00  0.00     0.022 A 
ATOM      7  C5  UNL d   1       2.514   4.956   5.908  0.00  0.00     0.026 A 
ATOM      8  C6  UNL d   1       3.148   3.668   5.926  0.00  0.00    -0.082 A 
ATOM      9  C7  UNL d   1       2.592   2.367   5.903  0.00  0.00     0.045 A 
ENDROOT
TORSDOF 0
ENDMDL
