MODEL 1
REMARK minimizedAffinity 12.2228813
REMARK minimizedRMSD -1
REMARK  0 active torsions:
REMARK  status: ('A' for Active; 'I' for Inactive)
ROOT
ATOM      1  C   UNL d   1      -0.019  -0.140   2.031  0.00  0.00    -0.002 A 
ATOM      2  C1  UNL d   1      -1.149  -0.654   1.412  0.00  0.00     0.010 A 
ATOM      3  C2  UNL d   1      -1.032  -1.453   0.272  0.00  0.00     0.041 A 
ATOM      4  C3  UNL d   1       0.252  -1.730  -0.238  0.00  0.00    -0.075 A 
ATOM      5  S   UNL d   1       0.637  -2.685  -1.621  0.00  0.00     0.015 SA
ATOM      6  C4  UNL d   1       2.311  -2.433  -1.421  0.00  0.00     0.022 A 
ATOM      7  C5  UNL d   1       2.587  -1.642  -0.330  0.00  0.00     0.026 A 
ATOM      8  C6  UNL d   1       1.405  -1.224   0.370  0.00  0.00    -0.082 A 
ATOM      9  C7  UNL d   1       1.253  -0.417   1.523  0.00  0.00     0.045 A 
ENDROOT
TORSDOF 0
ENDMDL
