MODEL 1
REMARK minimizedAffinity -0.315853268
REMARK minimizedRMSD -1
REMARK  0 active torsions:
REMARK  status: ('A' for Active; 'I' for Inactive)
ROOT
ATOM      1  O1  BZF d   1      -0.068   1.476  -1.114  0.00  0.00    -0.204 OA
ATOM      2  C2  BZF d   1      -1.360   1.509  -0.625  0.00  0.00     0.174 A 
ATOM      3  C3  BZF d   1      -1.555   0.527   0.279  0.00  0.00    -0.012 A 
ATOM      4  C3A BZF d   1      -0.280  -0.105   0.428  0.00  0.00    -0.107 A 
ATOM      5  C4  BZF d   1       0.171  -1.140   1.198  0.00  0.00     0.055 A 
ATOM      6  C5  BZF d   1       1.456  -1.559   1.054  0.00  0.00    -0.016 A 
ATOM      7  C6  BZF d   1       2.314  -0.971   0.148  0.00  0.00     0.022 A 
ATOM      8  C7  BZF d   1       1.914   0.061  -0.634  0.00  0.00     0.029 A 
ATOM      9  C7A BZF d   1       0.626   0.509  -0.467  0.00  0.00     0.058 A 
ENDROOT
TORSDOF 0
ENDMDL
