MODEL 1
REMARK minimizedAffinity -0.18950808
REMARK minimizedRMSD -1
REMARK  0 active torsions:
REMARK  status: ('A' for Active; 'I' for Inactive)
ROOT
ATOM      1  O1  BZF d   1       2.685  -1.418   0.290  0.00  0.00    -0.204 OA
ATOM      2  C2  BZF d   1       2.876  -0.591  -0.800  0.00  0.00     0.174 A 
ATOM      3  C3  BZF d   1       1.785   0.171  -1.020  0.00  0.00    -0.012 A 
ATOM      4  C3A BZF d   1       0.889  -0.136   0.053  0.00  0.00    -0.107 A 
ATOM      5  C4  BZF d   1      -0.354   0.313   0.395  0.00  0.00     0.055 A 
ATOM      6  C5  BZF d   1      -0.987  -0.244   1.462  0.00  0.00    -0.016 A 
ATOM      7  C6  BZF d   1      -0.408  -1.252   2.204  0.00  0.00     0.022 A 
ATOM      8  C7  BZF d   1       0.826  -1.726   1.906  0.00  0.00     0.029 A 
ATOM      9  C7A BZF d   1       1.482  -1.143   0.849  0.00  0.00     0.058 A 
ENDROOT
TORSDOF 0
ENDMDL
