MODEL 1
REMARK minimizedAffinity -1.54770064
REMARK minimizedRMSD -1
REMARK  0 active torsions:
REMARK  status: ('A' for Active; 'I' for Inactive)
ROOT
ATOM      1  O1  BZF d   1      -1.019  -0.331  -0.689  0.00  0.00    -0.204 OA
ATOM      2  C2  BZF d   1      -0.134   0.209   0.224  0.00  0.00     0.174 A 
ATOM      3  C3  BZF d   1      -0.010   1.539   0.042  0.00  0.00    -0.012 A 
ATOM      4  C3A BZF d   1      -0.942   1.866  -0.994  0.00  0.00    -0.107 A 
ATOM      5  C4  BZF d   1      -1.294   3.035  -1.606  0.00  0.00     0.055 A 
ATOM      6  C5  BZF d   1      -2.184   3.001  -2.632  0.00  0.00    -0.016 A 
ATOM      7  C6  BZF d   1      -2.738   1.817  -3.074  0.00  0.00     0.022 A 
ATOM      8  C7  BZF d   1      -2.424   0.633  -2.494  0.00  0.00     0.029 A 
ATOM      9  C7A BZF d   1      -1.549   0.668  -1.436  0.00  0.00     0.058 A 
ENDROOT
TORSDOF 0
ENDMDL
