MODEL 1
REMARK minimizedAffinity -0.0637428239
REMARK minimizedRMSD -1
REMARK  0 active torsions:
REMARK  status: ('A' for Active; 'I' for Inactive)
ROOT
ATOM      1  O1  BZF d   1      -1.903   1.493  -0.083  0.00  0.00    -0.204 OA
ATOM      2  C2  BZF d   1      -1.114   1.646  -1.207  0.00  0.00     0.174 A 
ATOM      3  C3  BZF d   1      -0.040   0.833  -1.152  0.00  0.00    -0.012 A 
ATOM      4  C3A BZF d   1      -0.213   0.061   0.041  0.00  0.00    -0.107 A 
ATOM      5  C4  BZF d   1       0.517  -0.930   0.632  0.00  0.00     0.055 A 
ATOM      6  C5  BZF d   1       0.111  -1.424   1.831  0.00  0.00    -0.016 A 
ATOM      7  C6  BZF d   1      -1.017  -0.948   2.468  0.00  0.00     0.022 A 
ATOM      8  C7  BZF d   1      -1.776   0.030   1.918  0.00  0.00     0.029 A 
ATOM      9  C7A BZF d   1      -1.386   0.509   0.691  0.00  0.00     0.058 A 
ENDROOT
TORSDOF 0
ENDMDL
