MODEL 1
REMARK minimizedAffinity -4.11557198
REMARK minimizedRMSD -1
REMARK  0 active torsions:
REMARK  status: ('A' for Active; 'I' for Inactive)
ROOT
ATOM      1  O1  BZF d   1      -1.496   0.419  -2.962  0.00  0.00    -0.204 OA
ATOM      2  C2  BZF d   1      -2.255   1.566  -2.827  0.00  0.00     0.174 A 
ATOM      3  C3  BZF d   1      -1.960   2.201  -1.675  0.00  0.00    -0.012 A 
ATOM      4  C3A BZF d   1      -0.890   1.450  -1.094  0.00  0.00    -0.107 A 
ATOM      5  C4  BZF d   1      -0.155   1.592   0.048  0.00  0.00     0.055 A 
ATOM      6  C5  BZF d   1       0.769   0.646   0.362  0.00  0.00    -0.016 A 
ATOM      7  C6  BZF d   1       0.980  -0.456  -0.441  0.00  0.00     0.022 A 
ATOM      8  C7  BZF d   1       0.280  -0.637  -1.587  0.00  0.00     0.029 A 
ATOM      9  C7A BZF d   1      -0.631   0.334  -1.923  0.00  0.00     0.058 A 
ENDROOT
TORSDOF 0
ENDMDL
