MODEL 1
REMARK minimizedAffinity -3.65279388
REMARK minimizedRMSD -1
REMARK  0 active torsions:
REMARK  status: ('A' for Active; 'I' for Inactive)
ROOT
ATOM      1  O1  BZF d   1      -0.039  -0.589  -0.689  0.00  0.00    -0.204 OA
ATOM      2  C2  BZF d   1       0.640   0.114   0.287  0.00  0.00     0.174 A 
ATOM      3  C3  BZF d   1       0.377   1.434   0.196  0.00  0.00    -0.012 A 
ATOM      4  C3A BZF d   1      -0.594   1.553  -0.849  0.00  0.00    -0.107 A 
ATOM      5  C4  BZF d   1      -1.258   2.613  -1.397  0.00  0.00     0.055 A 
ATOM      6  C5  BZF d   1      -2.086   2.398  -2.453  0.00  0.00    -0.016 A 
ATOM      7  C6  BZF d   1      -2.269   1.141  -2.988  0.00  0.00     0.022 A 
ATOM      8  C7  BZF d   1      -1.636   0.058  -2.476  0.00  0.00     0.029 A 
ATOM      9  C7A BZF d   1      -0.824   0.266  -1.388  0.00  0.00     0.058 A 
ENDROOT
TORSDOF 0
ENDMDL
