MODEL 1
REMARK minimizedAffinity 4.45403719
REMARK minimizedRMSD -1
REMARK  0 active torsions:
REMARK  status: ('A' for Active; 'I' for Inactive)
ROOT
ATOM      1  O1  BZF d   1      -1.098   0.103  -0.098  0.00  0.00    -0.204 OA
ATOM      2  C2  BZF d   1       0.166   0.427   0.354  0.00  0.00     0.174 A 
ATOM      3  C3  BZF d   1       0.769   1.291  -0.488  0.00  0.00    -0.012 A 
ATOM      4  C3A BZF d   1      -0.213   1.592  -1.484  0.00  0.00    -0.107 A 
ATOM      5  C4  BZF d   1      -0.217   2.403  -2.583  0.00  0.00     0.055 A 
ATOM      6  C5  BZF d   1      -1.311   2.417  -3.389  0.00  0.00    -0.016 A 
ATOM      7  C6  BZF d   1      -2.414   1.630  -3.130  0.00  0.00     0.022 A 
ATOM      8  C7  BZF d   1      -2.459   0.814  -2.049  0.00  0.00     0.029 A 
ATOM      9  C7A BZF d   1      -1.368   0.823  -1.214  0.00  0.00     0.058 A 
ENDROOT
TORSDOF 0
ENDMDL
