MODEL 1
REMARK minimizedAffinity -4.05049086
REMARK minimizedRMSD -1
REMARK  0 active torsions:
REMARK  status: ('A' for Active; 'I' for Inactive)
ROOT
ATOM      1  O1  BZF d   1      -0.945  -1.075   2.225  0.00  0.00    -0.204 OA
ATOM      2  C2  BZF d   1      -0.293  -1.890   3.129  0.00  0.00     0.174 A 
ATOM      3  C3  BZF d   1       0.932  -2.224   2.675  0.00  0.00    -0.012 A 
ATOM      4  C3A BZF d   1       1.089  -1.502   1.450  0.00  0.00    -0.107 A 
ATOM      5  C4  BZF d   1       2.102  -1.407   0.539  0.00  0.00     0.055 A 
ATOM      6  C5  BZF d   1       1.910  -0.673  -0.588  0.00  0.00    -0.016 A 
ATOM      7  C6  BZF d   1       0.718  -0.025  -0.838  0.00  0.00     0.022 A 
ATOM      8  C7  BZF d   1      -0.314  -0.085   0.038  0.00  0.00     0.029 A 
ATOM      9  C7A BZF d   1      -0.111  -0.800   1.194  0.00  0.00     0.058 A 
ENDROOT
TORSDOF 0
ENDMDL
