MODEL 1
REMARK minimizedAffinity -3.15475011
REMARK minimizedRMSD -1
REMARK  0 active torsions:
REMARK  status: ('A' for Active; 'I' for Inactive)
ROOT
ATOM      1  O1  BZF d   1      -0.520  -0.597  -0.511  0.00  0.00    -0.204 OA
ATOM      2  C2  BZF d   1       0.659  -0.149   0.053  0.00  0.00     0.174 A 
ATOM      3  C3  BZF d   1       0.902   1.130  -0.298  0.00  0.00    -0.012 A 
ATOM      4  C3A BZF d   1      -0.240   1.535  -1.059  0.00  0.00    -0.107 A 
ATOM      5  C4  BZF d   1      -0.595   2.704  -1.670  0.00  0.00     0.055 A 
ATOM      6  C5  BZF d   1      -1.744   2.748  -2.394  0.00  0.00    -0.016 A 
ATOM      7  C6  BZF d   1      -2.558   1.643  -2.532  0.00  0.00     0.022 A 
ATOM      8  C7  BZF d   1      -2.250   0.463  -1.941  0.00  0.00     0.029 A 
ATOM      9  C7A BZF d   1      -1.106   0.424  -1.181  0.00  0.00     0.058 A 
ENDROOT
TORSDOF 0
ENDMDL
