MODEL 1
REMARK minimizedAffinity -3.7313273
REMARK minimizedRMSD -1
REMARK  0 active torsions:
REMARK  status: ('A' for Active; 'I' for Inactive)
ROOT
ATOM      1  O1  BZF d   1      -0.690  -0.592   2.641  0.00  0.00    -0.204 OA
ATOM      2  C2  BZF d   1      -0.103  -1.561   3.432  0.00  0.00     0.174 A 
ATOM      3  C3  BZF d   1       1.014  -2.042   2.848  0.00  0.00    -0.012 A 
ATOM      4  C3A BZF d   1       1.182  -1.264   1.659  0.00  0.00    -0.107 A 
ATOM      5  C4  BZF d   1       2.120  -1.257   0.667  0.00  0.00     0.055 A 
ATOM      6  C5  BZF d   1       1.955  -0.422  -0.392  0.00  0.00    -0.016 A 
ATOM      7  C6  BZF d   1       0.863   0.415  -0.493  0.00  0.00     0.022 A 
ATOM      8  C7  BZF d   1      -0.091   0.448   0.469  0.00  0.00     0.029 A 
ATOM      9  C7A BZF d   1       0.090  -0.372   1.556  0.00  0.00     0.058 A 
ENDROOT
TORSDOF 0
ENDMDL
