MODEL 1
REMARK minimizedAffinity -2.47484183
REMARK minimizedRMSD -1
REMARK  0 active torsions:
REMARK  status: ('A' for Active; 'I' for Inactive)
ROOT
ATOM      1  O1  BZF d   1      -0.933   0.655   0.443  0.00  0.00    -0.204 OA
ATOM      2  C2  BZF d   1      -0.024   0.982  -0.545  0.00  0.00     0.174 A 
ATOM      3  C3  BZF d   1       1.125   0.296  -0.383  0.00  0.00    -0.012 A 
ATOM      4  C3A BZF d   1       0.889  -0.579   0.724  0.00  0.00    -0.107 A 
ATOM      5  C4  BZF d   1       1.649  -1.522   1.355  0.00  0.00     0.055 A 
ATOM      6  C5  BZF d   1       1.148  -2.150   2.451  0.00  0.00    -0.016 A 
ATOM      7  C6  BZF d   1      -0.106  -1.857   2.945  0.00  0.00     0.022 A 
ATOM      8  C7  BZF d   1      -0.900  -0.933   2.350  0.00  0.00     0.029 A 
ATOM      9  C7A BZF d   1      -0.409  -0.320   1.223  0.00  0.00     0.058 A 
ENDROOT
TORSDOF 0
ENDMDL
