MODEL 1
REMARK minimizedAffinity -1.61043453
REMARK minimizedRMSD -1
REMARK  0 active torsions:
REMARK  status: ('A' for Active; 'I' for Inactive)
ROOT
ATOM      1  O1  BZF d   1      -1.134  -0.982   2.291  0.00  0.00    -0.204 OA
ATOM      2  C2  BZF d   1      -2.001   0.030   1.928  0.00  0.00     0.174 A 
ATOM      3  C3  BZF d   1      -1.479   0.773   0.930  0.00  0.00    -0.012 A 
ATOM      4  C3A BZF d   1      -0.246   0.132   0.590  0.00  0.00    -0.107 A 
ATOM      5  C4  BZF d   1       0.722   0.390  -0.339  0.00  0.00     0.055 A 
ATOM      6  C5  BZF d   1       1.837  -0.386  -0.363  0.00  0.00    -0.016 A 
ATOM      7  C6  BZF d   1       2.020  -1.423   0.528  0.00  0.00     0.022 A 
ATOM      8  C7  BZF d   1       1.086  -1.720   1.464  0.00  0.00     0.029 A 
ATOM      9  C7A BZF d   1      -0.057  -0.959   1.470  0.00  0.00     0.058 A 
ENDROOT
TORSDOF 0
ENDMDL
