MODEL 1
REMARK minimizedAffinity -1.04422271
REMARK minimizedRMSD -1
REMARK  0 active torsions:
REMARK  status: ('A' for Active; 'I' for Inactive)
ROOT
ATOM      1  O1  BZF d   1       0.984   1.240  -0.467  0.00  0.00    -0.204 OA
ATOM      2  C2  BZF d   1      -0.372   1.402  -0.677  0.00  0.00     0.174 A 
ATOM      3  C3  BZF d   1      -1.070   0.419  -0.074  0.00  0.00    -0.012 A 
ATOM      4  C3A BZF d   1      -0.096  -0.357   0.630  0.00  0.00    -0.107 A 
ATOM      5  C4  BZF d   1      -0.175  -1.461   1.431  0.00  0.00     0.055 A 
ATOM      6  C5  BZF d   1       0.971  -2.017   1.904  0.00  0.00    -0.016 A 
ATOM      7  C6  BZF d   1       2.212  -1.500   1.592  0.00  0.00     0.022 A 
ATOM      8  C7  BZF d   1       2.340  -0.404   0.806  0.00  0.00     0.029 A 
ATOM      9  C7A BZF d   1       1.182   0.180   0.353  0.00  0.00     0.058 A 
ENDROOT
TORSDOF 0
ENDMDL
