MODEL 1
REMARK minimizedAffinity -3.35643673
REMARK minimizedRMSD -1
REMARK  0 active torsions:
REMARK  status: ('A' for Active; 'I' for Inactive)
ROOT
ATOM      1  O1  BZF d   1      -1.142  -1.060   2.186  0.00  0.00    -0.204 OA
ATOM      2  C2  BZF d   1      -0.723  -1.825   3.258  0.00  0.00     0.174 A 
ATOM      3  C3  BZF d   1       0.545  -2.249   3.077  0.00  0.00    -0.012 A 
ATOM      4  C3A BZF d   1       0.974  -1.640   1.856  0.00  0.00    -0.107 A 
ATOM      5  C4  BZF d   1       2.146  -1.666   1.154  0.00  0.00     0.055 A 
ATOM      6  C5  BZF d   1       2.216  -1.022  -0.040  0.00  0.00    -0.016 A 
ATOM      7  C6  BZF d   1       1.134  -0.346  -0.564  0.00  0.00     0.022 A 
ATOM      8  C7  BZF d   1      -0.048  -0.287   0.097  0.00  0.00     0.029 A 
ATOM      9  C7A BZF d   1      -0.112  -0.910   1.319  0.00  0.00     0.058 A 
ENDROOT
TORSDOF 0
ENDMDL
