MODEL 1
REMARK minimizedAffinity -2.76102805
REMARK minimizedRMSD -1
REMARK  0 active torsions:
REMARK  status: ('A' for Active; 'I' for Inactive)
ROOT
ATOM      1  O1  BZF d   1      -0.568   0.770   0.637  0.00  0.00    -0.204 OA
ATOM      2  C2  BZF d   1      -0.811   1.403  -0.567  0.00  0.00     0.174 A 
ATOM      3  C3  BZF d   1       0.099   1.037  -1.492  0.00  0.00    -0.012 A 
ATOM      4  C3A BZF d   1       0.910   0.047  -0.852  0.00  0.00    -0.107 A 
ATOM      5  C4  BZF d   1       1.973  -0.705  -1.262  0.00  0.00     0.055 A 
ATOM      6  C5  BZF d   1       2.586  -1.526  -0.370  0.00  0.00    -0.016 A 
ATOM      7  C6  BZF d   1       2.165  -1.616   0.941  0.00  0.00     0.022 A 
ATOM      8  C7  BZF d   1       1.111  -0.894   1.394  0.00  0.00     0.029 A 
ATOM      9  C7A BZF d   1       0.470  -0.087   0.485  0.00  0.00     0.058 A 
ENDROOT
TORSDOF 0
ENDMDL
