MODEL 1
REMARK minimizedAffinity -4.05163765
REMARK minimizedRMSD -1
REMARK  0 active torsions:
REMARK  status: ('A' for Active; 'I' for Inactive)
ROOT
ATOM      1  O1  BZF d   1      -0.435  -0.320  -1.106  0.00  0.00    -0.204 OA
ATOM      2  C2  BZF d   1      -0.166   0.426   0.025  0.00  0.00     0.174 A 
ATOM      3  C3  BZF d   1      -0.751   1.639  -0.052  0.00  0.00    -0.012 A 
ATOM      4  C3A BZF d   1      -1.505   1.617  -1.267  0.00  0.00    -0.107 A 
ATOM      5  C4  BZF d   1      -2.316   2.525  -1.886  0.00  0.00     0.055 A 
ATOM      6  C5  BZF d   1      -2.843   2.220  -3.101  0.00  0.00    -0.016 A 
ATOM      7  C6  BZF d   1      -2.577   1.020  -3.727  0.00  0.00     0.022 A 
ATOM      8  C7  BZF d   1      -1.784   0.085  -3.150  0.00  0.00     0.029 A 
ATOM      9  C7A BZF d   1      -1.276   0.377  -1.908  0.00  0.00     0.058 A 
ENDROOT
TORSDOF 0
ENDMDL
