MODEL 1
REMARK minimizedAffinity -3.47802758
REMARK minimizedRMSD -1
REMARK  0 active torsions:
REMARK  status: ('A' for Active; 'I' for Inactive)
ROOT
ATOM      1  O1  BZF d   1      -0.774   0.878   0.758  0.00  0.00    -0.204 OA
ATOM      2  C2  BZF d   1      -1.142   1.327  -0.496  0.00  0.00     0.174 A 
ATOM      3  C3  BZF d   1      -0.281   0.883  -1.435  0.00  0.00    -0.012 A 
ATOM      4  C3A BZF d   1       0.632   0.031  -0.735  0.00  0.00    -0.107 A 
ATOM      5  C4  BZF d   1       1.705  -0.717  -1.127  0.00  0.00     0.055 A 
ATOM      6  C5  BZF d   1       2.428  -1.377  -0.185  0.00  0.00    -0.016 A 
ATOM      7  C6  BZF d   1       2.110  -1.308   1.156  0.00  0.00     0.022 A 
ATOM      8  C7  BZF d   1       1.051  -0.583   1.592  0.00  0.00     0.029 A 
ATOM      9  C7A BZF d   1       0.299   0.059   0.639  0.00  0.00     0.058 A 
ENDROOT
TORSDOF 0
ENDMDL
