MODEL 1
REMARK minimizedAffinity -4.0621233
REMARK minimizedRMSD -1
REMARK  0 active torsions:
REMARK  status: ('A' for Active; 'I' for Inactive)
ROOT
ATOM      1  O1  BZF d   1      -1.191  -0.864   2.266  0.00  0.00    -0.204 OA
ATOM      2  C2  BZF d   1      -0.777  -2.064   2.811  0.00  0.00     0.174 A 
ATOM      3  C3  BZF d   1       0.370  -2.480   2.236  0.00  0.00    -0.012 A 
ATOM      4  C3A BZF d   1       0.742  -1.432   1.336  0.00  0.00    -0.107 A 
ATOM      5  C4  BZF d   1       1.797  -1.253   0.488  0.00  0.00     0.055 A 
ATOM      6  C5  BZF d   1       1.827  -0.151  -0.307  0.00  0.00    -0.016 A 
ATOM      7  C6  BZF d   1       0.816   0.788  -0.283  0.00  0.00     0.022 A 
ATOM      8  C7  BZF d   1      -0.248   0.656   0.545  0.00  0.00     0.029 A 
ATOM      9  C7A BZF d   1      -0.265  -0.439   1.373  0.00  0.00     0.058 A 
ENDROOT
TORSDOF 0
ENDMDL
