MODEL 1
REMARK minimizedAffinity -1.64466035
REMARK minimizedRMSD -1
REMARK  0 active torsions:
REMARK  status: ('A' for Active; 'I' for Inactive)
ROOT
ATOM      1  O1  BZF d   1       0.744  -1.242   1.583  0.00  0.00    -0.204 OA
ATOM      2  C2  BZF d   1       1.808  -1.161   0.706  0.00  0.00     0.174 A 
ATOM      3  C3  BZF d   1       1.515  -0.346  -0.328  0.00  0.00    -0.012 A 
ATOM      4  C3A BZF d   1       0.220   0.185  -0.033  0.00  0.00    -0.107 A 
ATOM      5  C4  BZF d   1      -0.603   1.066  -0.675  0.00  0.00     0.055 A 
ATOM      6  C5  BZF d   1      -1.834   1.317  -0.159  0.00  0.00    -0.016 A 
ATOM      7  C6  BZF d   1      -2.277   0.701   0.994  0.00  0.00     0.022 A 
ATOM      8  C7  BZF d   1      -1.496  -0.176   1.669  0.00  0.00     0.029 A 
ATOM      9  C7A BZF d   1      -0.238  -0.407   1.167  0.00  0.00     0.058 A 
ENDROOT
TORSDOF 0
ENDMDL
