MODEL 1
REMARK minimizedAffinity -2.28067803
REMARK minimizedRMSD -1
REMARK  0 active torsions:
REMARK  status: ('A' for Active; 'I' for Inactive)
ROOT
ATOM      1  O1  BZF d   1      -3.212   1.112  -1.774  0.00  0.00    -0.204 OA
ATOM      2  C2  BZF d   1      -2.719   2.101  -2.602  0.00  0.00     0.174 A 
ATOM      3  C3  BZF d   1      -1.419   2.344  -2.336  0.00  0.00    -0.012 A 
ATOM      4  C3A BZF d   1      -1.054   1.386  -1.338  0.00  0.00    -0.107 A 
ATOM      5  C4  BZF d   1       0.111   1.113  -0.679  0.00  0.00     0.055 A 
ATOM      6  C5  BZF d   1       0.115   0.161   0.290  0.00  0.00    -0.016 A 
ATOM      7  C6  BZF d   1      -1.028  -0.534   0.629  0.00  0.00     0.022 A 
ATOM      8  C7  BZF d   1      -2.206  -0.302   0.001  0.00  0.00     0.029 A 
ATOM      9  C7A BZF d   1      -2.205   0.636  -1.002  0.00  0.00     0.058 A 
ENDROOT
TORSDOF 0
ENDMDL
