MODEL 1
REMARK minimizedAffinity -1.6481998
REMARK minimizedRMSD -1
REMARK  0 active torsions:
REMARK  status: ('A' for Active; 'I' for Inactive)
ROOT
ATOM      1  O1  BZF d   1      -2.135   2.439  -4.389  0.00  0.00    -0.204 OA
ATOM      2  C2  BZF d   1      -2.014   1.112  -4.026  0.00  0.00     0.174 A 
ATOM      3  C3  BZF d   1      -3.023   0.746  -3.209  0.00  0.00    -0.012 A 
ATOM      4  C3A BZF d   1      -3.875   1.892  -3.127  0.00  0.00    -0.107 A 
ATOM      5  C4  BZF d   1      -5.050   2.143  -2.477  0.00  0.00     0.055 A 
ATOM      6  C5  BZF d   1      -5.587   3.390  -2.543  0.00  0.00    -0.016 A 
ATOM      7  C6  BZF d   1      -4.975   4.408  -3.243  0.00  0.00     0.022 A 
ATOM      8  C7  BZF d   1      -3.811   4.206  -3.907  0.00  0.00     0.029 A 
ATOM      9  C7A BZF d   1      -3.282   2.938  -3.870  0.00  0.00     0.058 A 
ENDROOT
TORSDOF 0
ENDMDL
