MODEL 1
REMARK minimizedAffinity 10.029376
REMARK minimizedRMSD -1
REMARK  0 active torsions:
REMARK  status: ('A' for Active; 'I' for Inactive)
ROOT
ATOM      1  O1  BZF d   1       0.969   1.789  -3.559  0.00  0.00    -0.204 OA
ATOM      2  C2  BZF d   1      -0.245   1.653  -2.915  0.00  0.00     0.174 A 
ATOM      3  C3  BZF d   1      -0.378   2.581  -1.945  0.00  0.00    -0.012 A 
ATOM      4  C3A BZF d   1       0.789   3.402  -2.047  0.00  0.00    -0.107 A 
ATOM      5  C4  BZF d   1       1.226   4.501  -1.365  0.00  0.00     0.055 A 
ATOM      6  C5  BZF d   1       2.445   5.022  -1.663  0.00  0.00    -0.016 A 
ATOM      7  C6  BZF d   1       3.255   4.467  -2.632  0.00  0.00     0.022 A 
ATOM      8  C7  BZF d   1       2.862   3.379  -3.339  0.00  0.00     0.029 A 
ATOM      9  C7A BZF d   1       1.617   2.870  -3.063  0.00  0.00     0.058 A 
ENDROOT
TORSDOF 0
ENDMDL
