MODEL 1
REMARK minimizedAffinity 2.62879133
REMARK minimizedRMSD -1
REMARK  0 active torsions:
REMARK  status: ('A' for Active; 'I' for Inactive)
ROOT
ATOM      1  O1  BZF d   1       4.618   5.709  -0.201  0.00  0.00    -0.204 OA
ATOM      2  C2  BZF d   1       3.345   5.224   0.031  0.00  0.00     0.174 A 
ATOM      3  C3  BZF d   1       2.748   4.875  -1.127  0.00  0.00    -0.012 A 
ATOM      4  C3A BZF d   1       3.741   5.073  -2.137  0.00  0.00    -0.107 A 
ATOM      5  C4  BZF d   1       3.755   4.886  -3.490  0.00  0.00     0.055 A 
ATOM      6  C5  BZF d   1       4.859   5.246  -4.195  0.00  0.00    -0.016 A 
ATOM      7  C6  BZF d   1       5.964   5.799  -3.582  0.00  0.00     0.022 A 
ATOM      8  C7  BZF d   1       5.999   6.000  -2.242  0.00  0.00     0.029 A 
ATOM      9  C7A BZF d   1       4.898   5.607  -1.522  0.00  0.00     0.058 A 
ENDROOT
TORSDOF 0
ENDMDL
