MODEL 1
REMARK minimizedAffinity 1.66189325
REMARK minimizedRMSD -1
REMARK  0 active torsions:
REMARK  status: ('A' for Active; 'I' for Inactive)
ROOT
ATOM      1  O1  BZF d   1      -2.507   2.267  -4.128  0.00  0.00    -0.204 OA
ATOM      2  C2  BZF d   1      -2.523   0.942  -3.738  0.00  0.00     0.174 A 
ATOM      3  C3  BZF d   1      -3.618   0.675  -2.997  0.00  0.00    -0.012 A 
ATOM      4  C3A BZF d   1      -4.377   1.888  -2.997  0.00  0.00    -0.107 A 
ATOM      5  C4  BZF d   1      -5.573   2.246  -2.444  0.00  0.00     0.055 A 
ATOM      6  C5  BZF d   1      -6.000   3.531  -2.569  0.00  0.00    -0.016 A 
ATOM      7  C6  BZF d   1      -5.254   4.482  -3.234  0.00  0.00     0.022 A 
ATOM      8  C7  BZF d   1      -4.064   4.172  -3.803  0.00  0.00     0.029 A 
ATOM      9  C7A BZF d   1      -3.646   2.867  -3.707  0.00  0.00     0.058 A 
ENDROOT
TORSDOF 0
ENDMDL
