MODEL 1
REMARK minimizedAffinity 2.7629261
REMARK minimizedRMSD -1
REMARK  0 active torsions:
REMARK  status: ('A' for Active; 'I' for Inactive)
ROOT
ATOM      1  O1  BZF d   1      -4.562   3.157  -4.366  0.00  0.00    -0.204 OA
ATOM      2  C2  BZF d   1      -5.019   4.155  -3.527  0.00  0.00     0.174 A 
ATOM      3  C3  BZF d   1      -4.606   3.941  -2.261  0.00  0.00    -0.012 A 
ATOM      4  C3A BZF d   1      -3.767   2.784  -2.329  0.00  0.00    -0.107 A 
ATOM      5  C4  BZF d   1      -3.049   2.090  -1.398  0.00  0.00     0.055 A 
ATOM      6  C5  BZF d   1      -2.393   0.961  -1.777  0.00  0.00    -0.016 A 
ATOM      7  C6  BZF d   1      -2.439   0.496  -3.075  0.00  0.00     0.022 A 
ATOM      8  C7  BZF d   1      -3.134   1.154  -4.035  0.00  0.00     0.029 A 
ATOM      9  C7A BZF d   1      -3.770   2.313  -3.662  0.00  0.00     0.058 A 
ENDROOT
TORSDOF 0
ENDMDL
