MODEL 1
REMARK minimizedAffinity 13.3320065
REMARK minimizedRMSD -1
REMARK  0 active torsions:
REMARK  status: ('A' for Active; 'I' for Inactive)
ROOT
ATOM      1  O1  BZF d   1      -1.308   1.385  -4.137  0.00  0.00    -0.204 OA
ATOM      2  C2  BZF d   1      -1.155   0.445  -3.136  0.00  0.00     0.174 A 
ATOM      3  C3  BZF d   1      -1.931   0.746  -2.075  0.00  0.00    -0.012 A 
ATOM      4  C3A BZF d   1      -2.682   1.898  -2.472  0.00  0.00    -0.107 A 
ATOM      5  C4  BZF d   1      -3.634   2.657  -1.854  0.00  0.00     0.055 A 
ATOM      6  C5  BZF d   1      -4.115   3.758  -2.488  0.00  0.00    -0.016 A 
ATOM      7  C6  BZF d   1      -3.662   4.133  -3.736  0.00  0.00     0.022 A 
ATOM      8  C7  BZF d   1      -2.722   3.409  -4.391  0.00  0.00     0.029 A 
ATOM      9  C7A BZF d   1      -2.258   2.277  -3.767  0.00  0.00     0.058 A 
ENDROOT
TORSDOF 0
ENDMDL
