MODEL 1
REMARK minimizedAffinity 4.16889954
REMARK minimizedRMSD -1
REMARK  0 active torsions:
REMARK  status: ('A' for Active; 'I' for Inactive)
ROOT
ATOM      1  O1  BZF d   1       3.351  -2.578  -5.003  0.00  0.00    -0.204 OA
ATOM      2  C2  BZF d   1       2.250  -3.041  -4.308  0.00  0.00     0.174 A 
ATOM      3  C3  BZF d   1       2.321  -4.376  -4.135  0.00  0.00    -0.012 A 
ATOM      4  C3A BZF d   1       3.587  -4.760  -4.681  0.00  0.00    -0.107 A 
ATOM      5  C4  BZF d   1       4.239  -5.955  -4.790  0.00  0.00     0.055 A 
ATOM      6  C5  BZF d   1       5.430  -6.000  -5.442  0.00  0.00    -0.016 A 
ATOM      7  C6  BZF d   1       5.996  -4.872  -6.000  0.00  0.00     0.022 A 
ATOM      8  C7  BZF d   1       5.389  -3.663  -5.912  0.00  0.00     0.029 A 
ATOM      9  C7A BZF d   1       4.201  -3.608  -5.225  0.00  0.00     0.058 A 
ENDROOT
TORSDOF 0
ENDMDL
