MODEL 1
REMARK minimizedAffinity 22.155962
REMARK minimizedRMSD -1
REMARK  0 active torsions:
REMARK  status: ('A' for Active; 'I' for Inactive)
ROOT
ATOM      1  C   UNL d   1       3.387   1.348   1.103  0.00  0.00    -0.002 A 
ATOM      2  C1  UNL d   1       3.754   1.581  -0.215  0.00  0.00     0.010 A 
ATOM      3  C2  UNL d   1       3.175   2.626  -0.939  0.00  0.00     0.041 A 
ATOM      4  C3  UNL d   1       2.214   3.441  -0.309  0.00  0.00    -0.075 A 
ATOM      5  S   UNL d   1       1.373   4.779  -0.998  0.00  0.00     0.015 SA
ATOM      6  C4  UNL d   1       0.509   5.073   0.441  0.00  0.00     0.022 A 
ATOM      7  C5  UNL d   1       0.841   4.181   1.433  0.00  0.00     0.026 A 
ATOM      8  C6  UNL d   1       1.830   3.226   1.018  0.00  0.00    -0.082 A 
ATOM      9  C7  UNL d   1       2.434   2.158   1.724  0.00  0.00     0.045 A 
ENDROOT
TORSDOF 0
ENDMDL
