MODEL 1
REMARK minimizedAffinity 19.1882019
REMARK minimizedRMSD -1
REMARK  0 active torsions:
REMARK  status: ('A' for Active; 'I' for Inactive)
ROOT
ATOM      1  C   UNL d   1      -1.717  -4.965  -2.468  0.00  0.00    -0.002 A 
ATOM      2  C1  UNL d   1      -0.753  -4.113  -2.987  0.00  0.00     0.010 A 
ATOM      3  C2  UNL d   1      -1.041  -3.298  -4.083  0.00  0.00     0.041 A 
ATOM      4  C3  UNL d   1      -2.328  -3.351  -4.652  0.00  0.00    -0.075 A 
ATOM      5  S   UNL d   1      -2.908  -2.443  -5.998  0.00  0.00     0.015 SA
ATOM      6  C4  UNL d   1      -4.450  -3.163  -5.915  0.00  0.00     0.022 A 
ATOM      7  C5  UNL d   1      -4.538  -4.077  -4.892  0.00  0.00     0.026 A 
ATOM      8  C6  UNL d   1      -3.317  -4.200  -4.147  0.00  0.00    -0.082 A 
ATOM      9  C7  UNL d   1      -2.993  -5.016  -3.036  0.00  0.00     0.045 A 
ENDROOT
TORSDOF 0
ENDMDL
