MODEL 1
REMARK minimizedAffinity 12.0702143
REMARK minimizedRMSD -1
REMARK  0 active torsions:
REMARK  status: ('A' for Active; 'I' for Inactive)
ROOT
ATOM      1  C   UNL d   1       1.108  -1.306  -2.620  0.00  0.00    -0.002 A 
ATOM      2  C1  UNL d   1       0.715  -2.352  -3.442  0.00  0.00     0.010 A 
ATOM      3  C2  UNL d   1       1.134  -3.658  -3.180  0.00  0.00     0.041 A 
ATOM      4  C3  UNL d   1       1.961  -3.897  -2.065  0.00  0.00    -0.075 A 
ATOM      5  S   UNL d   1       2.596  -5.414  -1.548  0.00  0.00     0.015 SA
ATOM      6  C4  UNL d   1       3.404  -4.709  -0.223  0.00  0.00     0.022 A 
ATOM      7  C5  UNL d   1       3.205  -3.350  -0.161  0.00  0.00     0.026 A 
ATOM      8  C6  UNL d   1       2.370  -2.860  -1.222  0.00  0.00    -0.082 A 
ATOM      9  C7  UNL d   1       1.929  -1.547  -1.515  0.00  0.00     0.045 A 
ENDROOT
TORSDOF 0
ENDMDL
