MODEL 1
REMARK minimizedAffinity 16.8475857
REMARK minimizedRMSD -1
REMARK  0 active torsions:
REMARK  status: ('A' for Active; 'I' for Inactive)
ROOT
ATOM      1  C   UNL d   1       1.711   0.906  -3.180  0.00  0.00    -0.002 A 
ATOM      2  C1  UNL d   1       2.421   1.950  -2.604  0.00  0.00     0.010 A 
ATOM      3  C2  UNL d   1       3.169   1.744  -1.443  0.00  0.00     0.041 A 
ATOM      4  C3  UNL d   1       3.194   0.459  -0.867  0.00  0.00    -0.075 A 
ATOM      5  S   UNL d   1       4.042  -0.028   0.553  0.00  0.00     0.015 SA
ATOM      6  C4  UNL d   1       3.482  -1.633   0.427  0.00  0.00     0.022 A 
ATOM      7  C5  UNL d   1       2.667  -1.811  -0.665  0.00  0.00     0.026 A 
ATOM      8  C6  UNL d   1       2.488  -0.609  -1.430  0.00  0.00    -0.082 A 
ATOM      9  C7  UNL d   1       1.738  -0.368  -2.606  0.00  0.00     0.045 A 
ENDROOT
TORSDOF 0
ENDMDL
