MODEL 1
REMARK minimizedAffinity 3.95628452
REMARK minimizedRMSD -1
REMARK  0 active torsions:
REMARK  status: ('A' for Active; 'I' for Inactive)
ROOT
ATOM      1  C   UNL d   1       2.510   0.861  -0.953  0.00  0.00    -0.002 A 
ATOM      2  C1  UNL d   1       1.799   0.586  -2.113  0.00  0.00     0.010 A 
ATOM      3  C2  UNL d   1       1.699  -0.723  -2.590  0.00  0.00     0.041 A 
ATOM      4  C3  UNL d   1       2.330  -1.759  -1.874  0.00  0.00    -0.075 A 
ATOM      5  S   UNL d   1       2.341  -3.438  -2.269  0.00  0.00     0.015 SA
ATOM      6  C4  UNL d   1       3.289  -3.828  -0.908  0.00  0.00     0.022 A 
ATOM      7  C5  UNL d   1       3.598  -2.717  -0.159  0.00  0.00     0.026 A 
ATOM      8  C6  UNL d   1       3.050  -1.507  -0.704  0.00  0.00    -0.082 A 
ATOM      9  C7  UNL d   1       3.134  -0.170  -0.246  0.00  0.00     0.045 A 
ENDROOT
TORSDOF 0
ENDMDL
