MODEL 1
REMARK minimizedAffinity 16.3791771
REMARK minimizedRMSD -1
REMARK  0 active torsions:
REMARK  status: ('A' for Active; 'I' for Inactive)
ROOT
ATOM      1  C   UNL d   1       2.426   0.793  -0.929  0.00  0.00    -0.002 A 
ATOM      2  C1  UNL d   1       1.866   0.373  -2.128  0.00  0.00     0.010 A 
ATOM      3  C2  UNL d   1       1.815  -0.984  -2.451  0.00  0.00     0.041 A 
ATOM      4  C3  UNL d   1       2.340  -1.922  -1.541  0.00  0.00    -0.075 A 
ATOM      5  S   UNL d   1       2.386  -3.636  -1.724  0.00  0.00     0.015 SA
ATOM      6  C4  UNL d   1       3.149  -3.851  -0.215  0.00  0.00     0.022 A 
ATOM      7  C5  UNL d   1       3.371  -2.656   0.426  0.00  0.00     0.026 A 
ATOM      8  C6  UNL d   1       2.908  -1.524  -0.327  0.00  0.00    -0.082 A 
ATOM      9  C7  UNL d   1       2.946  -0.141  -0.028  0.00  0.00     0.045 A 
ENDROOT
TORSDOF 0
ENDMDL
