MODEL 1
REMARK minimizedAffinity 22.0909081
REMARK minimizedRMSD -1
REMARK  0 active torsions:
REMARK  status: ('A' for Active; 'I' for Inactive)
ROOT
ATOM      1  C   UNL d   1       0.760   2.183   2.105  0.00  0.00    -0.002 A 
ATOM      2  C1  UNL d   1       1.004   0.826   1.948  0.00  0.00     0.010 A 
ATOM      3  C2  UNL d   1      -0.033  -0.101   2.071  0.00  0.00     0.041 A 
ATOM      4  C3  UNL d   1      -1.332   0.363   2.355  0.00  0.00    -0.075 A 
ATOM      5  S   UNL d   1      -2.757  -0.588   2.549  0.00  0.00     0.015 SA
ATOM      6  C4  UNL d   1      -3.724   0.784   2.843  0.00  0.00     0.022 A 
ATOM      7  C5  UNL d   1      -2.994   1.948   2.798  0.00  0.00     0.026 A 
ATOM      8  C6  UNL d   1      -1.603   1.725   2.516  0.00  0.00    -0.082 A 
ATOM      9  C7  UNL d   1      -0.531   2.640   2.386  0.00  0.00     0.045 A 
ENDROOT
TORSDOF 0
ENDMDL
