MODEL 1
REMARK minimizedAffinity 22.7410717
REMARK minimizedRMSD -1
REMARK  0 active torsions:
REMARK  status: ('A' for Active; 'I' for Inactive)
ROOT
ATOM      1  C   UNL d   1       2.510   1.587  -0.135  0.00  0.00    -0.002 A 
ATOM      2  C1  UNL d   1       2.576   1.878  -1.491  0.00  0.00     0.010 A 
ATOM      3  C2  UNL d   1       2.162   3.121  -1.972  0.00  0.00     0.041 A 
ATOM      4  C3  UNL d   1       1.678   4.078  -1.058  0.00  0.00    -0.075 A 
ATOM      5  S   UNL d   1       1.117   5.668  -1.419  0.00  0.00     0.015 SA
ATOM      6  C4  UNL d   1       0.777   6.000   0.218  0.00  0.00     0.022 A 
ATOM      7  C5  UNL d   1       1.078   4.935   1.034  0.00  0.00     0.026 A 
ATOM      8  C6  UNL d   1       1.603   3.810   0.311  0.00  0.00    -0.082 A 
ATOM      9  C7  UNL d   1       2.029   2.539   0.768  0.00  0.00     0.045 A 
ENDROOT
TORSDOF 0
ENDMDL
