MODEL 1
REMARK minimizedAffinity 18.1023712
REMARK minimizedRMSD -1
REMARK  0 active torsions:
REMARK  status: ('A' for Active; 'I' for Inactive)
ROOT
ATOM      1  C   UNL d   1       1.543  -1.076  -1.828  0.00  0.00    -0.002 A 
ATOM      2  C1  UNL d   1       1.009  -1.925  -2.786  0.00  0.00     0.010 A 
ATOM      3  C2  UNL d   1       1.251  -3.299  -2.732  0.00  0.00     0.041 A 
ATOM      4  C3  UNL d   1       2.046  -3.810  -1.687  0.00  0.00    -0.075 A 
ATOM      5  S   UNL d   1       2.476  -5.458  -1.419  0.00  0.00     0.015 SA
ATOM      6  C4  UNL d   1       3.378  -5.074  -0.025  0.00  0.00     0.022 A 
ATOM      7  C5  UNL d   1       3.363  -3.726   0.243  0.00  0.00     0.026 A 
ATOM      8  C6  UNL d   1       2.594  -2.975  -0.710  0.00  0.00    -0.082 A 
ATOM      9  C7  UNL d   1       2.331  -1.587  -0.793  0.00  0.00     0.045 A 
ENDROOT
TORSDOF 0
ENDMDL
