MODEL 1
REMARK minimizedAffinity 7.93176937
REMARK minimizedRMSD -1
REMARK  0 active torsions:
REMARK  status: ('A' for Active; 'I' for Inactive)
ROOT
ATOM      1  C   UNL d   1       1.881  -1.766  -1.204  0.00  0.00    -0.002 A 
ATOM      2  C1  UNL d   1       2.933  -2.316  -0.486  0.00  0.00     0.010 A 
ATOM      3  C2  UNL d   1       3.352  -3.625  -0.732  0.00  0.00     0.041 A 
ATOM      4  C3  UNL d   1       2.692  -4.378  -1.723  0.00  0.00    -0.075 A 
ATOM      5  S   UNL d   1       3.035  -6.000  -2.197  0.00  0.00     0.015 SA
ATOM      6  C4  UNL d   1       1.793  -5.999  -3.365  0.00  0.00     0.022 A 
ATOM      7  C5  UNL d   1       1.124  -4.799  -3.405  0.00  0.00     0.026 A 
ATOM      8  C6  UNL d   1       1.631  -3.845  -2.460  0.00  0.00    -0.082 A 
ATOM      9  C7  UNL d   1       1.229  -2.515  -2.187  0.00  0.00     0.045 A 
ENDROOT
TORSDOF 0
ENDMDL
