MODEL 1
REMARK minimizedAffinity 7.94663477
REMARK minimizedRMSD -1
REMARK  0 active torsions:
REMARK  status: ('A' for Active; 'I' for Inactive)
ROOT
ATOM      1  C   UNL d   1      -3.063  -5.927  -5.940  0.00  0.00    -0.002 A 
ATOM      2  C1  UNL d   1      -2.040  -4.989  -5.894  0.00  0.00     0.010 A 
ATOM      3  C2  UNL d   1      -2.329  -3.623  -5.886  0.00  0.00     0.041 A 
ATOM      4  C3  UNL d   1      -3.676  -3.211  -5.922  0.00  0.00    -0.075 A 
ATOM      5  S   UNL d   1      -4.268  -1.592  -5.918  0.00  0.00     0.015 SA
ATOM      6  C4  UNL d   1      -5.891  -2.106  -5.976  0.00  0.00     0.022 A 
ATOM      7  C5  UNL d   1      -5.998  -3.476  -5.999  0.00  0.00     0.026 A 
ATOM      8  C6  UNL d   1      -4.723  -4.136  -5.967  0.00  0.00    -0.082 A 
ATOM      9  C7  UNL d   1      -4.397  -5.514  -5.976  0.00  0.00     0.045 A 
ENDROOT
TORSDOF 0
ENDMDL
