MODEL 1
REMARK minimizedAffinity 24.0118847
REMARK minimizedRMSD -1
REMARK  0 active torsions:
REMARK  status: ('A' for Active; 'I' for Inactive)
ROOT
ATOM      1  C   UNL d   1      -6.000  -2.371   1.900  0.00  0.00    -0.002 A 
ATOM      2  C1  UNL d   1      -6.000  -2.304   3.286  0.00  0.00     0.010 A 
ATOM      3  C2  UNL d   1      -5.104  -1.469   3.957  0.00  0.00     0.041 A 
ATOM      4  C3  UNL d   1      -4.201  -0.694   3.204  0.00  0.00    -0.075 A 
ATOM      5  S   UNL d   1      -3.014   0.400   3.809  0.00  0.00     0.015 SA
ATOM      6  C4  UNL d   1      -2.479   0.805   2.242  0.00  0.00     0.022 A 
ATOM      7  C5  UNL d   1      -3.178   0.131   1.269  0.00  0.00     0.026 A 
ATOM      8  C6  UNL d   1      -4.182  -0.744   1.807  0.00  0.00    -0.082 A 
ATOM      9  C7  UNL d   1      -5.102  -1.601   1.156  0.00  0.00     0.045 A 
ENDROOT
TORSDOF 0
ENDMDL
