MODEL 1
REMARK minimizedAffinity 12.2192726
REMARK minimizedRMSD -1
REMARK  0 active torsions:
REMARK  status: ('A' for Active; 'I' for Inactive)
ROOT
ATOM      1  C   UNL d   1       1.229  -0.273  -0.983  0.00  0.00    -0.002 A 
ATOM      2  C1  UNL d   1       1.593  -0.170   0.352  0.00  0.00     0.010 A 
ATOM      3  C2  UNL d   1       0.622  -0.015   1.343  0.00  0.00     0.041 A 
ATOM      4  C3  UNL d   1      -0.735   0.034   0.966  0.00  0.00    -0.075 A 
ATOM      5  S   UNL d   1      -2.097   0.217   2.006  0.00  0.00     0.015 SA
ATOM      6  C4  UNL d   1      -3.194   0.162   0.703  0.00  0.00     0.022 A 
ATOM      7  C5  UNL d   1      -2.554   0.008  -0.504  0.00  0.00     0.026 A 
ATOM      8  C6  UNL d   1      -1.126  -0.069  -0.372  0.00  0.00    -0.082 A 
ATOM      9  C7  UNL d   1      -0.117  -0.225  -1.353  0.00  0.00     0.045 A 
ENDROOT
TORSDOF 0
ENDMDL
