MODEL 1
REMARK minimizedAffinity 8.61096096
REMARK minimizedRMSD -1
REMARK  0 active torsions:
REMARK  status: ('A' for Active; 'I' for Inactive)
ROOT
ATOM      1  C   UNL d   1      -0.195  -1.016   4.571  0.00  0.00    -0.002 A 
ATOM      2  C1  UNL d   1       0.986  -1.087   3.846  0.00  0.00     0.010 A 
ATOM      3  C2  UNL d   1       1.005  -0.770   2.486  0.00  0.00     0.041 A 
ATOM      4  C3  UNL d   1      -0.194  -0.373   1.862  0.00  0.00    -0.075 A 
ATOM      5  S   UNL d   1      -0.409   0.064   0.208  0.00  0.00     0.015 SA
ATOM      6  C4  UNL d   1      -2.074   0.357   0.425  0.00  0.00     0.022 A 
ATOM      7  C5  UNL d   1      -2.473   0.132   1.722  0.00  0.00     0.026 A 
ATOM      8  C6  UNL d   1      -1.395  -0.292   2.571  0.00  0.00    -0.082 A 
ATOM      9  C7  UNL d   1      -1.382  -0.622   3.948  0.00  0.00     0.045 A 
ENDROOT
TORSDOF 0
ENDMDL
