MODEL 1
REMARK minimizedAffinity 9.45662022
REMARK minimizedRMSD -1
REMARK  0 active torsions:
REMARK  status: ('A' for Active; 'I' for Inactive)
ROOT
ATOM      1  C   UNL d   1      -2.088  -0.702  -0.106  0.00  0.00    -0.002 A 
ATOM      2  C1  UNL d   1      -2.297   0.327   0.802  0.00  0.00     0.010 A 
ATOM      3  C2  UNL d   1      -1.243   1.157   1.189  0.00  0.00     0.041 A 
ATOM      4  C3  UNL d   1       0.036   0.935   0.642  0.00  0.00    -0.075 A 
ATOM      5  S   UNL d   1       1.475   1.827   0.969  0.00  0.00     0.015 SA
ATOM      6  C4  UNL d   1       2.401   0.864  -0.090  0.00  0.00     0.022 A 
ATOM      7  C5  UNL d   1       1.646  -0.119  -0.686  0.00  0.00     0.026 A 
ATOM      8  C6  UNL d   1       0.271  -0.093  -0.275  0.00  0.00    -0.082 A 
ATOM      9  C7  UNL d   1      -0.818  -0.919  -0.646  0.00  0.00     0.045 A 
ENDROOT
TORSDOF 0
ENDMDL
