MODEL 1
REMARK minimizedAffinity 12.5744085
REMARK minimizedRMSD -1
REMARK  0 active torsions:
REMARK  status: ('A' for Active; 'I' for Inactive)
ROOT
ATOM      1  C   UNL d   1      -3.360  -0.217   2.607  0.00  0.00    -0.002 A 
ATOM      2  C1  UNL d   1      -2.840   0.467   1.518  0.00  0.00     0.010 A 
ATOM      3  C2  UNL d   1      -1.469   0.448   1.256  0.00  0.00     0.041 A 
ATOM      4  C3  UNL d   1      -0.621  -0.280   2.114  0.00  0.00    -0.075 A 
ATOM      5  S   UNL d   1       1.090  -0.447   1.988  0.00  0.00     0.015 SA
ATOM      6  C4  UNL d   1       1.171  -1.432   3.377  0.00  0.00     0.022 A 
ATOM      7  C5  UNL d   1      -0.068  -1.638   3.936  0.00  0.00     0.026 A 
ATOM      8  C6  UNL d   1      -1.121  -0.978   3.217  0.00  0.00    -0.082 A 
ATOM      9  C7  UNL d   1      -2.516  -0.938   3.456  0.00  0.00     0.045 A 
ENDROOT
TORSDOF 0
ENDMDL
