MODEL 1
REMARK minimizedAffinity 9.05994415
REMARK minimizedRMSD -1
REMARK  0 active torsions:
REMARK  status: ('A' for Active; 'I' for Inactive)
ROOT
ATOM      1  C   UNL d   1       3.329   1.623  -0.510  0.00  0.00    -0.002 A 
ATOM      2  C1  UNL d   1       3.276   1.909   0.846  0.00  0.00     0.010 A 
ATOM      3  C2  UNL d   1       2.201   1.472   1.623  0.00  0.00     0.041 A 
ATOM      4  C3  UNL d   1       1.171   0.734   1.008  0.00  0.00    -0.075 A 
ATOM      5  S   UNL d   1      -0.242   0.095   1.761  0.00  0.00     0.015 SA
ATOM      6  C4  UNL d   1      -0.809  -0.574   0.299  0.00  0.00     0.022 A 
ATOM      7  C5  UNL d   1       0.047  -0.325  -0.748  0.00  0.00     0.026 A 
ATOM      8  C6  UNL d   1       1.202   0.432  -0.356  0.00  0.00    -0.082 A 
ATOM      9  C7  UNL d   1       2.305   0.890  -1.117  0.00  0.00     0.045 A 
ENDROOT
TORSDOF 0
ENDMDL
