MODEL 1
REMARK minimizedAffinity 1.45229626
REMARK minimizedRMSD -1
REMARK  0 active torsions:
REMARK  status: ('A' for Active; 'I' for Inactive)
ROOT
ATOM      1  C   UNL d   1      -1.823  -1.481   4.505  0.00  0.00    -0.002 A 
ATOM      2  C1  UNL d   1      -2.971  -1.369   3.734  0.00  0.00     0.010 A 
ATOM      3  C2  UNL d   1      -2.896  -0.943   2.407  0.00  0.00     0.041 A 
ATOM      4  C3  UNL d   1      -1.636  -0.631   1.861  0.00  0.00    -0.075 A 
ATOM      5  S   UNL d   1      -1.302  -0.090   0.258  0.00  0.00     0.015 SA
ATOM      6  C4  UNL d   1       0.373   0.004   0.559  0.00  0.00     0.022 A 
ATOM      7  C5  UNL d   1       0.687  -0.364   1.846  0.00  0.00     0.026 A 
ATOM      8  C6  UNL d   1      -0.465  -0.736   2.617  0.00  0.00    -0.082 A 
ATOM      9  C7  UNL d   1      -0.574  -1.170   3.961  0.00  0.00     0.045 A 
ENDROOT
TORSDOF 0
ENDMDL
