MODEL 1
REMARK minimizedAffinity 5.13758612
REMARK minimizedRMSD -1
REMARK  0 active torsions:
REMARK  status: ('A' for Active; 'I' for Inactive)
ROOT
ATOM      1  C   UNL d   1       3.068   4.783   1.539  0.00  0.00    -0.002 A 
ATOM      2  C1  UNL d   1       3.575   5.983   2.017  0.00  0.00     0.010 A 
ATOM      3  C2  UNL d   1       4.462   6.000   3.095  0.00  0.00     0.041 A 
ATOM      4  C3  UNL d   1       4.836   4.779   3.689  0.00  0.00    -0.075 A 
ATOM      5  S   UNL d   1       5.909   4.556   5.020  0.00  0.00     0.015 SA
ATOM      6  C4  UNL d   1       5.720   2.862   4.985  0.00  0.00     0.022 A 
ATOM      7  C5  UNL d   1       4.863   2.459   3.989  0.00  0.00     0.026 A 
ATOM      8  C6  UNL d   1       4.339   3.557   3.225  0.00  0.00    -0.082 A 
ATOM      9  C7  UNL d   1       3.441   3.573   2.131  0.00  0.00     0.045 A 
ENDROOT
TORSDOF 0
ENDMDL
