MODEL 1
REMARK minimizedAffinity -2.18389297
REMARK minimizedRMSD -1
REMARK  0 active torsions:
REMARK  status: ('A' for Active; 'I' for Inactive)
ROOT
ATOM      1  C   UNL d   1      -1.357  -0.279   0.678  0.00  0.00     0.124 A 
ATOM      2  C1  UNL d   1      -2.115  -0.592  -0.442  0.00  0.00     0.062 A 
ATOM      3  C2  UNL d   1      -1.528  -0.604  -1.703  0.00  0.00     0.162 A 
ATOM      4  C3  UNL d   1      -0.174  -0.303  -1.852  0.00  0.00    -0.034 A 
ATOM      5  C4  UNL d   1       0.582   0.012  -0.722  0.00  0.00     0.162 A 
ATOM      6  C5  UNL d   1      -0.010   0.022   0.537  0.00  0.00     0.062 A 
ATOM      7  F   UNL d   1       0.724   0.325   1.618  0.00  0.00    -0.097 F 
ATOM      8  F1  UNL d   1       1.886   0.306  -0.829  0.00  0.00    -0.096 F 
ATOM      9  I   UNL d   1       0.708  -0.320  -3.737  0.00  0.00    -0.060 I 
ATOM     10  F2  UNL d   1      -2.284  -0.910  -2.768  0.00  0.00    -0.096 F 
ATOM     11  F3  UNL d   1      -3.417  -0.883  -0.308  0.00  0.00    -0.097 F 
ATOM     12  F4  UNL d   1      -1.925  -0.267   1.891  0.00  0.00    -0.092 F 
ENDROOT
TORSDOF 0
ENDMDL
