MODEL 1
REMARK minimizedAffinity -1.86311376
REMARK minimizedRMSD -1
REMARK  0 active torsions:
REMARK  status: ('A' for Active; 'I' for Inactive)
ROOT
ATOM      1  C   UNL d   1       3.568   3.309   0.114  0.00  0.00     0.124 A 
ATOM      2  C1  UNL d   1       2.848   3.326   1.300  0.00  0.00     0.062 A 
ATOM      3  C2  UNL d   1       2.138   2.199   1.704  0.00  0.00     0.162 A 
ATOM      4  C3  UNL d   1       2.146   1.044   0.921  0.00  0.00    -0.034 A 
ATOM      5  C4  UNL d   1       2.873   1.035  -0.271  0.00  0.00     0.162 A 
ATOM      6  C5  UNL d   1       3.580   2.165  -0.670  0.00  0.00     0.062 A 
ATOM      7  F   UNL d   1       4.275   2.147  -1.817  0.00  0.00    -0.097 F 
ATOM      8  F1  UNL d   1       2.902  -0.058  -1.048  0.00  0.00    -0.096 F 
ATOM      9  I   UNL d   1       1.087  -0.644   1.522  0.00  0.00    -0.060 I 
ATOM     10  F2  UNL d   1       1.451   2.243   2.855  0.00  0.00    -0.096 F 
ATOM     11  F3  UNL d   1       2.834   4.431   2.059  0.00  0.00    -0.097 F 
ATOM     12  F4  UNL d   1       4.249   4.396  -0.273  0.00  0.00    -0.092 F 
ENDROOT
TORSDOF 0
ENDMDL
