MODEL 1
REMARK minimizedAffinity -0.192919761
REMARK minimizedRMSD -1
REMARK  0 active torsions:
REMARK  status: ('A' for Active; 'I' for Inactive)
ROOT
ATOM      1  C   UNL d   1       3.061   3.004  -0.133  0.00  0.00     0.124 A 
ATOM      2  C1  UNL d   1       2.784   1.937  -0.977  0.00  0.00     0.062 A 
ATOM      3  C2  UNL d   1       2.153   0.799  -0.483  0.00  0.00     0.162 A 
ATOM      4  C3  UNL d   1       1.793   0.723   0.863  0.00  0.00    -0.034 A 
ATOM      5  C4  UNL d   1       2.075   1.799   1.705  0.00  0.00     0.162 A 
ATOM      6  C5  UNL d   1       2.706   2.934   1.206  0.00  0.00     0.062 A 
ATOM      7  F   UNL d   1       2.973   3.964   2.023  0.00  0.00    -0.097 F 
ATOM      8  F1  UNL d   1       1.743   1.759   3.004  0.00  0.00    -0.096 F 
ATOM      9  I   UNL d   1       0.850  -0.977   1.606  0.00  0.00    -0.060 I 
ATOM     10  F2  UNL d   1       1.898  -0.217  -1.321  0.00  0.00    -0.096 F 
ATOM     11  F3  UNL d   1       3.127   2.002  -2.272  0.00  0.00    -0.097 F 
ATOM     12  F4  UNL d   1       3.669   4.097  -0.611  0.00  0.00    -0.092 F 
ENDROOT
TORSDOF 0
ENDMDL
