MODEL 1
REMARK minimizedAffinity -2.56443071
REMARK minimizedRMSD -1
REMARK  0 active torsions:
REMARK  status: ('A' for Active; 'I' for Inactive)
ROOT
ATOM      1  C   UNL d   1       3.112   3.478   0.995  0.00  0.00     0.124 A 
ATOM      2  C1  UNL d   1       3.614   3.488  -0.299  0.00  0.00     0.062 A 
ATOM      3  C2  UNL d   1       3.493   2.360  -1.106  0.00  0.00     0.162 A 
ATOM      4  C3  UNL d   1       2.866   1.213  -0.621  0.00  0.00    -0.034 A 
ATOM      5  C4  UNL d   1       2.364   1.210   0.682  0.00  0.00     0.162 A 
ATOM      6  C5  UNL d   1       2.488   2.340   1.484  0.00  0.00     0.062 A 
ATOM      7  F   UNL d   1       2.002   2.328   2.734  0.00  0.00    -0.097 F 
ATOM      8  F1  UNL d   1       1.756   0.123   1.180  0.00  0.00    -0.096 F 
ATOM      9  I   UNL d   1       2.683  -0.476  -1.824  0.00  0.00    -0.060 I 
ATOM     10  F2  UNL d   1       3.987   2.398  -2.352  0.00  0.00    -0.096 F 
ATOM     11  F3  UNL d   1       4.218   4.587  -0.774  0.00  0.00    -0.097 F 
ATOM     12  F4  UNL d   1       3.231   4.565   1.769  0.00  0.00    -0.092 F 
ENDROOT
TORSDOF 0
ENDMDL
