MODEL 1
REMARK minimizedAffinity -3.93054438
REMARK minimizedRMSD -1
REMARK  0 active torsions:
REMARK  status: ('A' for Active; 'I' for Inactive)
ROOT
ATOM      1  C   UNL d   1       3.106   2.774   1.319  0.00  0.00     0.124 A 
ATOM      2  C1  UNL d   1       3.531   3.011   0.019  0.00  0.00     0.062 A 
ATOM      3  C2  UNL d   1       3.344   2.046  -0.966  0.00  0.00     0.162 A 
ATOM      4  C3  UNL d   1       2.728   0.834  -0.656  0.00  0.00    -0.034 A 
ATOM      5  C4  UNL d   1       2.303   0.602   0.654  0.00  0.00     0.162 A 
ATOM      6  C5  UNL d   1       2.493   1.570   1.635  0.00  0.00     0.062 A 
ATOM      7  F   UNL d   1       2.081   1.339   2.890  0.00  0.00    -0.097 F 
ATOM      8  F1  UNL d   1       1.707  -0.553   0.987  0.00  0.00    -0.096 F 
ATOM      9  I   UNL d   1       2.446  -0.612  -2.126  0.00  0.00    -0.060 I 
ATOM     10  F2  UNL d   1       3.765   2.302  -2.213  0.00  0.00    -0.096 F 
ATOM     11  F3  UNL d   1       4.125   4.173  -0.289  0.00  0.00    -0.097 F 
ATOM     12  F4  UNL d   1       3.288   3.704   2.265  0.00  0.00    -0.092 F 
ENDROOT
TORSDOF 0
ENDMDL
