MODEL 1
REMARK minimizedAffinity 2.01571584
REMARK minimizedRMSD -1
REMARK  0 active torsions:
REMARK  status: ('A' for Active; 'I' for Inactive)
ROOT
ATOM      1  C   UNL d   1       3.230   3.413  -0.363  0.00  0.00     0.124 A 
ATOM      2  C1  UNL d   1       2.815   3.349   0.960  0.00  0.00     0.062 A 
ATOM      3  C2  UNL d   1       2.162   2.215   1.435  0.00  0.00     0.162 A 
ATOM      4  C3  UNL d   1       1.920   1.135   0.586  0.00  0.00    -0.034 A 
ATOM      5  C4  UNL d   1       2.340   1.207  -0.744  0.00  0.00     0.162 A 
ATOM      6  C5  UNL d   1       2.992   2.343  -1.213  0.00  0.00     0.062 A 
ATOM      7  F   UNL d   1       3.393   2.403  -2.492  0.00  0.00    -0.097 F 
ATOM      8  F1  UNL d   1       2.124   0.187  -1.587  0.00  0.00    -0.096 F 
ATOM      9  I   UNL d   1       0.944  -0.562   1.292  0.00  0.00    -0.060 I 
ATOM     10  F2  UNL d   1       1.771   2.181   2.718  0.00  0.00    -0.096 F 
ATOM     11  F3  UNL d   1       3.042   4.383   1.783  0.00  0.00    -0.097 F 
ATOM     12  F4  UNL d   1       3.857   4.506  -0.817  0.00  0.00    -0.092 F 
ENDROOT
TORSDOF 0
ENDMDL
