MODEL 1
REMARK minimizedAffinity 3.61635351
REMARK minimizedRMSD -1
REMARK  0 active torsions:
REMARK  status: ('A' for Active; 'I' for Inactive)
ROOT
ATOM      1  C   UNL d   1       3.932   4.034   0.388  0.00  0.00     0.124 A 
ATOM      2  C1  UNL d   1       3.132   3.751   1.486  0.00  0.00     0.062 A 
ATOM      3  C2  UNL d   1       2.468   2.531   1.574  0.00  0.00     0.162 A 
ATOM      4  C3  UNL d   1       2.602   1.583   0.559  0.00  0.00    -0.034 A 
ATOM      5  C4  UNL d   1       3.407   1.875  -0.543  0.00  0.00     0.162 A 
ATOM      6  C5  UNL d   1       4.069   3.096  -0.626  0.00  0.00     0.062 A 
ATOM      7  F   UNL d   1       4.841   3.367  -1.688  0.00  0.00    -0.097 F 
ATOM      8  F1  UNL d   1       3.558   0.986  -1.536  0.00  0.00    -0.096 F 
ATOM      9  I   UNL d   1       1.611  -0.243   0.685  0.00  0.00    -0.060 I 
ATOM     10  F2  UNL d   1       1.702   2.285   2.647  0.00  0.00    -0.096 F 
ATOM     11  F3  UNL d   1       2.997   4.656   2.467  0.00  0.00    -0.097 F 
ATOM     12  F4  UNL d   1       4.568   5.209   0.306  0.00  0.00    -0.092 F 
ENDROOT
TORSDOF 0
ENDMDL
