MODEL 1
REMARK minimizedAffinity 2.77441621
REMARK minimizedRMSD -1
REMARK  0 active torsions:
REMARK  status: ('A' for Active; 'I' for Inactive)
ROOT
ATOM      1  C   UNL d   1       3.250   2.850   0.201  0.00  0.00     0.124 A 
ATOM      2  C1  UNL d   1       2.626   2.924   1.438  0.00  0.00     0.062 A 
ATOM      3  C2  UNL d   1       1.896   1.841   1.920  0.00  0.00     0.162 A 
ATOM      4  C3  UNL d   1       1.787   0.674   1.164  0.00  0.00    -0.034 A 
ATOM      5  C4  UNL d   1       2.416   0.608  -0.081  0.00  0.00     0.162 A 
ATOM      6  C5  UNL d   1       3.144   1.693  -0.558  0.00  0.00     0.062 A 
ATOM      7  F   UNL d   1       3.746   1.620  -1.754  0.00  0.00    -0.097 F 
ATOM      8  F1  UNL d   1       2.331  -0.499  -0.834  0.00  0.00    -0.096 F 
ATOM      9  I   UNL d   1       0.696  -0.947   1.880  0.00  0.00    -0.060 I 
ATOM     10  F2  UNL d   1       1.304   1.940   3.119  0.00  0.00    -0.096 F 
ATOM     11  F3  UNL d   1       2.726   4.042   2.172  0.00  0.00    -0.097 F 
ATOM     12  F4  UNL d   1       3.951   3.894  -0.261  0.00  0.00    -0.092 F 
ENDROOT
TORSDOF 0
ENDMDL
