MODEL 1
REMARK minimizedAffinity 3.79999018
REMARK minimizedRMSD -1
REMARK  0 active torsions:
REMARK  status: ('A' for Active; 'I' for Inactive)
ROOT
ATOM      1  C   UNL d   1      -1.285  -0.373  -0.088  0.00  0.00     0.124 A 
ATOM      2  C1  UNL d   1      -0.314  -0.099   0.866  0.00  0.00     0.062 A 
ATOM      3  C2  UNL d   1       1.021   0.018   0.493  0.00  0.00     0.162 A 
ATOM      4  C3  UNL d   1       1.395  -0.137  -0.842  0.00  0.00    -0.034 A 
ATOM      5  C4  UNL d   1       0.414  -0.413  -1.796  0.00  0.00     0.162 A 
ATOM      6  C5  UNL d   1      -0.920  -0.529  -1.418  0.00  0.00     0.062 A 
ATOM      7  F   UNL d   1      -1.856  -0.793  -2.341  0.00  0.00    -0.097 F 
ATOM      8  F1  UNL d   1       0.738  -0.568  -3.088  0.00  0.00    -0.096 F 
ATOM      9  I   UNL d   1       3.391   0.037  -1.405  0.00  0.00    -0.060 I 
ATOM     10  F2  UNL d   1       1.938   0.283   1.436  0.00  0.00    -0.096 F 
ATOM     11  F3  UNL d   1      -0.664   0.052   2.152  0.00  0.00    -0.097 F 
ATOM     12  F4  UNL d   1      -2.569  -0.486   0.274  0.00  0.00    -0.092 F 
ENDROOT
TORSDOF 0
ENDMDL
