MODEL 1
REMARK minimizedAffinity -3.02535272
REMARK minimizedRMSD -1
REMARK  0 active torsions:
REMARK  status: ('A' for Active; 'I' for Inactive)
ROOT
ATOM      1  C   UNL d   1       3.352   2.679  -0.482  0.00  0.00     0.124 A 
ATOM      2  C1  UNL d   1       3.027   2.716   0.867  0.00  0.00     0.062 A 
ATOM      3  C2  UNL d   1       2.223   1.725   1.422  0.00  0.00     0.162 A 
ATOM      4  C3  UNL d   1       1.739   0.686   0.628  0.00  0.00    -0.034 A 
ATOM      5  C4  UNL d   1       2.069   0.655  -0.728  0.00  0.00     0.162 A 
ATOM      6  C5  UNL d   1       2.873   1.648  -1.278  0.00  0.00     0.062 A 
ATOM      7  F   UNL d   1       3.185   1.610  -2.581  0.00  0.00    -0.097 F 
ATOM      8  F1  UNL d   1       1.620  -0.330  -1.521  0.00  0.00    -0.096 F 
ATOM      9  I   UNL d   1       0.537  -0.799   1.453  0.00  0.00    -0.060 I 
ATOM     10  F2  UNL d   1       1.926   1.787   2.728  0.00  0.00    -0.096 F 
ATOM     11  F3  UNL d   1       3.488   3.712   1.639  0.00  0.00    -0.097 F 
ATOM     12  F4  UNL d   1       4.125   3.635  -1.013  0.00  0.00    -0.092 F 
ENDROOT
TORSDOF 0
ENDMDL
