MODEL 1
REMARK minimizedAffinity 2.22991061
REMARK minimizedRMSD -1
REMARK  0 active torsions:
REMARK  status: ('A' for Active; 'I' for Inactive)
ROOT
ATOM      1  C   UNL d   1      -1.242  -0.987  -0.633  0.00  0.00     0.124 A 
ATOM      2  C1  UNL d   1      -0.998   0.163  -1.371  0.00  0.00     0.062 A 
ATOM      3  C2  UNL d   1       0.092   0.973  -1.066  0.00  0.00     0.162 A 
ATOM      4  C3  UNL d   1       0.949   0.634  -0.018  0.00  0.00    -0.034 A 
ATOM      5  C4  UNL d   1       0.697  -0.524   0.720  0.00  0.00     0.162 A 
ATOM      6  C5  UNL d   1      -0.394  -1.330   0.411  0.00  0.00     0.062 A 
ATOM      7  F   UNL d   1      -0.627  -2.441   1.125  0.00  0.00    -0.097 F 
ATOM      8  F1  UNL d   1       1.501  -0.879   1.733  0.00  0.00    -0.096 F 
ATOM      9  I   UNL d   1       2.580   1.842   0.441  0.00  0.00    -0.060 I 
ATOM     10  F2  UNL d   1       0.303   2.078  -1.795  0.00  0.00    -0.096 F 
ATOM     11  F3  UNL d   1      -1.816   0.496  -2.379  0.00  0.00    -0.097 F 
ATOM     12  F4  UNL d   1      -2.292  -1.764  -0.928  0.00  0.00    -0.092 F 
ENDROOT
TORSDOF 0
ENDMDL
