MODEL 1
REMARK minimizedAffinity -1.20903313
REMARK minimizedRMSD -1
REMARK  0 active torsions:
REMARK  status: ('A' for Active; 'I' for Inactive)
ROOT
ATOM      1  C   UNL d   1      -1.484  -0.626   0.352  0.00  0.00     0.124 A 
ATOM      2  C1  UNL d   1      -1.749  -1.063  -0.939  0.00  0.00     0.062 A 
ATOM      3  C2  UNL d   1      -0.752  -1.028  -1.909  0.00  0.00     0.162 A 
ATOM      4  C3  UNL d   1       0.521  -0.553  -1.592  0.00  0.00    -0.034 A 
ATOM      5  C4  UNL d   1       0.780  -0.114  -0.292  0.00  0.00     0.162 A 
ATOM      6  C5  UNL d   1      -0.220  -0.152   0.673  0.00  0.00     0.062 A 
ATOM      7  F   UNL d   1       0.038   0.271   1.920  0.00  0.00    -0.097 F 
ATOM      8  F1  UNL d   1       1.993   0.348   0.046  0.00  0.00    -0.096 F 
ATOM      9  I   UNL d   1       2.016  -0.498  -3.040  0.00  0.00    -0.060 I 
ATOM     10  F2  UNL d   1      -1.036  -1.457  -3.147  0.00  0.00    -0.096 F 
ATOM     11  F3  UNL d   1      -2.970  -1.521  -1.253  0.00  0.00    -0.097 F 
ATOM     12  F4  UNL d   1      -2.446  -0.661   1.283  0.00  0.00    -0.092 F 
ENDROOT
TORSDOF 0
ENDMDL
