MODEL 1
REMARK minimizedAffinity 3.55232143
REMARK minimizedRMSD -1
REMARK  0 active torsions:
REMARK  status: ('A' for Active; 'I' for Inactive)
ROOT
ATOM      1  C   UNL d   1       2.448   0.250  -1.241  0.00  0.00     0.124 A 
ATOM      2  C1  UNL d   1       2.172  -0.292  -2.488  0.00  0.00     0.062 A 
ATOM      3  C2  UNL d   1       0.893  -0.756  -2.782  0.00  0.00     0.162 A 
ATOM      4  C3  UNL d   1      -0.121  -0.679  -1.827  0.00  0.00    -0.034 A 
ATOM      5  C4  UNL d   1       0.165  -0.133  -0.574  0.00  0.00     0.162 A 
ATOM      6  C5  UNL d   1       1.445   0.329  -0.285  0.00  0.00     0.062 A 
ATOM      7  F   UNL d   1       1.710   0.853   0.921  0.00  0.00    -0.097 F 
ATOM      8  F1  UNL d   1      -0.786  -0.044   0.368  0.00  0.00    -0.096 F 
ATOM      9  I   UNL d   1      -2.034  -1.372  -2.262  0.00  0.00    -0.060 I 
ATOM     10  F2  UNL d   1       0.654  -1.276  -3.995  0.00  0.00    -0.096 F 
ATOM     11  F3  UNL d   1       3.139  -0.371  -3.413  0.00  0.00    -0.097 F 
ATOM     12  F4  UNL d   1       3.679   0.695  -0.960  0.00  0.00    -0.092 F 
ENDROOT
TORSDOF 0
ENDMDL
