MODEL 1
REMARK minimizedAffinity 1.71899021
REMARK minimizedRMSD -1
REMARK  0 active torsions:
REMARK  status: ('A' for Active; 'I' for Inactive)
ROOT
ATOM      1  C   UNL d   1       3.099   3.465   1.273  0.00  0.00     0.124 A 
ATOM      2  C1  UNL d   1       2.289   2.360   1.494  0.00  0.00     0.062 A 
ATOM      3  C2  UNL d   1       2.191   1.359   0.531  0.00  0.00     0.162 A 
ATOM      4  C3  UNL d   1       2.907   1.458  -0.662  0.00  0.00    -0.034 A 
ATOM      5  C4  UNL d   1       3.719   2.573  -0.878  0.00  0.00     0.162 A 
ATOM      6  C5  UNL d   1       3.814   3.570   0.087  0.00  0.00     0.062 A 
ATOM      7  F   UNL d   1       4.597   4.637  -0.128  0.00  0.00    -0.097 F 
ATOM      8  F1  UNL d   1       4.421   2.700  -2.014  0.00  0.00    -0.096 F 
ATOM      9  I   UNL d   1       2.764  -0.036  -2.103  0.00  0.00    -0.060 I 
ATOM     10  F2  UNL d   1       1.400   0.303   0.772  0.00  0.00    -0.096 F 
ATOM     11  F3  UNL d   1       1.597   2.256   2.638  0.00  0.00    -0.097 F 
ATOM     12  F4  UNL d   1       3.191   4.427   2.200  0.00  0.00    -0.092 F 
ENDROOT
TORSDOF 0
ENDMDL
