MODEL 1
REMARK minimizedAffinity 6.27211809
REMARK minimizedRMSD -1
REMARK  0 active torsions:
REMARK  status: ('A' for Active; 'I' for Inactive)
ROOT
ATOM      1  C   UNL d   1       1.342  -2.273   5.801  0.00  0.00    -0.002 A 
ATOM      2  C1  UNL d   1       1.982  -3.398   5.301  0.00  0.00     0.010 A 
ATOM      3  C2  UNL d   1       2.208  -3.537   3.931  0.00  0.00     0.041 A 
ATOM      4  C3  UNL d   1       1.778  -2.515   3.062  0.00  0.00    -0.075 A 
ATOM      5  S   UNL d   1       1.948  -2.467   1.347  0.00  0.00     0.015 SA
ATOM      6  C4  UNL d   1       1.176  -0.952   1.238  0.00  0.00     0.022 A 
ATOM      7  C5  UNL d   1       0.791  -0.479   2.470  0.00  0.00     0.026 A 
ATOM      8  C6  UNL d   1       1.132  -1.371   3.542  0.00  0.00    -0.082 A 
ATOM      9  C7  UNL d   1       0.916  -1.261   4.937  0.00  0.00     0.045 A 
ENDROOT
TORSDOF 0
ENDMDL
