MODEL 1
REMARK minimizedAffinity 5.34478712
REMARK minimizedRMSD -1
REMARK  0 active torsions:
REMARK  status: ('A' for Active; 'I' for Inactive)
ROOT
ATOM      1  C   UNL d   1      -4.873   0.721  -4.908  0.00  0.00    -0.002 A 
ATOM      2  C1  UNL d   1      -4.954   1.583  -5.992  0.00  0.00     0.010 A 
ATOM      3  C2  UNL d   1      -5.275   2.929  -5.806  0.00  0.00     0.041 A 
ATOM      4  C3  UNL d   1      -5.514   3.399  -4.499  0.00  0.00    -0.075 A 
ATOM      5  S   UNL d   1      -5.921   5.008  -4.031  0.00  0.00     0.015 SA
ATOM      6  C4  UNL d   1      -5.997   4.588  -2.381  0.00  0.00     0.022 A 
ATOM      7  C5  UNL d   1      -5.721   3.257  -2.174  0.00  0.00     0.026 A 
ATOM      8  C6  UNL d   1      -5.437   2.550  -3.392  0.00  0.00    -0.082 A 
ATOM      9  C7  UNL d   1      -5.111   1.190  -3.613  0.00  0.00     0.045 A 
ENDROOT
TORSDOF 0
ENDMDL
