MODEL 1
REMARK minimizedAffinity 19.6146946
REMARK minimizedRMSD -1
REMARK  0 active torsions:
REMARK  status: ('A' for Active; 'I' for Inactive)
ROOT
ATOM      1  C   UNL d   1      -0.705   3.287   0.208  0.00  0.00    -0.002 A 
ATOM      2  C1  UNL d   1      -1.823   2.510  -0.061  0.00  0.00     0.010 A 
ATOM      3  C2  UNL d   1      -1.905   1.197   0.407  0.00  0.00     0.041 A 
ATOM      4  C3  UNL d   1      -0.834   0.674   1.158  0.00  0.00    -0.075 A 
ATOM      5  S   UNL d   1      -0.714  -0.908   1.835  0.00  0.00     0.015 SA
ATOM      6  C4  UNL d   1       0.823  -0.589   2.497  0.00  0.00     0.022 A 
ATOM      7  C5  UNL d   1       1.250   0.688   2.218  0.00  0.00     0.026 A 
ATOM      8  C6  UNL d   1       0.302   1.437   1.442  0.00  0.00    -0.082 A 
ATOM      9  C7  UNL d   1       0.355   2.764   0.953  0.00  0.00     0.045 A 
ENDROOT
TORSDOF 0
ENDMDL
