MODEL 1
REMARK minimizedAffinity 6.8166647
REMARK minimizedRMSD -1
REMARK  0 active torsions:
REMARK  status: ('A' for Active; 'I' for Inactive)
ROOT
ATOM      1  C   UNL d   1       1.004  -0.263   2.023  0.00  0.00    -0.002 A 
ATOM      2  C1  UNL d   1       0.734  -0.184   3.382  0.00  0.00     0.010 A 
ATOM      3  C2  UNL d   1       0.968  -1.278   4.217  0.00  0.00     0.041 A 
ATOM      4  C3  UNL d   1       1.486  -2.463   3.659  0.00  0.00    -0.075 A 
ATOM      5  S   UNL d   1       1.853  -3.929   4.489  0.00  0.00     0.015 SA
ATOM      6  C4  UNL d   1       2.378  -4.694   3.059  0.00  0.00     0.022 A 
ATOM      7  C5  UNL d   1       2.282  -3.866   1.966  0.00  0.00     0.026 A 
ATOM      8  C6  UNL d   1       1.767  -2.567   2.293  0.00  0.00    -0.082 A 
ATOM      9  C7  UNL d   1       1.517  -1.440   1.473  0.00  0.00     0.045 A 
ENDROOT
TORSDOF 0
ENDMDL
