MODEL 1
REMARK minimizedAffinity 14.8429804
REMARK minimizedRMSD -1
REMARK  0 active torsions:
REMARK  status: ('A' for Active; 'I' for Inactive)
ROOT
ATOM      1  C   UNL d   1      -2.781  -0.755  -0.089  0.00  0.00    -0.002 A 
ATOM      2  C1  UNL d   1      -2.351  -2.048  -0.350  0.00  0.00     0.010 A 
ATOM      3  C2  UNL d   1      -1.122  -2.499   0.135  0.00  0.00     0.041 A 
ATOM      4  C3  UNL d   1      -0.325  -1.621   0.896  0.00  0.00    -0.075 A 
ATOM      5  S   UNL d   1       1.216  -1.955   1.593  0.00  0.00     0.015 SA
ATOM      6  C4  UNL d   1       1.339  -0.389   2.254  0.00  0.00     0.022 A 
ATOM      7  C5  UNL d   1       0.240   0.384   1.960  0.00  0.00     0.026 A 
ATOM      8  C6  UNL d   1      -0.737  -0.314   1.172  0.00  0.00    -0.082 A 
ATOM      9  C7  UNL d   1      -1.988   0.114   0.666  0.00  0.00     0.045 A 
ENDROOT
TORSDOF 0
ENDMDL
