MODEL 1
REMARK minimizedAffinity 7.62835169
REMARK minimizedRMSD -1
REMARK  2 active torsions:
REMARK  status: ('A' for Active; 'I' for Inactive)
REMARK    1  A    between atoms: C2'_3  and  C1'_4 
REMARK    2  A    between atoms: C1'_4  and  C1_5 
ROOT
ATOM      1  C1  I4B d   1       1.176   0.379  -1.525  0.00  0.00    -0.075 A 
ATOM      2  C2  I4B d   1       1.912   1.448  -1.970  0.00  0.00     0.003 A 
ATOM      3  C3  I4B d   1       3.186   1.719  -1.413  0.00  0.00     0.002 A 
ATOM      4  C4  I4B d   1       3.659   0.929  -0.384  0.00  0.00    -0.004 A 
ATOM      5  C5  I4B d   1       2.921  -0.168   0.050  0.00  0.00     0.002 A 
ATOM      6  C6  I4B d   1       1.677  -0.453  -0.532  0.00  0.00     0.003 A 
ENDROOT
BRANCH   1   7
ATOM      7  C1' I4B d   1      -0.179   0.142  -2.112  0.00  0.00     0.060 C 
BRANCH   7   8
ATOM      8  C2' I4B d   1      -1.167   1.028  -1.380  0.00  0.00    -0.013 C 
ATOM      9  C4' I4B d   1      -1.674   2.132  -2.271  0.00  0.00     0.013 C 
ATOM     10  C3' I4B d   1      -2.292   0.164  -0.895  0.00  0.00     0.013 C 
ENDBRANCH   7   8
ENDBRANCH   1   7
TORSDOF 2
ENDMDL
