MODEL 1
REMARK minimizedAffinity 8.86457062
REMARK minimizedRMSD -1
REMARK  2 active torsions:
REMARK  status: ('A' for Active; 'I' for Inactive)
REMARK    1  A    between atoms: C2'_3  and  C1'_4 
REMARK    2  A    between atoms: C1'_4  and  C1_5 
ROOT
ATOM      1  C1  I4B d   1       0.883  -2.090   1.681  0.00  0.00    -0.075 A 
ATOM      2  C2  I4B d   1       0.053  -1.053   2.024  0.00  0.00     0.003 A 
ATOM      3  C3  I4B d   1      -1.044  -1.274   2.892  0.00  0.00     0.002 A 
ATOM      4  C4  I4B d   1      -1.301  -2.551   3.349  0.00  0.00    -0.004 A 
ATOM      5  C5  I4B d   1      -0.445  -3.597   3.018  0.00  0.00     0.002 A 
ATOM      6  C6  I4B d   1       0.661  -3.364   2.189  0.00  0.00     0.003 A 
ENDROOT
BRANCH   1   7
ATOM      7  C1' I4B d   1       2.013  -1.827   0.736  0.00  0.00     0.060 C 
BRANCH   7   8
ATOM      8  C2' I4B d   1       2.026  -0.344   0.426  0.00  0.00    -0.013 C 
ATOM      9  C4' I4B d   1       3.434   0.171   0.288  0.00  0.00     0.013 C 
ATOM     10  C3' I4B d   1       1.245  -0.128  -0.836  0.00  0.00     0.013 C 
ENDBRANCH   7   8
ENDBRANCH   1   7
TORSDOF 2
ENDMDL
