MODEL 1
REMARK minimizedAffinity 8.65550613
REMARK minimizedRMSD -1
REMARK  2 active torsions:
REMARK  status: ('A' for Active; 'I' for Inactive)
REMARK    1  A    between atoms: C2'_3  and  C1'_4 
REMARK    2  A    between atoms: C1'_4  and  C1_5 
ROOT
ATOM      1  C1  I4B d   1       0.150  -1.776   2.370  0.00  0.00    -0.075 A 
ATOM      2  C2  I4B d   1      -1.048  -1.844   3.036  0.00  0.00     0.003 A 
ATOM      3  C3  I4B d   1      -1.505  -3.078   3.558  0.00  0.00     0.002 A 
ATOM      4  C4  I4B d   1      -0.761  -4.222   3.347  0.00  0.00    -0.004 A 
ATOM      5  C5  I4B d   1       0.464  -4.147   2.691  0.00  0.00     0.002 A 
ATOM      6  C6  I4B d   1       0.929  -2.915   2.209  0.00  0.00     0.003 A 
ENDROOT
BRANCH   1   7
ATOM      7  C1' I4B d   1       0.586  -0.462   1.803  0.00  0.00     0.060 C 
BRANCH   7   8
ATOM      8  C2' I4B d   1       0.248  -0.455   0.326  0.00  0.00    -0.013 C 
ATOM      9  C4' I4B d   1      -0.846   0.535   0.023  0.00  0.00     0.013 C 
ATOM     10  C3' I4B d   1       1.499  -0.130  -0.434  0.00  0.00     0.013 C 
ENDBRANCH   7   8
ENDBRANCH   1   7
TORSDOF 2
ENDMDL
