MODEL 1
REMARK minimizedAffinity -3.24913311
REMARK minimizedRMSD -1
REMARK  2 active torsions:
REMARK  status: ('A' for Active; 'I' for Inactive)
REMARK    1  A    between atoms: C2'_3  and  C1'_4 
REMARK    2  A    between atoms: C1'_4  and  C1_5 
ROOT
ATOM      1  C1  I4B d   1       0.156  -1.692   2.725  0.00  0.00    -0.075 A 
ATOM      2  C2  I4B d   1       0.322  -0.788   1.706  0.00  0.00     0.003 A 
ATOM      3  C3  I4B d   1      -0.800  -0.127   1.149  0.00  0.00     0.002 A 
ATOM      4  C4  I4B d   1      -2.065  -0.435   1.605  0.00  0.00    -0.004 A 
ATOM      5  C5  I4B d   1      -2.230  -1.334   2.654  0.00  0.00     0.002 A 
ATOM      6  C6  I4B d   1      -1.112  -1.958   3.227  0.00  0.00     0.003 A 
ENDROOT
BRANCH   1   7
ATOM      7  C1' I4B d   1       1.359  -2.396   3.268  0.00  0.00     0.060 C 
BRANCH   7   8
ATOM      8  C2' I4B d   1       1.626  -3.605   2.394  0.00  0.00    -0.013 C 
ATOM      9  C4' I4B d   1       0.424  -4.510   2.334  0.00  0.00     0.013 C 
ATOM     10  C3' I4B d   1       2.003  -3.114   1.028  0.00  0.00     0.013 C 
ENDBRANCH   7   8
ENDBRANCH   1   7
TORSDOF 2
ENDMDL
