MODEL 1
REMARK minimizedAffinity -2.95020652
REMARK minimizedRMSD -1
REMARK  1 active torsions:
REMARK  status: ('A' for Active; 'I' for Inactive)
REMARK    1  A    between atoms: C1_2  and  C2_3 
ROOT
ATOM      1  C2  UNL d   1      -0.278   0.284   1.226  0.00  0.00    -0.073 A 
ATOM      2  C3  UNL d   1       0.982   0.646   1.715  0.00  0.00    -0.002 A 
ATOM      3  C4  UNL d   1       1.622  -0.145   2.670  0.00  0.00     0.004 A 
ATOM      4  C5  UNL d   1       1.013  -1.308   3.140  0.00  0.00    -0.004 A 
ATOM      5  C6  UNL d   1      -0.241  -1.694   2.654  0.00  0.00    -0.075 A 
ATOM      6  C7  UNL d   1      -0.911  -2.941   3.151  0.00  0.00     0.076 C 
ATOM      7  C8  UNL d   1      -0.878  -0.892   1.697  0.00  0.00     0.001 A 
ENDROOT
BRANCH   1   8
ATOM      8  C1  UNL d   1      -0.970   1.132   0.190  0.00  0.00     0.053 C 
ATOM      9  C   UNL d   1      -0.245   1.104  -1.146  0.00  0.00     0.018 C 
ENDBRANCH   1   8
TORSDOF 1
ENDMDL
