MODEL 1
REMARK minimizedAffinity -2.81918073
REMARK minimizedRMSD -1
REMARK  1 active torsions:
REMARK  status: ('A' for Active; 'I' for Inactive)
REMARK    1  A    between atoms: C1_2  and  C2_3 
ROOT
ATOM      1  C2  UNL d   1      -0.363   0.286  -1.398  0.00  0.00    -0.073 A 
ATOM      2  C3  UNL d   1      -1.258   0.368  -0.325  0.00  0.00    -0.002 A 
ATOM      3  C4  UNL d   1      -0.835   0.068   0.970  0.00  0.00     0.004 A 
ATOM      4  C5  UNL d   1       0.487  -0.309   1.207  0.00  0.00    -0.004 A 
ATOM      5  C6  UNL d   1       1.399  -0.385   0.150  0.00  0.00    -0.075 A 
ATOM      6  C7  UNL d   1       2.824  -0.792   0.388  0.00  0.00     0.076 C 
ATOM      7  C8  UNL d   1       0.966  -0.085  -1.149  0.00  0.00     0.001 A 
ENDROOT
BRANCH   1   8
ATOM      8  C1  UNL d   1      -0.814   0.615  -2.798  0.00  0.00     0.053 C 
ATOM      9  C   UNL d   1      -1.410   2.011  -2.892  0.00  0.00     0.018 C 
ENDBRANCH   1   8
TORSDOF 1
ENDMDL
