MODEL 1
REMARK minimizedAffinity -3.69911551
REMARK minimizedRMSD -1
REMARK  1 active torsions:
REMARK  status: ('A' for Active; 'I' for Inactive)
REMARK    1  A    between atoms: C1_2  and  C2_3 
ROOT
ATOM      1  C2  UNL d   1      -0.157   1.022  -1.287  0.00  0.00    -0.073 A 
ATOM      2  C3  UNL d   1      -1.241   0.292  -1.788  0.00  0.00    -0.002 A 
ATOM      3  C4  UNL d   1      -1.923  -0.609  -0.970  0.00  0.00     0.004 A 
ATOM      4  C5  UNL d   1      -1.534  -0.785   0.358  0.00  0.00    -0.004 A 
ATOM      5  C6  UNL d   1      -0.462  -0.055   0.881  0.00  0.00    -0.075 A 
ATOM      6  C7  UNL d   1      -0.030  -0.234   2.307  0.00  0.00     0.076 C 
ATOM      7  C8  UNL d   1       0.220   0.846   0.052  0.00  0.00     0.001 A 
ENDROOT
BRANCH   1   8
ATOM      8  C1  UNL d   1       0.578   2.001  -2.164  0.00  0.00     0.053 C 
ATOM      9  C   UNL d   1      -0.371   2.949  -2.881  0.00  0.00     0.018 C 
ENDBRANCH   1   8
TORSDOF 1
ENDMDL
