MODEL 1
REMARK minimizedAffinity -3.24084854
REMARK minimizedRMSD -1
REMARK  1 active torsions:
REMARK  status: ('A' for Active; 'I' for Inactive)
REMARK    1  A    between atoms: C1_2  and  C2_3 
ROOT
ATOM      1  C2  UNL d   1      -0.856   0.103   0.327  0.00  0.00    -0.073 A 
ATOM      2  C3  UNL d   1      -1.509  -0.704  -0.611  0.00  0.00    -0.002 A 
ATOM      3  C4  UNL d   1      -1.551  -0.330  -1.955  0.00  0.00     0.004 A 
ATOM      4  C5  UNL d   1      -0.936   0.849  -2.375  0.00  0.00    -0.004 A 
ATOM      5  C6  UNL d   1      -0.268   1.663  -1.455  0.00  0.00    -0.075 A 
ATOM      6  C7  UNL d   1       0.398   2.935  -1.890  0.00  0.00     0.076 C 
ATOM      7  C8  UNL d   1      -0.232   1.282  -0.106  0.00  0.00     0.001 A 
ENDROOT
BRANCH   1   8
ATOM      8  C1  UNL d   1      -0.802  -0.299   1.778  0.00  0.00     0.053 C 
ATOM      9  C   UNL d   1       0.092  -1.509   2.001  0.00  0.00     0.018 C 
ENDBRANCH   1   8
TORSDOF 1
ENDMDL
