MODEL 1
REMARK minimizedAffinity -4.65581942
REMARK minimizedRMSD -1
REMARK  1 active torsions:
REMARK  status: ('A' for Active; 'I' for Inactive)
REMARK    1  A    between atoms: C1_2  and  C2_3 
ROOT
ATOM      1  C2  UNL d   1      -4.748   1.624  -3.517  0.00  0.00    -0.073 A 
ATOM      2  C3  UNL d   1      -5.144   2.964  -3.591  0.00  0.00    -0.002 A 
ATOM      3  C4  UNL d   1      -4.225   3.985  -3.346  0.00  0.00     0.004 A 
ATOM      4  C5  UNL d   1      -2.902   3.678  -3.031  0.00  0.00    -0.004 A 
ATOM      5  C6  UNL d   1      -2.484   2.345  -2.964  0.00  0.00    -0.075 A 
ATOM      6  C7  UNL d   1      -1.064   1.997  -2.625  0.00  0.00     0.076 C 
ATOM      7  C8  UNL d   1      -3.413   1.325  -3.209  0.00  0.00     0.001 A 
ENDROOT
BRANCH   1   8
ATOM      8  C1  UNL d   1      -5.735   0.518  -3.787  0.00  0.00     0.053 C 
ATOM      9  C   UNL d   1      -5.148  -0.566  -4.677  0.00  0.00     0.018 C 
ENDBRANCH   1   8
TORSDOF 1
ENDMDL
