MODEL 1
REMARK minimizedAffinity -1.00455618
REMARK minimizedRMSD -1
REMARK  1 active torsions:
REMARK  status: ('A' for Active; 'I' for Inactive)
REMARK    1  A    between atoms: C1_2  and  C2_3 
ROOT
ATOM      1  C2  UNL d   1      -0.728   1.876  -1.646  0.00  0.00    -0.073 A 
ATOM      2  C3  UNL d   1       0.650   1.632  -1.670  0.00  0.00    -0.002 A 
ATOM      3  C4  UNL d   1       1.188   0.560  -0.958  0.00  0.00     0.004 A 
ATOM      4  C5  UNL d   1       0.356  -0.282  -0.220  0.00  0.00    -0.004 A 
ATOM      5  C6  UNL d   1      -1.025  -0.061  -0.193  0.00  0.00    -0.075 A 
ATOM      6  C7  UNL d   1      -1.934  -0.956   0.597  0.00  0.00     0.076 C 
ATOM      7  C8  UNL d   1      -1.558   1.019  -0.909  0.00  0.00     0.001 A 
ENDROOT
BRANCH   1   8
ATOM      8  C1  UNL d   1      -1.315   3.029  -2.419  0.00  0.00     0.053 C 
ATOM      9  C   UNL d   1      -2.672   2.685  -3.013  0.00  0.00     0.018 C 
ENDBRANCH   1   8
TORSDOF 1
ENDMDL
