MODEL 1
REMARK minimizedAffinity 14.6761894
REMARK minimizedRMSD -1
REMARK  2 active torsions:
REMARK  status: ('A' for Active; 'I' for Inactive)
REMARK    1  A    between atoms: C2'_3  and  C1'_4 
REMARK    2  A    between atoms: C1'_4  and  C1_5 
ROOT
ATOM      1  C1  I4B d   1      -0.181  -2.730  -5.293  0.00  0.00    -0.075 A 
ATOM      2  C2  I4B d   1       0.723  -1.961  -5.984  0.00  0.00     0.003 A 
ATOM      3  C3  I4B d   1       1.087  -0.681  -5.500  0.00  0.00     0.002 A 
ATOM      4  C4  I4B d   1       0.489  -0.192  -4.356  0.00  0.00    -0.004 A 
ATOM      5  C5  I4B d   1      -0.409  -0.982  -3.645  0.00  0.00     0.002 A 
ATOM      6  C6  I4B d   1      -0.737  -2.264  -4.109  0.00  0.00     0.003 A 
ENDROOT
BRANCH   1   7
ATOM      7  C1' I4B d   1      -0.567  -4.063  -5.851  0.00  0.00     0.060 C 
BRANCH   7   8
ATOM      8  C2' I4B d   1      -1.788  -4.548  -5.096  0.00  0.00    -0.013 C 
ATOM      9  C4' I4B d   1      -3.000  -4.590  -5.988  0.00  0.00     0.013 C 
ATOM     10  C3' I4B d   1      -1.478  -5.906  -4.539  0.00  0.00     0.013 C 
ENDBRANCH   7   8
ENDBRANCH   1   7
TORSDOF 2
ENDMDL
