MODEL 1
REMARK minimizedAffinity 10.5050097
REMARK minimizedRMSD -1
REMARK  2 active torsions:
REMARK  status: ('A' for Active; 'I' for Inactive)
REMARK    1  A    between atoms: C2'_3  and  C1'_4 
REMARK    2  A    between atoms: C1'_4  and  C1_5 
ROOT
ATOM      1  C1  I4B d   1       0.770  -2.755  -5.662  0.00  0.00    -0.075 A 
ATOM      2  C2  I4B d   1       2.106  -2.628  -5.949  0.00  0.00     0.003 A 
ATOM      3  C3  I4B d   1       2.783  -1.416  -5.670  0.00  0.00     0.002 A 
ATOM      4  C4  I4B d   1       2.078  -0.347  -5.155  0.00  0.00    -0.004 A 
ATOM      5  C5  I4B d   1       0.728  -0.485  -4.844  0.00  0.00     0.002 A 
ATOM      6  C6  I4B d   1       0.072  -1.701  -5.088  0.00  0.00     0.003 A 
ENDROOT
BRANCH   1   7
ATOM      7  C1' I4B d   1       0.079  -4.039  -6.000  0.00  0.00     0.060 C 
BRANCH   7   8
ATOM      8  C2' I4B d   1      -1.173  -4.132  -5.152  0.00  0.00    -0.013 C 
ATOM      9  C4' I4B d   1      -2.414  -4.029  -6.000  0.00  0.00     0.013 C 
ATOM     10  C3' I4B d   1      -1.133  -5.432  -4.407  0.00  0.00     0.013 C 
ENDBRANCH   7   8
ENDBRANCH   1   7
TORSDOF 2
ENDMDL
