MODEL 1
REMARK minimizedAffinity 20.3056202
REMARK minimizedRMSD -1
REMARK  2 active torsions:
REMARK  status: ('A' for Active; 'I' for Inactive)
REMARK    1  A    between atoms: C2'_3  and  C1'_4 
REMARK    2  A    between atoms: C1'_4  and  C1_5 
ROOT
ATOM      1  C1  I4B d   1       1.132  -0.353  -4.867  0.00  0.00    -0.075 A 
ATOM      2  C2  I4B d   1       0.758  -1.117  -5.945  0.00  0.00     0.003 A 
ATOM      3  C3  I4B d   1      -0.384  -1.950  -5.866  0.00  0.00     0.002 A 
ATOM      4  C4  I4B d   1      -1.089  -2.026  -4.683  0.00  0.00    -0.004 A 
ATOM      5  C5  I4B d   1      -0.723  -1.234  -3.599  0.00  0.00     0.002 A 
ATOM      6  C6  I4B d   1       0.387  -0.382  -3.695  0.00  0.00     0.003 A 
ENDROOT
BRANCH   1   7
ATOM      7  C1' I4B d   1       2.362   0.491  -4.974  0.00  0.00     0.060 C 
BRANCH   7   8
ATOM      8  C2' I4B d   1       3.451  -0.350  -5.610  0.00  0.00    -0.013 C 
ATOM      9  C4' I4B d   1       4.637   0.495  -5.994  0.00  0.00     0.013 C 
ATOM     10  C3' I4B d   1       3.841  -1.419  -4.633  0.00  0.00     0.013 C 
ENDBRANCH   7   8
ENDBRANCH   1   7
TORSDOF 2
ENDMDL
