MODEL 1
REMARK minimizedAffinity 5.50972128
REMARK minimizedRMSD -1
REMARK  0 active torsions:
REMARK  status: ('A' for Active; 'I' for Inactive)
ROOT
ATOM      1  C   UNL d   1       3.603   2.122  -6.000  0.00  0.00     0.077 C 
ATOM      2  C1  UNL d   1       3.493   1.118  -4.891  0.00  0.00    -0.074 A 
ATOM      3  C2  UNL d   1       4.238   1.261  -3.716  0.00  0.00    -0.005 A 
ATOM      4  C3  UNL d   1       4.119   0.324  -2.689  0.00  0.00     0.006 A 
ATOM      5  C4  UNL d   1       3.255  -0.763  -2.828  0.00  0.00    -0.005 A 
ATOM      6  C5  UNL d   1       2.502  -0.922  -3.995  0.00  0.00    -0.074 A 
ATOM      7  C6  UNL d   1       1.563  -2.080  -4.156  0.00  0.00     0.077 C 
ATOM      8  C7  UNL d   1       2.622   0.027  -5.019  0.00  0.00    -0.001 A 
ENDROOT
TORSDOF 0
ENDMDL
