MODEL 1
REMARK minimizedAffinity 8.02060986
REMARK minimizedRMSD -1
REMARK  0 active torsions:
REMARK  status: ('A' for Active; 'I' for Inactive)
ROOT
ATOM      1  C   UNL d   1      -1.128  -5.993   1.121  0.00  0.00     0.077 C 
ATOM      2  C1  UNL d   1       0.068  -5.999   2.025  0.00  0.00    -0.074 A 
ATOM      3  C2  UNL d   1       1.365  -5.989   1.501  0.00  0.00    -0.005 A 
ATOM      4  C3  UNL d   1       2.468  -5.984   2.354  0.00  0.00     0.006 A 
ATOM      5  C4  UNL d   1       2.287  -5.990   3.737  0.00  0.00    -0.005 A 
ATOM      6  C5  UNL d   1       0.998  -6.000   4.280  0.00  0.00    -0.074 A 
ATOM      7  C6  UNL d   1       0.785  -5.996   5.764  0.00  0.00     0.077 C 
ATOM      8  C7  UNL d   1      -0.106  -5.997   3.416  0.00  0.00    -0.001 A 
ENDROOT
TORSDOF 0
ENDMDL
