MODEL 1
REMARK minimizedAffinity 2.23469424
REMARK minimizedRMSD -1
REMARK  0 active torsions:
REMARK  status: ('A' for Active; 'I' for Inactive)
ROOT
ATOM      1  C   UNL d   1       1.599  -5.928   5.994  0.00  0.00     0.077 C 
ATOM      2  C1  UNL d   1       1.421  -5.946   4.505  0.00  0.00    -0.074 A 
ATOM      3  C2  UNL d   1       2.528  -5.965   3.650  0.00  0.00    -0.005 A 
ATOM      4  C3  UNL d   1       2.347  -5.991   2.267  0.00  0.00     0.006 A 
ATOM      5  C4  UNL d   1       1.060  -5.999   1.726  0.00  0.00    -0.005 A 
ATOM      6  C5  UNL d   1      -0.058  -5.981   2.566  0.00  0.00    -0.074 A 
ATOM      7  C6  UNL d   1      -1.447  -5.998   2.002  0.00  0.00     0.077 C 
ATOM      8  C7  UNL d   1       0.132  -5.962   3.955  0.00  0.00    -0.001 A 
ENDROOT
TORSDOF 0
ENDMDL
