MODEL 1
REMARK minimizedAffinity 8.31059647
REMARK minimizedRMSD -1
REMARK  0 active torsions:
REMARK  status: ('A' for Active; 'I' for Inactive)
ROOT
ATOM      1  C   UNL d   1      -5.991   3.176   3.544  0.00  0.00     0.077 C 
ATOM      2  C1  UNL d   1      -5.347   1.851   3.819  0.00  0.00    -0.074 A 
ATOM      3  C2  UNL d   1      -4.154   1.486   3.187  0.00  0.00    -0.005 A 
ATOM      4  C3  UNL d   1      -3.561   0.253   3.460  0.00  0.00     0.006 A 
ATOM      5  C4  UNL d   1      -4.154  -0.626   4.367  0.00  0.00    -0.005 A 
ATOM      6  C5  UNL d   1      -5.346  -0.278   5.010  0.00  0.00    -0.074 A 
ATOM      7  C6  UNL d   1      -5.991  -1.207   5.995  0.00  0.00     0.077 C 
ATOM      8  C7  UNL d   1      -5.932   0.965   4.736  0.00  0.00    -0.001 A 
ENDROOT
TORSDOF 0
ENDMDL
