MODEL 1
REMARK minimizedAffinity 7.22741461
REMARK minimizedRMSD -1
REMARK  0 active torsions:
REMARK  status: ('A' for Active; 'I' for Inactive)
ROOT
ATOM      1  C   UNL d   1      -0.838  -5.999   2.624  0.00  0.00     0.077 C 
ATOM      2  C1  UNL d   1       0.390  -5.991   3.486  0.00  0.00    -0.074 A 
ATOM      3  C2  UNL d   1       0.289  -5.997   4.881  0.00  0.00    -0.005 A 
ATOM      4  C3  UNL d   1       1.439  -5.999   5.669  0.00  0.00     0.006 A 
ATOM      5  C4  UNL d   1       2.701  -5.995   5.072  0.00  0.00    -0.005 A 
ATOM      6  C5  UNL d   1       2.821  -5.989   3.678  0.00  0.00    -0.074 A 
ATOM      7  C6  UNL d   1       4.169  -5.995   3.020  0.00  0.00     0.077 C 
ATOM      8  C7  UNL d   1       1.660  -5.994   2.893  0.00  0.00    -0.001 A 
ENDROOT
TORSDOF 0
ENDMDL
