MODEL 1
REMARK minimizedAffinity 2.01026869
REMARK minimizedRMSD -1
REMARK  0 active torsions:
REMARK  status: ('A' for Active; 'I' for Inactive)
ROOT
ATOM      1  C   UNL d   1      -0.257  -5.970   4.289  0.00  0.00     0.077 C 
ATOM      2  C1  UNL d   1      -1.086  -5.973   3.039  0.00  0.00    -0.074 A 
ATOM      3  C2  UNL d   1      -0.484  -5.986   1.777  0.00  0.00    -0.005 A 
ATOM      4  C3  UNL d   1      -1.268  -5.999   0.624  0.00  0.00     0.006 A 
ATOM      5  C4  UNL d   1      -2.660  -5.998   0.720  0.00  0.00    -0.005 A 
ATOM      6  C5  UNL d   1      -3.280  -5.986   1.974  0.00  0.00    -0.074 A 
ATOM      7  C6  UNL d   1      -4.775  -5.995   2.096  0.00  0.00     0.077 C 
ATOM      8  C7  UNL d   1      -2.485  -5.981   3.128  0.00  0.00    -0.001 A 
ENDROOT
TORSDOF 0
ENDMDL
