MODEL 1
REMARK minimizedAffinity -0.245714113
REMARK minimizedRMSD -1
REMARK  0 active torsions:
REMARK  status: ('A' for Active; 'I' for Inactive)
ROOT
ATOM      1  C   UNL d   1      -1.604  -5.998   1.810  0.00  0.00     0.077 C 
ATOM      2  C1  UNL d   1      -0.243  -5.819   2.415  0.00  0.00    -0.074 A 
ATOM      3  C2  UNL d   1       0.913  -6.000   1.649  0.00  0.00    -0.005 A 
ATOM      4  C3  UNL d   1       2.172  -5.820   2.223  0.00  0.00     0.006 A 
ATOM      5  C4  UNL d   1       2.287  -5.459   3.566  0.00  0.00    -0.005 A 
ATOM      6  C5  UNL d   1       1.142  -5.273   4.347  0.00  0.00    -0.074 A 
ATOM      7  C6  UNL d   1       1.247  -4.875   5.789  0.00  0.00     0.077 C 
ATOM      8  C7  UNL d   1      -0.120  -5.448   3.761  0.00  0.00    -0.001 A 
ENDROOT
TORSDOF 0
ENDMDL
