MODEL 1
REMARK minimizedAffinity 2.41796279
REMARK minimizedRMSD -1
REMARK  0 active torsions:
REMARK  status: ('A' for Active; 'I' for Inactive)
ROOT
ATOM      1  C   UNL d   1      -5.291  -6.000   3.892  0.00  0.00     0.077 C 
ATOM      2  C1  UNL d   1      -4.294  -5.999   2.772  0.00  0.00    -0.074 A 
ATOM      3  C2  UNL d   1      -4.711  -5.996   1.438  0.00  0.00    -0.005 A 
ATOM      4  C3  UNL d   1      -3.772  -5.986   0.407  0.00  0.00     0.006 A 
ATOM      5  C4  UNL d   1      -2.407  -5.979   0.700  0.00  0.00    -0.005 A 
ATOM      6  C5  UNL d   1      -1.971  -5.981   2.028  0.00  0.00    -0.074 A 
ATOM      7  C6  UNL d   1      -0.508  -5.963   2.360  0.00  0.00     0.077 C 
ATOM      8  C7  UNL d   1      -2.921  -5.984   3.058  0.00  0.00    -0.001 A 
ENDROOT
TORSDOF 0
ENDMDL
