MODEL 1
REMARK minimizedAffinity 2.27950978
REMARK minimizedRMSD -1
REMARK  0 active torsions:
REMARK  status: ('A' for Active; 'I' for Inactive)
ROOT
ATOM      1  C   UNL d   1      -1.895  -5.984   1.982  0.00  0.00     0.077 C 
ATOM      2  C1  UNL d   1      -0.503  -5.992   2.540  0.00  0.00    -0.074 A 
ATOM      3  C2  UNL d   1       0.611  -5.996   1.695  0.00  0.00    -0.005 A 
ATOM      4  C3  UNL d   1       1.900  -5.994   2.229  0.00  0.00     0.006 A 
ATOM      5  C4  UNL d   1       2.087  -5.988   3.611  0.00  0.00    -0.005 A 
ATOM      6  C5  UNL d   1       0.985  -5.983   4.473  0.00  0.00    -0.074 A 
ATOM      7  C6  UNL d   1       1.169  -5.967   5.961  0.00  0.00     0.077 C 
ATOM      8  C7  UNL d   1      -0.306  -5.978   3.928  0.00  0.00    -0.001 A 
ENDROOT
TORSDOF 0
ENDMDL
