MODEL 1
REMARK minimizedAffinity 5.66175604
REMARK minimizedRMSD -1
REMARK  0 active torsions:
REMARK  status: ('A' for Active; 'I' for Inactive)
ROOT
ATOM      1  C   UNL d   1      -2.640  -1.275   3.377  0.00  0.00     0.077 C 
ATOM      2  C1  UNL d   1      -3.756  -0.483   3.991  0.00  0.00    -0.074 A 
ATOM      3  C2  UNL d   1      -4.211  -0.765   5.283  0.00  0.00    -0.005 A 
ATOM      4  C3  UNL d   1      -5.243  -0.014   5.845  0.00  0.00     0.006 A 
ATOM      5  C4  UNL d   1      -5.829   1.026   5.122  0.00  0.00    -0.005 A 
ATOM      6  C5  UNL d   1      -5.387   1.323   3.829  0.00  0.00    -0.074 A 
ATOM      7  C6  UNL d   1      -5.999   2.444   3.042  0.00  0.00     0.077 C 
ATOM      8  C7  UNL d   1      -4.345   0.568   3.274  0.00  0.00    -0.001 A 
ENDROOT
TORSDOF 0
ENDMDL
