MODEL 1
REMARK minimizedAffinity 7.13451529
REMARK minimizedRMSD -1
REMARK  0 active torsions:
REMARK  status: ('A' for Active; 'I' for Inactive)
ROOT
ATOM      1  C   UNL d   1      -2.245  -5.970   2.283  0.00  0.00     0.077 C 
ATOM      2  C1  UNL d   1      -0.829  -5.829   2.758  0.00  0.00    -0.074 A 
ATOM      3  C2  UNL d   1       0.244  -6.000   1.878  0.00  0.00    -0.005 A 
ATOM      4  C3  UNL d   1       1.556  -5.857   2.332  0.00  0.00     0.006 A 
ATOM      5  C4  UNL d   1       1.806  -5.542   3.668  0.00  0.00    -0.005 A 
ATOM      6  C5  UNL d   1       0.745  -5.367   4.562  0.00  0.00    -0.074 A 
ATOM      7  C6  UNL d   1       0.997  -5.020   6.000  0.00  0.00     0.077 C 
ATOM      8  C7  UNL d   1      -0.570  -5.506   4.097  0.00  0.00    -0.001 A 
ENDROOT
TORSDOF 0
ENDMDL
