MODEL 1
REMARK minimizedAffinity 2.46540785
REMARK minimizedRMSD -1
REMARK  0 active torsions:
REMARK  status: ('A' for Active; 'I' for Inactive)
ROOT
ATOM      1  C   UNL d   1      -1.120  -5.978   2.037  0.00  0.00     0.077 C 
ATOM      2  C1  UNL d   1       0.275  -5.992   2.587  0.00  0.00    -0.074 A 
ATOM      3  C2  UNL d   1       1.384  -5.992   1.735  0.00  0.00    -0.005 A 
ATOM      4  C3  UNL d   1       2.676  -5.995   2.261  0.00  0.00     0.006 A 
ATOM      5  C4  UNL d   1       2.872  -6.000   3.642  0.00  0.00    -0.005 A 
ATOM      6  C5  UNL d   1       1.775  -6.000   4.510  0.00  0.00    -0.074 A 
ATOM      7  C6  UNL d   1       1.968  -5.994   5.998  0.00  0.00     0.077 C 
ATOM      8  C7  UNL d   1       0.480  -5.989   3.974  0.00  0.00    -0.001 A 
ENDROOT
TORSDOF 0
ENDMDL
