MODEL 1
REMARK minimizedAffinity 3.71153975
REMARK minimizedRMSD -1
REMARK  0 active torsions:
REMARK  status: ('A' for Active; 'I' for Inactive)
ROOT
ATOM      1  C   UNL d   1      -2.070  -2.146   1.733  0.00  0.00     0.077 C 
ATOM      2  C1  UNL d   1      -1.526  -3.493   2.108  0.00  0.00    -0.074 A 
ATOM      3  C2  UNL d   1      -2.249  -4.660   1.840  0.00  0.00    -0.005 A 
ATOM      4  C3  UNL d   1      -1.726  -5.906   2.187  0.00  0.00     0.006 A 
ATOM      5  C4  UNL d   1      -0.478  -5.997   2.804  0.00  0.00    -0.005 A 
ATOM      6  C5  UNL d   1       0.260  -4.841   3.079  0.00  0.00    -0.074 A 
ATOM      7  C6  UNL d   1       1.607  -4.922   3.732  0.00  0.00     0.077 C 
ATOM      8  C7  UNL d   1      -0.269  -3.593   2.721  0.00  0.00    -0.001 A 
ENDROOT
TORSDOF 0
ENDMDL
