MODEL 1
REMARK minimizedAffinity 1.32041407
REMARK minimizedRMSD -1
REMARK  0 active torsions:
REMARK  status: ('A' for Active; 'I' for Inactive)
ROOT
ATOM      1  C   UNL d   1       3.642  -5.989   3.114  0.00  0.00     0.077 C 
ATOM      2  C1  UNL d   1       2.183  -5.998   3.460  0.00  0.00    -0.074 A 
ATOM      3  C2  UNL d   1       1.760  -5.996   4.793  0.00  0.00    -0.005 A 
ATOM      4  C3  UNL d   1       0.399  -5.995   5.099  0.00  0.00     0.006 A 
ATOM      5  C4  UNL d   1      -0.551  -5.996   4.078  0.00  0.00    -0.005 A 
ATOM      6  C5  UNL d   1      -0.147  -5.998   2.739  0.00  0.00    -0.074 A 
ATOM      7  C6  UNL d   1      -1.156  -5.990   1.628  0.00  0.00     0.077 C 
ATOM      8  C7  UNL d   1       1.222  -5.992   2.439  0.00  0.00    -0.001 A 
ENDROOT
TORSDOF 0
ENDMDL
