MODEL 1
REMARK minimizedAffinity 6.86335754
REMARK minimizedRMSD -1
REMARK  0 active torsions:
REMARK  status: ('A' for Active; 'I' for Inactive)
ROOT
ATOM      1  C   UNL d   1      -2.473  -5.999   1.866  0.00  0.00     0.077 C 
ATOM      2  C1  UNL d   1      -1.113  -5.952   2.497  0.00  0.00    -0.074 A 
ATOM      3  C2  UNL d   1       0.040  -5.849   1.711  0.00  0.00    -0.005 A 
ATOM      4  C3  UNL d   1       1.297  -5.796   2.312  0.00  0.00     0.006 A 
ATOM      5  C4  UNL d   1       1.415  -5.847   3.701  0.00  0.00    -0.005 A 
ATOM      6  C5  UNL d   1       0.274  -5.950   4.503  0.00  0.00    -0.074 A 
ATOM      7  C6  UNL d   1       0.382  -5.995   5.998  0.00  0.00     0.077 C 
ATOM      8  C7  UNL d   1      -0.987  -5.995   3.892  0.00  0.00    -0.001 A 
ENDROOT
TORSDOF 0
ENDMDL
