MODEL 1
REMARK minimizedAffinity 11.6325216
REMARK minimizedRMSD -1
REMARK  0 active torsions:
REMARK  status: ('A' for Active; 'I' for Inactive)
ROOT
ATOM      1  C   UNL d   1      -1.568  -2.458  -4.089  0.00  0.00     0.077 C 
ATOM      2  C1  UNL d   1      -0.595  -1.989  -3.049  0.00  0.00    -0.074 A 
ATOM      3  C2  UNL d   1       0.725  -1.677  -3.388  0.00  0.00    -0.005 A 
ATOM      4  C3  UNL d   1       1.616  -1.234  -2.411  0.00  0.00     0.006 A 
ATOM      5  C4  UNL d   1       1.197  -1.097  -1.087  0.00  0.00    -0.005 A 
ATOM      6  C5  UNL d   1      -0.120  -1.403  -0.729  0.00  0.00    -0.074 A 
ATOM      7  C6  UNL d   1      -0.590  -1.252   0.687  0.00  0.00     0.077 C 
ATOM      8  C7  UNL d   1      -1.011  -1.842  -1.718  0.00  0.00    -0.001 A 
ENDROOT
TORSDOF 0
ENDMDL
