MODEL 1
REMARK minimizedAffinity 8.66370964
REMARK minimizedRMSD -1
REMARK  0 active torsions:
REMARK  status: ('A' for Active; 'I' for Inactive)
ROOT
ATOM      1  C   UNL d   1      -2.151  -3.869  -5.126  0.00  0.00     0.077 C 
ATOM      2  C1  UNL d   1      -1.648  -2.762  -4.248  0.00  0.00    -0.074 A 
ATOM      3  C2  UNL d   1      -2.523  -2.036  -3.434  0.00  0.00    -0.005 A 
ATOM      4  C3  UNL d   1      -2.039  -1.016  -2.616  0.00  0.00     0.006 A 
ATOM      5  C4  UNL d   1      -0.678  -0.712  -2.602  0.00  0.00    -0.005 A 
ATOM      6  C5  UNL d   1       0.213  -1.427  -3.409  0.00  0.00    -0.074 A 
ATOM      7  C6  UNL d   1       1.681  -1.120  -3.399  0.00  0.00     0.077 C 
ATOM      8  C7  UNL d   1      -0.280  -2.456  -4.223  0.00  0.00    -0.001 A 
ENDROOT
TORSDOF 0
ENDMDL
