MODEL 1
REMARK minimizedAffinity -2.46090388
REMARK minimizedRMSD -1
REMARK  1 active torsions:
REMARK  status: ('A' for Active; 'I' for Inactive)
REMARK    1  A    between atoms: C1_2  and  C2_3 
ROOT
ATOM      1  C2  UNL d   1      -0.195  -0.394   1.138  0.00  0.00    -0.081 A 
ATOM      2  C3  UNL d   1       0.081   0.925   0.756  0.00  0.00     0.006 A 
ATOM      3  C4  UNL d   1       1.014   1.190  -0.249  0.00  0.00     0.002 A 
ATOM      4  C5  UNL d   1       1.680   0.143  -0.894  0.00  0.00    -0.080 A 
ATOM      5  C6  UNL d   1       2.661   0.412  -1.996  0.00  0.00     0.076 C 
ATOM      6  C7  UNL d   1       1.418  -1.174  -0.500  0.00  0.00     0.002 A 
ATOM      7  C8  UNL d   1       0.485  -1.440   0.506  0.00  0.00     0.006 A 
ENDROOT
BRANCH   1   8
ATOM      8  C1  UNL d   1      -1.247  -0.686   2.177  0.00  0.00     0.054 C 
ATOM      9  C   UNL d   1      -2.537   0.068   1.886  0.00  0.00     0.018 C 
ENDBRANCH   1   8
TORSDOF 1
ENDMDL
