MODEL 1
REMARK minimizedAffinity -3.84237504
REMARK minimizedRMSD -1
REMARK  1 active torsions:
REMARK  status: ('A' for Active; 'I' for Inactive)
REMARK    1  A    between atoms: C1_2  and  C2_3 
ROOT
ATOM      1  C2  UNL d   1      -1.541   0.653   1.025  0.00  0.00    -0.081 A 
ATOM      2  C3  UNL d   1      -1.621   1.244  -0.242  0.00  0.00     0.006 A 
ATOM      3  C4  UNL d   1      -0.467   1.444  -1.004  0.00  0.00     0.002 A 
ATOM      4  C5  UNL d   1       0.783   1.049  -0.516  0.00  0.00    -0.080 A 
ATOM      5  C6  UNL d   1       2.026   1.231  -1.336  0.00  0.00     0.076 C 
ATOM      6  C7  UNL d   1       0.865   0.474   0.757  0.00  0.00     0.002 A 
ATOM      7  C8  UNL d   1      -0.288   0.275   1.519  0.00  0.00     0.006 A 
ENDROOT
BRANCH   1   8
ATOM      8  C1  UNL d   1      -2.791   0.377   1.821  0.00  0.00     0.054 C 
ATOM      9  C   UNL d   1      -4.029   0.902   1.108  0.00  0.00     0.018 C 
ENDBRANCH   1   8
TORSDOF 1
ENDMDL
