MODEL 1
REMARK minimizedAffinity 1.17374384
REMARK minimizedRMSD -1
REMARK  1 active torsions:
REMARK  status: ('A' for Active; 'I' for Inactive)
REMARK    1  A    between atoms: C1_2  and  C2_3 
ROOT
ATOM      1  C2  UNL d   1       0.871   1.071   0.109  0.00  0.00    -0.081 A 
ATOM      2  C3  UNL d   1       1.389   0.851  -1.174  0.00  0.00     0.006 A 
ATOM      3  C4  UNL d   1       2.743   1.069  -1.438  0.00  0.00     0.002 A 
ATOM      4  C5  UNL d   1       3.603   1.502  -0.424  0.00  0.00    -0.080 A 
ATOM      5  C6  UNL d   1       5.065   1.711  -0.687  0.00  0.00     0.076 C 
ATOM      6  C7  UNL d   1       3.083   1.739   0.853  0.00  0.00     0.002 A 
ATOM      7  C8  UNL d   1       1.729   1.522   1.118  0.00  0.00     0.006 A 
ENDROOT
BRANCH   1   8
ATOM      8  C1  UNL d   1      -0.575   0.775   0.413  0.00  0.00     0.054 C 
ATOM      9  C   UNL d   1      -0.708  -0.350   1.429  0.00  0.00     0.018 C 
ENDBRANCH   1   8
TORSDOF 1
ENDMDL
