MODEL 1
REMARK minimizedAffinity -1.92023897
REMARK minimizedRMSD -1
REMARK  1 active torsions:
REMARK  status: ('A' for Active; 'I' for Inactive)
REMARK    1  A    between atoms: C1_2  and  C2_3 
ROOT
ATOM      1  C2  UNL d   1      -0.952   0.325   0.697  0.00  0.00    -0.081 A 
ATOM      2  C3  UNL d   1      -0.182   1.411   0.263  0.00  0.00     0.006 A 
ATOM      3  C4  UNL d   1       0.884   1.215  -0.619  0.00  0.00     0.002 A 
ATOM      4  C5  UNL d   1       1.191  -0.066  -1.088  0.00  0.00    -0.080 A 
ATOM      5  C6  UNL d   1       2.313  -0.286  -2.059  0.00  0.00     0.076 C 
ATOM      6  C7  UNL d   1       0.432  -1.153  -0.641  0.00  0.00     0.002 A 
ATOM      7  C8  UNL d   1      -0.633  -0.959   0.241  0.00  0.00     0.006 A 
ENDROOT
BRANCH   1   8
ATOM      8  C1  UNL d   1      -2.142   0.541   1.597  0.00  0.00     0.054 C 
ATOM      9  C   UNL d   1      -3.449   0.396   0.831  0.00  0.00     0.018 C 
ENDBRANCH   1   8
TORSDOF 1
ENDMDL
