MODEL 1
REMARK minimizedAffinity -2.90273523
REMARK minimizedRMSD -1
REMARK  1 active torsions:
REMARK  status: ('A' for Active; 'I' for Inactive)
REMARK    1  A    between atoms: C1_2  and  C2_3 
ROOT
ATOM      1  C2  UNL d   1      -1.430   0.395   1.346  0.00  0.00    -0.081 A 
ATOM      2  C3  UNL d   1      -1.139   1.596   0.686  0.00  0.00     0.006 A 
ATOM      3  C4  UNL d   1      -0.009   1.701  -0.127  0.00  0.00     0.002 A 
ATOM      4  C5  UNL d   1       0.846   0.607  -0.301  0.00  0.00    -0.080 A 
ATOM      5  C6  UNL d   1       2.046   0.698  -1.195  0.00  0.00     0.076 C 
ATOM      6  C7  UNL d   1       0.565  -0.587   0.372  0.00  0.00     0.002 A 
ATOM      7  C8  UNL d   1      -0.565  -0.693   1.186  0.00  0.00     0.006 A 
ENDROOT
BRANCH   1   8
ATOM      8  C1  UNL d   1      -2.683   0.258   2.172  0.00  0.00     0.054 C 
ATOM      9  C   UNL d   1      -3.757   1.235   1.715  0.00  0.00     0.018 C 
ENDBRANCH   1   8
TORSDOF 1
ENDMDL
