MODEL 1
REMARK minimizedAffinity -4.06012392
REMARK minimizedRMSD -1
REMARK  1 active torsions:
REMARK  status: ('A' for Active; 'I' for Inactive)
REMARK    1  A    between atoms: C1_2  and  C2_3 
ROOT
ATOM      1  C2  UNL d   1       0.366   0.208   0.338  0.00  0.00    -0.081 A 
ATOM      2  C3  UNL d   1       0.380  -1.124  -0.094  0.00  0.00     0.006 A 
ATOM      3  C4  UNL d   1       1.019  -1.476  -1.285  0.00  0.00     0.002 A 
ATOM      4  C5  UNL d   1       1.661  -0.504  -2.060  0.00  0.00    -0.080 A 
ATOM      5  C6  UNL d   1       2.376  -0.873  -3.326  0.00  0.00     0.076 C 
ATOM      6  C7  UNL d   1       1.633   0.829  -1.638  0.00  0.00     0.002 A 
ATOM      7  C8  UNL d   1       0.993   1.182  -0.447  0.00  0.00     0.006 A 
ENDROOT
BRANCH   1   8
ATOM      8  C1  UNL d   1      -0.266   0.581   1.655  0.00  0.00     0.054 C 
ATOM      9  C   UNL d   1      -1.755   0.853   1.496  0.00  0.00     0.018 C 
ENDBRANCH   1   8
TORSDOF 1
ENDMDL
