MODEL 1
REMARK minimizedAffinity -2.98649001
REMARK minimizedRMSD -1
REMARK  1 active torsions:
REMARK  status: ('A' for Active; 'I' for Inactive)
REMARK    1  A    between atoms: C1_2  and  C2_3 
ROOT
ATOM      1  C2  UNL d   1      -1.361   0.673   1.492  0.00  0.00    -0.081 A 
ATOM      2  C3  UNL d   1      -0.756   1.809   0.943  0.00  0.00     0.006 A 
ATOM      3  C4  UNL d   1       0.285   1.681   0.020  0.00  0.00     0.002 A 
ATOM      4  C5  UNL d   1       0.733   0.416  -0.373  0.00  0.00    -0.080 A 
ATOM      5  C6  UNL d   1       1.830   0.264  -1.385  0.00  0.00     0.076 C 
ATOM      6  C7  UNL d   1       0.140  -0.720   0.189  0.00  0.00     0.002 A 
ATOM      7  C8  UNL d   1      -0.900  -0.592   1.112  0.00  0.00     0.006 A 
ENDROOT
BRANCH   1   8
ATOM      8  C1  UNL d   1      -2.527   0.807   2.438  0.00  0.00     0.054 C 
ATOM      9  C   UNL d   1      -3.589   1.743   1.878  0.00  0.00     0.018 C 
ENDBRANCH   1   8
TORSDOF 1
ENDMDL
