MODEL 1
REMARK minimizedAffinity -0.114557356
REMARK minimizedRMSD -1
REMARK  1 active torsions:
REMARK  status: ('A' for Active; 'I' for Inactive)
REMARK    1  A    between atoms: C1_2  and  C2_3 
ROOT
ATOM      1  C2  UNL d   1       0.971  -0.846  -0.589  0.00  0.00    -0.081 A 
ATOM      2  C3  UNL d   1       2.044  -0.021  -0.946  0.00  0.00     0.006 A 
ATOM      3  C4  UNL d   1       2.148   1.271  -0.424  0.00  0.00     0.002 A 
ATOM      4  C5  UNL d   1       1.185   1.755   0.468  0.00  0.00    -0.080 A 
ATOM      5  C6  UNL d   1       1.301   3.129   1.060  0.00  0.00     0.076 C 
ATOM      6  C7  UNL d   1       0.104   0.937   0.811  0.00  0.00     0.002 A 
ATOM      7  C8  UNL d   1      -0.001  -0.354   0.289  0.00  0.00     0.006 A 
ENDROOT
BRANCH   1   8
ATOM      8  C1  UNL d   1       0.891  -2.262  -1.100  0.00  0.00     0.054 C 
ATOM      9  C   UNL d   1       0.393  -3.213  -0.020  0.00  0.00     0.018 C 
ENDBRANCH   1   8
TORSDOF 1
ENDMDL
