MODEL 1
REMARK minimizedAffinity -3.95479941
REMARK minimizedRMSD -1
REMARK  1 active torsions:
REMARK  status: ('A' for Active; 'I' for Inactive)
REMARK    1  A    between atoms: C1_2  and  C2_3 
ROOT
ATOM      1  C2  UNL d   1      -4.983   3.668  -5.866  0.00  0.00    -0.081 A 
ATOM      2  C3  UNL d   1      -3.655   3.266  -5.679  0.00  0.00     0.006 A 
ATOM      3  C4  UNL d   1      -3.325   1.910  -5.630  0.00  0.00     0.002 A 
ATOM      4  C5  UNL d   1      -4.316   0.933  -5.776  0.00  0.00    -0.080 A 
ATOM      5  C6  UNL d   1      -3.972  -0.527  -5.756  0.00  0.00     0.076 C 
ATOM      6  C7  UNL d   1      -5.646   1.334  -5.945  0.00  0.00     0.002 A 
ATOM      7  C8  UNL d   1      -5.976   2.690  -5.993  0.00  0.00     0.006 A 
ENDROOT
BRANCH   1   8
ATOM      8  C1  UNL d   1      -5.333   5.129  -5.983  0.00  0.00     0.054 C 
ATOM      9  C   UNL d   1      -4.083   5.998  -6.000  0.00  0.00     0.018 C 
ENDBRANCH   1   8
TORSDOF 1
ENDMDL
