MODEL 1
REMARK minimizedAffinity -4.54657125
REMARK minimizedRMSD -1
REMARK  1 active torsions:
REMARK  status: ('A' for Active; 'I' for Inactive)
REMARK    1  A    between atoms: C1_2  and  C2_3 
ROOT
ATOM      1  C2  UNL d   1      -0.623  -0.001   0.745  0.00  0.00    -0.081 A 
ATOM      2  C3  UNL d   1       0.425   0.927   0.778  0.00  0.00     0.006 A 
ATOM      3  C4  UNL d   1       1.253   1.100  -0.334  0.00  0.00     0.002 A 
ATOM      4  C5  UNL d   1       1.043   0.355  -1.499  0.00  0.00    -0.080 A 
ATOM      5  C6  UNL d   1       1.905   0.552  -2.709  0.00  0.00     0.076 C 
ATOM      6  C7  UNL d   1       0.007  -0.585  -1.526  0.00  0.00     0.002 A 
ATOM      7  C8  UNL d   1      -0.821  -0.759  -0.414  0.00  0.00     0.006 A 
ENDROOT
BRANCH   1   8
ATOM      8  C1  UNL d   1      -1.558  -0.143   1.919  0.00  0.00     0.054 C 
ATOM      9  C   UNL d   1      -3.008   0.038   1.496  0.00  0.00     0.018 C 
ENDBRANCH   1   8
TORSDOF 1
ENDMDL
