MODEL 1
REMARK minimizedAffinity -3.25549674
REMARK minimizedRMSD -1
REMARK  1 active torsions:
REMARK  status: ('A' for Active; 'I' for Inactive)
REMARK    1  A    between atoms: C1_2  and  C2_3 
ROOT
ATOM      1  C2  UNL d   1      -0.736  -0.170   0.941  0.00  0.00    -0.081 A 
ATOM      2  C3  UNL d   1      -0.137   1.063   0.656  0.00  0.00     0.006 A 
ATOM      3  C4  UNL d   1       0.730   1.195  -0.432  0.00  0.00     0.002 A 
ATOM      4  C5  UNL d   1       1.006   0.098  -1.255  0.00  0.00    -0.080 A 
ATOM      5  C6  UNL d   1       1.911   0.233  -2.444  0.00  0.00     0.076 C 
ATOM      6  C7  UNL d   1       0.422  -1.138  -0.960  0.00  0.00     0.002 A 
ATOM      7  C8  UNL d   1      -0.445  -1.270   0.128  0.00  0.00     0.006 A 
ENDROOT
BRANCH   1   8
ATOM      8  C1  UNL d   1      -1.722  -0.299   2.074  0.00  0.00     0.054 C 
ATOM      9  C   UNL d   1      -3.122   0.111   1.639  0.00  0.00     0.018 C 
ENDBRANCH   1   8
TORSDOF 1
ENDMDL
