MODEL 1
REMARK minimizedAffinity -3.50788426
REMARK minimizedRMSD -1
REMARK  1 active torsions:
REMARK  status: ('A' for Active; 'I' for Inactive)
REMARK    1  A    between atoms: C1_2  and  C2_3 
ROOT
ATOM      1  C2  UNL d   1      -0.892   0.222   1.101  0.00  0.00    -0.081 A 
ATOM      2  C3  UNL d   1      -0.261   1.402   0.689  0.00  0.00     0.006 A 
ATOM      3  C4  UNL d   1       0.898   1.351  -0.089  0.00  0.00     0.002 A 
ATOM      4  C5  UNL d   1       1.440   0.120  -0.474  0.00  0.00    -0.080 A 
ATOM      5  C6  UNL d   1       2.667   0.051  -1.335  0.00  0.00     0.076 C 
ATOM      6  C7  UNL d   1       0.820  -1.059  -0.048  0.00  0.00     0.002 A 
ATOM      7  C8  UNL d   1      -0.339  -1.008   0.731  0.00  0.00     0.006 A 
ENDROOT
BRANCH   1   8
ATOM      8  C1  UNL d   1      -2.179   0.275   1.886  0.00  0.00     0.054 C 
ATOM      9  C   UNL d   1      -3.364  -0.155   1.034  0.00  0.00     0.018 C 
ENDBRANCH   1   8
TORSDOF 1
ENDMDL
