MODEL 1
REMARK minimizedAffinity -2.16860485
REMARK minimizedRMSD -1
REMARK  1 active torsions:
REMARK  status: ('A' for Active; 'I' for Inactive)
REMARK    1  A    between atoms: C1_2  and  C2_3 
ROOT
ATOM      1  C2  UNL d   1       1.164  -1.204  -0.516  0.00  0.00    -0.081 A 
ATOM      2  C3  UNL d   1       2.017  -0.392  -1.272  0.00  0.00     0.006 A 
ATOM      3  C4  UNL d   1       2.107   0.978  -1.012  0.00  0.00     0.002 A 
ATOM      4  C5  UNL d   1       1.350   1.557   0.012  0.00  0.00    -0.080 A 
ATOM      5  C6  UNL d   1       1.459   3.020   0.321  0.00  0.00     0.076 C 
ATOM      6  C7  UNL d   1       0.484   0.749   0.757  0.00  0.00     0.002 A 
ATOM      7  C8  UNL d   1       0.394  -0.621   0.497  0.00  0.00     0.006 A 
ENDROOT
BRANCH   1   8
ATOM      8  C1  UNL d   1       1.114  -2.692  -0.751  0.00  0.00     0.054 C 
ATOM      9  C   UNL d   1       0.343  -3.401   0.354  0.00  0.00     0.018 C 
ENDBRANCH   1   8
TORSDOF 1
ENDMDL
