MODEL 1
REMARK minimizedAffinity 8.51468754
REMARK minimizedRMSD -1
REMARK  0 active torsions:
REMARK  status: ('A' for Active; 'I' for Inactive)
ROOT
ATOM      1  N1  IND d   1      -0.008   2.345  -0.367  0.00  0.00    -0.196 N 
ATOM      2  C2  IND d   1       0.522   2.074   0.863  0.00  0.00     0.054 A 
ATOM      3  C3  IND d   1       1.577   1.237   0.747  0.00  0.00    -0.031 A 
ATOM      4  C4  IND d   1       2.670   0.269  -1.374  0.00  0.00     0.051 A 
ATOM      5  C5  IND d   1       2.518   0.203  -2.730  0.00  0.00    -0.031 A 
ATOM      6  C6  IND d   1       1.496   0.864  -3.382  0.00  0.00     0.015 A 
ATOM      7  C7  IND d   1       0.592   1.627  -2.699  0.00  0.00    -0.016 A 
ATOM      8  C8  IND d   1       0.740   1.691  -1.321  0.00  0.00    -0.047 A 
ATOM      9  C9  IND d   1       1.749   0.988  -0.650  0.00  0.00    -0.096 A 
ATOM     10  HN1 IND d   1      -0.693   2.842  -0.520  0.00  0.00     0.298 HD
ENDROOT
TORSDOF 0
ENDMDL
