MODEL 1
REMARK minimizedAffinity 2.82046485
REMARK minimizedRMSD -1
REMARK  0 active torsions:
REMARK  status: ('A' for Active; 'I' for Inactive)
ROOT
ATOM      1  N1  IND d   1       4.326   2.647   1.682  0.00  0.00    -0.196 N 
ATOM      2  C2  IND d   1       4.375   3.589   2.672  0.00  0.00     0.054 A 
ATOM      3  C3  IND d   1       3.146   3.776   3.204  0.00  0.00    -0.031 A 
ATOM      4  C4  IND d   1       0.934   2.571   2.675  0.00  0.00     0.051 A 
ATOM      5  C5  IND d   1       0.382   1.659   1.820  0.00  0.00    -0.031 A 
ATOM      6  C6  IND d   1       1.132   1.014   0.858  0.00  0.00     0.015 A 
ATOM      7  C7  IND d   1       2.471   1.251   0.722  0.00  0.00    -0.016 A 
ATOM      8  C8  IND d   1       3.033   2.182   1.583  0.00  0.00    -0.047 A 
ATOM      9  C9  IND d   1       2.268   2.871   2.534  0.00  0.00    -0.096 A 
ATOM     10  HN1 IND d   1       4.991   2.389   1.202  0.00  0.00     0.298 HD
ENDROOT
TORSDOF 0
ENDMDL
