MODEL 1
REMARK minimizedAffinity 8.63497829
REMARK minimizedRMSD -1
REMARK  0 active torsions:
REMARK  status: ('A' for Active; 'I' for Inactive)
ROOT
ATOM      1  N1  IND d   1       4.049   1.386  -1.530  0.00  0.00    -0.196 N 
ATOM      2  C2  IND d   1       3.277   0.475  -2.196  0.00  0.00     0.054 A 
ATOM      3  C3  IND d   1       2.246   0.074  -1.419  0.00  0.00    -0.031 A 
ATOM      4  C4  IND d   1       1.574   0.859   0.939  0.00  0.00     0.051 A 
ATOM      5  C5  IND d   1       1.993   1.652   1.970  0.00  0.00    -0.031 A 
ATOM      6  C6  IND d   1       3.140   2.414   1.885  0.00  0.00     0.015 A 
ATOM      7  C7  IND d   1       3.909   2.420   0.755  0.00  0.00    -0.016 A 
ATOM      8  C8  IND d   1       3.490   1.611  -0.291  0.00  0.00    -0.047 A 
ATOM      9  C9  IND d   1       2.350   0.803  -0.195  0.00  0.00    -0.096 A 
ATOM     10  HN1 IND d   1       4.763   1.756  -1.834  0.00  0.00     0.298 HD
ENDROOT
TORSDOF 0
ENDMDL
