MODEL 1
REMARK minimizedAffinity 14.6383133
REMARK minimizedRMSD -1
REMARK  0 active torsions:
REMARK  status: ('A' for Active; 'I' for Inactive)
ROOT
ATOM      1  N1  IND d   1       2.437   0.360   0.616  0.00  0.00    -0.196 N 
ATOM      2  C2  IND d   1       1.418   1.165   1.042  0.00  0.00     0.054 A 
ATOM      3  C3  IND d   1       0.716   1.634  -0.015  0.00  0.00    -0.031 A 
ATOM      4  C4  IND d   1       1.003   1.128  -2.523  0.00  0.00     0.051 A 
ATOM      5  C5  IND d   1       1.820   0.476  -3.403  0.00  0.00    -0.031 A 
ATOM      6  C6  IND d   1       2.905  -0.264  -2.981  0.00  0.00     0.015 A 
ATOM      7  C7  IND d   1       3.208  -0.391  -1.655  0.00  0.00    -0.016 A 
ATOM      8  C8  IND d   1       2.384   0.275  -0.758  0.00  0.00    -0.047 A 
ATOM      9  C9  IND d   1       1.307   1.063  -1.183  0.00  0.00    -0.096 A 
ATOM     10  HN1 IND d   1       3.014  -0.028   1.122  0.00  0.00     0.298 HD
ENDROOT
TORSDOF 0
ENDMDL
