MODEL 1
REMARK minimizedAffinity 9.37803268
REMARK minimizedRMSD -1
REMARK  0 active torsions:
REMARK  status: ('A' for Active; 'I' for Inactive)
ROOT
ATOM      1  N1  IND d   1       2.243   1.519  -2.367  0.00  0.00    -0.196 N 
ATOM      2  C2  IND d   1       2.615   0.710  -3.405  0.00  0.00     0.054 A 
ATOM      3  C3  IND d   1       2.617  -0.585  -3.015  0.00  0.00    -0.031 A 
ATOM      4  C4  IND d   1       1.946  -1.612  -0.752  0.00  0.00     0.051 A 
ATOM      5  C5  IND d   1       1.571  -1.271   0.517  0.00  0.00    -0.031 A 
ATOM      6  C6  IND d   1       1.395   0.044   0.897  0.00  0.00     0.015 A 
ATOM      7  C7  IND d   1       1.577   1.071   0.014  0.00  0.00    -0.016 A 
ATOM      8  C8  IND d   1       1.964   0.728  -1.274  0.00  0.00    -0.047 A 
ATOM      9  C9  IND d   1       2.186  -0.602  -1.653  0.00  0.00    -0.096 A 
ATOM     10  HN1 IND d   1       2.192   2.376  -2.393  0.00  0.00     0.298 HD
ENDROOT
TORSDOF 0
ENDMDL
