MODEL 1
REMARK minimizedAffinity 13.8637705
REMARK minimizedRMSD -1
REMARK  0 active torsions:
REMARK  status: ('A' for Active; 'I' for Inactive)
ROOT
ATOM      1  N1  IND d   1       1.873   0.445   0.863  0.00  0.00    -0.196 N 
ATOM      2  C2  IND d   1       0.863   1.312   1.177  0.00  0.00     0.054 A 
ATOM      3  C3  IND d   1       0.410   1.930   0.063  0.00  0.00    -0.031 A 
ATOM      4  C4  IND d   1       1.112   1.598  -2.392  0.00  0.00     0.051 A 
ATOM      5  C5  IND d   1       2.020   0.940  -3.173  0.00  0.00    -0.031 A 
ATOM      6  C6  IND d   1       2.943   0.064  -2.638  0.00  0.00     0.015 A 
ATOM      7  C7  IND d   1       2.984  -0.196  -1.297  0.00  0.00    -0.016 A 
ATOM      8  C8  IND d   1       2.068   0.475  -0.500  0.00  0.00    -0.047 A 
ATOM      9  C9  IND d   1       1.157   1.397  -1.032  0.00  0.00    -0.096 A 
ATOM     10  HN1 IND d   1       2.312  -0.037   1.423  0.00  0.00     0.298 HD
ENDROOT
TORSDOF 0
ENDMDL
