MODEL 1
REMARK minimizedAffinity 7.35936689
REMARK minimizedRMSD -1
REMARK  0 active torsions:
REMARK  status: ('A' for Active; 'I' for Inactive)
ROOT
ATOM      1  N1  IND d   1       2.260   1.071   1.422  0.00  0.00    -0.196 N 
ATOM      2  C2  IND d   1       1.835   0.737   0.167  0.00  0.00     0.054 A 
ATOM      3  C3  IND d   1       0.553   1.126  -0.015  0.00  0.00    -0.031 A 
ATOM      4  C4  IND d   1      -1.005   2.419   1.576  0.00  0.00     0.051 A 
ATOM      5  C5  IND d   1      -1.076   2.913   2.848  0.00  0.00    -0.031 A 
ATOM      6  C6  IND d   1      -0.016   2.819   3.727  0.00  0.00     0.015 A 
ATOM      7  C7  IND d   1       1.164   2.235   3.361  0.00  0.00    -0.016 A 
ATOM      8  C8  IND d   1       1.237   1.726   2.072  0.00  0.00    -0.047 A 
ATOM      9  C9  IND d   1       0.150   1.780   1.190  0.00  0.00    -0.096 A 
ATOM     10  HN1 IND d   1       3.037   0.902   1.750  0.00  0.00     0.298 HD
ENDROOT
TORSDOF 0
ENDMDL
