MODEL 1
REMARK minimizedAffinity 16.9841576
REMARK minimizedRMSD -1
REMARK  0 active torsions:
REMARK  status: ('A' for Active; 'I' for Inactive)
ROOT
ATOM      1  N1  IND d   1       2.418   2.509   3.137  0.00  0.00    -0.196 N 
ATOM      2  C2  IND d   1       3.371   2.536   2.158  0.00  0.00     0.054 A 
ATOM      3  C3  IND d   1       2.795   2.446   0.938  0.00  0.00    -0.031 A 
ATOM      4  C4  IND d   1       0.300   2.350   0.311  0.00  0.00     0.051 A 
ATOM      5  C5  IND d   1      -0.947   2.263   0.864  0.00  0.00    -0.031 A 
ATOM      6  C6  IND d   1      -1.140   2.257   2.230  0.00  0.00     0.015 A 
ATOM      7  C7  IND d   1      -0.090   2.349   3.098  0.00  0.00    -0.016 A 
ATOM      8  C8  IND d   1       1.178   2.430   2.541  0.00  0.00    -0.047 A 
ATOM      9  C9  IND d   1       1.384   2.394   1.156  0.00  0.00    -0.096 A 
ATOM     10  HN1 IND d   1       2.567   2.538   3.983  0.00  0.00     0.298 HD
ENDROOT
TORSDOF 0
ENDMDL
