MODEL 1
REMARK minimizedAffinity 12.79638
REMARK minimizedRMSD -1
REMARK  0 active torsions:
REMARK  status: ('A' for Active; 'I' for Inactive)
ROOT
ATOM      1  N1  IND d   1       1.190   0.644   1.786  0.00  0.00    -0.196 N 
ATOM      2  C2  IND d   1       1.900   1.775   2.079  0.00  0.00     0.054 A 
ATOM      3  C3  IND d   1       2.635   2.159   1.012  0.00  0.00    -0.031 A 
ATOM      4  C4  IND d   1       2.748   1.139  -1.349  0.00  0.00     0.051 A 
ATOM      5  C5  IND d   1       2.306   0.076  -2.085  0.00  0.00    -0.031 A 
ATOM      6  C6  IND d   1       1.449  -0.870  -1.559  0.00  0.00     0.015 A 
ATOM      7  C7  IND d   1       0.992  -0.781  -0.275  0.00  0.00    -0.016 A 
ATOM      8  C8  IND d   1       1.445   0.293   0.478  0.00  0.00    -0.047 A 
ATOM      9  C9  IND d   1       2.348   1.232  -0.037  0.00  0.00    -0.096 A 
ATOM     10  HN1 IND d   1       0.672   0.222   2.327  0.00  0.00     0.298 HD
ENDROOT
TORSDOF 0
ENDMDL
