MODEL 1
REMARK minimizedAffinity 9.75511837
REMARK minimizedRMSD -1
REMARK  0 active torsions:
REMARK  status: ('A' for Active; 'I' for Inactive)
ROOT
ATOM      1  N1  IND d   1       3.850   1.303  -1.489  0.00  0.00    -0.196 N 
ATOM      2  C2  IND d   1       3.228   0.359  -2.257  0.00  0.00     0.054 A 
ATOM      3  C3  IND d   1       2.185  -0.181  -1.586  0.00  0.00    -0.031 A 
ATOM      4  C4  IND d   1       1.258   0.406   0.742  0.00  0.00     0.051 A 
ATOM      5  C5  IND d   1       1.514   1.179   1.840  0.00  0.00    -0.031 A 
ATOM      6  C6  IND d   1       2.581   2.053   1.884  0.00  0.00     0.015 A 
ATOM      7  C7  IND d   1       3.430   2.195   0.822  0.00  0.00    -0.016 A 
ATOM      8  C8  IND d   1       3.177   1.406  -0.291  0.00  0.00    -0.047 A 
ATOM      9  C9  IND d   1       2.121   0.487  -0.325  0.00  0.00    -0.096 A 
ATOM     10  HN1 IND d   1       4.544   1.756  -1.716  0.00  0.00     0.298 HD
ENDROOT
TORSDOF 0
ENDMDL
