MODEL 1
REMARK minimizedAffinity 13.5157909
REMARK minimizedRMSD -1
REMARK  0 active torsions:
REMARK  status: ('A' for Active; 'I' for Inactive)
ROOT
ATOM      1  N1  IND d   1       1.852   1.029   1.804  0.00  0.00    -0.196 N 
ATOM      2  C2  IND d   1       2.783   1.973   2.136  0.00  0.00     0.054 A 
ATOM      3  C3  IND d   1       3.630   2.182   1.104  0.00  0.00    -0.031 A 
ATOM      4  C4  IND d   1       3.611   1.160  -1.259  0.00  0.00     0.051 A 
ATOM      5  C5  IND d   1       2.973   0.223  -2.022  0.00  0.00    -0.031 A 
ATOM      6  C6  IND d   1       1.906  -0.507  -1.540  0.00  0.00     0.015 A 
ATOM      7  C7  IND d   1       1.427  -0.317  -0.275  0.00  0.00    -0.016 A 
ATOM      8  C8  IND d   1       2.077   0.629   0.505  0.00  0.00    -0.047 A 
ATOM      9  C9  IND d   1       3.187   1.342   0.036  0.00  0.00    -0.096 A 
ATOM     10  HN1 IND d   1       1.230   0.735   2.320  0.00  0.00     0.298 HD
ENDROOT
TORSDOF 0
ENDMDL
