MODEL 1
REMARK minimizedAffinity 9.1172781
REMARK minimizedRMSD -1
REMARK  0 active torsions:
REMARK  status: ('A' for Active; 'I' for Inactive)
ROOT
ATOM      1  N1  IND d   1      -4.771   3.999   0.902  0.00  0.00    -0.196 N 
ATOM      2  C2  IND d   1      -5.976   3.571   0.420  0.00  0.00     0.054 A 
ATOM      3  C3  IND d   1      -6.000   2.221   0.342  0.00  0.00    -0.031 A 
ATOM      4  C4  IND d   1      -4.210   0.511   1.049  0.00  0.00     0.051 A 
ATOM      5  C5  IND d   1      -2.927   0.423   1.512  0.00  0.00    -0.031 A 
ATOM      6  C6  IND d   1      -2.179   1.545   1.803  0.00  0.00     0.015 A 
ATOM      7  C7  IND d   1      -2.692   2.803   1.653  0.00  0.00    -0.016 A 
ATOM      8  C8  IND d   1      -3.992   2.896   1.177  0.00  0.00    -0.047 A 
ATOM      9  C9  IND d   1      -4.742   1.761   0.839  0.00  0.00    -0.096 A 
ATOM     10  HN1 IND d   1      -4.538   4.819   1.015  0.00  0.00     0.298 HD
ENDROOT
TORSDOF 0
ENDMDL
