MODEL 1
REMARK minimizedAffinity 11.2995958
REMARK minimizedRMSD -1
REMARK  0 active torsions:
REMARK  status: ('A' for Active; 'I' for Inactive)
ROOT
ATOM      1  N1  IND d   1       2.317   0.303   0.670  0.00  0.00    -0.196 N 
ATOM      2  C2  IND d   1       1.321   1.163   1.041  0.00  0.00     0.054 A 
ATOM      3  C3  IND d   1       0.686   1.646  -0.050  0.00  0.00    -0.031 A 
ATOM      4  C4  IND d   1       1.047   1.083  -2.536  0.00  0.00     0.051 A 
ATOM      5  C5  IND d   1       1.866   0.378  -3.373  0.00  0.00    -0.031 A 
ATOM      6  C6  IND d   1       2.897  -0.406  -2.895  0.00  0.00     0.015 A 
ATOM      7  C7  IND d   1       3.140  -0.523  -1.556  0.00  0.00    -0.016 A 
ATOM      8  C8  IND d   1       2.315   0.197  -0.704  0.00  0.00    -0.047 A 
ATOM      9  C9  IND d   1       1.294   1.027  -1.185  0.00  0.00    -0.096 A 
ATOM     10  HN1 IND d   1       2.854  -0.102   1.205  0.00  0.00     0.298 HD
ENDROOT
TORSDOF 0
ENDMDL
