MODEL 1
REMARK minimizedAffinity 9.59772968
REMARK minimizedRMSD -1
REMARK  0 active torsions:
REMARK  status: ('A' for Active; 'I' for Inactive)
ROOT
ATOM      1  N1  IND d   1       2.508  -0.896  -2.508  0.00  0.00    -0.196 N 
ATOM      2  C2  IND d   1       2.761   0.254  -3.203  0.00  0.00     0.054 A 
ATOM      3  C3  IND d   1       2.458   1.335  -2.449  0.00  0.00    -0.031 A 
ATOM      4  C4  IND d   1       1.633   1.451  -0.014  0.00  0.00     0.051 A 
ATOM      5  C5  IND d   1       1.221   0.662   1.023  0.00  0.00    -0.031 A 
ATOM      6  C6  IND d   1       1.220  -0.715   0.935  0.00  0.00     0.015 A 
ATOM      7  C7  IND d   1       1.643  -1.357  -0.194  0.00  0.00    -0.016 A 
ATOM      8  C8  IND d   1       2.055  -0.559  -1.251  0.00  0.00    -0.047 A 
ATOM      9  C9  IND d   1       2.018   0.840  -1.183  0.00  0.00    -0.096 A 
ATOM     10  HN1 IND d   1       2.615  -1.696  -2.805  0.00  0.00     0.298 HD
ENDROOT
TORSDOF 0
ENDMDL
