MODEL 1
REMARK minimizedAffinity 8.87985992
REMARK minimizedRMSD -1
REMARK  0 active torsions:
REMARK  status: ('A' for Active; 'I' for Inactive)
ROOT
ATOM      1  N1  IND d   1       1.920   1.494   2.423  0.00  0.00    -0.196 N 
ATOM      2  C2  IND d   1       2.297   1.285   1.125  0.00  0.00     0.054 A 
ATOM      3  C3  IND d   1       1.242   1.455   0.297  0.00  0.00    -0.031 A 
ATOM      4  C4  IND d   1      -1.168   2.176   0.844  0.00  0.00     0.051 A 
ATOM      5  C5  IND d   1      -2.000   2.446   1.894  0.00  0.00    -0.031 A 
ATOM      6  C6  IND d   1      -1.557   2.415   3.201  0.00  0.00     0.015 A 
ATOM      7  C7  IND d   1      -0.258   2.122   3.506  0.00  0.00    -0.016 A 
ATOM      8  C8  IND d   1       0.587   1.840   2.442  0.00  0.00    -0.047 A 
ATOM      9  C9  IND d   1       0.134   1.829   1.117  0.00  0.00    -0.096 A 
ATOM     10  HN1 IND d   1       2.431   1.422   3.111  0.00  0.00     0.298 HD
ENDROOT
TORSDOF 0
ENDMDL
