MODEL 1
REMARK minimizedAffinity 6.24416351
REMARK minimizedRMSD -1
REMARK  0 active torsions:
REMARK  status: ('A' for Active; 'I' for Inactive)
ROOT
ATOM      1  N1  IND d   1       3.846   1.741  -1.655  0.00  0.00    -0.196 N 
ATOM      2  C2  IND d   1       3.772   0.828  -2.669  0.00  0.00     0.054 A 
ATOM      3  C3  IND d   1       3.049  -0.247  -2.283  0.00  0.00    -0.031 A 
ATOM      4  C4  IND d   1       1.809  -0.674  -0.068  0.00  0.00     0.051 A 
ATOM      5  C5  IND d   1       1.615  -0.144   1.177  0.00  0.00    -0.031 A 
ATOM      6  C6  IND d   1       2.163   1.067   1.548  0.00  0.00     0.015 A 
ATOM      7  C7  IND d   1       2.920   1.802   0.681  0.00  0.00    -0.016 A 
ATOM      8  C8  IND d   1       3.126   1.264  -0.582  0.00  0.00    -0.047 A 
ATOM      9  C9  IND d   1       2.607   0.016  -0.950  0.00  0.00    -0.096 A 
ATOM     10  HN1 IND d   1       4.272   2.488  -1.682  0.00  0.00     0.298 HD
ENDROOT
TORSDOF 0
ENDMDL
