MODEL 1
REMARK minimizedAffinity 8.13950729
REMARK minimizedRMSD -1
REMARK  0 active torsions:
REMARK  status: ('A' for Active; 'I' for Inactive)
ROOT
ATOM      1  N1  IND d   1       0.956   0.744  -4.790  0.00  0.00    -0.196 N 
ATOM      2  C2  IND d   1       0.332   1.956  -4.692  0.00  0.00     0.054 A 
ATOM      3  C3  IND d   1       0.646   2.554  -3.521  0.00  0.00    -0.031 A 
ATOM      4  C4  IND d   1       2.246   1.771  -1.662  0.00  0.00     0.051 A 
ATOM      5  C5  IND d   1       3.021   0.711  -1.284  0.00  0.00    -0.031 A 
ATOM      6  C6  IND d   1       3.153  -0.414  -2.073  0.00  0.00     0.015 A 
ATOM      7  C7  IND d   1       2.520  -0.517  -3.279  0.00  0.00    -0.016 A 
ATOM      8  C8  IND d   1       1.726   0.555  -3.663  0.00  0.00    -0.047 A 
ATOM      9  C9  IND d   1       1.555   1.681  -2.848  0.00  0.00    -0.096 A 
ATOM     10  HN1 IND d   1       0.881   0.192  -5.445  0.00  0.00     0.298 HD
ENDROOT
TORSDOF 0
ENDMDL
