MODEL 1
REMARK minimizedAffinity 20.2898731
REMARK minimizedRMSD -1
REMARK  0 active torsions:
REMARK  status: ('A' for Active; 'I' for Inactive)
ROOT
ATOM      1  C   UNL d   1      -2.246   2.861  -3.750  0.00  0.00    -0.002 A 
ATOM      2  C1  UNL d   1      -1.963   4.184  -4.055  0.00  0.00     0.010 A 
ATOM      3  C2  UNL d   1      -2.482   5.219  -3.274  0.00  0.00     0.041 A 
ATOM      4  C3  UNL d   1      -3.296   4.898  -2.171  0.00  0.00    -0.075 A 
ATOM      5  S   UNL d   1      -4.041   6.000  -1.073  0.00  0.00     0.015 SA
ATOM      6  C4  UNL d   1      -4.751   4.739  -0.173  0.00  0.00     0.022 A 
ATOM      7  C5  UNL d   1      -4.439   3.501  -0.684  0.00  0.00     0.026 A 
ATOM      8  C6  UNL d   1      -3.595   3.573  -1.843  0.00  0.00    -0.082 A 
ATOM      9  C7  UNL d   1      -3.055   2.546  -2.655  0.00  0.00     0.045 A 
ENDROOT
TORSDOF 0
ENDMDL
