MODEL 1
REMARK minimizedAffinity 25.3347645
REMARK minimizedRMSD -1
REMARK  0 active torsions:
REMARK  status: ('A' for Active; 'I' for Inactive)
ROOT
ATOM      1  C   UNL d   1      -1.540   5.981  -5.240  0.00  0.00    -0.002 A 
ATOM      2  C1  UNL d   1      -1.554   4.787  -5.946  0.00  0.00     0.010 A 
ATOM      3  C2  UNL d   1      -1.876   3.588  -5.308  0.00  0.00     0.041 A 
ATOM      4  C3  UNL d   1      -2.190   3.610  -3.934  0.00  0.00    -0.075 A 
ATOM      5  S   UNL d   1      -2.616   2.265  -2.943  0.00  0.00     0.015 SA
ATOM      6  C4  UNL d   1      -2.791   3.245  -1.560  0.00  0.00     0.022 A 
ATOM      7  C5  UNL d   1      -2.534   4.568  -1.829  0.00  0.00     0.026 A 
ATOM      8  C6  UNL d   1      -2.184   4.801  -3.202  0.00  0.00    -0.082 A 
ATOM      9  C7  UNL d   1      -1.851   5.999  -3.878  0.00  0.00     0.045 A 
ENDROOT
TORSDOF 0
ENDMDL
