MODEL 1
REMARK minimizedAffinity 24.1304493
REMARK minimizedRMSD -1
REMARK  0 active torsions:
REMARK  status: ('A' for Active; 'I' for Inactive)
ROOT
ATOM      1  C   UNL d   1      -1.507   5.388  -3.169  0.00  0.00    -0.002 A 
ATOM      2  C1  UNL d   1      -1.487   4.010  -3.333  0.00  0.00     0.010 A 
ATOM      3  C2  UNL d   1      -2.429   3.204  -2.691  0.00  0.00     0.041 A 
ATOM      4  C3  UNL d   1      -3.403   3.812  -1.875  0.00  0.00    -0.075 A 
ATOM      5  S   UNL d   1      -4.657   3.026  -0.991  0.00  0.00     0.015 SA
ATOM      6  C4  UNL d   1      -5.250   4.500  -0.375  0.00  0.00     0.022 A 
ATOM      7  C5  UNL d   1      -4.521   5.576  -0.822  0.00  0.00     0.026 A 
ATOM      8  C6  UNL d   1      -3.444   5.198  -1.694  0.00  0.00    -0.082 A 
ATOM      9  C7  UNL d   1      -2.475   5.988  -2.358  0.00  0.00     0.045 A 
ENDROOT
TORSDOF 0
ENDMDL
