MODEL 1
REMARK minimizedAffinity 9.16445065
REMARK minimizedRMSD -1
REMARK  0 active torsions:
REMARK  status: ('A' for Active; 'I' for Inactive)
ROOT
ATOM      1  C   UNL d   1      -3.522   4.262  -1.691  0.00  0.00    -0.002 A 
ATOM      2  C1  UNL d   1      -3.699   3.005  -2.251  0.00  0.00     0.010 A 
ATOM      3  C2  UNL d   1      -3.354   2.765  -3.583  0.00  0.00     0.041 A 
ATOM      4  C3  UNL d   1      -2.821   3.821  -4.349  0.00  0.00    -0.075 A 
ATOM      5  S   UNL d   1      -2.326   3.760  -6.000  0.00  0.00     0.015 SA
ATOM      6  C4  UNL d   1      -1.867   5.402  -6.000  0.00  0.00     0.022 A 
ATOM      7  C5  UNL d   1      -2.080   5.997  -4.779  0.00  0.00     0.026 A 
ATOM      8  C6  UNL d   1      -2.632   5.095  -3.807  0.00  0.00    -0.082 A 
ATOM      9  C7  UNL d   1      -2.993   5.306  -2.454  0.00  0.00     0.045 A 
ENDROOT
TORSDOF 0
ENDMDL
