MODEL 1
REMARK minimizedAffinity 6.95556545
REMARK minimizedRMSD -1
REMARK  0 active torsions:
REMARK  status: ('A' for Active; 'I' for Inactive)
ROOT
ATOM      1  C   UNL d   1      -0.329  -2.302   2.050  0.00  0.00    -0.002 A 
ATOM      2  C1  UNL d   1       0.326  -1.225   2.630  0.00  0.00     0.010 A 
ATOM      3  C2  UNL d   1      -0.134  -0.675   3.828  0.00  0.00     0.041 A 
ATOM      4  C3  UNL d   1      -1.273  -1.234   4.441  0.00  0.00    -0.075 A 
ATOM      5  S   UNL d   1      -2.016  -0.726   5.912  0.00  0.00     0.015 SA
ATOM      6  C4  UNL d   1      -3.220  -1.928   5.805  0.00  0.00     0.022 A 
ATOM      7  C5  UNL d   1      -3.074  -2.706   4.681  0.00  0.00     0.026 A 
ATOM      8  C6  UNL d   1      -1.949  -2.319   3.876  0.00  0.00    -0.082 A 
ATOM      9  C7  UNL d   1      -1.459  -2.853   2.660  0.00  0.00     0.045 A 
ENDROOT
TORSDOF 0
ENDMDL
