MODEL 1
REMARK minimizedAffinity 11.0601263
REMARK minimizedRMSD -1
REMARK  0 active torsions:
REMARK  status: ('A' for Active; 'I' for Inactive)
ROOT
ATOM      1  C   UNL d   1      -1.477  -2.179   3.481  0.00  0.00    -0.002 A 
ATOM      2  C1  UNL d   1      -1.131  -0.978   4.085  0.00  0.00     0.010 A 
ATOM      3  C2  UNL d   1       0.054  -0.325   3.742  0.00  0.00     0.041 A 
ATOM      4  C3  UNL d   1       0.894  -0.904   2.769  0.00  0.00    -0.075 A 
ATOM      5  S   UNL d   1       2.394  -0.283   2.189  0.00  0.00     0.015 SA
ATOM      6  C4  UNL d   1       2.611  -1.596   1.124  0.00  0.00     0.022 A 
ATOM      7  C5  UNL d   1       1.574  -2.496   1.197  0.00  0.00     0.026 A 
ATOM      8  C6  UNL d   1       0.567  -2.111   2.146  0.00  0.00    -0.082 A 
ATOM      9  C7  UNL d   1      -0.642  -2.749   2.517  0.00  0.00     0.045 A 
ENDROOT
TORSDOF 0
ENDMDL
