MODEL 1
REMARK minimizedAffinity 17.5822716
REMARK minimizedRMSD -1
REMARK  0 active torsions:
REMARK  status: ('A' for Active; 'I' for Inactive)
ROOT
ATOM      1  C   UNL d   1      -1.612  -2.685   3.605  0.00  0.00    -0.002 A 
ATOM      2  C1  UNL d   1      -1.561  -1.380   4.075  0.00  0.00     0.010 A 
ATOM      3  C2  UNL d   1      -0.555  -0.510   3.649  0.00  0.00     0.041 A 
ATOM      4  C3  UNL d   1       0.407  -0.978   2.732  0.00  0.00    -0.075 A 
ATOM      5  S   UNL d   1       1.729  -0.091   2.070  0.00  0.00     0.015 SA
ATOM      6  C4  UNL d   1       2.257  -1.423   1.147  0.00  0.00     0.022 A 
ATOM      7  C5  UNL d   1       1.456  -2.526   1.328  0.00  0.00     0.026 A 
ATOM      8  C6  UNL d   1       0.376  -2.287   2.244  0.00  0.00    -0.082 A 
ATOM      9  C7  UNL d   1      -0.656  -3.145   2.696  0.00  0.00     0.045 A 
ENDROOT
TORSDOF 0
ENDMDL
