MODEL 1
REMARK minimizedAffinity 14.9681158
REMARK minimizedRMSD -1
REMARK  0 active torsions:
REMARK  status: ('A' for Active; 'I' for Inactive)
ROOT
ATOM      1  C   UNL d   1       5.668  -3.287  -5.823  0.00  0.00    -0.002 A 
ATOM      2  C1  UNL d   1       5.887  -4.653  -5.934  0.00  0.00     0.010 A 
ATOM      3  C2  UNL d   1       4.833  -5.556  -5.785  0.00  0.00     0.041 A 
ATOM      4  C3  UNL d   1       3.541  -5.059  -5.522  0.00  0.00    -0.075 A 
ATOM      5  S   UNL d   1       2.099  -5.977  -5.303  0.00  0.00     0.015 SA
ATOM      6  C4  UNL d   1       1.157  -4.577  -5.058  0.00  0.00     0.022 A 
ATOM      7  C5  UNL d   1       1.909  -3.429  -5.138  0.00  0.00     0.026 A 
ATOM      8  C6  UNL d   1       3.295  -3.688  -5.407  0.00  0.00    -0.082 A 
ATOM      9  C7  UNL d   1       4.385  -2.798  -5.562  0.00  0.00     0.045 A 
ENDROOT
TORSDOF 0
ENDMDL
