MODEL 1
REMARK minimizedAffinity 16.0907402
REMARK minimizedRMSD -1
REMARK  0 active torsions:
REMARK  status: ('A' for Active; 'I' for Inactive)
ROOT
ATOM      1  C   UNL d   1      -4.863   3.686  -0.284  0.00  0.00    -0.002 A 
ATOM      2  C1  UNL d   1      -4.780   5.059  -0.465  0.00  0.00     0.010 A 
ATOM      3  C2  UNL d   1      -3.899   5.599  -1.404  0.00  0.00     0.041 A 
ATOM      4  C3  UNL d   1      -3.098   4.728  -2.168  0.00  0.00    -0.075 A 
ATOM      5  S   UNL d   1      -1.948   5.163  -3.377  0.00  0.00     0.015 SA
ATOM      6  C4  UNL d   1      -1.542   3.536  -3.682  0.00  0.00     0.022 A 
ATOM      7  C5  UNL d   1      -2.256   2.669  -2.890  0.00  0.00     0.026 A 
ATOM      8  C6  UNL d   1      -3.165   3.341  -2.004  0.00  0.00    -0.082 A 
ATOM      9  C7  UNL d   1      -4.067   2.824  -1.043  0.00  0.00     0.045 A 
ENDROOT
TORSDOF 0
ENDMDL
