MODEL 1
REMARK minimizedAffinity 12.9512386
REMARK minimizedRMSD -1
REMARK  0 active torsions:
REMARK  status: ('A' for Active; 'I' for Inactive)
ROOT
ATOM      1  C   UNL d   1      -1.665  -1.486   4.232  0.00  0.00    -0.002 A 
ATOM      2  C1  UNL d   1      -1.947  -2.640   3.516  0.00  0.00     0.010 A 
ATOM      3  C2  UNL d   1      -1.088  -3.077   2.506  0.00  0.00     0.041 A 
ATOM      4  C3  UNL d   1       0.072  -2.328   2.227  0.00  0.00    -0.075 A 
ATOM      5  S   UNL d   1       1.270  -2.672   1.035  0.00  0.00     0.015 SA
ATOM      6  C4  UNL d   1       2.185  -1.295   1.450  0.00  0.00     0.022 A 
ATOM      7  C5  UNL d   1       1.605  -0.579   2.470  0.00  0.00     0.026 A 
ATOM      8  C6  UNL d   1       0.378  -1.163   2.935  0.00  0.00    -0.082 A 
ATOM      9  C7  UNL d   1      -0.513  -0.745   3.952  0.00  0.00     0.045 A 
ENDROOT
TORSDOF 0
ENDMDL
