MODEL 1
REMARK minimizedAffinity 17.422142
REMARK minimizedRMSD -1
REMARK  0 active torsions:
REMARK  status: ('A' for Active; 'I' for Inactive)
ROOT
ATOM      1  C   UNL d   1      -1.564   6.000  -4.837  0.00  0.00    -0.002 A 
ATOM      2  C1  UNL d   1      -1.543   4.856  -5.621  0.00  0.00     0.010 A 
ATOM      3  C2  UNL d   1      -2.003   3.639  -5.114  0.00  0.00     0.041 A 
ATOM      4  C3  UNL d   1      -2.491   3.591  -3.794  0.00  0.00    -0.075 A 
ATOM      5  S   UNL d   1      -3.107   2.212  -2.962  0.00  0.00     0.015 SA
ATOM      6  C4  UNL d   1      -3.413   3.110  -1.546  0.00  0.00     0.022 A 
ATOM      7  C5  UNL d   1      -3.060   4.431  -1.686  0.00  0.00     0.026 A 
ATOM      8  C6  UNL d   1      -2.523   4.730  -2.984  0.00  0.00    -0.082 A 
ATOM      9  C7  UNL d   1      -2.049   5.949  -3.527  0.00  0.00     0.045 A 
ENDROOT
TORSDOF 0
ENDMDL
