MODEL 1
REMARK minimizedAffinity 20.10285
REMARK minimizedRMSD -1
REMARK  0 active torsions:
REMARK  status: ('A' for Active; 'I' for Inactive)
ROOT
ATOM      1  C   UNL d   1      -1.638   5.993  -3.310  0.00  0.00    -0.002 A 
ATOM      2  C1  UNL d   1      -1.406   4.832  -4.034  0.00  0.00     0.010 A 
ATOM      3  C2  UNL d   1      -2.092   3.655  -3.728  0.00  0.00     0.041 A 
ATOM      4  C3  UNL d   1      -3.025   3.665  -2.672  0.00  0.00    -0.075 A 
ATOM      5  S   UNL d   1      -3.983   2.343  -2.119  0.00  0.00     0.015 SA
ATOM      6  C4  UNL d   1      -4.722   3.288  -0.909  0.00  0.00     0.022 A 
ATOM      7  C5  UNL d   1      -4.262   4.583  -0.913  0.00  0.00     0.026 A 
ATOM      8  C6  UNL d   1      -3.276   4.822  -1.929  0.00  0.00    -0.082 A 
ATOM      9  C7  UNL d   1      -2.564   5.999  -2.264  0.00  0.00     0.045 A 
ENDROOT
TORSDOF 0
ENDMDL
