MODEL 1
REMARK minimizedAffinity 19.0543404
REMARK minimizedRMSD -1
REMARK  1 active torsions:
REMARK  status: ('A' for Active; 'I' for Inactive)
REMARK    1  A    between atoms: C1_2  and  C2_3 
ROOT
ATOM      1  C2  UNL d   1       0.694  -1.927  -2.263  0.00  0.00    -0.076 A 
ATOM      2  C3  UNL d   1      -0.449  -2.517  -2.830  0.00  0.00     0.004 A 
ATOM      3  C4  UNL d   1      -1.682  -1.867  -2.799  0.00  0.00    -0.003 A 
ATOM      4  C5  UNL d   1      -1.791  -0.617  -2.201  0.00  0.00     0.000 A 
ATOM      5  C6  UNL d   1      -0.664  -0.009  -1.649  0.00  0.00     0.000 A 
ATOM      6  C7  UNL d   1       0.590  -0.643  -1.687  0.00  0.00    -0.073 A 
ATOM      7  C8  UNL d   1       1.771   0.056  -1.071  0.00  0.00     0.078 C 
ENDROOT
BRANCH   1   8
ATOM      8  C1  UNL d   1       1.999  -2.691  -2.302  0.00  0.00     0.053 C 
ATOM      9  C   UNL d   1       2.709  -2.562  -3.640  0.00  0.00     0.018 C 
ENDBRANCH   1   8
TORSDOF 1
ENDMDL
