MODEL 1
REMARK minimizedAffinity 14.5265703
REMARK minimizedRMSD -1
REMARK  1 active torsions:
REMARK  status: ('A' for Active; 'I' for Inactive)
REMARK    1  A    between atoms: C1_2  and  C2_3 
ROOT
ATOM      1  C2  UNL d   1      -5.093   0.999  -0.975  0.00  0.00    -0.076 A 
ATOM      2  C3  UNL d   1      -5.825   1.569  -2.032  0.00  0.00     0.004 A 
ATOM      3  C4  UNL d   1      -5.829   2.947  -2.240  0.00  0.00    -0.003 A 
ATOM      4  C5  UNL d   1      -5.101   3.777  -1.396  0.00  0.00     0.000 A 
ATOM      5  C6  UNL d   1      -4.355   3.228  -0.354  0.00  0.00     0.000 A 
ATOM      6  C7  UNL d   1      -4.327   1.839  -0.140  0.00  0.00    -0.073 A 
ATOM      7  C8  UNL d   1      -3.510   1.301   1.003  0.00  0.00     0.078 C 
ENDROOT
BRANCH   1   8
ATOM      8  C1  UNL d   1      -5.148  -0.500  -0.782  0.00  0.00     0.053 C 
ATOM      9  C   UNL d   1      -4.058  -1.228  -1.553  0.00  0.00     0.018 C 
ENDBRANCH   1   8
TORSDOF 1
ENDMDL
