MODEL 1
REMARK minimizedAffinity 15.3962946
REMARK minimizedRMSD -1
REMARK  1 active torsions:
REMARK  status: ('A' for Active; 'I' for Inactive)
REMARK    1  A    between atoms: C1_2  and  C2_3 
ROOT
ATOM      1  C2  UNL d   1       3.697  -0.071   0.993  0.00  0.00    -0.076 A 
ATOM      2  C3  UNL d   1       3.749   1.214   0.426  0.00  0.00     0.004 A 
ATOM      3  C4  UNL d   1       2.889   1.576  -0.609  0.00  0.00    -0.003 A 
ATOM      4  C5  UNL d   1       1.962   0.659  -1.094  0.00  0.00     0.000 A 
ATOM      5  C6  UNL d   1       1.886  -0.614  -0.532  0.00  0.00     0.000 A 
ATOM      6  C7  UNL d   1       2.734  -0.990   0.524  0.00  0.00    -0.073 A 
ATOM      7  C8  UNL d   1       2.612  -2.379   1.089  0.00  0.00     0.078 C 
ENDROOT
BRANCH   1   8
ATOM      8  C1  UNL d   1       4.673  -0.417   2.095  0.00  0.00     0.053 C 
ATOM      9  C   UNL d   1       6.000  -0.931   1.558  0.00  0.00     0.018 C 
ENDBRANCH   1   8
TORSDOF 1
ENDMDL
