MODEL 1
REMARK minimizedAffinity 11.3442755
REMARK minimizedRMSD -1
REMARK  1 active torsions:
REMARK  status: ('A' for Active; 'I' for Inactive)
REMARK    1  A    between atoms: C1_2  and  C2_3 
ROOT
ATOM      1  C2  UNL d   1       3.743   1.006  -0.592  0.00  0.00    -0.076 A 
ATOM      2  C3  UNL d   1       4.154   1.664   0.580  0.00  0.00     0.004 A 
ATOM      3  C4  UNL d   1       5.270   2.498   0.581  0.00  0.00    -0.003 A 
ATOM      4  C5  UNL d   1       5.994   2.689  -0.591  0.00  0.00     0.000 A 
ATOM      5  C6  UNL d   1       5.591   2.058  -1.767  0.00  0.00     0.000 A 
ATOM      6  C7  UNL d   1       4.458   1.226  -1.789  0.00  0.00    -0.073 A 
ATOM      7  C8  UNL d   1       4.072   0.566  -3.085  0.00  0.00     0.078 C 
ENDROOT
BRANCH   1   8
ATOM      8  C1  UNL d   1       2.540   0.092  -0.527  0.00  0.00     0.053 C 
ATOM      9  C   UNL d   1       2.839  -1.213   0.196  0.00  0.00     0.018 C 
ENDBRANCH   1   8
TORSDOF 1
ENDMDL
