MODEL 1
REMARK minimizedAffinity 8.74882221
REMARK minimizedRMSD -1
REMARK  1 active torsions:
REMARK  status: ('A' for Active; 'I' for Inactive)
REMARK    1  A    between atoms: C1_2  and  C2_3 
ROOT
ATOM      1  C2  UNL d   1      -3.887   0.249  -3.219  0.00  0.00    -0.076 A 
ATOM      2  C3  UNL d   1      -5.165   0.665  -3.631  0.00  0.00     0.004 A 
ATOM      3  C4  UNL d   1      -5.492   0.742  -4.984  0.00  0.00    -0.003 A 
ATOM      4  C5  UNL d   1      -4.548   0.403  -5.946  0.00  0.00     0.000 A 
ATOM      5  C6  UNL d   1      -3.281  -0.030  -5.555  0.00  0.00     0.000 A 
ATOM      6  C7  UNL d   1      -2.940  -0.128  -4.195  0.00  0.00    -0.073 A 
ATOM      7  C8  UNL d   1      -1.557  -0.595  -3.830  0.00  0.00     0.078 C 
ENDROOT
BRANCH   1   8
ATOM      8  C1  UNL d   1      -3.580   0.211  -1.739  0.00  0.00     0.053 C 
ATOM      9  C   UNL d   1      -4.817   0.427  -0.881  0.00  0.00     0.018 C 
ENDBRANCH   1   8
TORSDOF 1
ENDMDL
