MODEL 1
REMARK minimizedAffinity 21.5729713
REMARK minimizedRMSD -1
REMARK  1 active torsions:
REMARK  status: ('A' for Active; 'I' for Inactive)
REMARK    1  A    between atoms: C1_2  and  C2_3 
ROOT
ATOM      1  C2  UNL d   1      -3.665   1.139  -0.085  0.00  0.00    -0.076 A 
ATOM      2  C3  UNL d   1      -2.357   1.319  -0.568  0.00  0.00     0.004 A 
ATOM      3  C4  UNL d   1      -1.923   0.671  -1.724  0.00  0.00    -0.003 A 
ATOM      4  C5  UNL d   1      -2.790  -0.167  -2.415  0.00  0.00     0.000 A 
ATOM      5  C6  UNL d   1      -4.097  -0.344  -1.960  0.00  0.00     0.000 A 
ATOM      6  C7  UNL d   1      -4.555   0.314  -0.806  0.00  0.00    -0.073 A 
ATOM      7  C8  UNL d   1      -5.972   0.083  -0.357  0.00  0.00     0.078 C 
ENDROOT
BRANCH   1   8
ATOM      8  C1  UNL d   1      -4.070   1.846   1.188  0.00  0.00     0.053 C 
ATOM      9  C   UNL d   1      -4.022   3.360   1.054  0.00  0.00     0.018 C 
ENDBRANCH   1   8
TORSDOF 1
ENDMDL
