MODEL 1
REMARK minimizedAffinity -2.6085124
REMARK minimizedRMSD -1
REMARK  0 active torsions:
REMARK  status: ('A' for Active; 'I' for Inactive)
ROOT
ATOM      1  C   UNL d   1      -1.468   1.633   1.915  0.00  0.00     0.077 C 
ATOM      2  C1  UNL d   1      -0.924   1.115   0.617  0.00  0.00    -0.074 A 
ATOM      3  C2  UNL d   1      -1.011   1.875  -0.554  0.00  0.00    -0.005 A 
ATOM      4  C3  UNL d   1      -0.493   1.383  -1.752  0.00  0.00     0.006 A 
ATOM      5  C4  UNL d   1       0.117   0.129  -1.791  0.00  0.00    -0.005 A 
ATOM      6  C5  UNL d   1       0.214  -0.645  -0.631  0.00  0.00    -0.074 A 
ATOM      7  C6  UNL d   1       0.874  -1.991  -0.654  0.00  0.00     0.077 C 
ATOM      8  C7  UNL d   1      -0.304  -0.141   0.571  0.00  0.00    -0.001 A 
ENDROOT
TORSDOF 0
ENDMDL
