MODEL 1
REMARK minimizedAffinity 1.28851473
REMARK minimizedRMSD -1
REMARK  0 active torsions:
REMARK  status: ('A' for Active; 'I' for Inactive)
ROOT
ATOM      1  C   UNL d   1       0.484  -0.612   4.135  0.00  0.00     0.077 C 
ATOM      2  C1  UNL d   1       0.343   0.206   2.886  0.00  0.00    -0.074 A 
ATOM      3  C2  UNL d   1      -0.143   1.516   2.935  0.00  0.00    -0.005 A 
ATOM      4  C3  UNL d   1      -0.260   2.267   1.765  0.00  0.00     0.006 A 
ATOM      5  C4  UNL d   1       0.109   1.717   0.537  0.00  0.00    -0.005 A 
ATOM      6  C5  UNL d   1       0.599   0.409   0.468  0.00  0.00    -0.074 A 
ATOM      7  C6  UNL d   1       1.009  -0.194  -0.842  0.00  0.00     0.077 C 
ATOM      8  C7  UNL d   1       0.719  -0.337   1.649  0.00  0.00    -0.001 A 
ENDROOT
TORSDOF 0
ENDMDL
