MODEL 1
REMARK minimizedAffinity -0.445364743
REMARK minimizedRMSD -1
REMARK  0 active torsions:
REMARK  status: ('A' for Active; 'I' for Inactive)
ROOT
ATOM      1  C   UNL d   1      -0.283   1.742  -0.824  0.00  0.00     0.077 C 
ATOM      2  C1  UNL d   1       0.343   0.890   0.240  0.00  0.00    -0.074 A 
ATOM      3  C2  UNL d   1       1.624   0.356   0.071  0.00  0.00    -0.005 A 
ATOM      4  C3  UNL d   1       2.197  -0.427   1.073  0.00  0.00     0.006 A 
ATOM      5  C4  UNL d   1       1.495  -0.683   2.252  0.00  0.00    -0.005 A 
ATOM      6  C5  UNL d   1       0.213  -0.157   2.438  0.00  0.00    -0.074 A 
ATOM      7  C6  UNL d   1      -0.551  -0.415   3.703  0.00  0.00     0.077 C 
ATOM      8  C7  UNL d   1      -0.353   0.634   1.430  0.00  0.00    -0.001 A 
ENDROOT
TORSDOF 0
ENDMDL
