MODEL 1
REMARK minimizedAffinity -4.92940617
REMARK minimizedRMSD -1
REMARK  0 active torsions:
REMARK  status: ('A' for Active; 'I' for Inactive)
ROOT
ATOM      1  C   UNL d   1       0.024  -1.061   0.717  0.00  0.00     0.077 C 
ATOM      2  C1  UNL d   1      -0.084   0.434   0.671  0.00  0.00    -0.074 A 
ATOM      3  C2  UNL d   1      -0.071   1.192   1.847  0.00  0.00    -0.005 A 
ATOM      4  C3  UNL d   1      -0.163   2.583   1.788  0.00  0.00     0.006 A 
ATOM      5  C4  UNL d   1      -0.267   3.229   0.556  0.00  0.00    -0.005 A 
ATOM      6  C5  UNL d   1      -0.280   2.488  -0.630  0.00  0.00    -0.074 A 
ATOM      7  C6  UNL d   1      -0.382   3.167  -1.964  0.00  0.00     0.077 C 
ATOM      8  C7  UNL d   1      -0.181   1.091  -0.564  0.00  0.00    -0.001 A 
ENDROOT
TORSDOF 0
ENDMDL
