MODEL 1
REMARK minimizedAffinity -5.63050938
REMARK minimizedRMSD -1
REMARK  0 active torsions:
REMARK  status: ('A' for Active; 'I' for Inactive)
ROOT
ATOM      1  C   UNL d   1      -0.050  -1.493  -0.302  0.00  0.00     0.077 C 
ATOM      2  C1  UNL d   1      -0.255  -0.132   0.295  0.00  0.00    -0.074 A 
ATOM      3  C2  UNL d   1      -0.145   0.072   1.674  0.00  0.00    -0.005 A 
ATOM      4  C3  UNL d   1      -0.329   1.345   2.214  0.00  0.00     0.006 A 
ATOM      5  C4  UNL d   1      -0.624   2.425   1.381  0.00  0.00    -0.005 A 
ATOM      6  C5  UNL d   1      -0.737   2.241  -0.001  0.00  0.00    -0.074 A 
ATOM      7  C6  UNL d   1      -1.044   3.393  -0.911  0.00  0.00     0.077 C 
ATOM      8  C7  UNL d   1      -0.544   0.960  -0.536  0.00  0.00    -0.001 A 
ENDROOT
TORSDOF 0
ENDMDL
