MODEL 1
REMARK minimizedAffinity -3.66996455
REMARK minimizedRMSD -1
REMARK  0 active torsions:
REMARK  status: ('A' for Active; 'I' for Inactive)
ROOT
ATOM      1  C   UNL d   1       0.753  -3.591  -0.762  0.00  0.00     0.077 C 
ATOM      2  C1  UNL d   1       2.110  -4.221  -0.872  0.00  0.00    -0.074 A 
ATOM      3  C2  UNL d   1       2.530  -5.189   0.046  0.00  0.00    -0.005 A 
ATOM      4  C3  UNL d   1       3.790  -5.773  -0.076  0.00  0.00     0.006 A 
ATOM      5  C4  UNL d   1       4.643  -5.395  -1.114  0.00  0.00    -0.005 A 
ATOM      6  C5  UNL d   1       4.240  -4.430  -2.042  0.00  0.00    -0.074 A 
ATOM      7  C6  UNL d   1       5.139  -4.020  -3.170  0.00  0.00     0.077 C 
ATOM      8  C7  UNL d   1       2.968  -3.853  -1.918  0.00  0.00    -0.001 A 
ENDROOT
TORSDOF 0
ENDMDL
