MODEL 1
REMARK minimizedAffinity 0.273646325
REMARK minimizedRMSD -1
REMARK  0 active torsions:
REMARK  status: ('A' for Active; 'I' for Inactive)
ROOT
ATOM      1  C   UNL d   1       1.564  -1.072   2.105  0.00  0.00     0.077 C 
ATOM      2  C1  UNL d   1       0.672  -0.374   1.121  0.00  0.00    -0.074 A 
ATOM      3  C2  UNL d   1       0.719  -0.690  -0.241  0.00  0.00    -0.005 A 
ATOM      4  C3  UNL d   1      -0.123  -0.039  -1.143  0.00  0.00     0.006 A 
ATOM      5  C4  UNL d   1      -1.019   0.931  -0.693  0.00  0.00    -0.005 A 
ATOM      6  C5  UNL d   1      -1.081   1.259   0.665  0.00  0.00    -0.074 A 
ATOM      7  C6  UNL d   1      -2.045   2.293   1.166  0.00  0.00     0.077 C 
ATOM      8  C7  UNL d   1      -0.236   0.596   1.566  0.00  0.00    -0.001 A 
ENDROOT
TORSDOF 0
ENDMDL
