MODEL 1
REMARK minimizedAffinity -4.68276358
REMARK minimizedRMSD -1
REMARK  0 active torsions:
REMARK  status: ('A' for Active; 'I' for Inactive)
ROOT
ATOM      1  C   UNL d   1       1.760  -2.904   0.742  0.00  0.00     0.078 C 
ATOM      2  C1  UNL d   1       1.065  -1.576   0.695  0.00  0.00    -0.077 A 
ATOM      3  C2  UNL d   1      -0.078  -1.332   1.466  0.00  0.00    -0.001 A 
ATOM      4  C3  UNL d   1      -0.719  -0.094   1.404  0.00  0.00     0.003 A 
ATOM      5  C4  UNL d   1      -0.226   0.910   0.573  0.00  0.00    -0.005 A 
ATOM      6  C5  UNL d   1       0.910   0.675  -0.199  0.00  0.00     0.003 A 
ATOM      7  C6  UNL d   1       1.553  -0.562  -0.139  0.00  0.00    -0.001 A 
ENDROOT
TORSDOF 0
ENDMDL
