MODEL 1
REMARK minimizedAffinity -4.75500488
REMARK minimizedRMSD -1
REMARK  0 active torsions:
REMARK  status: ('A' for Active; 'I' for Inactive)
ROOT
ATOM      1  C   UNL d   1       1.186  -2.571   0.845  0.00  0.00     0.078 C 
ATOM      2  C1  UNL d   1       0.516  -1.234   0.736  0.00  0.00    -0.077 A 
ATOM      3  C2  UNL d   1      -0.644  -0.948   1.465  0.00  0.00    -0.001 A 
ATOM      4  C3  UNL d   1      -1.263   0.298   1.347  0.00  0.00     0.003 A 
ATOM      5  C4  UNL d   1      -0.730   1.266   0.499  0.00  0.00    -0.005 A 
ATOM      6  C5  UNL d   1       0.424   0.990  -0.232  0.00  0.00     0.003 A 
ATOM      7  C6  UNL d   1       1.044  -0.255  -0.115  0.00  0.00    -0.001 A 
ENDROOT
TORSDOF 0
ENDMDL
