MODEL 1
REMARK minimizedAffinity -3.44372845
REMARK minimizedRMSD -1
REMARK  0 active torsions:
REMARK  status: ('A' for Active; 'I' for Inactive)
ROOT
ATOM      1  C   UNL d   1      -1.124   1.056   0.222  0.00  0.00     0.078 C 
ATOM      2  C1  UNL d   1      -0.330  -0.184   0.505  0.00  0.00    -0.077 A 
ATOM      3  C2  UNL d   1      -0.882  -1.244   1.235  0.00  0.00    -0.001 A 
ATOM      4  C3  UNL d   1      -0.128  -2.388   1.499  0.00  0.00     0.003 A 
ATOM      5  C4  UNL d   1       1.183  -2.484   1.037  0.00  0.00    -0.005 A 
ATOM      6  C5  UNL d   1       1.742  -1.434   0.311  0.00  0.00     0.003 A 
ATOM      7  C6  UNL d   1       0.990  -0.289   0.046  0.00  0.00    -0.001 A 
ENDROOT
TORSDOF 0
ENDMDL
