MODEL 1
REMARK minimizedAffinity -3.15776062
REMARK minimizedRMSD -1
REMARK  0 active torsions:
REMARK  status: ('A' for Active; 'I' for Inactive)
ROOT
ATOM      1  C   UNL d   1       1.402  -2.619   1.100  0.00  0.00     0.078 C 
ATOM      2  C1  UNL d   1       0.788  -1.323   0.662  0.00  0.00    -0.077 A 
ATOM      3  C2  UNL d   1      -0.496  -0.955   1.084  0.00  0.00    -0.001 A 
ATOM      4  C3  UNL d   1      -1.059   0.250   0.660  0.00  0.00     0.003 A 
ATOM      5  C4  UNL d   1      -0.347   1.095  -0.188  0.00  0.00    -0.005 A 
ATOM      6  C5  UNL d   1       0.930   0.736  -0.614  0.00  0.00     0.003 A 
ATOM      7  C6  UNL d   1       1.495  -0.468  -0.192  0.00  0.00    -0.001 A 
ENDROOT
TORSDOF 0
ENDMDL
