MODEL 1
REMARK minimizedAffinity -3.69536972
REMARK minimizedRMSD -1
REMARK  0 active torsions:
REMARK  status: ('A' for Active; 'I' for Inactive)
ROOT
ATOM      1  C   UNL d   1       1.396  -2.628   0.757  0.00  0.00     0.078 C 
ATOM      2  C1  UNL d   1       0.525  -1.421   0.572  0.00  0.00    -0.077 A 
ATOM      3  C2  UNL d   1      -0.583  -1.197   1.398  0.00  0.00    -0.001 A 
ATOM      4  C3  UNL d   1      -1.390  -0.075   1.208  0.00  0.00     0.003 A 
ATOM      5  C4  UNL d   1      -1.099   0.833   0.191  0.00  0.00    -0.005 A 
ATOM      6  C5  UNL d   1       0.000   0.617  -0.637  0.00  0.00     0.003 A 
ATOM      7  C6  UNL d   1       0.809  -0.505  -0.449  0.00  0.00    -0.001 A 
ENDROOT
TORSDOF 0
ENDMDL
