MODEL 1
REMARK minimizedAffinity -2.72098374
REMARK minimizedRMSD -1
REMARK  0 active torsions:
REMARK  status: ('A' for Active; 'I' for Inactive)
ROOT
ATOM      1  C   UNL d   1       1.542  -3.241   1.003  0.00  0.00     0.078 C 
ATOM      2  C1  UNL d   1       0.834  -1.958   0.683  0.00  0.00    -0.077 A 
ATOM      3  C2  UNL d   1      -0.434  -1.683   1.210  0.00  0.00    -0.001 A 
ATOM      4  C3  UNL d   1      -1.084  -0.488   0.896  0.00  0.00     0.003 A 
ATOM      5  C4  UNL d   1      -0.476   0.440   0.053  0.00  0.00    -0.005 A 
ATOM      6  C5  UNL d   1       0.785   0.174  -0.477  0.00  0.00     0.003 A 
ATOM      7  C6  UNL d   1       1.437  -1.020  -0.164  0.00  0.00    -0.001 A 
ENDROOT
TORSDOF 0
ENDMDL
