MODEL 1
REMARK minimizedAffinity -3.10513973
REMARK minimizedRMSD -1
REMARK  0 active torsions:
REMARK  status: ('A' for Active; 'I' for Inactive)
ROOT
ATOM      1  C   UNL d   1       0.950  -2.866   1.070  0.00  0.00     0.078 C 
ATOM      2  C1  UNL d   1       0.477  -1.538   0.559  0.00  0.00    -0.077 A 
ATOM      3  C2  UNL d   1       1.335  -0.691  -0.152  0.00  0.00    -0.001 A 
ATOM      4  C3  UNL d   1       0.884   0.546  -0.613  0.00  0.00     0.003 A 
ATOM      5  C4  UNL d   1      -0.427   0.949  -0.367  0.00  0.00    -0.005 A 
ATOM      6  C5  UNL d   1      -1.288   0.114   0.343  0.00  0.00     0.003 A 
ATOM      7  C6  UNL d   1      -0.838  -1.124   0.804  0.00  0.00    -0.001 A 
ENDROOT
TORSDOF 0
ENDMDL
