MODEL 1
REMARK minimizedAffinity -5.13274956
REMARK minimizedRMSD -1
REMARK  0 active torsions:
REMARK  status: ('A' for Active; 'I' for Inactive)
ROOT
ATOM      1  C   UNL d   1      -0.040   1.046  -0.203  0.00  0.00     0.078 C 
ATOM      2  C1  UNL d   1       0.226  -0.329   0.331  0.00  0.00    -0.077 A 
ATOM      3  C2  UNL d   1      -0.739  -1.010   1.083  0.00  0.00    -0.001 A 
ATOM      4  C3  UNL d   1      -0.473  -2.286   1.583  0.00  0.00     0.003 A 
ATOM      5  C4  UNL d   1       0.757  -2.893   1.336  0.00  0.00    -0.005 A 
ATOM      6  C5  UNL d   1       1.724  -2.222   0.590  0.00  0.00     0.003 A 
ATOM      7  C6  UNL d   1       1.461  -0.946   0.090  0.00  0.00    -0.001 A 
ENDROOT
TORSDOF 0
ENDMDL
