MODEL 1
REMARK minimizedAffinity -1.81960571
REMARK minimizedRMSD -1
REMARK  0 active torsions:
REMARK  status: ('A' for Active; 'I' for Inactive)
ROOT
ATOM      1  C   UNL d   1      -0.283   0.339  -0.369  0.00  0.00     0.078 C 
ATOM      2  C1  UNL d   1       0.667   1.485  -0.194  0.00  0.00    -0.077 A 
ATOM      3  C2  UNL d   1       0.302   2.787  -0.559  0.00  0.00    -0.001 A 
ATOM      4  C3  UNL d   1       1.200   3.843  -0.400  0.00  0.00     0.003 A 
ATOM      5  C4  UNL d   1       2.470   3.608   0.123  0.00  0.00    -0.005 A 
ATOM      6  C5  UNL d   1       2.844   2.316   0.486  0.00  0.00     0.003 A 
ATOM      7  C6  UNL d   1       1.947   1.259   0.328  0.00  0.00    -0.001 A 
ENDROOT
TORSDOF 0
ENDMDL
