MODEL 1
REMARK minimizedAffinity -3.44780731
REMARK minimizedRMSD -1
REMARK  0 active torsions:
REMARK  status: ('A' for Active; 'I' for Inactive)
ROOT
ATOM      1  C   UNL d   1      -0.900   0.818   0.002  0.00  0.00     0.078 C 
ATOM      2  C1  UNL d   1      -0.047  -0.382   0.287  0.00  0.00    -0.077 A 
ATOM      3  C2  UNL d   1       1.309  -0.403  -0.064  0.00  0.00    -0.001 A 
ATOM      4  C3  UNL d   1       2.088  -1.531   0.198  0.00  0.00     0.003 A 
ATOM      5  C4  UNL d   1       1.522  -2.646   0.812  0.00  0.00    -0.005 A 
ATOM      6  C5  UNL d   1       0.173  -2.636   1.163  0.00  0.00     0.003 A 
ATOM      7  C6  UNL d   1      -0.608  -1.509   0.901  0.00  0.00    -0.001 A 
ENDROOT
TORSDOF 0
ENDMDL
