MODEL 1
REMARK minimizedAffinity -1.69920087
REMARK minimizedRMSD -1
REMARK  0 active torsions:
REMARK  status: ('A' for Active; 'I' for Inactive)
ROOT
ATOM      1  C   UNL d   1       0.053  -2.884   0.856  0.00  0.00     0.078 C 
ATOM      2  C1  UNL d   1      -0.379  -1.454   0.724  0.00  0.00    -0.077 A 
ATOM      3  C2  UNL d   1      -0.080  -0.713  -0.426  0.00  0.00    -0.001 A 
ATOM      4  C3  UNL d   1      -0.479   0.620  -0.531  0.00  0.00     0.003 A 
ATOM      5  C4  UNL d   1      -1.179   1.225   0.511  0.00  0.00    -0.005 A 
ATOM      6  C5  UNL d   1      -1.479   0.497   1.660  0.00  0.00     0.003 A 
ATOM      7  C6  UNL d   1      -1.081  -0.836   1.767  0.00  0.00    -0.001 A 
ENDROOT
TORSDOF 0
ENDMDL
