MODEL 1
REMARK minimizedAffinity -4.54786205
REMARK minimizedRMSD -1
REMARK  0 active torsions:
REMARK  status: ('A' for Active; 'I' for Inactive)
ROOT
ATOM      1  C   UNL d   1      -0.677   0.647  -0.326  0.00  0.00     0.078 C 
ATOM      2  C1  UNL d   1       0.235  -0.441   0.156  0.00  0.00    -0.077 A 
ATOM      3  C2  UNL d   1       1.609  -0.218   0.302  0.00  0.00    -0.001 A 
ATOM      4  C3  UNL d   1       2.448  -1.243   0.743  0.00  0.00     0.003 A 
ATOM      5  C4  UNL d   1       1.921  -2.499   1.039  0.00  0.00    -0.005 A 
ATOM      6  C5  UNL d   1       0.555  -2.731   0.895  0.00  0.00     0.003 A 
ATOM      7  C6  UNL d   1      -0.285  -1.707   0.455  0.00  0.00    -0.001 A 
ENDROOT
TORSDOF 0
ENDMDL
