MODEL 1
REMARK minimizedAffinity -3.59152126
REMARK minimizedRMSD -1
REMARK  0 active torsions:
REMARK  status: ('A' for Active; 'I' for Inactive)
ROOT
ATOM      1  C   UNL d   1       1.117  -3.085   0.730  0.00  0.00     0.078 C 
ATOM      2  C1  UNL d   1       0.348  -1.806   0.579  0.00  0.00    -0.077 A 
ATOM      3  C2  UNL d   1       0.824  -0.770  -0.233  0.00  0.00    -0.001 A 
ATOM      4  C3  UNL d   1       0.103   0.419  -0.357  0.00  0.00     0.003 A 
ATOM      5  C4  UNL d   1      -1.099   0.582   0.330  0.00  0.00    -0.005 A 
ATOM      6  C5  UNL d   1      -1.580  -0.443   1.141  0.00  0.00     0.003 A 
ATOM      7  C6  UNL d   1      -0.860  -1.632   1.266  0.00  0.00    -0.001 A 
ENDROOT
TORSDOF 0
ENDMDL
