MODEL 1
REMARK minimizedAffinity -2.49696279
REMARK minimizedRMSD -1
REMARK  0 active torsions:
REMARK  status: ('A' for Active; 'I' for Inactive)
ROOT
ATOM      1  C   UNL d   1       0.116   0.707   0.374  0.00  0.00     0.078 C 
ATOM      2  C1  UNL d   1       1.134   1.807   0.321  0.00  0.00    -0.077 A 
ATOM      3  C2  UNL d   1       0.752   3.149   0.442  0.00  0.00    -0.001 A 
ATOM      4  C3  UNL d   1       1.709   4.163   0.382  0.00  0.00     0.003 A 
ATOM      5  C4  UNL d   1       3.054   3.847   0.199  0.00  0.00    -0.005 A 
ATOM      6  C5  UNL d   1       3.443   2.514   0.076  0.00  0.00     0.003 A 
ATOM      7  C6  UNL d   1       2.487   1.499   0.136  0.00  0.00    -0.001 A 
ENDROOT
TORSDOF 0
ENDMDL
