MODEL 1
REMARK minimizedAffinity -3.02170372
REMARK minimizedRMSD -1
REMARK  0 active torsions:
REMARK  status: ('A' for Active; 'I' for Inactive)
ROOT
ATOM      1  C   UNL d   1       1.497  -2.935   1.556  0.00  0.00     0.078 C 
ATOM      2  C1  UNL d   1       0.751  -1.682   1.208  0.00  0.00    -0.077 A 
ATOM      3  C2  UNL d   1      -0.440  -1.346   1.863  0.00  0.00    -0.001 A 
ATOM      4  C3  UNL d   1      -1.129  -0.181   1.522  0.00  0.00     0.003 A 
ATOM      5  C4  UNL d   1      -0.635   0.658   0.525  0.00  0.00    -0.005 A 
ATOM      6  C5  UNL d   1       0.548   0.331  -0.134  0.00  0.00     0.003 A 
ATOM      7  C6  UNL d   1       1.238  -0.834   0.205  0.00  0.00    -0.001 A 
ENDROOT
TORSDOF 0
ENDMDL
