MODEL 1
REMARK minimizedAffinity -3.81749535
REMARK minimizedRMSD -1
REMARK  0 active torsions:
REMARK  status: ('A' for Active; 'I' for Inactive)
ROOT
ATOM      1  C   UNL d   1       2.696   1.990  -0.339  0.00  0.00     0.078 C 
ATOM      2  C1  UNL d   1       1.590   0.986  -0.212  0.00  0.00    -0.077 A 
ATOM      3  C2  UNL d   1       1.867  -0.370   0.001  0.00  0.00    -0.001 A 
ATOM      4  C3  UNL d   1       0.827  -1.295   0.108  0.00  0.00     0.003 A 
ATOM      5  C4  UNL d   1      -0.497  -0.874   0.002  0.00  0.00    -0.005 A 
ATOM      6  C5  UNL d   1      -0.783   0.473  -0.212  0.00  0.00     0.003 A 
ATOM      7  C6  UNL d   1       0.256   1.399  -0.319  0.00  0.00    -0.001 A 
ENDROOT
TORSDOF 0
ENDMDL
