MODEL 1
REMARK minimizedAffinity -1.97963977
REMARK minimizedRMSD -1
REMARK  0 active torsions:
REMARK  status: ('A' for Active; 'I' for Inactive)
ROOT
ATOM      1  C   UNL d   1       1.491  -3.011   1.129  0.00  0.00     0.078 C 
ATOM      2  C1  UNL d   1       0.752  -1.775   0.713  0.00  0.00    -0.077 A 
ATOM      3  C2  UNL d   1      -0.576  -1.563   1.104  0.00  0.00    -0.001 A 
ATOM      4  C3  UNL d   1      -1.256  -0.412   0.701  0.00  0.00     0.003 A 
ATOM      5  C4  UNL d   1      -0.616   0.535  -0.096  0.00  0.00    -0.005 A 
ATOM      6  C5  UNL d   1       0.704   0.332  -0.492  0.00  0.00     0.003 A 
ATOM      7  C6  UNL d   1       1.385  -0.818  -0.090  0.00  0.00    -0.001 A 
ENDROOT
TORSDOF 0
ENDMDL
