MODEL 1
REMARK minimizedAffinity -3.4828434
REMARK minimizedRMSD -1
REMARK  0 active torsions:
REMARK  status: ('A' for Active; 'I' for Inactive)
ROOT
ATOM      1  C   UNL d   1      -0.488   0.721   0.140  0.00  0.00     0.078 C 
ATOM      2  C1  UNL d   1       0.217  -0.541   0.537  0.00  0.00    -0.077 A 
ATOM      3  C2  UNL d   1      -0.480  -1.750   0.657  0.00  0.00    -0.001 A 
ATOM      4  C3  UNL d   1       0.187  -2.915   1.037  0.00  0.00     0.003 A 
ATOM      5  C4  UNL d   1       1.555  -2.883   1.302  0.00  0.00    -0.005 A 
ATOM      6  C5  UNL d   1       2.256  -1.685   1.188  0.00  0.00     0.003 A 
ATOM      7  C6  UNL d   1       1.591  -0.519   0.808  0.00  0.00    -0.001 A 
ENDROOT
TORSDOF 0
ENDMDL
