MODEL 1
REMARK minimizedAffinity -2.472188
REMARK minimizedRMSD -1
REMARK  0 active torsions:
REMARK  status: ('A' for Active; 'I' for Inactive)
ROOT
ATOM      1  C1  DEN d   1      -0.211   0.942  -0.421  0.00  0.00     0.130 A 
ATOM      2  C2  DEN d   1      -0.395   0.041   0.713  0.00  0.00    -0.031 A 
ATOM      3  C3  DEN d   1       0.392  -1.182   0.457  0.00  0.00     0.027 A 
ATOM      4  C4  DEN d   1       1.875  -1.762  -1.571  0.00  0.00     0.027 A 
ATOM      5  C5  DEN d   1       2.333  -1.316  -2.791  0.00  0.00    -0.003 A 
ATOM      6  C6  DEN d   1       1.952  -0.110  -3.317  0.00  0.00     0.001 A 
ATOM      7  C7  DEN d   1       1.122   0.712  -2.601  0.00  0.00     0.017 A 
ATOM      8  C8  DEN d   1       0.650   0.265  -1.374  0.00  0.00    -0.094 A 
ATOM      9  C9  DEN d   1       1.057  -0.952  -0.853  0.00  0.00    -0.072 A 
ENDROOT
TORSDOF 0
ENDMDL
