MODEL 1
REMARK minimizedAffinity -2.88091946
REMARK minimizedRMSD -1
REMARK  0 active torsions:
REMARK  status: ('A' for Active; 'I' for Inactive)
ROOT
ATOM      1  C1  DEN d   1      -1.370   0.436  -0.427  0.00  0.00     0.130 A 
ATOM      2  C2  DEN d   1      -1.744   0.445   0.985  0.00  0.00    -0.031 A 
ATOM      3  C3  DEN d   1      -0.685  -0.249   1.743  0.00  0.00     0.027 A 
ATOM      4  C4  DEN d   1       1.491  -1.328   0.875  0.00  0.00     0.027 A 
ATOM      5  C5  DEN d   1       2.239  -1.598  -0.250  0.00  0.00    -0.003 A 
ATOM      6  C6  DEN d   1       1.824  -1.241  -1.506  0.00  0.00     0.001 A 
ATOM      7  C7  DEN d   1       0.649  -0.554  -1.663  0.00  0.00     0.017 A 
ATOM      8  C8  DEN d   1      -0.114  -0.286  -0.534  0.00  0.00    -0.094 A 
ATOM      9  C9  DEN d   1       0.328  -0.644   0.728  0.00  0.00    -0.072 A 
ENDROOT
TORSDOF 0
ENDMDL
