MODEL 1
REMARK minimizedAffinity -5.05692148
REMARK minimizedRMSD -1
REMARK  0 active torsions:
REMARK  status: ('A' for Active; 'I' for Inactive)
ROOT
ATOM      1  C1  DEN d   1       2.501  -0.187  -2.398  0.00  0.00     0.130 A 
ATOM      2  C2  DEN d   1       2.189   1.124  -2.960  0.00  0.00    -0.031 A 
ATOM      3  C3  DEN d   1       1.016   1.662  -2.241  0.00  0.00     0.027 A 
ATOM      4  C4  DEN d   1      -0.335   0.598  -0.318  0.00  0.00     0.027 A 
ATOM      5  C5  DEN d   1      -0.455  -0.510   0.490  0.00  0.00    -0.003 A 
ATOM      6  C6  DEN d   1       0.374  -1.594   0.371  0.00  0.00     0.001 A 
ATOM      7  C7  DEN d   1       1.389  -1.574  -0.549  0.00  0.00     0.017 A 
ATOM      8  C8  DEN d   1       1.512  -0.463  -1.372  0.00  0.00    -0.094 A 
ATOM      9  C9  DEN d   1       0.672   0.628  -1.228  0.00  0.00    -0.072 A 
ENDROOT
TORSDOF 0
ENDMDL
