MODEL 1
REMARK minimizedAffinity -1.1851325
REMARK minimizedRMSD -1
REMARK  0 active torsions:
REMARK  status: ('A' for Active; 'I' for Inactive)
ROOT
ATOM      1  C1  DEN d   1       0.665   0.493   0.971  0.00  0.00     0.130 A 
ATOM      2  C2  DEN d   1       0.059   0.507  -0.357  0.00  0.00    -0.031 A 
ATOM      3  C3  DEN d   1      -1.408   0.492  -0.189  0.00  0.00     0.027 A 
ATOM      4  C4  DEN d   1      -2.792   0.455   1.988  0.00  0.00     0.027 A 
ATOM      5  C5  DEN d   1      -2.720   0.426   3.363  0.00  0.00    -0.003 A 
ATOM      6  C6  DEN d   1      -1.525   0.383   4.031  0.00  0.00     0.001 A 
ATOM      7  C7  DEN d   1      -0.351   0.414   3.326  0.00  0.00     0.017 A 
ATOM      8  C8  DEN d   1      -0.416   0.436   1.939  0.00  0.00    -0.094 A 
ATOM      9  C9  DEN d   1      -1.633   0.492   1.282  0.00  0.00    -0.072 A 
ENDROOT
TORSDOF 0
ENDMDL
