MODEL 1
REMARK minimizedAffinity 0.265981346
REMARK minimizedRMSD -1
REMARK  0 active torsions:
REMARK  status: ('A' for Active; 'I' for Inactive)
ROOT
ATOM      1  C1  DEN d   1      -1.422  -0.599   1.046  0.00  0.00     0.130 A 
ATOM      2  C2  DEN d   1      -1.853   0.744   0.671  0.00  0.00    -0.031 A 
ATOM      3  C3  DEN d   1      -0.906   1.263  -0.336  0.00  0.00     0.027 A 
ATOM      4  C4  DEN d   1       1.173   0.120  -1.349  0.00  0.00     0.027 A 
ATOM      5  C5  DEN d   1       1.947  -1.019  -1.333  0.00  0.00    -0.003 A 
ATOM      6  C6  DEN d   1       1.675  -2.075  -0.505  0.00  0.00     0.001 A 
ATOM      7  C7  DEN d   1       0.575  -2.033   0.309  0.00  0.00     0.017 A 
ATOM      8  C8  DEN d   1      -0.207  -0.885   0.304  0.00  0.00    -0.094 A 
ATOM      9  C9  DEN d   1       0.078   0.167  -0.549  0.00  0.00    -0.072 A 
ENDROOT
TORSDOF 0
ENDMDL
