MODEL 1
REMARK minimizedAffinity 3.12306666
REMARK minimizedRMSD -1
REMARK  0 active torsions:
REMARK  status: ('A' for Active; 'I' for Inactive)
ROOT
ATOM      1  C1  DEN d   1      -0.356   0.688  -0.792  0.00  0.00     0.130 A 
ATOM      2  C2  DEN d   1       0.035   1.762   0.118  0.00  0.00    -0.031 A 
ATOM      3  C3  DEN d   1       0.675   1.149   1.299  0.00  0.00     0.027 A 
ATOM      4  C4  DEN d   1       1.100  -1.345   1.804  0.00  0.00     0.027 A 
ATOM      5  C5  DEN d   1       0.934  -2.629   1.335  0.00  0.00    -0.003 A 
ATOM      6  C6  DEN d   1       0.301  -2.898   0.150  0.00  0.00     0.001 A 
ATOM      7  C7  DEN d   1      -0.149  -1.864  -0.629  0.00  0.00     0.017 A 
ATOM      8  C8  DEN d   1       0.008  -0.567  -0.159  0.00  0.00    -0.094 A 
ATOM      9  C9  DEN d   1       0.661  -0.315   1.036  0.00  0.00    -0.072 A 
ENDROOT
TORSDOF 0
ENDMDL
