MODEL 1
REMARK minimizedAffinity -4.19991112
REMARK minimizedRMSD -1
REMARK  0 active torsions:
REMARK  status: ('A' for Active; 'I' for Inactive)
ROOT
ATOM      1  C1  DEN d   1      -0.632   1.097  -0.304  0.00  0.00     0.130 A 
ATOM      2  C2  DEN d   1      -0.879   0.055   0.689  0.00  0.00    -0.031 A 
ATOM      3  C3  DEN d   1       0.120  -1.014   0.487  0.00  0.00     0.027 A 
ATOM      4  C4  DEN d   1       2.018  -1.153  -1.254  0.00  0.00     0.027 A 
ATOM      5  C5  DEN d   1       2.616  -0.512  -2.316  0.00  0.00    -0.003 A 
ATOM      6  C6  DEN d   1       2.157   0.684  -2.800  0.00  0.00     0.001 A 
ATOM      7  C7  DEN d   1       1.095   1.299  -2.192  0.00  0.00     0.017 A 
ATOM      8  C8  DEN d   1       0.482   0.655  -1.125  0.00  0.00    -0.094 A 
ATOM      9  C9  DEN d   1       0.969  -0.547  -0.642  0.00  0.00    -0.072 A 
ENDROOT
TORSDOF 0
ENDMDL
