MODEL 1
REMARK minimizedAffinity -4.9155221
REMARK minimizedRMSD -1
REMARK  0 active torsions:
REMARK  status: ('A' for Active; 'I' for Inactive)
ROOT
ATOM      1  C1  DEN d   1       0.482   0.360   0.368  0.00  0.00     0.130 A 
ATOM      2  C2  DEN d   1       0.890  -1.003   0.697  0.00  0.00    -0.031 A 
ATOM      3  C3  DEN d   1       1.683  -1.527  -0.433  0.00  0.00     0.027 A 
ATOM      4  C4  DEN d   1       2.320  -0.365  -2.646  0.00  0.00     0.027 A 
ATOM      5  C5  DEN d   1       2.193   0.792  -3.383  0.00  0.00    -0.003 A 
ATOM      6  C6  DEN d   1       1.465   1.864  -2.940  0.00  0.00     0.001 A 
ATOM      7  C7  DEN d   1       0.872   1.819  -1.706  0.00  0.00     0.017 A 
ATOM      8  C8  DEN d   1       0.989   0.653  -0.960  0.00  0.00    -0.094 A 
ATOM      9  C9  DEN d   1       1.740  -0.415  -1.420  0.00  0.00    -0.072 A 
ENDROOT
TORSDOF 0
ENDMDL
