MODEL 1
REMARK minimizedAffinity -4.00565672
REMARK minimizedRMSD -1
REMARK  0 active torsions:
REMARK  status: ('A' for Active; 'I' for Inactive)
ROOT
ATOM      1  C1  DEN d   1       0.374   1.728  -2.171  0.00  0.00     0.130 A 
ATOM      2  C2  DEN d   1       1.404   1.448  -3.167  0.00  0.00    -0.031 A 
ATOM      3  C3  DEN d   1       1.997   0.133  -2.853  0.00  0.00     0.027 A 
ATOM      4  C4  DEN d   1       1.421  -1.491  -0.933  0.00  0.00     0.027 A 
ATOM      5  C5  DEN d   1       0.623  -1.683   0.173  0.00  0.00    -0.003 A 
ATOM      6  C6  DEN d   1      -0.283  -0.745   0.591  0.00  0.00     0.001 A 
ATOM      7  C7  DEN d   1      -0.445   0.411  -0.127  0.00  0.00     0.017 A 
ATOM      8  C8  DEN d   1       0.362   0.615  -1.239  0.00  0.00    -0.094 A 
ATOM      9  C9  DEN d   1       1.263  -0.351  -1.653  0.00  0.00    -0.072 A 
ENDROOT
TORSDOF 0
ENDMDL
