MODEL 1
REMARK minimizedAffinity -3.01068783
REMARK minimizedRMSD -1
REMARK  0 active torsions:
REMARK  status: ('A' for Active; 'I' for Inactive)
ROOT
ATOM      1  C1  DEN d   1      -0.361  -0.384   3.040  0.00  0.00     0.130 A 
ATOM      2  C2  DEN d   1      -1.473   0.499   3.382  0.00  0.00    -0.031 A 
ATOM      3  C3  DEN d   1      -1.871   1.225   2.159  0.00  0.00     0.027 A 
ATOM      4  C4  DEN d   1      -0.884   1.065  -0.218  0.00  0.00     0.027 A 
ATOM      5  C5  DEN d   1       0.080   0.461  -0.995  0.00  0.00    -0.003 A 
ATOM      6  C6  DEN d   1       0.979  -0.434  -0.478  0.00  0.00     0.001 A 
ATOM      7  C7  DEN d   1       0.904  -0.785   0.844  0.00  0.00     0.017 A 
ATOM      8  C8  DEN d   1      -0.061  -0.175   1.635  0.00  0.00    -0.094 A 
ATOM      9  C9  DEN d   1      -0.968   0.718   1.091  0.00  0.00    -0.072 A 
ENDROOT
TORSDOF 0
ENDMDL
