MODEL 1
REMARK minimizedAffinity -5.30024576
REMARK minimizedRMSD -1
REMARK  0 active torsions:
REMARK  status: ('A' for Active; 'I' for Inactive)
ROOT
ATOM      1  C1  DEN d   1      -1.218   0.314  -0.169  0.00  0.00     0.130 A 
ATOM      2  C2  DEN d   1      -1.144  -0.893   0.650  0.00  0.00    -0.031 A 
ATOM      3  C3  DEN d   1       0.048  -1.657   0.230  0.00  0.00     0.027 A 
ATOM      4  C4  DEN d   1       1.781  -1.089  -1.594  0.00  0.00     0.027 A 
ATOM      5  C5  DEN d   1       2.132  -0.174  -2.563  0.00  0.00    -0.003 A 
ATOM      6  C6  DEN d   1       1.379   0.940  -2.823  0.00  0.00     0.001 A 
ATOM      7  C7  DEN d   1       0.260   1.192  -2.074  0.00  0.00     0.017 A 
ATOM      8  C8  DEN d   1      -0.105   0.272  -1.100  0.00  0.00    -0.094 A 
ATOM      9  C9  DEN d   1       0.676  -0.843  -0.845  0.00  0.00    -0.072 A 
ENDROOT
TORSDOF 0
ENDMDL
