MODEL 1
REMARK minimizedAffinity -1.48286963
REMARK minimizedRMSD -1
REMARK  0 active torsions:
REMARK  status: ('A' for Active; 'I' for Inactive)
ROOT
ATOM      1  C1  DEN d   1       0.107   1.341   0.619  0.00  0.00     0.130 A 
ATOM      2  C2  DEN d   1      -0.180   0.482  -0.527  0.00  0.00    -0.031 A 
ATOM      3  C3  DEN d   1      -1.410  -0.278  -0.231  0.00  0.00     0.027 A 
ATOM      4  C4  DEN d   1      -2.894  -0.207   1.878  0.00  0.00     0.027 A 
ATOM      5  C5  DEN d   1      -3.048   0.360   3.124  0.00  0.00    -0.003 A 
ATOM      6  C6  DEN d   1      -2.150   1.261   3.632  0.00  0.00     0.001 A 
ATOM      7  C7  DEN d   1      -1.081   1.656   2.872  0.00  0.00     0.017 A 
ATOM      8  C8  DEN d   1      -0.915   1.083   1.618  0.00  0.00    -0.094 A 
ATOM      9  C9  DEN d   1      -1.840   0.183   1.117  0.00  0.00    -0.072 A 
ENDROOT
TORSDOF 0
ENDMDL
