MODEL 1
REMARK minimizedAffinity 6.87957048
REMARK minimizedRMSD -1
REMARK  0 active torsions:
REMARK  status: ('A' for Active; 'I' for Inactive)
ROOT
ATOM      1  C1  DEN d   1       3.398  -1.834  -0.131  0.00  0.00     0.130 A 
ATOM      2  C2  DEN d   1       3.095  -0.979  -1.275  0.00  0.00    -0.031 A 
ATOM      3  C3  DEN d   1       1.699  -1.237  -1.681  0.00  0.00     0.027 A 
ATOM      4  C4  DEN d   1      -0.016  -2.866  -0.650  0.00  0.00     0.027 A 
ATOM      5  C5  DEN d   1      -0.216  -3.813   0.330  0.00  0.00    -0.003 A 
ATOM      6  C6  DEN d   1       0.777  -4.188   1.196  0.00  0.00     0.001 A 
ATOM      7  C7  DEN d   1       2.003  -3.580   1.128  0.00  0.00     0.017 A 
ATOM      8  C8  DEN d   1       2.214  -2.630   0.138  0.00  0.00    -0.094 A 
ATOM      9  C9  DEN d   1       1.194  -2.255  -0.720  0.00  0.00    -0.072 A 
ENDROOT
TORSDOF 0
ENDMDL
