MODEL 1
REMARK minimizedAffinity 1.1958698
REMARK minimizedRMSD -1
REMARK  0 active torsions:
REMARK  status: ('A' for Active; 'I' for Inactive)
ROOT
ATOM      1  C   UNL d   1      -2.026  -5.996  -4.885  0.00  0.00     0.077 C 
ATOM      2  C1  UNL d   1      -3.285  -5.285  -5.281  0.00  0.00    -0.074 A 
ATOM      3  C2  UNL d   1      -4.440  -6.000  -5.615  0.00  0.00    -0.005 A 
ATOM      4  C3  UNL d   1      -5.607  -5.325  -5.972  0.00  0.00     0.006 A 
ATOM      5  C4  UNL d   1      -5.631  -3.930  -5.999  0.00  0.00    -0.005 A 
ATOM      6  C5  UNL d   1      -4.486  -3.198  -5.668  0.00  0.00    -0.074 A 
ATOM      7  C6  UNL d   1      -4.498  -1.698  -5.682  0.00  0.00     0.077 C 
ATOM      8  C7  UNL d   1      -3.320  -3.883  -5.303  0.00  0.00    -0.001 A 
ENDROOT
TORSDOF 0
ENDMDL
