MODEL 1
REMARK minimizedAffinity 6.50620079
REMARK minimizedRMSD -1
REMARK  0 active torsions:
REMARK  status: ('A' for Active; 'I' for Inactive)
ROOT
ATOM      1  C   UNL d   1       0.744   6.000  -2.719  0.00  0.00     0.077 C 
ATOM      2  C1  UNL d   1       0.162   5.274  -1.543  0.00  0.00    -0.074 A 
ATOM      3  C2  UNL d   1       0.515   3.949  -1.269  0.00  0.00    -0.005 A 
ATOM      4  C3  UNL d   1      -0.028   3.290  -0.166  0.00  0.00     0.006 A 
ATOM      5  C4  UNL d   1      -0.928   3.949   0.673  0.00  0.00    -0.005 A 
ATOM      6  C5  UNL d   1      -1.292   5.274   0.416  0.00  0.00    -0.074 A 
ATOM      7  C6  UNL d   1      -2.250   6.000   1.313  0.00  0.00     0.077 C 
ATOM      8  C7  UNL d   1      -0.737   5.932  -0.691  0.00  0.00    -0.001 A 
ENDROOT
TORSDOF 0
ENDMDL
