MODEL 1
REMARK minimizedAffinity 4.28424788
REMARK minimizedRMSD -1
REMARK  0 active torsions:
REMARK  status: ('A' for Active; 'I' for Inactive)
ROOT
ATOM      1  C   UNL d   1      -2.429   5.671   1.244  0.00  0.00     0.077 C 
ATOM      2  C1  UNL d   1      -1.591   4.501   0.823  0.00  0.00    -0.074 A 
ATOM      3  C2  UNL d   1      -1.298   4.276  -0.526  0.00  0.00    -0.005 A 
ATOM      4  C3  UNL d   1      -0.509   3.189  -0.902  0.00  0.00     0.006 A 
ATOM      5  C4  UNL d   1      -0.006   2.317   0.065  0.00  0.00    -0.005 A 
ATOM      6  C5  UNL d   1      -0.288   2.527   1.418  0.00  0.00    -0.074 A 
ATOM      7  C6  UNL d   1       0.253   1.606   2.471  0.00  0.00     0.077 C 
ATOM      8  C7  UNL d   1      -1.076   3.625   1.789  0.00  0.00    -0.001 A 
ENDROOT
TORSDOF 0
ENDMDL
