MODEL 1
REMARK minimizedAffinity 9.19186592
REMARK minimizedRMSD -1
REMARK  0 active torsions:
REMARK  status: ('A' for Active; 'I' for Inactive)
ROOT
ATOM      1  C   UNL d   1      -3.781   6.000   1.407  0.00  0.00     0.077 C 
ATOM      2  C1  UNL d   1      -3.070   5.750   0.110  0.00  0.00    -0.074 A 
ATOM      3  C2  UNL d   1      -1.700   6.000  -0.019  0.00  0.00    -0.005 A 
ATOM      4  C3  UNL d   1      -1.051   5.754  -1.228  0.00  0.00     0.006 A 
ATOM      5  C4  UNL d   1      -1.764   5.257  -2.320  0.00  0.00    -0.005 A 
ATOM      6  C5  UNL d   1      -3.134   5.001  -2.210  0.00  0.00    -0.074 A 
ATOM      7  C6  UNL d   1      -3.913   4.458  -3.371  0.00  0.00     0.077 C 
ATOM      8  C7  UNL d   1      -3.778   5.244  -0.989  0.00  0.00    -0.001 A 
ENDROOT
TORSDOF 0
ENDMDL
